REMARK  Name = 
REMARK  6 active torsions:
REMARK  status: ('A' for Active; 'I' for Inactive)
REMARK    1  A    between atoms: C_2  and  C_26
REMARK    2  A    between atoms: N_3  and  C_4
REMARK    3  A    between atoms: C_4  and  C_5
REMARK    4  A    between atoms: C_4  and  C_20
REMARK    5  A    between atoms: C_5  and  N_6
REMARK    6  A    between atoms: C_7  and  C_9
REMARK                            x       y       z     vdW  Elec       q    Type
REMARK                         _______ _______ _______ _____ _____    ______ ____
ROOT
ATOM      1  C   UNL     1       2.312   0.628  -2.410  0.00  0.00    +0.000 C 
ENDROOT
BRANCH   1   2
ATOM      2  C   UNL     1       3.323   0.914  -3.511  0.00  0.00    +0.000 A 
ATOM      3  C   UNL     1       3.293   0.163  -4.698  0.00  0.00    +0.000 A 
ATOM      4  C   UNL     1       4.257   0.357  -5.690  0.00  0.00    +0.000 A 
ATOM      5  C   UNL     1       5.254   1.314  -5.519  0.00  0.00    +0.000 A 
ATOM      6  C   UNL     1       5.278   2.091  -4.365  0.00  0.00    +0.000 A 
ATOM      7  C   UNL     1       4.322   1.892  -3.369  0.00  0.00    +0.000 A 
ENDBRANCH   1   2
BRANCH   1  10
ATOM      8  O   UNL     1       1.384  -1.196  -0.508  0.00  0.00    +0.000 OA
ATOM      9  C   UNL     1       2.457  -0.642  -0.294  0.00  0.00    +0.000 C 
ATOM     10  N   UNL     1       2.998   0.273  -1.169  0.00  0.00    +0.000 N 
ATOM     11  H   UNL     1       3.915   0.652  -0.992  0.00  0.00    +0.000 HD
BRANCH   9  12
ATOM     12  C   UNL     1       3.240  -0.902   0.916  0.00  0.00    +0.000 A 
ATOM     13  C   UNL     1       2.877  -1.840   1.873  0.00  0.00    +0.000 A 
ATOM     14  N   UNL     1       3.800  -1.834   2.882  0.00  0.00    +0.000 N 
ATOM     15  C   UNL     1       4.757  -0.898   2.604  0.00  0.00    +0.000 A 
ATOM     16  C   UNL     1       4.450  -0.315   1.397  0.00  0.00    +0.000 A 
ATOM     17  H   UNL     1       3.773  -2.426   3.704  0.00  0.00    +0.000 HD
ENDBRANCH   9  12
ENDBRANCH   1  10
BRANCH   1  18
ATOM     18  C   UNL     1       1.278   1.762  -2.189  0.00  0.00    +0.000 C 
BRANCH  18  19
ATOM     19  N   UNL     1       1.864   3.005  -1.698  0.00  0.00    +0.000 N 
ATOM     20  C   UNL     1       1.737   4.183  -2.406  0.00  0.00    +0.000 C 
ATOM     21  O   UNL     1       1.068   4.276  -3.427  0.00  0.00    +0.000 OA
ATOM     22  H   UNL     1       2.435   2.946  -0.868  0.00  0.00    +0.000 HD
BRANCH  20  23
ATOM     23  C   UNL     1       2.485   5.356  -1.869  0.00  0.00    +0.000 A 
ATOM     24  C   UNL     1       2.593   5.493  -0.482  0.00  0.00    +0.000 A 
ATOM     25  C   UNL     1       3.309   6.562   0.005  0.00  0.00    +0.000 A 
ATOM     26  N   UNL     1       3.911   7.474  -0.780  0.00  0.00    +0.000 NA
ATOM     27  C   UNL     1       3.803   7.354  -2.113  0.00  0.00    +0.000 A 
ATOM     28  C   UNL     1       4.451   8.298  -2.901  0.00  0.00    +0.000 A 
ATOM     29  C   UNL     1       4.417   8.248  -4.295  0.00  0.00    +0.000 A 
ATOM     30  C   UNL     1       3.701   7.242  -4.913  0.00  0.00    +0.000 A 
ATOM     31  F   UNL     1       3.653   7.184  -6.249  0.00  0.00    +0.000 F 
ATOM     32  C   UNL     1       3.039   6.284  -4.157  0.00  0.00    +0.000 A 
ATOM     33  C   UNL     1       3.084   6.310  -2.737  0.00  0.00    +0.000 A 
ENDBRANCH  20  23
ENDBRANCH  18  19
ENDBRANCH   1  18
TORSDOF 6
