REMARK  Name = 
REMARK  6 active torsions:
REMARK  status: ('A' for Active; 'I' for Inactive)
REMARK    1  A    between atoms: C_2  and  C_19
REMARK    2  A    between atoms: N_3  and  C_4
REMARK    3  A    between atoms: C_4  and  C_5
REMARK    4  A    between atoms: C_7  and  O_8
REMARK    5  A    between atoms: O_8  and  C_9
REMARK    6  A    between atoms: C_21  and  N_22
REMARK                            x       y       z     vdW  Elec       q    Type
REMARK                         _______ _______ _______ _____ _____    ______ ____
ROOT
ATOM      1  O   UNL     1       2.932   1.437   2.135  0.00  0.00    +0.000 OA
ATOM      2  C   UNL     1       3.281   0.767   1.168  0.00  0.00    +0.000 C 
ATOM      3  N   UNL     1       3.029   1.132  -0.134  0.00  0.00    +0.000 N 
ATOM      4  H   UNL     1       3.423   0.560  -0.874  0.00  0.00    +0.000 HD
ENDROOT
BRANCH   2   5
ATOM      5  C   UNL     1       4.018  -0.526   1.355  0.00  0.00    +0.000 A 
ATOM      6  C   UNL     1       4.271  -0.965   2.651  0.00  0.00    +0.000 A 
ATOM      7  C   UNL     1       4.952  -2.171   2.828  0.00  0.00    +0.000 A 
ATOM      8  C   UNL     1       5.357  -2.883   1.696  0.00  0.00    +0.000 A 
ATOM      9  C   UNL     1       5.051  -2.366   0.442  0.00  0.00    +0.000 A 
ATOM     10  N   UNL     1       4.389  -1.205   0.238  0.00  0.00    +0.000 NA
BRANCH   7  11
ATOM     11  N   UNL     1       5.214  -2.659   4.141  0.00  0.00    +0.000 N 
ATOM     12  C   UNL     1       5.918  -3.793   4.490  0.00  0.00    +0.000 A 
ATOM     13  C   UNL     1       5.895  -3.854   5.864  0.00  0.00    +0.000 A 
ATOM     14  N   UNL     1       5.199  -2.803   6.382  0.00  0.00    +0.000 NA
ATOM     15  C   UNL     1       4.807  -2.106   5.338  0.00  0.00    +0.000 A 
ENDBRANCH   7  11
ENDBRANCH   2   5
BRANCH   3  16
ATOM     16  C   UNL     1       2.338   2.364  -0.465  0.00  0.00    +0.000 C 
BRANCH  16  17
ATOM     17  C   UNL     1       3.275   3.543  -0.614  0.00  0.00    +0.000 A 
ATOM     18  C   UNL     1       3.644   4.285   0.506  0.00  0.00    +0.000 A 
ATOM     19  C   UNL     1       4.582   5.304   0.360  0.00  0.00    +0.000 A 
ATOM     20  C   UNL     1       5.045   5.625  -0.909  0.00  0.00    +0.000 A 
ATOM     21  C   UNL     1       4.605   4.860  -1.974  0.00  0.00    +0.000 A 
ATOM     22  N   UNL     1       3.754   3.817  -1.854  0.00  0.00    +0.000 NA
BRANCH  19  23
ATOM     23  O   UNL     1       5.062   6.075   1.395  0.00  0.00    +0.000 OA
BRANCH  23  24
ATOM     24  C   UNL     1       5.219   5.531   2.651  0.00  0.00    +0.000 A 
ATOM     25  C   UNL     1       5.543   4.194   2.897  0.00  0.00    +0.000 A 
ATOM     26  C   UNL     1       5.626   3.744   4.206  0.00  0.00    +0.000 A 
ATOM     27  F   UNL     1       5.863   2.445   4.440  0.00  0.00    +0.000 F 
ATOM     28  C   UNL     1       5.455   4.612   5.280  0.00  0.00    +0.000 A 
ATOM     29  C   UNL     1       5.204   5.961   5.038  0.00  0.00    +0.000 A 
ATOM     30  C   UNL     1       5.087   6.418   3.723  0.00  0.00    +0.000 A 
ENDBRANCH  23  24
ENDBRANCH  19  23
ENDBRANCH  16  17
ENDBRANCH   3  16
TORSDOF 6
