REMARK  Name = 
REMARK  5 active torsions:
REMARK  status: ('A' for Active; 'I' for Inactive)
REMARK    1  A    between atoms: C_1  and  C_2
REMARK    2  A    between atoms: C_3  and  C_4
REMARK    3  A    between atoms: N_6  and  C_7
REMARK    4  A    between atoms: C_7  and  C_8
REMARK    5  A    between atoms: C_11  and  C_12
REMARK                            x       y       z     vdW  Elec       q    Type
REMARK                         _______ _______ _______ _____ _____    ______ ____
ROOT
ATOM      1  C   UNL     1       2.288  -2.466   0.057  0.00  0.00    +0.000 C 
ATOM      2  O   UNL     1       1.074  -2.590   0.151  0.00  0.00    +0.000 OA
ATOM      3  N   UNL     1       3.123  -3.551  -0.082  0.00  0.00    +0.000 N 
ATOM      4  H   UNL     1       4.128  -3.422  -0.103  0.00  0.00    +0.000 HD
ENDROOT
BRANCH   1   7
ATOM      5  C   UNL     1       0.951   0.217  -0.596  0.00  0.00    +0.000 C 
ATOM      6  C   UNL     1       2.394   0.038  -0.193  0.00  0.00    +0.000 A 
ATOM      7  C   UNL     1       3.002  -1.136   0.087  0.00  0.00    +0.000 A 
ATOM      8  O   UNL     1       4.380  -1.216   0.417  0.00  0.00    +0.000 OA
ATOM      9  C   UNL     1       5.192  -0.129   0.501  0.00  0.00    +0.000 A 
ATOM     10  O   UNL     1       6.370  -0.227   0.824  0.00  0.00    +0.000 OA
ATOM     11  C   UNL     1       4.588   1.174   0.162  0.00  0.00    +0.000 A 
ATOM     12  C   UNL     1       5.411   2.315   0.150  0.00  0.00    +0.000 A 
ATOM     13  C   UNL     1       4.883   3.561  -0.181  0.00  0.00    +0.000 A 
ATOM     14  C   UNL     1       3.531   3.673  -0.479  0.00  0.00    +0.000 A 
ATOM     15  C   UNL     1       2.713   2.539  -0.459  0.00  0.00    +0.000 A 
ATOM     16  C   UNL     1       3.229   1.264  -0.156  0.00  0.00    +0.000 A 
ENDBRANCH   1   7
BRANCH   3  17
ATOM     17  C   UNL     1       2.558  -4.873  -0.211  0.00  0.00    +0.000 C 
BRANCH  17  18
ATOM     18  C   UNL     1       3.610  -5.933  -0.390  0.00  0.00    +0.000 A 
ATOM     19  C   UNL     1       4.128  -6.613   0.721  0.00  0.00    +0.000 A 
ATOM     20  C   UNL     1       5.115  -7.587   0.557  0.00  0.00    +0.000 A 
ATOM     21  C   UNL     1       5.603  -7.891  -0.718  0.00  0.00    +0.000 A 
ATOM     22  C   UNL     1       5.086  -7.220  -1.831  0.00  0.00    +0.000 A 
ATOM     23  C   UNL     1       4.098  -6.245  -1.667  0.00  0.00    +0.000 A 
BRANCH  21  24
ATOM     24  C   UNL     1       6.689  -8.871  -0.875  0.00  0.00    +0.000 A 
ATOM     25  C   UNL     1       6.383 -10.172  -1.030  0.00  0.00    +0.000 A 
ATOM     26  N   UNL     1       7.373 -11.117  -1.150  0.00  0.00    +0.000 N 
ATOM     27  C   UNL     1       8.718 -10.830  -1.118  0.00  0.00    +0.000 A 
ATOM     28  O   UNL     1       9.583 -11.691  -1.207  0.00  0.00    +0.000 OA
ATOM     29  C   UNL     1       9.069  -9.396  -0.968  0.00  0.00    +0.000 A 
ATOM     30  C   UNL     1       8.092  -8.485  -0.855  0.00  0.00    +0.000 A 
ATOM     31  H   UNL     1       7.136 -12.095  -1.256  0.00  0.00    +0.000 HD
ENDBRANCH  21  24
ENDBRANCH  17  18
ENDBRANCH   3  17
TORSDOF 4
