REMARK  Name = 
REMARK  4 active torsions:
REMARK  status: ('A' for Active; 'I' for Inactive)
REMARK    1  A    between atoms: C_2  and  C_15
REMARK    2  A    between atoms: N_3  and  C_4
REMARK    3  A    between atoms: C_17  and  C_18
REMARK    4  A    between atoms: C_23  and  C_24
REMARK                            x       y       z     vdW  Elec       q    Type
REMARK                         _______ _______ _______ _____ _____    ______ ____
ROOT
ATOM      1  O   UNL     1       0.908  -0.071   0.251  0.00  0.00    +0.000 OA
ATOM      2  C   UNL     1       2.133  -0.050   0.153  0.00  0.00    +0.000 C 
ATOM      3  N   UNL     1       2.820  -0.705  -0.854  0.00  0.00    +0.000 N 
ATOM      4  H   UNL     1       3.825  -0.839  -0.756  0.00  0.00    +0.000 HD
ENDROOT
BRANCH   3   5
ATOM      5  C   UNL     1       2.201  -1.395  -1.887  0.00  0.00    +0.000 A 
ATOM      6  C   UNL     1       0.956  -1.185  -2.321  0.00  0.00    +0.000 A 
ATOM      7  N   UNL     1       0.341  -1.830  -3.356  0.00  0.00    +0.000 NA
ATOM      8  C   UNL     1       1.035  -2.722  -3.983  0.00  0.00    +0.000 A 
ATOM      9  C   UNL     1       0.404  -3.401  -5.145  0.00  0.00    +0.000 A 
ATOM     10  C   UNL     1       1.088  -4.329  -5.822  0.00  0.00    +0.000 A 
ATOM     11  C   UNL     1       2.420  -4.689  -5.415  0.00  0.00    +0.000 A 
ATOM     12  C   UNL     1       2.995  -4.075  -4.373  0.00  0.00    +0.000 A 
ATOM     13  N   UNL     1       2.336  -3.084  -3.654  0.00  0.00    +0.000 N 
ATOM     14  C   UNL     1       2.974  -2.477  -2.575  0.00  0.00    +0.000 A 
ATOM     15  O   UNL     1       4.089  -2.779  -2.143  0.00  0.00    +0.000 OA
ENDBRANCH   3   5
BRANCH   2  16
ATOM     16  C   UNL     1       2.910   0.617   1.157  0.00  0.00    +0.000 A 
ATOM     17  C   UNL     1       2.472   1.162   2.338  0.00  0.00    +0.000 A 
ATOM     18  C   UNL     1       3.611   1.752   2.918  0.00  0.00    +0.000 A 
ATOM     19  N   UNL     1       4.696   1.494   2.170  0.00  0.00    +0.000 NA
ATOM     20  O   UNL     1       4.244   0.827   1.038  0.00  0.00    +0.000 OA
BRANCH  18  21
ATOM     21  C   UNL     1       3.665   2.476   4.186  0.00  0.00    +0.000 A 
ATOM     22  C   UNL     1       2.836   2.017   5.236  0.00  0.00    +0.000 A 
ATOM     23  C   UNL     1       2.879   2.593   6.505  0.00  0.00    +0.000 A 
ATOM     24  C   UNL     1       3.771   3.624   6.756  0.00  0.00    +0.000 A 
ATOM     25  C   UNL     1       4.565   4.119   5.721  0.00  0.00    +0.000 A 
ATOM     26  C   UNL     1       4.494   3.589   4.410  0.00  0.00    +0.000 A 
BRANCH  26  27
ATOM     27  C   UNL     1       5.272   4.325   3.339  0.00  0.00    +0.000 C 
ATOM     28  F   UNL     1       5.049   3.970   2.048  0.00  0.00    +0.000 F 
ATOM     29  F   UNL     1       4.978   5.663   3.365  0.00  0.00    +0.000 F 
ATOM     30  F   UNL     1       6.619   4.255   3.532  0.00  0.00    +0.000 F 
ENDBRANCH  26  27
ENDBRANCH  18  21
ENDBRANCH   2  16
TORSDOF 4
