REMARK  Name = 
REMARK  5 active torsions:
REMARK  status: ('A' for Active; 'I' for Inactive)
REMARK    1  A    between atoms: C_1  and  N_2
REMARK    2  A    between atoms: N_7  and  C_8
REMARK    3  A    between atoms: C_8  and  C_9
REMARK    4  A    between atoms: N_11  and  C_12
REMARK    5  A    between atoms: C_17  and  C_18
REMARK                            x       y       z     vdW  Elec       q    Type
REMARK                         _______ _______ _______ _____ _____    ______ ____
ROOT
ATOM      1  C   UNL     1       3.921  -6.176  -0.789  0.00  0.00    +0.000 A 
ATOM      2  C   UNL     1       3.906  -7.357  -0.030  0.00  0.00    +0.000 A 
ATOM      3  C   UNL     1       2.961  -8.348  -0.282  0.00  0.00    +0.000 A 
ATOM      4  C   UNL     1       2.074  -8.196  -1.338  0.00  0.00    +0.000 A 
ATOM      5  C   UNL     1       2.131  -7.050  -2.136  0.00  0.00    +0.000 A 
ATOM      6  C   UNL     1       3.021  -5.984  -1.862  0.00  0.00    +0.000 A 
ENDROOT
BRANCH   6   7
ATOM      7  C   UNL     1       2.897  -4.714  -2.633  0.00  0.00    +0.000 A 
ATOM      8  C   UNL     1       1.627  -4.273  -3.050  0.00  0.00    +0.000 A 
ATOM      9  C   UNL     1       1.456  -3.103  -3.792  0.00  0.00    +0.000 A 
ATOM     10  C   UNL     1       2.556  -2.317  -4.132  0.00  0.00    +0.000 A 
ATOM     11  C   UNL     1       2.406  -1.187  -4.949  0.00  0.00    +0.000 A 
ATOM     12  C   UNL     1       3.510  -0.411  -5.290  0.00  0.00    +0.000 A 
ATOM     13  C   UNL     1       4.760  -0.708  -4.755  0.00  0.00    +0.000 A 
ATOM     14  C   UNL     1       4.922  -1.829  -3.939  0.00  0.00    +0.000 A 
ATOM     15  C   UNL     1       3.836  -2.679  -3.665  0.00  0.00    +0.000 A 
ATOM     16  C   UNL     1       3.990  -3.888  -2.956  0.00  0.00    +0.000 A 
ENDBRANCH   6   7
BRANCH   1  19
ATOM     17  C   UNL     1       4.571  -4.453   0.788  0.00  0.00    +0.000 C 
ATOM     18  O   UNL     1       3.551  -4.582   1.464  0.00  0.00    +0.000 OA
ATOM     19  N   UNL     1       4.811  -5.157  -0.387  0.00  0.00    +0.000 N 
ATOM     20  H   UNL     1       5.779  -5.300  -0.651  0.00  0.00    +0.000 HD
BRANCH  17  21
ATOM     21  C   UNL     1       5.728  -3.535   1.214  0.00  0.00    +0.000 C 
BRANCH  21  28
ATOM     22  C   UNL     1       6.030   1.332   0.903  0.00  0.00    +0.000 C 
ATOM     23  N   UNL     1       5.507   0.155   1.561  0.00  0.00    +0.000 N 
ATOM     24  C   UNL     1       4.756   0.327   2.710  0.00  0.00    +0.000 A 
ATOM     25  O   UNL     1       4.530   1.405   3.258  0.00  0.00    +0.000 OA
ATOM     26  C   UNL     1       4.220  -0.898   3.324  0.00  0.00    +0.000 A 
ATOM     27  C   UNL     1       4.532  -2.081   2.805  0.00  0.00    +0.000 A 
ATOM     28  N   UNL     1       5.345  -2.202   1.696  0.00  0.00    +0.000 N 
ATOM     29  C   UNL     1       5.867  -1.083   1.043  0.00  0.00    +0.000 A 
ATOM     30  O   UNL     1       6.633  -1.189   0.078  0.00  0.00    +0.000 OA
ENDBRANCH  21  28
ENDBRANCH  17  21
ENDBRANCH   1  19
TORSDOF 4
