REMARK  Name = 
REMARK  6 active torsions:
REMARK  status: ('A' for Active; 'I' for Inactive)
REMARK    1  A    between atoms: C_1  and  N_2
REMARK    2  A    between atoms: C_7  and  N_8
REMARK    3  A    between atoms: C_9  and  C_11
REMARK    4  A    between atoms: C_14  and  C_15
REMARK    5  A    between atoms: C_15  and  O_16
REMARK    6  A    between atoms: O_16  and  C_17
REMARK                            x       y       z     vdW  Elec       q    Type
REMARK                         _______ _______ _______ _____ _____    ______ ____
ROOT
ATOM      1  N   UNL     1       4.511  -0.278  -0.180  0.00  0.00    +0.000 N 
ATOM      2  C   UNL     1       5.541   0.650  -0.150  0.00  0.00    +0.000 C 
ATOM      3  O   UNL     1       5.416   1.855   0.051  0.00  0.00    +0.000 OA
ATOM      4  H   UNL     1       4.805  -1.250  -0.215  0.00  0.00    +0.000 HD
ENDROOT
BRANCH   1  11
ATOM      5  C   UNL     1      -2.771   2.410   1.103  0.00  0.00    +0.000 C 
ATOM      6  N   UNL     1      -1.413   2.093   0.697  0.00  0.00    +0.000 N 
ATOM      7  C   UNL     1      -0.571   3.101   0.273  0.00  0.00    +0.000 A 
ATOM      8  C   UNL     1       0.708   2.877  -0.038  0.00  0.00    +0.000 A 
ATOM      9  C   UNL     1       1.252   1.529   0.090  0.00  0.00    +0.000 A 
ATOM     10  C   UNL     1       2.608   1.286  -0.145  0.00  0.00    +0.000 A 
ATOM     11  C   UNL     1       3.139  -0.002  -0.019  0.00  0.00    +0.000 A 
ATOM     12  C   UNL     1       2.283  -1.066   0.289  0.00  0.00    +0.000 A 
ATOM     13  C   UNL     1       0.927  -0.829   0.543  0.00  0.00    +0.000 A 
ATOM     14  C   UNL     1       0.419   0.472   0.461  0.00  0.00    +0.000 A 
ATOM     15  C   UNL     1      -1.002   0.757   0.801  0.00  0.00    +0.000 A 
ATOM     16  O   UNL     1      -1.736  -0.157   1.169  0.00  0.00    +0.000 OA
ENDBRANCH   1  11
BRANCH   2  17
ATOM     17  C   UNL     1       6.872   0.067  -0.322  0.00  0.00    +0.000 A 
ATOM     18  N   UNL     1       7.068  -1.239  -0.574  0.00  0.00    +0.000 NA
ATOM     19  O   UNL     1       8.443  -1.402  -0.655  0.00  0.00    +0.000 OA
ATOM     20  C   UNL     1       9.058  -0.208  -0.435  0.00  0.00    +0.000 A 
ATOM     21  C   UNL     1       8.106   0.756  -0.230  0.00  0.00    +0.000 A 
BRANCH  20  22
ATOM     22  C   UNL     1      10.537  -0.206  -0.420  0.00  0.00    +0.000 C 
BRANCH  22  23
ATOM     23  O   UNL     1      10.969   0.088  -1.745  0.00  0.00    +0.000 OA
BRANCH  23  24
ATOM     24  C   UNL     1      12.322   0.058  -1.959  0.00  0.00    +0.000 A 
ATOM     25  C   UNL     1      13.301  -0.117  -0.976  0.00  0.00    +0.000 A 
ATOM     26  C   UNL     1      14.653  -0.135  -1.328  0.00  0.00    +0.000 A 
ATOM     27  C   UNL     1      15.021   0.027  -2.658  0.00  0.00    +0.000 A 
ATOM     28  F   UNL     1      16.318   0.004  -2.991  0.00  0.00    +0.000 F 
ATOM     29  C   UNL     1      14.062   0.214  -3.645  0.00  0.00    +0.000 A 
ATOM     30  C   UNL     1      12.710   0.232  -3.293  0.00  0.00    +0.000 A 
ENDBRANCH  23  24
ENDBRANCH  22  23
ENDBRANCH  20  22
ENDBRANCH   2  17
TORSDOF 5
