REMARK  Name = 
REMARK  5 active torsions:
REMARK  status: ('A' for Active; 'I' for Inactive)
REMARK    1  A    between atoms: C_1  and  N_2
REMARK    2  A    between atoms: C_7  and  N_8
REMARK    3  A    between atoms: C_9  and  C_11
REMARK    4  A    between atoms: C_14  and  O_15
REMARK    5  A    between atoms: O_15  and  C_16
REMARK                            x       y       z     vdW  Elec       q    Type
REMARK                         _______ _______ _______ _____ _____    ______ ____
ROOT
ATOM      1  N   UNL     1       4.514  -0.303  -0.144  0.00  0.00    +0.000 N 
ATOM      2  C   UNL     1       5.512   0.658  -0.089  0.00  0.00    +0.000 C 
ATOM      3  O   UNL     1       5.347   1.846   0.179  0.00  0.00    +0.000 OA
ATOM      4  H   UNL     1       4.794  -1.274  -0.131  0.00  0.00    +0.000 HD
ENDROOT
BRANCH   1  11
ATOM      5  C   UNL     1      -2.792   2.346   1.145  0.00  0.00    +0.000 C 
ATOM      6  N   UNL     1      -1.432   2.035   0.740  0.00  0.00    +0.000 N 
ATOM      7  C   UNL     1      -0.595   3.050   0.318  0.00  0.00    +0.000 A 
ATOM      8  C   UNL     1       0.685   2.831   0.003  0.00  0.00    +0.000 A 
ATOM      9  C   UNL     1       1.233   1.483   0.122  0.00  0.00    +0.000 A 
ATOM     10  C   UNL     1       2.589   1.244  -0.121  0.00  0.00    +0.000 A 
ATOM     11  C   UNL     1       3.133  -0.040   0.016  0.00  0.00    +0.000 A 
ATOM     12  C   UNL     1       2.283  -1.106   0.332  0.00  0.00    +0.000 A 
ATOM     13  C   UNL     1       0.925  -0.875   0.588  0.00  0.00    +0.000 A 
ATOM     14  C   UNL     1       0.408   0.423   0.501  0.00  0.00    +0.000 A 
ATOM     15  C   UNL     1      -1.014   0.701   0.842  0.00  0.00    +0.000 A 
ATOM     16  O   UNL     1      -1.744  -0.217   1.207  0.00  0.00    +0.000 OA
ENDBRANCH   1  11
BRANCH   2  17
ATOM     17  C   UNL     1       6.910   0.201  -0.322  0.00  0.00    +0.000 A 
ATOM     18  C   UNL     1       7.221  -0.906  -1.118  0.00  0.00    +0.000 A 
ATOM     19  C   UNL     1       8.560  -1.221  -1.372  0.00  0.00    +0.000 A 
ATOM     20  C   UNL     1       9.587  -0.410  -0.872  0.00  0.00    +0.000 A 
ATOM     21  C   UNL     1       9.281   0.667  -0.045  0.00  0.00    +0.000 A 
ATOM     22  C   UNL     1       7.946   0.976   0.225  0.00  0.00    +0.000 A 
BRANCH  20  23
ATOM     23  O   UNL     1      10.922  -0.650  -1.103  0.00  0.00    +0.000 OA
BRANCH  23  24
ATOM     24  C   UNL     1      11.307  -1.014  -2.389  0.00  0.00    +0.000 A 
ATOM     25  C   UNL     1      12.511  -1.692  -2.499  0.00  0.00    +0.000 A 
ATOM     26  C   UNL     1      12.923  -2.100  -3.764  0.00  0.00    +0.000 A 
ATOM     27  C   UNL     1      12.128  -1.809  -4.867  0.00  0.00    +0.000 A 
ATOM     28  C   UNL     1      10.954  -1.102  -4.662  0.00  0.00    +0.000 A 
ATOM     29  N   UNL     1      10.531  -0.690  -3.450  0.00  0.00    +0.000 NA
ENDBRANCH  23  24
ENDBRANCH  20  23
ENDBRANCH   2  17
TORSDOF 4
