REMARK  Name = 
REMARK  12 active torsions:
REMARK  status: ('A' for Active; 'I' for Inactive)
REMARK    1  A    between atoms: C_1  and  O_2
REMARK    2  A    between atoms: O_2  and  C_3
REMARK    3  A    between atoms: C_8  and  O_9
REMARK    4  A    between atoms: O_9  and  C_10
REMARK    5  A    between atoms: C_12  and  C_13
REMARK    6  A    between atoms: C_13  and  O_14
REMARK    7  A    between atoms: O_14  and  C_15
REMARK    8  A    between atoms: C_15  and  C_17
REMARK    9  A    between atoms: C_17  and  O_18
REMARK   10  A    between atoms: O_18  and  C_19
REMARK   11  A    between atoms: C_23  and  O_24
REMARK   12  A    between atoms: O_24  and  C_25
REMARK                            x       y       z     vdW  Elec       q    Type
REMARK                         _______ _______ _______ _____ _____    ______ ____
ROOT
ATOM      1  C   UNL     1       8.894  -5.028   4.986  0.00  0.00    +0.000 C 
ATOM      2  O   UNL     1       9.696  -4.275   5.528  0.00  0.00    +0.000 OA
ENDROOT
BRANCH   1   3
ATOM      3  C   UNL     1       8.884  -6.536   5.141  0.00  0.00    +0.000 C 
BRANCH   3   4
ATOM      4  O   UNL     1       9.641  -7.138   4.102  0.00  0.00    +0.000 OA
BRANCH   4   5
ATOM      5  C   UNL     1       9.771  -8.501   4.150  0.00  0.00    +0.000 A 
ATOM      6  C   UNL     1       9.225  -9.334   5.130  0.00  0.00    +0.000 A 
ATOM      7  C   UNL     1       9.455 -10.710   5.091  0.00  0.00    +0.000 A 
ATOM      8  C   UNL     1      10.218 -11.263   4.066  0.00  0.00    +0.000 A 
ATOM      9  C   UNL     1      10.715 -10.448   3.046  0.00  0.00    +0.000 A 
ATOM     10  C   UNL     1      10.519  -9.066   3.110  0.00  0.00    +0.000 A 
BRANCH   9  11
ATOM     11  O   UNL     1      11.467 -10.927   1.995  0.00  0.00    +0.000 OA
BRANCH  11  12
ATOM     12  C   UNL     1      11.104 -12.146   1.427  0.00  0.00    +0.000 A 
ATOM     13  C   UNL     1      12.102 -12.840   0.757  0.00  0.00    +0.000 A 
ATOM     14  C   UNL     1      11.784 -14.074   0.194  0.00  0.00    +0.000 A 
ATOM     15  C   UNL     1      10.488 -14.565   0.314  0.00  0.00    +0.000 A 
ATOM     16  C   UNL     1       9.553 -13.790   0.979  0.00  0.00    +0.000 A 
ATOM     17  N   UNL     1       9.828 -12.588   1.525  0.00  0.00    +0.000 NA
ENDBRANCH  11  12
ENDBRANCH   9  11
ENDBRANCH   4   5
ENDBRANCH   3   4
ENDBRANCH   1   3
BRANCH   1  18
ATOM     18  O   UNL     1       7.886  -4.623   4.166  0.00  0.00    +0.000 OA
BRANCH  18  19
ATOM     19  C   UNL     1       7.797  -3.209   3.954  0.00  0.00    +0.000 C 
BRANCH  19  27
ATOM     20  C   UNL     1      11.335  -1.406  -0.533  0.00  0.00    +0.000 A 
ATOM     21  C   UNL     1      10.070  -1.959  -0.246  0.00  0.00    +0.000 A 
ATOM     22  C   UNL     1       9.748  -2.281   1.076  0.00  0.00    +0.000 A 
ATOM     23  C   UNL     1      10.714  -2.144   2.059  0.00  0.00    +0.000 A 
ATOM     24  C   UNL     1      12.011  -1.710   1.793  0.00  0.00    +0.000 A 
ATOM     25  C   UNL     1      12.317  -1.326   0.474  0.00  0.00    +0.000 A 
ATOM     26  N   UNL     1      10.082  -2.521   3.212  0.00  0.00    +0.000 N 
ATOM     27  C   UNL     1       8.776  -2.822   2.906  0.00  0.00    +0.000 A 
ATOM     28  N   UNL     1       8.559  -2.713   1.609  0.00  0.00    +0.000 NA
ATOM     29  H   UNL     1      10.491  -2.573   4.137  0.00  0.00    +0.000 HD
BRANCH  20  31
ATOM     30  C   UNL     1      10.541  -0.302  -2.471  0.00  0.00    +0.000 C 
ATOM     31  O   UNL     1      11.618  -0.959  -1.799  0.00  0.00    +0.000 OA
ENDBRANCH  20  31
BRANCH  25  32
ATOM     32  O   UNL     1      13.610  -0.876   0.382  0.00  0.00    +0.000 OA
ATOM     33  C   UNL     1      14.112  -0.447  -0.872  0.00  0.00    +0.000 C 
ENDBRANCH  25  32
ENDBRANCH  19  27
ENDBRANCH  18  19
ENDBRANCH   1  18
TORSDOF 10
