REMARK  Name = 
REMARK  4 active torsions:
REMARK  status: ('A' for Active; 'I' for Inactive)
REMARK    1  A    between atoms: C_2  and  C_18
REMARK    2  A    between atoms: N_6  and  C_7
REMARK    3  A    between atoms: C_11  and  C_12
REMARK    4  A    between atoms: C_22  and  C_23
REMARK                            x       y       z     vdW  Elec       q    Type
REMARK                         _______ _______ _______ _____ _____    ______ ____
ROOT
ATOM      1  O   UNL     1       1.077   0.411   0.321  0.00  0.00    +0.000 OA
ATOM      2  C   UNL     1       2.254   0.195   0.058  0.00  0.00    +0.000 C 
ATOM      3  N   UNL     1       2.902   0.499  -1.118  0.00  0.00    +0.000 N 
ATOM      4  C   UNL     1       2.315   1.212  -2.135  0.00  0.00    +0.000 A 
ATOM      5  N   UNL     1       2.711   1.019  -3.392  0.00  0.00    +0.000 NA
ATOM      6  N   UNL     1       1.878   1.793  -4.138  0.00  0.00    +0.000 N 
ATOM      7  C   UNL     1       1.101   2.602  -3.339  0.00  0.00    +0.000 A 
ATOM      8  C   UNL     1       1.324   2.205  -2.043  0.00  0.00    +0.000 A 
ATOM      9  H   UNL     1       3.735  -0.004  -1.392  0.00  0.00    +0.000 HD
ENDROOT
BRANCH   6  10
ATOM     10  C   UNL     1       1.856   1.699  -5.557  0.00  0.00    +0.000 A 
ATOM     11  C   UNL     1       1.151   2.628  -6.324  0.00  0.00    +0.000 A 
ATOM     12  C   UNL     1       1.140   2.466  -7.697  0.00  0.00    +0.000 A 
ATOM     13  N   UNL     1       1.752   1.450  -8.340  0.00  0.00    +0.000 NA
ATOM     14  C   UNL     1       2.426   0.539  -7.586  0.00  0.00    +0.000 A 
ATOM     15  C   UNL     1       2.513   0.642  -6.198  0.00  0.00    +0.000 A 
BRANCH  14  16
ATOM     16  C   UNL     1       3.071  -0.632  -8.297  0.00  0.00    +0.000 C 
ATOM     17  F   UNL     1       4.420  -0.694  -8.102  0.00  0.00    +0.000 F 
ATOM     18  F   UNL     1       2.584  -1.836  -7.875  0.00  0.00    +0.000 F 
ENDBRANCH  14  16
ENDBRANCH   6  10
BRANCH   2  19
ATOM     19  C   UNL     1       3.078  -0.511   1.053  0.00  0.00    +0.000 A 
ATOM     20  C   UNL     1       2.554  -1.597   1.723  0.00  0.00    +0.000 A 
ATOM     21  N   UNL     1       3.271  -2.254   2.651  0.00  0.00    +0.000 NA
ATOM     22  N   UNL     1       4.536  -1.815   2.965  0.00  0.00    +0.000 NA
ATOM     23  C   UNL     1       5.071  -0.725   2.357  0.00  0.00    +0.000 A 
ATOM     24  C   UNL     1       4.356  -0.062   1.373  0.00  0.00    +0.000 A 
BRANCH  23  25
ATOM     25  C   UNL     1       6.420  -0.318   2.794  0.00  0.00    +0.000 A 
ATOM     26  C   UNL     1       7.341  -1.264   3.281  0.00  0.00    +0.000 A 
ATOM     27  C   UNL     1       8.633  -0.892   3.669  0.00  0.00    +0.000 A 
ATOM     28  C   UNL     1       9.031   0.436   3.584  0.00  0.00    +0.000 A 
ATOM     29  C   UNL     1       8.138   1.398   3.128  0.00  0.00    +0.000 A 
ATOM     30  C   UNL     1       6.846   1.025   2.740  0.00  0.00    +0.000 A 
ENDBRANCH  23  25
ENDBRANCH   2  19
TORSDOF 4
