REMARK  Name = 
REMARK  8 active torsions:
REMARK  status: ('A' for Active; 'I' for Inactive)
REMARK    1  A    between atoms: C_1  and  N_2
REMARK    2  A    between atoms: N_2  and  C_26
REMARK    3  A    between atoms: C_3  and  C_5
REMARK    4  A    between atoms: C_5  and  C_6
REMARK    5  A    between atoms: C_9  and  N_10
REMARK    6  A    between atoms: C_11  and  C_13
REMARK    7  A    between atoms: C_14  and  N_15
REMARK    8  A    between atoms: C_19  and  C_20
REMARK                            x       y       z     vdW  Elec       q    Type
REMARK                         _______ _______ _______ _____ _____    ______ ____
ROOT
ATOM      1  C   UNL     1       3.399  -3.616   1.246  0.00  0.00    +0.000 A 
ATOM      2  C   UNL     1       4.514  -3.260   2.009  0.00  0.00    +0.000 A 
ATOM      3  C   UNL     1       5.418  -4.226   2.449  0.00  0.00    +0.000 A 
ATOM      4  C   UNL     1       5.215  -5.576   2.170  0.00  0.00    +0.000 A 
ATOM      5  C   UNL     1       4.057  -5.952   1.480  0.00  0.00    +0.000 A 
ATOM      6  C   UNL     1       3.161  -4.980   1.015  0.00  0.00    +0.000 A 
ENDROOT
BRANCH   4   7
ATOM      7  N   UNL     1       6.132  -6.579   2.546  0.00  0.00    +0.000 N 
ATOM      8  C   UNL     1       7.437  -6.371   2.951  0.00  0.00    +0.000 C 
ATOM      9  O   UNL     1       8.033  -5.299   3.022  0.00  0.00    +0.000 OA
ATOM     10  H   UNL     1       5.863  -7.541   2.345  0.00  0.00    +0.000 HD
BRANCH   8  11
ATOM     11  C   UNL     1       8.242  -7.575   3.235  0.00  0.00    +0.000 A 
ATOM     12  C   UNL     1       8.187  -8.672   2.366  0.00  0.00    +0.000 A 
ATOM     13  N   UNL     1       8.996  -9.742   2.484  0.00  0.00    +0.000 NA
ATOM     14  C   UNL     1       9.923  -9.721   3.461  0.00  0.00    +0.000 A 
ATOM     15  C   UNL     1      10.043  -8.691   4.374  0.00  0.00    +0.000 A 
ATOM     16  C   UNL     1       9.172  -7.594   4.288  0.00  0.00    +0.000 A 
BRANCH  16  17
ATOM     17  C   UNL     1       9.302  -6.524   5.342  0.00  0.00    +0.000 C 
ATOM     18  F   UNL     1       8.281  -5.640   5.455  0.00  0.00    +0.000 F 
ATOM     19  F   UNL     1       9.389  -7.095   6.586  0.00  0.00    +0.000 F 
ATOM     20  F   UNL     1      10.450  -5.803   5.209  0.00  0.00    +0.000 F 
ENDBRANCH  16  17
BRANCH  12  21
ATOM     21  N   UNL     1       7.270  -8.769   1.314  0.00  0.00    +0.000 N 
ATOM     22  H   UNL     1       7.357  -7.974   0.682  0.00  0.00    +0.000 HD
ATOM     23  H   UNL     1       7.487  -9.639   0.829  0.00  0.00    +0.000 HD
ENDBRANCH  12  21
ENDBRANCH   8  11
ENDBRANCH   4   7
BRANCH   1  24
ATOM     24  C   UNL     1       2.455  -2.559   0.702  0.00  0.00    +0.000 C 
BRANCH  24  27
ATOM     25  C   UNL     1       0.918  -1.153  -1.375  0.00  0.00    +0.000 C 
ATOM     26  N   UNL     1       2.353  -0.900  -1.210  0.00  0.00    +0.000 N 
ATOM     27  C   UNL     1       3.118  -1.482  -0.177  0.00  0.00    +0.000 C 
ATOM     28  O   UNL     1       4.263  -1.108   0.096  0.00  0.00    +0.000 OA
BRANCH  26  29
ATOM     29  C   UNL     1       2.943   0.049  -2.144  0.00  0.00    +0.000 A 
ATOM     30  C   UNL     1       4.325   0.111  -2.384  0.00  0.00    +0.000 A 
ATOM     31  C   UNL     1       4.875   1.015  -3.303  0.00  0.00    +0.000 A 
ATOM     32  C   UNL     1       4.053   1.879  -4.013  0.00  0.00    +0.000 A 
ATOM     33  C   UNL     1       2.682   1.841  -3.801  0.00  0.00    +0.000 A 
ATOM     34  C   UNL     1       2.136   0.935  -2.882  0.00  0.00    +0.000 A 
ENDBRANCH  26  29
ENDBRANCH  24  27
ENDBRANCH   1  24
TORSDOF 7
