REMARK  Name = 
REMARK  7 active torsions:
REMARK  status: ('A' for Active; 'I' for Inactive)
REMARK    1  A    between atoms: C_1  and  O_2
REMARK    2  A    between atoms: O_2  and  C_3
REMARK    3  A    between atoms: C_7  and  C_8
REMARK    4  A    between atoms: C_11  and  C_12
REMARK    5  A    between atoms: C_12  and  O_14
REMARK    6  A    between atoms: O_14  and  C_15
REMARK    7  A    between atoms: C_15  and  C_16
REMARK                            x       y       z     vdW  Elec       q    Type
REMARK                         _______ _______ _______ _____ _____    ______ ____
ROOT
ATOM      1  C   UNL     1       9.931  -0.798  -4.960  0.00  0.00    +0.000 C 
ATOM      2  O   UNL     1      10.953  -0.126  -4.881  0.00  0.00    +0.000 OA
ENDROOT
BRANCH   1   6
ATOM      3  C   UNL     1       6.278   0.378  -3.174  0.00  0.00    +0.000 A 
ATOM      4  C   UNL     1       7.489   1.022  -2.968  0.00  0.00    +0.000 A 
ATOM      5  N   UNL     1       8.672   0.638  -3.488  0.00  0.00    +0.000 NA
ATOM      6  C   UNL     1       8.646  -0.471  -4.252  0.00  0.00    +0.000 A 
ATOM      7  N   UNL     1       7.546  -1.205  -4.513  0.00  0.00    +0.000 NA
ATOM      8  C   UNL     1       6.392  -0.756  -3.966  0.00  0.00    +0.000 A 
BRANCH   3  13
ATOM      9  C   UNL     1       2.841   0.452  -1.527  0.00  0.00    +0.000 A 
ATOM     10  C   UNL     1       2.655   1.821  -1.350  0.00  0.00    +0.000 A 
ATOM     11  C   UNL     1       3.622   2.715  -1.800  0.00  0.00    +0.000 A 
ATOM     12  C   UNL     1       4.781   2.243  -2.419  0.00  0.00    +0.000 A 
ATOM     13  C   UNL     1       5.015   0.866  -2.590  0.00  0.00    +0.000 A 
ATOM     14  C   UNL     1       4.010  -0.013  -2.148  0.00  0.00    +0.000 A 
BRANCH   9  16
ATOM     15  C   UNL     1       0.810  -0.107  -0.425  0.00  0.00    +0.000 C 
ATOM     16  O   UNL     1       1.971  -0.529  -1.133  0.00  0.00    +0.000 OA
ENDBRANCH   9  16
ENDBRANCH   3  13
ENDBRANCH   1   6
BRANCH   1  17
ATOM     17  O   UNL     1       9.771  -1.857  -5.799  0.00  0.00    +0.000 OA
BRANCH  17  18
ATOM     18  C   UNL     1      10.828  -2.021  -6.755  0.00  0.00    +0.000 C 
BRANCH  18  19
ATOM     19  C   UNL     1      10.565  -1.074  -7.880  0.00  0.00    +0.000 A 
ATOM     20  N   UNL     1      10.001  -1.336  -9.042  0.00  0.00    +0.000 NA
ATOM     21  C   UNL     1       9.950  -0.138  -9.711  0.00  0.00    +0.000 A 
ATOM     22  C   UNL     1      10.505   0.881  -8.942  0.00  0.00    +0.000 A 
ATOM     23  C   UNL     1      10.600   2.206  -9.373  0.00  0.00    +0.000 A 
ATOM     24  C   UNL     1      10.106   2.472 -10.651  0.00  0.00    +0.000 A 
ATOM     25  F   UNL     1      10.190   3.724 -11.124  0.00  0.00    +0.000 F 
ATOM     26  C   UNL     1       9.538   1.472 -11.437  0.00  0.00    +0.000 A 
ATOM     27  F   UNL     1       9.072   1.773 -12.658  0.00  0.00    +0.000 F 
ATOM     28  C   UNL     1       9.444   0.155 -10.985  0.00  0.00    +0.000 A 
ATOM     29  N   UNL     1      10.880   0.262  -7.779  0.00  0.00    +0.000 N 
ATOM     30  H   UNL     1      11.281   0.703  -6.959  0.00  0.00    +0.000 HD
ENDBRANCH  18  19
ENDBRANCH  17  18
ENDBRANCH   1  17
TORSDOF 6
