REMARK  Name = 
REMARK  5 active torsions:
REMARK  status: ('A' for Active; 'I' for Inactive)
REMARK    1  A    between atoms: C_2  and  C_4
REMARK    2  A    between atoms: C_7  and  C_8
REMARK    3  A    between atoms: C_8  and  C_9
REMARK    4  A    between atoms: C_12  and  C_13
REMARK    5  A    between atoms: C_15  and  C_16
REMARK                            x       y       z     vdW  Elec       q    Type
REMARK                         _______ _______ _______ _____ _____    ______ ____
ROOT
ATOM      1  C   UNL     1       4.880   4.478   4.231  0.00  0.00    +0.000 A 
ATOM      2  N   UNL     1       4.166   5.604   4.381  0.00  0.00    +0.000 NA
ATOM      3  O   UNL     1       3.591   5.454   5.645  0.00  0.00    +0.000 OA
ATOM      4  C   UNL     1       3.995   4.235   6.124  0.00  0.00    +0.000 A 
ATOM      5  N   UNL     1       4.809   3.610   5.293  0.00  0.00    +0.000 NA
ENDROOT
BRANCH   4   6
ATOM      6  C   UNL     1       3.534   3.673   7.350  0.00  0.00    +0.000 A 
ATOM      7  C   UNL     1       3.902   2.487   7.945  0.00  0.00    +0.000 A 
ATOM      8  C   UNL     1       3.135   2.398   9.134  0.00  0.00    +0.000 A 
ATOM      9  N   UNL     1       2.332   3.467   9.238  0.00  0.00    +0.000 NA
ATOM     10  O   UNL     1       2.585   4.257   8.136  0.00  0.00    +0.000 OA
BRANCH   8  11
ATOM     11  C   UNL     1       3.190   1.369  10.164  0.00  0.00    +0.000 A 
ATOM     12  C   UNL     1       4.396   0.713  10.446  0.00  0.00    +0.000 A 
ATOM     13  F   UNL     1       5.506   0.987   9.744  0.00  0.00    +0.000 F 
ATOM     14  C   UNL     1       4.495  -0.224  11.469  0.00  0.00    +0.000 A 
ATOM     15  C   UNL     1       3.369  -0.520  12.223  0.00  0.00    +0.000 A 
ATOM     16  F   UNL     1       3.462  -1.407  13.222  0.00  0.00    +0.000 F 
ATOM     17  C   UNL     1       2.153   0.089  11.957  0.00  0.00    +0.000 A 
ATOM     18  C   UNL     1       2.069   1.025  10.928  0.00  0.00    +0.000 A 
ATOM     19  F   UNL     1       0.869   1.573  10.682  0.00  0.00    +0.000 F 
ENDBRANCH   8  11
ENDBRANCH   4   6
BRANCH   1  20
ATOM     20  C   UNL     1       5.517   4.098   2.943  0.00  0.00    +0.000 C 
BRANCH  20  24
ATOM     21  C   UNL     1       9.495   5.796   2.822  0.00  0.00    +0.000 A 
ATOM     22  C   UNL     1       9.305   4.506   3.332  0.00  0.00    +0.000 A 
ATOM     23  C   UNL     1       8.019   3.952   3.381  0.00  0.00    +0.000 A 
ATOM     24  C   UNL     1       6.910   4.681   2.923  0.00  0.00    +0.000 A 
ATOM     25  C   UNL     1       7.113   5.973   2.415  0.00  0.00    +0.000 A 
ATOM     26  C   UNL     1       8.393   6.529   2.369  0.00  0.00    +0.000 A 
BRANCH  21  28
ATOM     27  N   UNL     1      11.921   5.613   2.665  0.00  0.00    +0.000 N 
ATOM     28  C   UNL     1      10.835   6.438   2.777  0.00  0.00    +0.000 C 
ATOM     29  O   UNL     1      10.969   7.652   2.803  0.00  0.00    +0.000 OA
ATOM     30  H   UNL     1      12.816   6.068   2.537  0.00  0.00    +0.000 HD
ATOM     31  H   UNL     1      11.840   4.646   2.386  0.00  0.00    +0.000 HD
ENDBRANCH  21  28
ENDBRANCH  20  24
ENDBRANCH   1  20
TORSDOF 5
