REMARK  Name = 
REMARK  4 active torsions:
REMARK  status: ('A' for Active; 'I' for Inactive)
REMARK    1  A    between atoms: C_2  and  C_20
REMARK    2  A    between atoms: N_3  and  C_4
REMARK    3  A    between atoms: N_6  and  C_7
REMARK    4  A    between atoms: C_7  and  C_8
REMARK                            x       y       z     vdW  Elec       q    Type
REMARK                         _______ _______ _______ _____ _____    ______ ____
ROOT
ATOM      1  O   UNL     1       4.989   1.928  -0.233  0.00  0.00    +0.000 OA
ATOM      2  C   UNL     1       4.223   1.017   0.089  0.00  0.00    +0.000 C 
ATOM      3  N   UNL     1       2.978   1.156   0.671  0.00  0.00    +0.000 N 
ATOM      4  H   UNL     1       2.453   0.301   0.836  0.00  0.00    +0.000 HD
ENDROOT
BRANCH   2   5
ATOM      5  C   UNL     1       4.692  -0.351  -0.238  0.00  0.00    +0.000 A 
ATOM      6  C   UNL     1       6.069  -0.628  -0.196  0.00  0.00    +0.000 A 
ATOM      7  C   UNL     1       6.599  -1.752  -0.859  0.00  0.00    +0.000 A 
ATOM      8  C   UNL     1       5.786  -2.543  -1.673  0.00  0.00    +0.000 A 
ATOM      9  C   UNL     1       4.442  -2.223  -1.755  0.00  0.00    +0.000 A 
ATOM     10  C   UNL     1       3.903  -1.227  -0.949  0.00  0.00    +0.000 A 
ATOM     11  C   UNL     1       2.480  -1.244  -1.229  0.00  0.00    +0.000 A 
ATOM     12  O   UNL     1       1.625  -0.756  -0.514  0.00  0.00    +0.000 OA
ATOM     13  N   UNL     1       2.298  -1.996  -2.381  0.00  0.00    +0.000 N 
ATOM     14  N   UNL     1       3.524  -2.674  -2.724  0.00  0.00    +0.000 N 
ATOM     15  H   UNL     1       1.981  -1.396  -3.145  0.00  0.00    +0.000 HD
ATOM     16  H   UNL     1       3.431  -3.692  -2.736  0.00  0.00    +0.000 HD
ENDBRANCH   2   5
BRANCH   3  17
ATOM     17  C   UNL     1       2.273   2.322   0.906  0.00  0.00    +0.000 A 
ATOM     18  C   UNL     1       1.062   2.272   1.503  0.00  0.00    +0.000 A 
ATOM     19  N   UNL     1       0.309   3.415   1.754  0.00  0.00    +0.000 N 
ATOM     20  C   UNL     1       0.752   4.682   1.387  0.00  0.00    +0.000 A 
ATOM     21  O   UNL     1       0.138   5.733   1.592  0.00  0.00    +0.000 OA
ATOM     22  C   UNL     1       2.072   4.735   0.717  0.00  0.00    +0.000 A 
ATOM     23  C   UNL     1       2.768   3.623   0.508  0.00  0.00    +0.000 A 
BRANCH  19  24
ATOM     24  C   UNL     1      -0.960   3.304   2.477  0.00  0.00    +0.000 C 
BRANCH  24  25
ATOM     25  C   UNL     1      -0.761   3.247   3.975  0.00  0.00    +0.000 A 
ATOM     26  C   UNL     1      -0.204   4.331   4.675  0.00  0.00    +0.000 A 
ATOM     27  C   UNL     1       0.043   4.236   6.044  0.00  0.00    +0.000 A 
ATOM     28  C   UNL     1      -0.283   3.068   6.723  0.00  0.00    +0.000 A 
ATOM     29  F   UNL     1      -0.024   2.971   8.032  0.00  0.00    +0.000 F 
ATOM     30  C   UNL     1      -0.873   2.000   6.061  0.00  0.00    +0.000 A 
ATOM     31  C   UNL     1      -1.107   2.098   4.694  0.00  0.00    +0.000 A 
ATOM     32  F   UNL     1      -1.668   1.059   4.062  0.00  0.00    +0.000 F 
ENDBRANCH  24  25
ENDBRANCH  19  24
ENDBRANCH   3  17
TORSDOF 4
