REMARK  Name = 
REMARK  5 active torsions:
REMARK  status: ('A' for Active; 'I' for Inactive)
REMARK    1  A    between atoms: C_2  and  C_3
REMARK    2  A    between atoms: C_7  and  C_8
REMARK    3  A    between atoms: N_15  and  C_16
REMARK    4  A    between atoms: C_16  and  C_17
REMARK    5  A    between atoms: C_27  and  O_28
REMARK                            x       y       z     vdW  Elec       q    Type
REMARK                         _______ _______ _______ _____ _____    ______ ____
ROOT
ATOM      1  O   UNL     1       1.363  -0.402  -0.491  0.00  0.00    +0.000 OA
ATOM      2  C   UNL     1       2.538  -0.223  -0.175  0.00  0.00    +0.000 C 
ATOM      3  N   UNL     1       3.147  -0.883   0.903  0.00  0.00    +0.000 N 
ATOM      4  C   UNL     1       4.555  -1.000   1.041  0.00  0.00    +0.000 A 
ATOM      5  N   UNL     1       5.099  -0.561   2.188  0.00  0.00    +0.000 NA
ATOM      6  C   UNL     1       6.435  -0.421   2.211  0.00  0.00    +0.000 A 
ATOM      7  N   UNL     1       7.265  -0.693   1.197  0.00  0.00    +0.000 NA
ATOM      8  C   UNL     1       6.668  -1.179   0.109  0.00  0.00    +0.000 A 
ATOM      9  C   UNL     1       5.321  -1.379  -0.040  0.00  0.00    +0.000 A 
ENDROOT
BRANCH   2  10
ATOM     10  C   UNL     1       3.300   0.769  -0.988  0.00  0.00    +0.000 A 
ATOM     11  C   UNL     1       3.013   0.870  -2.336  0.00  0.00    +0.000 A 
ATOM     12  N   UNL     1       3.711   1.679  -3.155  0.00  0.00    +0.000 NA
ATOM     13  N   UNL     1       4.740   2.431  -2.645  0.00  0.00    +0.000 NA
ATOM     14  C   UNL     1       5.030   2.406  -1.324  0.00  0.00    +0.000 A 
ATOM     15  C   UNL     1       4.292   1.599  -0.467  0.00  0.00    +0.000 A 
BRANCH  14  16
ATOM     16  C   UNL     1       6.177   3.222  -0.877  0.00  0.00    +0.000 A 
ATOM     17  C   UNL     1       6.262   3.732   0.433  0.00  0.00    +0.000 A 
ATOM     18  C   UNL     1       7.368   4.476   0.855  0.00  0.00    +0.000 A 
ATOM     19  C   UNL     1       8.415   4.732  -0.023  0.00  0.00    +0.000 A 
ATOM     20  C   UNL     1       8.355   4.250  -1.326  0.00  0.00    +0.000 A 
ATOM     21  C   UNL     1       7.247   3.504  -1.747  0.00  0.00    +0.000 A 
ENDBRANCH  14  16
ENDBRANCH   2  10
BRANCH   8  22
ATOM     22  O   UNL     1       7.500  -1.404  -0.937  0.00  0.00    +0.000 OA
ATOM     23  H   UNL     1       8.342  -1.056  -0.583  0.00  0.00    +0.000 HD
ENDBRANCH   8  22
BRANCH   3  24
ATOM     24  C   UNL     1       2.342  -1.790   1.733  0.00  0.00    +0.000 C 
BRANCH  24  25
ATOM     25  C   UNL     1       2.285  -1.443   3.204  0.00  0.00    +0.000 A 
ATOM     26  C   UNL     1       1.717  -0.236   3.635  0.00  0.00    +0.000 A 
ATOM     27  C   UNL     1       1.687   0.086   4.994  0.00  0.00    +0.000 A 
ATOM     28  C   UNL     1       2.211  -0.798   5.936  0.00  0.00    +0.000 A 
ATOM     29  C   UNL     1       2.743  -2.017   5.524  0.00  0.00    +0.000 A 
ATOM     30  C   UNL     1       2.774  -2.341   4.166  0.00  0.00    +0.000 A 
ENDBRANCH  24  25
ENDBRANCH   3  24
TORSDOF 5
