REMARK  Name = 
REMARK  5 active torsions:
REMARK  status: ('A' for Active; 'I' for Inactive)
REMARK    1  A    between atoms: C_2  and  C_3
REMARK    2  A    between atoms: N_5  and  C_6
REMARK    3  A    between atoms: C_9  and  N_10
REMARK    4  A    between atoms: N_13  and  C_14
REMARK    5  A    between atoms: C_18  and  C_19
REMARK                            x       y       z     vdW  Elec       q    Type
REMARK                         _______ _______ _______ _____ _____    ______ ____
ROOT
ATOM      1  N   UNL     1      10.634   3.705   0.355  0.00  0.00    +0.000 N 
ATOM      2  C   UNL     1      10.879   4.645   1.344  0.00  0.00    +0.000 C 
ATOM      3  O   UNL     1      10.146   4.871   2.301  0.00  0.00    +0.000 OA
ATOM      4  N   UNL     1      12.051   5.361   1.119  0.00  0.00    +0.000 N 
ATOM      5  H   UNL     1      11.403   3.471  -0.256  0.00  0.00    +0.000 HD
ATOM      6  H   UNL     1      12.258   5.525   0.145  0.00  0.00    +0.000 HD
ENDROOT
BRANCH   1  10
ATOM      7  C   UNL     1       7.079   1.409  -0.097  0.00  0.00    +0.000 A 
ATOM      8  C   UNL     1       7.166   2.386   0.894  0.00  0.00    +0.000 A 
ATOM      9  C   UNL     1       8.333   3.135   1.048  0.00  0.00    +0.000 A 
ATOM     10  C   UNL     1       9.446   2.939   0.228  0.00  0.00    +0.000 A 
ATOM     11  C   UNL     1       9.363   1.957  -0.768  0.00  0.00    +0.000 A 
ATOM     12  C   UNL     1       8.189   1.192  -0.929  0.00  0.00    +0.000 A 
BRANCH   7  15
ATOM     13  C   UNL     1       3.854  -0.195   0.048  0.00  0.00    +0.000 A 
ATOM     14  C   UNL     1       4.700   0.809   0.453  0.00  0.00    +0.000 A 
ATOM     15  N   UNL     1       5.887   0.646  -0.237  0.00  0.00    +0.000 N 
ATOM     16  N   UNL     1       5.807  -0.393  -1.113  0.00  0.00    +0.000 NA
ATOM     17  C   UNL     1       4.586  -0.905  -0.912  0.00  0.00    +0.000 A 
BRANCH  13  19
ATOM     18  N   UNL     1       1.454  -0.621   0.911  0.00  0.00    +0.000 NA
ATOM     19  C   UNL     1       2.530  -0.435   0.517  0.00  0.00    +0.000 C 
ENDBRANCH  13  19
ENDBRANCH   7  15
ENDBRANCH   1  10
BRANCH   4  20
ATOM     20  C   UNL     1      12.427   6.388   2.024  0.00  0.00    +0.000 A 
ATOM     21  C   UNL     1      12.798   7.631   1.522  0.00  0.00    +0.000 A 
ATOM     22  C   UNL     1      13.043   8.681   2.405  0.00  0.00    +0.000 A 
ATOM     23  C   UNL     1      12.944   8.486   3.789  0.00  0.00    +0.000 A 
ATOM     24  C   UNL     1      12.608   7.233   4.332  0.00  0.00    +0.000 A 
ATOM     25  C   UNL     1      12.371   6.191   3.414  0.00  0.00    +0.000 A 
BRANCH  24  26
ATOM     26  C   UNL     1      12.467   7.024   5.789  0.00  0.00    +0.000 A 
ATOM     27  C   UNL     1      11.604   6.092   6.351  0.00  0.00    +0.000 A 
ATOM     28  N   UNL     1      11.443   5.875   7.678  0.00  0.00    +0.000 NA
ATOM     29  C   UNL     1      12.182   6.646   8.484  0.00  0.00    +0.000 A 
ATOM     30  N   UNL     1      13.049   7.586   8.087  0.00  0.00    +0.000 NA
ATOM     31  C   UNL     1      13.167   7.745   6.747  0.00  0.00    +0.000 A 
ENDBRANCH  24  26
ENDBRANCH   4  20
TORSDOF 5
