REMARK  Name = 
REMARK  8 active torsions:
REMARK  status: ('A' for Active; 'I' for Inactive)
REMARK    1  A    between atoms: C_1  and  C_2
REMARK    2  A    between atoms: C_8  and  C_9
REMARK    3  A    between atoms: C_9  and  N_10
REMARK    4  A    between atoms: N_10  and  C_11
REMARK    5  A    between atoms: N_10  and  C_15
REMARK    6  A    between atoms: C_11  and  C_12
REMARK    7  A    between atoms: C_15  and  C_16
REMARK    8  A    between atoms: C_19  and  C_20
REMARK                            x       y       z     vdW  Elec       q    Type
REMARK                         _______ _______ _______ _____ _____    ______ ____
ROOT
ATOM      1  N   UNL     1       4.491  -5.857  -0.151  0.00  0.00    +0.000 NA
ENDROOT
BRANCH   1   2
ATOM      2  C   UNL     1       4.031  -5.734  -1.570  0.00  0.00    +0.000 C 
BRANCH   2   3
ATOM      3  C   UNL     1       3.033  -6.819  -1.986  0.00  0.00    +0.000 C 
ATOM      4  N   UNL     1       2.073  -7.138  -1.070  0.00  0.00    +0.000 N 
ATOM      5  O   UNL     1       3.038  -7.342  -3.096  0.00  0.00    +0.000 OA
ATOM      6  H   UNL     1       2.094  -6.740  -0.141  0.00  0.00    +0.000 HD
ATOM      7  H   UNL     1       1.406  -7.861  -1.303  0.00  0.00    +0.000 HD
ENDBRANCH   2   3
ENDBRANCH   1   2
BRANCH   1   8
ATOM      8  C   UNL     1       5.433  -4.736   0.147  0.00  0.00    +0.000 C 
BRANCH   8  16
ATOM      9  C   UNL     1       1.110   0.171   0.219  0.00  0.00    +0.000 C 
ATOM     10  C   UNL     1       2.289  -0.148  -0.667  0.00  0.00    +0.000 A 
ATOM     11  C   UNL     1       2.429   0.517  -1.829  0.00  0.00    +0.000 A 
ATOM     12  C   UNL     1       3.513   0.221  -2.724  0.00  0.00    +0.000 A 
ATOM     13  C   UNL     1       4.343  -0.791  -2.467  0.00  0.00    +0.000 A 
ATOM     14  C   UNL     1       4.160  -1.600  -1.226  0.00  0.00    +0.000 A 
ATOM     15  N   UNL     1       4.917  -2.645  -1.068  0.00  0.00    +0.000 NA
ATOM     16  C   UNL     1       4.759  -3.375   0.078  0.00  0.00    +0.000 A 
ATOM     17  C   UNL     1       4.018  -2.960   1.107  0.00  0.00    +0.000 A 
ATOM     18  C   UNL     1       3.139  -1.799   0.926  0.00  0.00    +0.000 A 
ATOM     19  O   UNL     1       2.420  -1.506   1.881  0.00  0.00    +0.000 OA
ATOM     20  N   UNL     1       3.190  -1.175  -0.318  0.00  0.00    +0.000 N 
ENDBRANCH   8  16
ENDBRANCH   1   8
BRANCH   1  21
ATOM     21  C   UNL     1       5.189  -7.153   0.024  0.00  0.00    +0.000 C 
BRANCH  21  22
ATOM     22  C   UNL     1       5.628  -7.447   1.444  0.00  0.00    +0.000 A 
ATOM     23  C   UNL     1       4.706  -7.495   2.493  0.00  0.00    +0.000 A 
ATOM     24  C   UNL     1       5.119  -7.837   3.787  0.00  0.00    +0.000 A 
ATOM     25  C   UNL     1       6.459  -8.154   4.078  0.00  0.00    +0.000 A 
ATOM     26  C   UNL     1       7.375  -8.085   3.015  0.00  0.00    +0.000 A 
ATOM     27  C   UNL     1       6.969  -7.734   1.721  0.00  0.00    +0.000 A 
BRANCH  25  28
ATOM     28  C   UNL     1       6.874  -8.543   5.447  0.00  0.00    +0.000 A 
ATOM     29  C   UNL     1       6.026  -9.300   6.278  0.00  0.00    +0.000 A 
ATOM     30  C   UNL     1       6.381  -9.621   7.592  0.00  0.00    +0.000 A 
ATOM     31  C   UNL     1       7.607  -9.209   8.101  0.00  0.00    +0.000 A 
ATOM     32  C   UNL     1       8.480  -8.487   7.294  0.00  0.00    +0.000 A 
ATOM     33  C   UNL     1       8.117  -8.158   5.983  0.00  0.00    +0.000 A 
ENDBRANCH  25  28
ENDBRANCH  21  22
ENDBRANCH   1  21
TORSDOF 7
