REMARK  Name = 
REMARK  5 active torsions:
REMARK  status: ('A' for Active; 'I' for Inactive)
REMARK    1  A    between atoms: C_2  and  C_18
REMARK    2  A    between atoms: N_3  and  C_4
REMARK    3  A    between atoms: C_8  and  C_9
REMARK    4  A    between atoms: C_9  and  O_10
REMARK    5  A    between atoms: O_10  and  C_11
REMARK                            x       y       z     vdW  Elec       q    Type
REMARK                         _______ _______ _______ _____ _____    ______ ____
ROOT
ATOM      1  O   UNL     1       2.758  -1.881  -0.150  0.00  0.00    +0.000 OA
ATOM      2  C   UNL     1       3.183  -0.811   0.260  0.00  0.00    +0.000 C 
ATOM      3  N   UNL     1       2.816  -0.162   1.415  0.00  0.00    +0.000 N 
ATOM      4  H   UNL     1       3.418   0.576   1.757  0.00  0.00    +0.000 HD
ENDROOT
BRANCH   2   5
ATOM      5  C   UNL     1       4.372  -0.156  -0.371  0.00  0.00    +0.000 A 
ATOM      6  C   UNL     1       5.467  -0.987  -0.601  0.00  0.00    +0.000 A 
ATOM      7  C   UNL     1       6.694  -0.381  -0.751  0.00  0.00    +0.000 A 
ATOM      8  N   UNL     1       6.887   0.952  -0.651  0.00  0.00    +0.000 NA
ATOM      9  C   UNL     1       5.821   1.747  -0.460  0.00  0.00    +0.000 A 
ATOM     10  C   UNL     1       6.029   3.105  -0.244  0.00  0.00    +0.000 A 
ATOM     11  C   UNL     1       4.970   3.995  -0.039  0.00  0.00    +0.000 A 
ATOM     12  C   UNL     1       3.672   3.525  -0.104  0.00  0.00    +0.000 A 
ATOM     13  F   UNL     1       2.645   4.368   0.051  0.00  0.00    +0.000 F 
ATOM     14  C   UNL     1       3.430   2.173  -0.289  0.00  0.00    +0.000 A 
ATOM     15  C   UNL     1       4.505   1.253  -0.397  0.00  0.00    +0.000 A 
ENDBRANCH   2   5
BRANCH   3  16
ATOM     16  C   UNL     1       2.037  -0.637   2.455  0.00  0.00    +0.000 A 
ATOM     17  C   UNL     1       1.023  -1.548   2.324  0.00  0.00    +0.000 A 
ATOM     18  C   UNL     1       0.412  -1.897   3.505  0.00  0.00    +0.000 A 
ATOM     19  N   UNL     1       0.786  -1.429   4.717  0.00  0.00    +0.000 NA
ATOM     20  C   UNL     1       1.809  -0.552   4.732  0.00  0.00    +0.000 A 
ATOM     21  N   UNL     1       2.417  -0.106   3.625  0.00  0.00    +0.000 NA
BRANCH  20  22
ATOM     22  C   UNL     1       2.347  -0.052   6.054  0.00  0.00    +0.000 C 
BRANCH  22  23
ATOM     23  O   UNL     1       3.329  -0.964   6.564  0.00  0.00    +0.000 OA
BRANCH  23  24
ATOM     24  C   UNL     1       3.870  -0.665   7.785  0.00  0.00    +0.000 A 
ATOM     25  C   UNL     1       3.610   0.481   8.541  0.00  0.00    +0.000 A 
ATOM     26  C   UNL     1       4.223   0.658   9.785  0.00  0.00    +0.000 A 
ATOM     27  C   UNL     1       5.103  -0.304  10.277  0.00  0.00    +0.000 A 
ATOM     28  C   UNL     1       5.372  -1.445   9.526  0.00  0.00    +0.000 A 
ATOM     29  C   UNL     1       4.759  -1.621   8.283  0.00  0.00    +0.000 A 
ENDBRANCH  23  24
ENDBRANCH  22  23
ENDBRANCH  20  22
ENDBRANCH   3  16
TORSDOF 5
