REMARK  Name = 
REMARK  8 active torsions:
REMARK  status: ('A' for Active; 'I' for Inactive)
REMARK    1  A    between atoms: C_2  and  C_3
REMARK    2  A    between atoms: C_8  and  C_9
REMARK    3  A    between atoms: C_9  and  S_10
REMARK    4  A    between atoms: S_10  and  N_13
REMARK    5  A    between atoms: N_13  and  C_14
REMARK    6  A    between atoms: C_14  and  C_15
REMARK    7  A    between atoms: C_17  and  O_18
REMARK    8  A    between atoms: O_18  and  C_19
REMARK                            x       y       z     vdW  Elec       q    Type
REMARK                         _______ _______ _______ _____ _____    ______ ____
ROOT
ATOM      1  C   UNL     1       5.243  -6.650  -0.511  0.00  0.00    +0.000 C 
ENDROOT
BRANCH   1   2
ATOM      2  C   UNL     1       6.020  -7.881  -0.940  0.00  0.00    +0.000 A 
ATOM      3  C   UNL     1       7.358  -8.036  -0.601  0.00  0.00    +0.000 A 
ATOM      4  C   UNL     1       8.001  -9.242  -0.882  0.00  0.00    +0.000 A 
ATOM      5  C   UNL     1       7.326 -10.221  -1.595  0.00  0.00    +0.000 A 
ATOM      6  C   UNL     1       6.003  -9.982  -1.921  0.00  0.00    +0.000 A 
ATOM      7  N   UNL     1       5.334  -8.854  -1.589  0.00  0.00    +0.000 NA
BRANCH   4   8
ATOM      8  O   UNL     1       9.297  -9.525  -0.493  0.00  0.00    +0.000 OA
BRANCH   8   9
ATOM      9  C   UNL     1       9.775  -8.939   0.662  0.00  0.00    +0.000 A 
ATOM     10  C   UNL     1       8.980  -8.741   1.803  0.00  0.00    +0.000 A 
ATOM     11  C   UNL     1       9.470  -8.005   2.880  0.00  0.00    +0.000 A 
ATOM     12  C   UNL     1      10.783  -7.551   2.852  0.00  0.00    +0.000 A 
ATOM     13  F   UNL     1      11.246  -6.830   3.881  0.00  0.00    +0.000 F 
ATOM     14  C   UNL     1      11.604  -7.840   1.767  0.00  0.00    +0.000 A 
ATOM     15  F   UNL     1      12.880  -7.428   1.765  0.00  0.00    +0.000 F 
ATOM     16  C   UNL     1      11.109  -8.532   0.664  0.00  0.00    +0.000 A 
ENDBRANCH   8   9
ENDBRANCH   4   8
ENDBRANCH   1   2
BRANCH   1  17
ATOM     17  N   UNL     1       6.032  -5.394  -0.508  0.00  0.00    +0.000 NA
ATOM     18  H   UNL     1       6.851  -5.422   0.098  0.00  0.00    +0.000 HD
BRANCH  17  19
ATOM     19  S   UNL     1       5.183  -3.991  -0.124  0.00  0.00    +0.000 S 
ATOM     20  O   UNL     1       6.179  -2.939  -0.151  0.00  0.00    +0.000 OA
ATOM     21  O   UNL     1       4.441  -4.286   1.079  0.00  0.00    +0.000 OA
BRANCH  19  22
ATOM     22  C   UNL     1       4.077  -3.804  -1.530  0.00  0.00    +0.000 C 
BRANCH  22  28
ATOM     23  C   UNL     1       3.073  -0.126  -1.684  0.00  0.00    +0.000 A 
ATOM     24  C   UNL     1       1.870  -0.150  -0.967  0.00  0.00    +0.000 A 
ATOM     25  C   UNL     1       1.387  -1.353  -0.453  0.00  0.00    +0.000 A 
ATOM     26  C   UNL     1       2.109  -2.523  -0.652  0.00  0.00    +0.000 A 
ATOM     27  F   UNL     1       1.632  -3.672  -0.155  0.00  0.00    +0.000 F 
ATOM     28  C   UNL     1       3.310  -2.525  -1.366  0.00  0.00    +0.000 A 
ATOM     29  C   UNL     1       3.790  -1.313  -1.887  0.00  0.00    +0.000 A 
BRANCH  23  31
ATOM     30  N   UNL     1       3.965   2.119  -2.630  0.00  0.00    +0.000 NA
ATOM     31  C   UNL     1       3.570   1.112  -2.203  0.00  0.00    +0.000 C 
ENDBRANCH  23  31
ENDBRANCH  22  28
ENDBRANCH  19  22
ENDBRANCH  17  19
ENDBRANCH   1  17
TORSDOF 8
