REMARK  Name = 
REMARK  8 active torsions:
REMARK  status: ('A' for Active; 'I' for Inactive)
REMARK    1  A    between atoms: N_1  and  CA_2
REMARK    2  A    between atoms: CA_2  and  C_3
REMARK    3  A    between atoms: CA_2  and  C_28
REMARK    4  A    between atoms: C_3  and  C_4
REMARK    5  A    between atoms: C_7  and  N_8
REMARK    6  A    between atoms: C_9  and  C_11
REMARK    7  A    between atoms: C_14  and  N_15
REMARK    8  A    between atoms: C_28  and  OXT_30
REMARK                            x       y       z     vdW  Elec       q    Type
REMARK                         _______ _______ _______ _____ _____    ______ ____
ROOT
ATOM      1  N   UNL     1       0.811   0.666  -6.011  0.00  0.00    +0.000 N 
ATOM      2  C   UNL     1       0.436  -0.494  -6.674  0.00  0.00    +0.000 C 
ATOM      3  O   UNL     1       0.246  -1.603  -6.151  0.00  0.00    +0.000 OA
ATOM      4  H   UNL     1       0.766   1.532  -6.527  0.00  0.00    +0.000 HD
ENDROOT
BRANCH   2   5
ATOM      5  C   UNL     1       0.270  -0.411  -8.146  0.00  0.00    +0.000 A 
ATOM      6  C   UNL     1       0.887   0.604  -8.880  0.00  0.00    +0.000 A 
ATOM      7  C   UNL     1       0.904   0.535 -10.262  0.00  0.00    +0.000 A 
ATOM      8  C   UNL     1       0.292  -0.537 -10.910  0.00  0.00    +0.000 A 
ATOM      9  C   UNL     1      -0.393  -1.531 -10.212  0.00  0.00    +0.000 A 
ATOM     10  C   UNL     1      -0.389  -1.464  -8.819  0.00  0.00    +0.000 A 
BRANCH   8  11
ATOM     11  N   UNL     1       0.517  -0.678 -12.287  0.00  0.00    +0.000 N 
ATOM     12  C   UNL     1       1.784  -0.714 -12.836  0.00  0.00    +0.000 A 
ATOM     13  C   UNL     1       1.637  -0.693 -14.201  0.00  0.00    +0.000 A 
ATOM     14  C   UNL     1       0.402  -0.029 -14.394  0.00  0.00    +0.000 A 
ATOM     15  C   UNL     1      -0.127   0.829 -15.366  0.00  0.00    +0.000 A 
ATOM     16  C   UNL     1      -1.464   1.221 -15.254  0.00  0.00    +0.000 A 
ATOM     17  C   UNL     1      -2.292   0.652 -14.287  0.00  0.00    +0.000 A 
ATOM     18  C   UNL     1      -1.773  -0.168 -13.281  0.00  0.00    +0.000 A 
ATOM     19  C   UNL     1      -0.387  -0.360 -13.288  0.00  0.00    +0.000 A 
ENDBRANCH   8  11
ENDBRANCH   2   5
BRANCH   1  23
ATOM     20  C   UNL     1       1.852   1.140  -1.946  0.00  0.00    +0.000 A 
ATOM     21  C   UNL     1       1.602  -0.140  -2.455  0.00  0.00    +0.000 A 
ATOM     22  C   UNL     1       1.281  -0.319  -3.799  0.00  0.00    +0.000 A 
ATOM     23  C   UNL     1       1.187   0.773  -4.664  0.00  0.00    +0.000 A 
ATOM     24  C   UNL     1       1.490   2.051  -4.167  0.00  0.00    +0.000 A 
ATOM     25  C   UNL     1       1.821   2.234  -2.822  0.00  0.00    +0.000 A 
BRANCH  20  26
ATOM     26  C   UNL     1       2.110   1.328  -0.474  0.00  0.00    +0.000 C 
BRANCH  26  27
ATOM     27  CA  UNL     1       3.594   1.269  -0.090  0.00  0.00    +0.000 C 
BRANCH  27  28
ATOM     28  N   UNL     1       4.235  -0.064  -0.331  0.00  0.00    +0.000 NA
ATOM     29  H1  UNL     1       4.177  -0.251  -1.339  0.00  0.00    +0.000 HD
ATOM     30  H2  UNL     1       3.635  -0.785   0.083  0.00  0.00    +0.000 HD
ENDBRANCH  27  28
BRANCH  27  31
ATOM     31  C   UNL     1       3.758   1.601   1.402  0.00  0.00    +0.000 C 
ATOM     32  O   UNL     1       3.061   2.366   2.046  0.00  0.00    +0.000 OA
BRANCH  31  33
ATOM     33  OXT UNL     1       4.822   0.936   1.931  0.00  0.00    +0.000 OA
ATOM     34  HXT UNL     1       5.177   0.368   1.203  0.00  0.00    +0.000 HD
ENDBRANCH  31  33
ENDBRANCH  27  31
ENDBRANCH  26  27
ENDBRANCH  20  26
ENDBRANCH   1  23
TORSDOF 8
