REMARK  Name = 
REMARK  5 active torsions:
REMARK  status: ('A' for Active; 'I' for Inactive)
REMARK    1  A    between atoms: C_1  and  O_2
REMARK    2  A    between atoms: O_2  and  C_3
REMARK    3  A    between atoms: C_8  and  C_9
REMARK    4  A    between atoms: N_11  and  C_12
REMARK    5  A    between atoms: N_14  and  C_15
REMARK                            x       y       z     vdW  Elec       q    Type
REMARK                         _______ _______ _______ _____ _____    ______ ____
ROOT
ATOM      1  C   UNL     1       5.354   1.968  -7.017  0.00  0.00    +0.000 C 
ATOM      2  O   UNL     1       6.070   1.027  -7.354  0.00  0.00    +0.000 OA
ATOM      3  N   UNL     1       5.184   3.130  -7.762  0.00  0.00    +0.000 N 
ATOM      4  H   UNL     1       4.763   3.928  -7.307  0.00  0.00    +0.000 HD
ENDROOT
BRANCH   1  10
ATOM      5  C   UNL     1       3.220   0.210  -1.230  0.00  0.00    +0.000 A 
ATOM      6  C   UNL     1       4.187  -0.705  -1.608  0.00  0.00    +0.000 A 
ATOM      7  C   UNL     1       4.814  -0.525  -2.830  0.00  0.00    +0.000 A 
ATOM      8  C   UNL     1       4.453   0.567  -3.631  0.00  0.00    +0.000 A 
ATOM      9  C   UNL     1       5.051   0.782  -4.879  0.00  0.00    +0.000 A 
ATOM     10  C   UNL     1       4.677   1.868  -5.690  0.00  0.00    +0.000 A 
ATOM     11  C   UNL     1       3.701   2.743  -5.228  0.00  0.00    +0.000 A 
ATOM     12  C   UNL     1       3.108   2.528  -3.972  0.00  0.00    +0.000 A 
ATOM     13  C   UNL     1       3.460   1.451  -3.161  0.00  0.00    +0.000 A 
ATOM     14  N   UNL     1       2.852   1.276  -1.977  0.00  0.00    +0.000 NA
BRANCH   5  16
ATOM     15  C   UNL     1       1.607   0.934   0.302  0.00  0.00    +0.000 C 
ATOM     16  O   UNL     1       2.624  -0.015  -0.001  0.00  0.00    +0.000 OA
ENDBRANCH   5  16
ENDBRANCH   1  10
BRANCH   3  17
ATOM     17  C   UNL     1       5.780   3.364  -8.989  0.00  0.00    +0.000 A 
ATOM     18  C   UNL     1       6.266   2.400  -9.788  0.00  0.00    +0.000 A 
ATOM     19  N   UNL     1       6.982   2.655 -10.955  0.00  0.00    +0.000 N 
ATOM     20  C   UNL     1       7.217   3.976 -11.372  0.00  0.00    +0.000 A 
ATOM     21  O   UNL     1       7.899   4.341 -12.328  0.00  0.00    +0.000 OA
ATOM     22  C   UNL     1       6.609   5.041 -10.523  0.00  0.00    +0.000 A 
ATOM     23  C   UNL     1       5.925   4.738  -9.411  0.00  0.00    +0.000 A 
BRANCH  19  24
ATOM     24  C   UNL     1       7.630   1.577 -11.650  0.00  0.00    +0.000 A 
ATOM     25  C   UNL     1       8.227   0.529 -10.927  0.00  0.00    +0.000 A 
ATOM     26  C   UNL     1       8.939  -0.479 -11.581  0.00  0.00    +0.000 A 
ATOM     27  C   UNL     1       9.030  -0.475 -12.970  0.00  0.00    +0.000 A 
ATOM     28  C   UNL     1       8.405   0.531 -13.703  0.00  0.00    +0.000 A 
ATOM     29  C   UNL     1       7.717   1.556 -13.047  0.00  0.00    +0.000 A 
ENDBRANCH  19  24
ENDBRANCH   3  17
TORSDOF 4
