REMARK  Name = 
REMARK  8 active torsions:
REMARK  status: ('A' for Active; 'I' for Inactive)
REMARK    1  A    between atoms: C_2  and  C_3
REMARK    2  A    between atoms: C_6  and  C_7
REMARK    3  A    between atoms: N_9  and  C_10
REMARK    4  A    between atoms: C_10  and  C_11
REMARK    5  A    between atoms: C_11  and  O_13
REMARK    6  A    between atoms: O_13  and  C_14
REMARK    7  A    between atoms: C_14  and  C_15
REMARK    8  A    between atoms: C_28  and  O_29
REMARK                            x       y       z     vdW  Elec       q    Type
REMARK                         _______ _______ _______ _____ _____    ______ ____
ROOT
ATOM      1  C   UNL     1      13.463   1.952  -1.043  0.00  0.00    +0.000 C 
ATOM      2  O   UNL     1      14.550   1.996  -1.554  0.00  0.00    +0.000 OA
ENDROOT
BRANCH   1   3
ATOM      3  C   UNL     1      13.130   1.096   0.154  0.00  0.00    +0.000 C 
BRANCH   3   6
ATOM      4  C   UNL     1      12.999  -1.304   0.635  0.00  0.00    +0.000 C 
ATOM      5  O   UNL     1      13.069  -1.105   1.849  0.00  0.00    +0.000 OA
ATOM      6  N   UNL     1      12.982  -0.286  -0.277  0.00  0.00    +0.000 N 
ATOM      7  H   UNL     1      12.946  -0.445  -1.258  0.00  0.00    +0.000 HD
BRANCH   4  11
ATOM      8  C   UNL     1      12.872  -5.423  -0.690  0.00  0.00    +0.000 A 
ATOM      9  C   UNL     1      12.826  -4.388  -1.633  0.00  0.00    +0.000 A 
ATOM     10  C   UNL     1      12.859  -3.046  -1.223  0.00  0.00    +0.000 A 
ATOM     11  C   UNL     1      12.939  -2.717   0.141  0.00  0.00    +0.000 A 
ATOM     12  C   UNL     1      12.974  -3.777   1.076  0.00  0.00    +0.000 A 
ATOM     13  C   UNL     1      12.944  -5.114   0.673  0.00  0.00    +0.000 A 
BRANCH   8  15
ATOM     14  N   UNL     1      12.849  -7.893  -1.476  0.00  0.00    +0.000 NA
ATOM     15  C   UNL     1      12.858  -6.787  -1.117  0.00  0.00    +0.000 C 
ENDBRANCH   8  15
BRANCH  12  16
ATOM     16  O   UNL     1      13.053  -3.580   2.432  0.00  0.00    +0.000 OA
ATOM     17  H   UNL     1      13.085  -2.610   2.600  0.00  0.00    +0.000 HD
ENDBRANCH  12  16
ENDBRANCH   4  11
ENDBRANCH   3   6
ENDBRANCH   1   3
BRANCH   1  18
ATOM     18  O   UNL     1      12.372   2.430  -1.692  0.00  0.00    +0.000 OA
BRANCH  18  19
ATOM     19  C   UNL     1      12.103   3.808  -1.386  0.00  0.00    +0.000 C 
BRANCH  19  20
ATOM     20  C   UNL     1      13.013   5.031  -2.108  0.00  0.00    +0.000 C 
ATOM     21  C   UNL     1      12.196   6.043  -1.291  0.00  0.00    +0.000 A 
ATOM     22  C   UNL     1      10.823   6.214  -1.206  0.00  0.00    +0.000 A 
ATOM     23  C   UNL     1      10.281   6.221   0.082  0.00  0.00    +0.000 A 
ATOM     24  C   UNL     1      11.124   6.148   1.206  0.00  0.00    +0.000 A 
ATOM     25  C   UNL     1      12.495   6.350   1.057  0.00  0.00    +0.000 A 
ATOM     26  C   UNL     1      12.980   6.487  -0.223  0.00  0.00    +0.000 A 
ATOM     27  C   UNL     1      14.311   6.571  -0.714  0.00  0.00    +0.000 A 
ATOM     28  C   UNL     1      15.136   7.695  -0.729  0.00  0.00    +0.000 A 
ATOM     29  C   UNL     1      16.240   7.708  -1.580  0.00  0.00    +0.000 A 
ATOM     30  C   UNL     1      16.535   6.580  -2.357  0.00  0.00    +0.000 A 
ATOM     31  C   UNL     1      15.629   5.509  -2.429  0.00  0.00    +0.000 A 
ATOM     32  C   UNL     1      14.456   5.566  -1.673  0.00  0.00    +0.000 A 
ENDBRANCH  19  20
ENDBRANCH  18  19
ENDBRANCH   1  18
TORSDOF 8
