REMARK  Name = 
REMARK  4 active torsions:
REMARK  status: ('A' for Active; 'I' for Inactive)
REMARK    1  A    between atoms: C_2  and  C_16
REMARK    2  A    between atoms: N_3  and  C_4
REMARK    3  A    between atoms: C_8  and  C_9
REMARK    4  A    between atoms: N_18  and  C_19
REMARK                            x       y       z     vdW  Elec       q    Type
REMARK                         _______ _______ _______ _____ _____    ______ ____
ROOT
ATOM      1  O   UNL     1       0.948  -0.362   0.184  0.00  0.00    +0.000 OA
ATOM      2  C   UNL     1       2.156  -0.142   0.110  0.00  0.00    +0.000 C 
ATOM      3  N   UNL     1       2.809   0.818   0.855  0.00  0.00    +0.000 N 
ATOM      4  H   UNL     1       3.629   1.250   0.448  0.00  0.00    +0.000 HD
ENDROOT
BRANCH   3   5
ATOM      5  C   UNL     1       2.112   1.573   1.806  0.00  0.00    +0.000 A 
ATOM      6  C   UNL     1       1.220   0.973   2.697  0.00  0.00    +0.000 A 
ATOM      7  N   UNL     1       0.501   1.667   3.607  0.00  0.00    +0.000 NA
ATOM      8  C   UNL     1       0.657   3.007   3.535  0.00  0.00    +0.000 A 
ATOM      9  C   UNL     1       1.515   3.638   2.629  0.00  0.00    +0.000 A 
ATOM     10  N   UNL     1       2.319   2.908   1.801  0.00  0.00    +0.000 NA
BRANCH   9  11
ATOM     11  C   UNL     1       1.508   5.098   2.428  0.00  0.00    +0.000 A 
ATOM     12  C   UNL     1       2.675   5.796   2.076  0.00  0.00    +0.000 A 
ATOM     13  C   UNL     1       2.651   7.176   1.843  0.00  0.00    +0.000 A 
ATOM     14  C   UNL     1       1.457   7.885   1.948  0.00  0.00    +0.000 A 
ATOM     15  C   UNL     1       0.286   7.218   2.289  0.00  0.00    +0.000 A 
ATOM     16  C   UNL     1       0.314   5.842   2.526  0.00  0.00    +0.000 A 
ENDBRANCH   9  11
ENDBRANCH   3   5
BRANCH   2  17
ATOM     17  C   UNL     1       2.984  -0.880  -0.826  0.00  0.00    +0.000 A 
ATOM     18  C   UNL     1       2.517  -1.676  -1.849  0.00  0.00    +0.000 A 
ATOM     19  N   UNL     1       3.622  -2.315  -2.357  0.00  0.00    +0.000 N 
ATOM     20  N   UNL     1       4.721  -1.853  -1.704  0.00  0.00    +0.000 NA
ATOM     21  N   UNL     1       4.344  -0.973  -0.782  0.00  0.00    +0.000 NA
BRANCH  19  22
ATOM     22  C   UNL     1       3.686  -3.302  -3.368  0.00  0.00    +0.000 A 
ATOM     23  C   UNL     1       2.558  -3.652  -4.119  0.00  0.00    +0.000 A 
ATOM     24  F   UNL     1       1.370  -3.061  -3.936  0.00  0.00    +0.000 F 
ATOM     25  C   UNL     1       2.622  -4.626  -5.119  0.00  0.00    +0.000 A 
ATOM     26  C   UNL     1       3.822  -5.276  -5.383  0.00  0.00    +0.000 A 
ATOM     27  C   UNL     1       4.952  -4.947  -4.640  0.00  0.00    +0.000 A 
ATOM     28  C   UNL     1       4.885  -3.968  -3.646  0.00  0.00    +0.000 A 
ATOM     29  F   UNL     1       6.006  -3.725  -2.955  0.00  0.00    +0.000 F 
ENDBRANCH  19  22
ENDBRANCH   2  17
TORSDOF 4
