REMARK  Name = 
REMARK  5 active torsions:
REMARK  status: ('A' for Active; 'I' for Inactive)
REMARK    1  A    between atoms: N_11  and  C_12
REMARK    2  A    between atoms: C_12  and  C_13
REMARK    3  A    between atoms: N_15  and  C_16
REMARK    4  A    between atoms: C_17  and  C_18
REMARK    5  A    between atoms: N_22  and  C_23
REMARK                            x       y       z     vdW  Elec       q    Type
REMARK                         _______ _______ _______ _____ _____    ______ ____
ROOT
ATOM      1  C   UNL     1       3.999   1.199  -0.763  0.00  0.00    +0.000 C 
ATOM      2  O   UNL     1       3.219   2.122  -0.993  0.00  0.00    +0.000 OA
ATOM      3  N   UNL     1       5.364   1.378  -0.536  0.00  0.00    +0.000 N 
ATOM      4  H   UNL     1       5.940   0.642  -0.954  0.00  0.00    +0.000 HD
ENDROOT
BRANCH   3   5
ATOM      5  C   UNL     1       5.900   2.652  -0.451  0.00  0.00    +0.000 A 
ATOM      6  C   UNL     1       5.445   3.605   0.387  0.00  0.00    +0.000 A 
ATOM      7  C   UNL     1       6.012   4.987   0.320  0.00  0.00    +0.000 A 
ATOM      8  O   UNL     1       5.650   5.823   1.147  0.00  0.00    +0.000 OA
ATOM      9  N   UNL     1       6.970   5.220  -0.688  0.00  0.00    +0.000 N 
ATOM     10  C   UNL     1       7.440   4.187  -1.487  0.00  0.00    +0.000 A 
ATOM     11  C   UNL     1       6.970   2.942  -1.376  0.00  0.00    +0.000 A 
BRANCH   9  12
ATOM     12  C   UNL     1       7.529   6.531  -0.781  0.00  0.00    +0.000 A 
ATOM     13  C   UNL     1       8.918   6.705  -0.765  0.00  0.00    +0.000 A 
ATOM     14  C   UNL     1       9.464   7.989  -0.739  0.00  0.00    +0.000 A 
ATOM     15  C   UNL     1       8.630   9.106  -0.775  0.00  0.00    +0.000 A 
ATOM     16  C   UNL     1       7.248   8.942  -0.841  0.00  0.00    +0.000 A 
ATOM     17  C   UNL     1       6.698   7.660  -0.833  0.00  0.00    +0.000 A 
ENDBRANCH   9  12
BRANCH   6  18
ATOM     18  C   UNL     1       4.502   3.344   1.414  0.00  0.00    +0.000 C 
ATOM     19  N   UNL     1       3.753   3.060   2.263  0.00  0.00    +0.000 NA
ENDBRANCH   6  18
ENDBRANCH   3   5
BRANCH   1  20
ATOM     20  C   UNL     1       3.569  -0.256  -0.821  0.00  0.00    +0.000 C 
BRANCH  20  31
ATOM     21  C   UNL     1       1.420  -0.901  -2.905  0.00  0.00    +0.000 C 
ATOM     22  C   UNL     1       2.723  -1.147  -3.036  0.00  0.00    +0.000 C 
ATOM     23  C   UNL     1       3.369  -1.835  -4.158  0.00  0.00    +0.000 A 
ATOM     24  C   UNL     1       2.867  -2.475  -5.281  0.00  0.00    +0.000 A 
ATOM     25  C   UNL     1       3.773  -3.086  -6.157  0.00  0.00    +0.000 A 
ATOM     26  C   UNL     1       5.158  -3.057  -5.907  0.00  0.00    +0.000 A 
ATOM     27  C   UNL     1       5.662  -2.412  -4.776  0.00  0.00    +0.000 A 
ATOM     28  C   UNL     1       4.746  -1.815  -3.927  0.00  0.00    +0.000 A 
ATOM     29  C   UNL     1       4.983  -1.112  -2.656  0.00  0.00    +0.000 C 
ATOM     30  O   UNL     1       6.068  -0.855  -2.162  0.00  0.00    +0.000 OA
ATOM     31  N   UNL     1       3.732  -0.788  -2.160  0.00  0.00    +0.000 N 
ENDBRANCH  20  31
ENDBRANCH   1  20
TORSDOF 5
