REMARK  Name = 
REMARK  6 active torsions:
REMARK  status: ('A' for Active; 'I' for Inactive)
REMARK    1  A    between atoms: C_2  and  C_16
REMARK    2  A    between atoms: N_3  and  C_4
REMARK    3  A    between atoms: C_4  and  C_5
REMARK    4  A    between atoms: C_8  and  C_9
REMARK    5  A    between atoms: C_21  and  N_22
REMARK    6  A    between atoms: N_22  and  C_23
REMARK                            x       y       z     vdW  Elec       q    Type
REMARK                         _______ _______ _______ _____ _____    ______ ____
ROOT
ATOM      1  O   UNL     1       1.050   0.383  -0.357  0.00  0.00    +0.000 OA
ATOM      2  C   UNL     1       2.271   0.389  -0.253  0.00  0.00    +0.000 C 
ATOM      3  N   UNL     1       2.962   1.306   0.519  0.00  0.00    +0.000 N 
ATOM      4  H   UNL     1       3.921   1.108   0.788  0.00  0.00    +0.000 HD
ENDROOT
BRANCH   2   5
ATOM      5  C   UNL     1       3.101  -0.608  -0.997  0.00  0.00    +0.000 A 
ATOM      6  C   UNL     1       4.376  -0.215  -1.435  0.00  0.00    +0.000 A 
ATOM      7  C   UNL     1       5.150  -1.123  -2.131  0.00  0.00    +0.000 A 
ATOM      8  N   UNL     1       4.745  -2.368  -2.422  0.00  0.00    +0.000 NA
ATOM      9  C   UNL     1       3.500  -2.717  -2.010  0.00  0.00    +0.000 A 
ATOM     10  C   UNL     1       2.612  -1.893  -1.312  0.00  0.00    +0.000 A 
BRANCH  10  11
ATOM     11  N   UNL     1       1.345  -2.356  -0.888  0.00  0.00    +0.000 N 
ATOM     12  H   UNL     1       0.640  -1.616  -0.856  0.00  0.00    +0.000 HD
BRANCH  11  13
ATOM     13  C   UNL     1       0.859  -3.677  -0.831  0.00  0.00    +0.000 A 
ATOM     14  C   UNL     1       1.637  -4.713  -0.295  0.00  0.00    +0.000 A 
ATOM     15  C   UNL     1       1.182  -6.028  -0.321  0.00  0.00    +0.000 A 
ATOM     16  F   UNL     1       1.943  -6.998   0.203  0.00  0.00    +0.000 F 
ATOM     17  C   UNL     1      -0.042  -6.351  -0.887  0.00  0.00    +0.000 A 
ATOM     18  C   UNL     1      -0.827  -5.337  -1.431  0.00  0.00    +0.000 A 
ATOM     19  C   UNL     1      -0.378  -4.008  -1.402  0.00  0.00    +0.000 A 
ENDBRANCH  11  13
ENDBRANCH  10  11
ENDBRANCH   2   5
BRANCH   3  20
ATOM     20  C   UNL     1       2.270   2.354   1.254  0.00  0.00    +0.000 C 
BRANCH  20  21
ATOM     21  C   UNL     1       3.250   3.295   1.870  0.00  0.00    +0.000 A 
ATOM     22  N   UNL     1       4.395   3.039   2.471  0.00  0.00    +0.000 NA
ATOM     23  N   UNL     1       4.932   4.263   2.825  0.00  0.00    +0.000 NA
ATOM     24  C   UNL     1       4.083   5.186   2.415  0.00  0.00    +0.000 A 
ATOM     25  O   UNL     1       2.976   4.639   1.807  0.00  0.00    +0.000 OA
BRANCH  24  26
ATOM     26  C   UNL     1       4.193   6.644   2.436  0.00  0.00    +0.000 A 
ATOM     27  C   UNL     1       5.394   7.250   2.844  0.00  0.00    +0.000 A 
ATOM     28  C   UNL     1       5.552   8.639   2.795  0.00  0.00    +0.000 A 
ATOM     29  C   UNL     1       4.507   9.444   2.348  0.00  0.00    +0.000 A 
ATOM     30  C   UNL     1       3.300   8.864   1.967  0.00  0.00    +0.000 A 
ATOM     31  C   UNL     1       3.143   7.474   2.014  0.00  0.00    +0.000 A 
ENDBRANCH  24  26
ENDBRANCH  20  21
ENDBRANCH   3  20
TORSDOF 6
