REMARK  Name = 
REMARK  7 active torsions:
REMARK  status: ('A' for Active; 'I' for Inactive)
REMARK    1  A    between atoms: C_2  and  O_3
REMARK    2  A    between atoms: C_2  and  C_4
REMARK    3  A    between atoms: C_8  and  C_9
REMARK    4  A    between atoms: C_14  and  C_15
REMARK    5  A    between atoms: C_15  and  N_16
REMARK    6  A    between atoms: C_17  and  C_19
REMARK    7  A    between atoms: C_24  and  N_25
REMARK                            x       y       z     vdW  Elec       q    Type
REMARK                         _______ _______ _______ _____ _____    ______ ____
ROOT
ATOM      1  C   UNL     1       6.200  -2.632  -1.394  0.00  0.00    +0.000 A 
ATOM      2  C   UNL     1       7.443  -2.111  -1.840  0.00  0.00    +0.000 A 
ATOM      3  C   UNL     1       8.672  -2.648  -1.453  0.00  0.00    +0.000 A 
ATOM      4  C   UNL     1       8.703  -3.743  -0.610  0.00  0.00    +0.000 A 
ATOM      5  C   UNL     1       7.507  -4.326  -0.202  0.00  0.00    +0.000 A 
ATOM      6  C   UNL     1       6.246  -3.816  -0.602  0.00  0.00    +0.000 A 
ENDROOT
BRANCH   1  11
ATOM      7  C   UNL     1       3.883   0.355  -2.021  0.00  0.00    +0.000 A 
ATOM      8  C   UNL     1       2.654  -0.253  -2.259  0.00  0.00    +0.000 A 
ATOM      9  C   UNL     1       2.572  -1.640  -2.262  0.00  0.00    +0.000 A 
ATOM     10  C   UNL     1       3.718  -2.418  -2.037  0.00  0.00    +0.000 A 
ATOM     11  C   UNL     1       4.961  -1.845  -1.721  0.00  0.00    +0.000 A 
ATOM     12  C   UNL     1       5.007  -0.431  -1.715  0.00  0.00    +0.000 A 
BRANCH   7  14
ATOM     13  O   UNL     1       3.030   2.557  -1.732  0.00  0.00    +0.000 OA
ATOM     14  C   UNL     1       3.953   1.837  -2.069  0.00  0.00    +0.000 C 
BRANCH  14  15
ATOM     15  O   UNL     1       5.108   2.305  -2.588  0.00  0.00    +0.000 OA
ATOM     16  H   UNL     1       5.680   1.631  -2.998  0.00  0.00    +0.000 HD
ENDBRANCH  14  15
ENDBRANCH   7  14
ENDBRANCH   1  11
BRANCH   6  17
ATOM     17  C   UNL     1       4.992  -4.555  -0.170  0.00  0.00    +0.000 C 
BRANCH  17  18
ATOM     18  N   UNL     1       5.214  -5.782   0.573  0.00  0.00    +0.000 N 
ATOM     19  C   UNL     1       4.799  -5.924   1.875  0.00  0.00    +0.000 C 
ATOM     20  O   UNL     1       4.297  -5.021   2.525  0.00  0.00    +0.000 OA
ATOM     21  H   UNL     1       5.584  -6.572   0.061  0.00  0.00    +0.000 HD
BRANCH  19  22
ATOM     22  C   UNL     1       4.983  -7.272   2.486  0.00  0.00    +0.000 A 
ATOM     23  C   UNL     1       6.197  -7.942   2.248  0.00  0.00    +0.000 A 
ATOM     24  C   UNL     1       6.522  -9.101   2.953  0.00  0.00    +0.000 A 
ATOM     25  C   UNL     1       5.664  -9.572   3.944  0.00  0.00    +0.000 A 
ATOM     26  C   UNL     1       4.456  -8.918   4.191  0.00  0.00    +0.000 A 
ATOM     27  C   UNL     1       4.078  -7.795   3.427  0.00  0.00    +0.000 A 
BRANCH  27  28
ATOM     28  N   UNL     1       2.761  -7.292   3.603  0.00  0.00    +0.000 N 
ATOM     29  C   UNL     1       1.943  -6.654   2.695  0.00  0.00    +0.000 A 
ATOM     30  C   UNL     1       0.775  -6.422   3.374  0.00  0.00    +0.000 A 
ATOM     31  N   UNL     1       0.854  -6.977   4.613  0.00  0.00    +0.000 NA
ATOM     32  N   UNL     1       2.042  -7.555   4.726  0.00  0.00    +0.000 NA
ENDBRANCH  27  28
ENDBRANCH  19  22
ENDBRANCH  17  18
ENDBRANCH   6  17
TORSDOF 7
