REMARK  Name = 
REMARK  5 active torsions:
REMARK  status: ('A' for Active; 'I' for Inactive)
REMARK    1  A    between atoms: N_3  and  C_4
REMARK    2  A    between atoms: C_4  and  C_5
REMARK    3  A    between atoms: N_16  and  C_17
REMARK    4  A    between atoms: C_19  and  C_20
REMARK    5  A    between atoms: C_20  and  C_21
REMARK                            x       y       z     vdW  Elec       q    Type
REMARK                         _______ _______ _______ _____ _____    ______ ____
ROOT
ATOM      1  O   UNL     1       0.997   0.201   0.005  0.00  0.00    +0.000 OA
ATOM      2  C   UNL     1       2.218   0.065   0.031  0.00  0.00    +0.000 C 
ATOM      3  N   UNL     1       2.845  -0.945   0.683  0.00  0.00    +0.000 N 
ATOM      4  N   UNL     1       3.006   0.955  -0.636  0.00  0.00    +0.000 N 
ATOM      5  H   UNL     1       3.845  -0.810   0.810  0.00  0.00    +0.000 HD
ATOM      6  H   UNL     1       2.474   1.687  -1.082  0.00  0.00    +0.000 HD
ENDROOT
BRANCH   4   7
ATOM      7  C   UNL     1       4.393   0.931  -0.834  0.00  0.00    +0.000 A 
ATOM      8  C   UNL     1       4.963   1.954  -1.591  0.00  0.00    +0.000 A 
ATOM      9  C   UNL     1       6.340   1.929  -1.855  0.00  0.00    +0.000 A 
ATOM     10  C   UNL     1       7.093   0.875  -1.339  0.00  0.00    +0.000 A 
ATOM     11  C   UNL     1       6.449  -0.090  -0.583  0.00  0.00    +0.000 A 
ATOM     12  N   UNL     1       5.127  -0.077  -0.316  0.00  0.00    +0.000 NA
BRANCH   9  13
ATOM     13  C   UNL     1       7.001   3.024  -2.663  0.00  0.00    +0.000 C 
BRANCH  13  14
ATOM     14  C   UNL     1       7.509   4.174  -1.825  0.00  0.00    +0.000 A 
ATOM     15  C   UNL     1       8.814   4.160  -1.306  0.00  0.00    +0.000 A 
ATOM     16  C   UNL     1       9.268   5.208  -0.502  0.00  0.00    +0.000 A 
ATOM     17  C   UNL     1       8.427   6.278  -0.208  0.00  0.00    +0.000 A 
ATOM     18  C   UNL     1       7.135   6.309  -0.725  0.00  0.00    +0.000 A 
ATOM     19  C   UNL     1       6.676   5.263  -1.528  0.00  0.00    +0.000 A 
ENDBRANCH  13  14
ENDBRANCH   9  13
ENDBRANCH   4   7
BRANCH   3  20
ATOM     20  C   UNL     1       2.164  -1.930   1.494  0.00  0.00    +0.000 C 
BRANCH  20  21
ATOM     21  C   UNL     1       2.899  -3.243   1.459  0.00  0.00    +0.000 A 
ATOM     22  C   UNL     1       3.656  -3.685   0.437  0.00  0.00    +0.000 A 
ATOM     23  C   UNL     1       4.305  -4.995   0.478  0.00  0.00    +0.000 A 
ATOM     24  C   UNL     1       5.072  -5.468  -0.589  0.00  0.00    +0.000 A 
ATOM     25  C   UNL     1       5.660  -6.733  -0.520  0.00  0.00    +0.000 A 
ATOM     26  C   UNL     1       5.485  -7.528   0.614  0.00  0.00    +0.000 A 
ATOM     27  C   UNL     1       4.722  -7.060   1.686  0.00  0.00    +0.000 A 
ATOM     28  C   UNL     1       4.136  -5.797   1.611  0.00  0.00    +0.000 A 
ATOM     29  N   UNL     1       3.363  -5.321   2.675  0.00  0.00    +0.000 N 
ATOM     30  C   UNL     1       2.735  -4.103   2.674  0.00  0.00    +0.000 A 
ATOM     31  O   UNL     1       2.066  -3.741   3.638  0.00  0.00    +0.000 OA
ATOM     32  H   UNL     1       3.231  -5.883   3.504  0.00  0.00    +0.000 HD
ENDBRANCH  20  21
ENDBRANCH   3  20
TORSDOF 5
