REMARK  Name = 
REMARK  5 active torsions:
REMARK  status: ('A' for Active; 'I' for Inactive)
REMARK    1  A    between atoms: N_6  and  C_7
REMARK    2  A    between atoms: C_11  and  C_12
REMARK    3  A    between atoms: C_16  and  O_17
REMARK    4  A    between atoms: O_17  and  C_18
REMARK    5  A    between atoms: C_18  and  C_19
REMARK                            x       y       z     vdW  Elec       q    Type
REMARK                         _______ _______ _______ _____ _____    ______ ____
ROOT
ATOM      1  C   UNL     1       4.481   5.931  -1.604  0.00  0.00    +0.000 A 
ATOM      2  C   UNL     1       5.491   6.741  -1.053  0.00  0.00    +0.000 A 
ATOM      3  F   UNL     1       5.787   6.662   0.254  0.00  0.00    +0.000 F 
ATOM      4  C   UNL     1       6.246   7.625  -1.823  0.00  0.00    +0.000 A 
ATOM      5  C   UNL     1       6.029   7.711  -3.192  0.00  0.00    +0.000 A 
ATOM      6  C   UNL     1       5.004   6.965  -3.766  0.00  0.00    +0.000 A 
ATOM      7  C   UNL     1       4.254   6.090  -2.977  0.00  0.00    +0.000 A 
ATOM      8  F   UNL     1       3.288   5.388  -3.594  0.00  0.00    +0.000 F 
ENDROOT
BRANCH   1  13
ATOM      9  C   UNL     1       2.695   2.750  -0.475  0.00  0.00    +0.000 A 
ATOM     10  C   UNL     1       2.362   3.078   0.843  0.00  0.00    +0.000 A 
ATOM     11  C   UNL     1       2.690   4.333   1.345  0.00  0.00    +0.000 A 
ATOM     12  C   UNL     1       3.345   5.264   0.537  0.00  0.00    +0.000 A 
ATOM     13  C   UNL     1       3.725   4.959  -0.782  0.00  0.00    +0.000 A 
ATOM     14  C   UNL     1       3.387   3.681  -1.271  0.00  0.00    +0.000 A 
BRANCH   9  20
ATOM     15  N   UNL     1       0.414   0.754   0.261  0.00  0.00    +0.000 N 
ATOM     16  C   UNL     1       1.438   0.526  -0.601  0.00  0.00    +0.000 A 
ATOM     17  N   UNL     1       1.652  -0.580  -1.278  0.00  0.00    +0.000 NA
ATOM     18  N   UNL     1       2.661  -0.306  -2.163  0.00  0.00    +0.000 NA
ATOM     19  N   UNL     1       3.070   0.949  -2.050  0.00  0.00    +0.000 NA
ATOM     20  N   UNL     1       2.390   1.470  -1.000  0.00  0.00    +0.000 N 
ATOM     21  H   UNL     1      -0.318   0.048   0.237  0.00  0.00    +0.000 HD
ATOM     22  H   UNL     1       0.021   1.692   0.298  0.00  0.00    +0.000 HD
ENDBRANCH   9  20
ENDBRANCH   1  13
BRANCH   5  23
ATOM     23  O   UNL     1       6.872   8.543  -3.876  0.00  0.00    +0.000 OA
BRANCH  23  24
ATOM     24  C   UNL     1       7.028   8.233  -5.263  0.00  0.00    +0.000 C 
BRANCH  24  25
ATOM     25  C   UNL     1       8.320   8.815  -5.774  0.00  0.00    +0.000 A 
ATOM     26  C   UNL     1       9.348   7.969  -6.215  0.00  0.00    +0.000 A 
ATOM     27  C   UNL     1      10.529   8.499  -6.732  0.00  0.00    +0.000 A 
ATOM     28  C   UNL     1      10.697   9.880  -6.808  0.00  0.00    +0.000 A 
ATOM     29  C   UNL     1       9.687  10.732  -6.359  0.00  0.00    +0.000 A 
ATOM     30  C   UNL     1       8.504  10.203  -5.841  0.00  0.00    +0.000 A 
ENDBRANCH  24  25
ENDBRANCH  23  24
ENDBRANCH   5  23
TORSDOF 5
