REMARK  Name = 
REMARK  5 active torsions:
REMARK  status: ('A' for Active; 'I' for Inactive)
REMARK    1  A    between atoms: C_2  and  C_17
REMARK    2  A    between atoms: N_3  and  C_4
REMARK    3  A    between atoms: C_4  and  C_5
REMARK    4  A    between atoms: C_8  and  C_9
REMARK    5  A    between atoms: C_20  and  N_21
REMARK                            x       y       z     vdW  Elec       q    Type
REMARK                         _______ _______ _______ _____ _____    ______ ____
ROOT
ATOM      1  O   UNL     1       1.013  -0.202  -0.127  0.00  0.00    +0.000 OA
ATOM      2  C   UNL     1       2.214   0.042  -0.105  0.00  0.00    +0.000 C 
ATOM      3  N   UNL     1       2.887   0.638  -1.150  0.00  0.00    +0.000 N 
ATOM      4  H   UNL     1       3.898   0.578  -1.188  0.00  0.00    +0.000 HD
ENDROOT
BRANCH   2   5
ATOM      5  C   UNL     1       3.028  -0.340   1.080  0.00  0.00    +0.000 A 
ATOM      6  C   UNL     1       2.620  -1.437   1.844  0.00  0.00    +0.000 A 
ATOM      7  C   UNL     1       3.368  -1.839   2.958  0.00  0.00    +0.000 A 
ATOM      8  C   UNL     1       4.515  -1.137   3.351  0.00  0.00    +0.000 A 
ATOM      9  C   UNL     1       4.890  -0.013   2.594  0.00  0.00    +0.000 A 
ATOM     10  C   UNL     1       4.161   0.380   1.464  0.00  0.00    +0.000 A 
BRANCH   8  11
ATOM     11  N   UNL     1       5.274  -1.533   4.483  0.00  0.00    +0.000 N 
ATOM     12  C   UNL     1       6.207  -0.780   5.185  0.00  0.00    +0.000 A 
ATOM     13  C   UNL     1       6.716  -1.507   6.186  0.00  0.00    +0.000 A 
ATOM     14  N   UNL     1       6.144  -2.746   6.161  0.00  0.00    +0.000 N 
ATOM     15  C   UNL     1       5.219  -2.827   5.102  0.00  0.00    +0.000 A 
ATOM     16  O   UNL     1       4.577  -3.825   4.822  0.00  0.00    +0.000 OA
ATOM     17  H   UNL     1       6.334  -3.520   6.779  0.00  0.00    +0.000 HD
ENDBRANCH   8  11
ENDBRANCH   2   5
BRANCH   3  18
ATOM     18  C   UNL     1       2.207   0.895  -2.396  0.00  0.00    +0.000 C 
BRANCH  18  19
ATOM     19  C   UNL     1       2.848   2.040  -3.089  0.00  0.00    +0.000 A 
ATOM     20  C   UNL     1       2.384   3.293  -3.427  0.00  0.00    +0.000 A 
ATOM     21  C   UNL     1       3.434   3.936  -4.119  0.00  0.00    +0.000 A 
ATOM     22  C   UNL     1       4.497   3.052  -4.152  0.00  0.00    +0.000 A 
ATOM     23  O   UNL     1       4.136   1.887  -3.523  0.00  0.00    +0.000 OA
BRANCH  22  24
ATOM     24  C   UNL     1       5.859   3.134  -4.677  0.00  0.00    +0.000 A 
ATOM     25  C   UNL     1       6.739   2.046  -4.615  0.00  0.00    +0.000 A 
ATOM     26  C   UNL     1       8.046   2.175  -5.081  0.00  0.00    +0.000 A 
ATOM     27  F   UNL     1       8.880   1.129  -5.000  0.00  0.00    +0.000 F 
ATOM     28  C   UNL     1       8.507   3.369  -5.621  0.00  0.00    +0.000 A 
ATOM     29  C   UNL     1       7.642   4.454  -5.710  0.00  0.00    +0.000 A 
ATOM     30  C   UNL     1       6.328   4.334  -5.243  0.00  0.00    +0.000 A 
ENDBRANCH  22  24
ENDBRANCH  18  19
ENDBRANCH   3  18
TORSDOF 5
