REMARK  Name = 
REMARK  4 active torsions:
REMARK  status: ('A' for Active; 'I' for Inactive)
REMARK    1  A    between atoms: C_2  and  C_16
REMARK    2  A    between atoms: N_3  and  C_4
REMARK    3  A    between atoms: C_7  and  N_8
REMARK    4  A    between atoms: C_18  and  C_19
REMARK                            x       y       z     vdW  Elec       q    Type
REMARK                         _______ _______ _______ _____ _____    ______ ____
ROOT
ATOM      1  O   UNL     1       1.088  -0.179   0.067  0.00  0.00    +0.000 OA
ATOM      2  C   UNL     1       2.292   0.031   0.037  0.00  0.00    +0.000 C 
ATOM      3  N   UNL     1       2.925   1.263   0.115  0.00  0.00    +0.000 N 
ATOM      4  H   UNL     1       3.907   1.298  -0.131  0.00  0.00    +0.000 HD
ENDROOT
BRANCH   3   5
ATOM      5  C   UNL     1       2.273   2.504   0.270  0.00  0.00    +0.000 A 
ATOM      6  C   UNL     1       0.950   2.623   0.700  0.00  0.00    +0.000 A 
ATOM      7  C   UNL     1       0.324   3.871   0.754  0.00  0.00    +0.000 A 
ATOM      8  C   UNL     1       1.019   5.027   0.377  0.00  0.00    +0.000 A 
ATOM      9  C   UNL     1       2.356   4.910  -0.002  0.00  0.00    +0.000 A 
ATOM     10  F   UNL     1       3.081   5.979  -0.356  0.00  0.00    +0.000 F 
ATOM     11  C   UNL     1       2.986   3.663  -0.043  0.00  0.00    +0.000 A 
BRANCH   8  12
ATOM     12  N   UNL     1       0.349   6.268   0.374  0.00  0.00    +0.000 N 
ATOM     13  C   UNL     1       0.784   7.517   0.009  0.00  0.00    +0.000 A 
ATOM     14  N   UNL     1      -0.196   8.381   0.152  0.00  0.00    +0.000 NA
ATOM     15  N   UNL     1      -1.263   7.660   0.614  0.00  0.00    +0.000 NA
ATOM     16  N   UNL     1      -0.948   6.381   0.752  0.00  0.00    +0.000 NA
ENDBRANCH   8  12
ENDBRANCH   3   5
BRANCH   2  17
ATOM     17  C   UNL     1       3.185  -1.127  -0.162  0.00  0.00    +0.000 A 
ATOM     18  C   UNL     1       4.427  -1.236   0.467  0.00  0.00    +0.000 A 
ATOM     19  C   UNL     1       5.229  -2.372   0.265  0.00  0.00    +0.000 A 
ATOM     20  C   UNL     1       4.702  -3.345  -0.592  0.00  0.00    +0.000 A 
ATOM     21  N   UNL     1       3.501  -3.268  -1.217  0.00  0.00    +0.000 NA
ATOM     22  C   UNL     1       2.759  -2.164  -0.975  0.00  0.00    +0.000 A 
BRANCH  19  23
ATOM     23  C   UNL     1       6.544  -2.515   0.922  0.00  0.00    +0.000 A 
ATOM     24  C   UNL     1       6.774  -2.003   2.212  0.00  0.00    +0.000 A 
ATOM     25  C   UNL     1       8.030  -2.093   2.804  0.00  0.00    +0.000 A 
ATOM     26  F   UNL     1       8.219  -1.568   4.022  0.00  0.00    +0.000 F 
ATOM     27  C   UNL     1       9.087  -2.708   2.152  0.00  0.00    +0.000 A 
ATOM     28  C   UNL     1       8.883  -3.245   0.885  0.00  0.00    +0.000 A 
ATOM     29  C   UNL     1       7.626  -3.146   0.277  0.00  0.00    +0.000 A 
ENDBRANCH  19  23
ENDBRANCH   2  17
TORSDOF 4
