REMARK  Name = 
REMARK  8 active torsions:
REMARK  status: ('A' for Active; 'I' for Inactive)
REMARK    1  A    between atoms: C_1  and  C_2
REMARK    2  A    between atoms: C_2  and  N_3
REMARK    3  A    between atoms: C_2  and  C_29
REMARK    4  A    between atoms: C_4  and  C_6
REMARK    5  A    between atoms: C_6  and  N_7
REMARK    6  A    between atoms: C_8  and  C_10
REMARK    7  A    between atoms: C_11  and  C_12
REMARK    8  A    between atoms: C_18  and  C_19
REMARK                            x       y       z     vdW  Elec       q    Type
REMARK                         _______ _______ _______ _____ _____    ______ ____
ROOT
ATOM      1  C   UNL     1       2.507   2.767   7.012  0.00  0.00    +0.000 A 
ATOM      2  C   UNL     1       3.357   3.455   7.810  0.00  0.00    +0.000 A 
ATOM      3  C   UNL     1       2.787   4.652   8.557  0.00  0.00    +0.000 A 
ATOM      4  N   UNL     1       1.532   4.991   8.497  0.00  0.00    +0.000 NA
ATOM      5  N   UNL     1       0.708   4.247   7.733  0.00  0.00    +0.000 N 
ATOM      6  C   UNL     1       1.072   3.175   6.976  0.00  0.00    +0.000 A 
ATOM      7  O   UNL     1       0.232   2.571   6.309  0.00  0.00    +0.000 OA
ATOM      8  H   UNL     1      -0.267   4.531   7.700  0.00  0.00    +0.000 HD
ENDROOT
BRANCH   2   9
ATOM      9  C   UNL     1       4.778   3.075   7.949  0.00  0.00    +0.000 A 
ATOM     10  C   UNL     1       5.761   3.692   7.164  0.00  0.00    +0.000 A 
ATOM     11  C   UNL     1       7.112   3.430   7.400  0.00  0.00    +0.000 A 
ATOM     12  C   UNL     1       7.489   2.566   8.429  0.00  0.00    +0.000 A 
ATOM     13  C   UNL     1       6.516   1.913   9.185  0.00  0.00    +0.000 A 
ATOM     14  C   UNL     1       5.163   2.137   8.923  0.00  0.00    +0.000 A 
ENDBRANCH   2   9
BRANCH   3  15
ATOM     15  C   UNL     1       3.664   5.572   9.376  0.00  0.00    +0.000 A 
ATOM     16  C   UNL     1       3.352   6.941   9.386  0.00  0.00    +0.000 A 
ATOM     17  C   UNL     1       4.131   7.852  10.109  0.00  0.00    +0.000 A 
ATOM     18  C   UNL     1       5.247   7.413  10.814  0.00  0.00    +0.000 A 
ATOM     19  C   UNL     1       5.547   6.057  10.844  0.00  0.00    +0.000 A 
ATOM     20  C   UNL     1       4.731   5.146  10.169  0.00  0.00    +0.000 A 
ENDBRANCH   3  15
BRANCH   1  22
ATOM     21  N   UNL     1       1.974   0.754   5.751  0.00  0.00    +0.000 N 
ATOM     22  C   UNL     1       2.963   1.606   6.169  0.00  0.00    +0.000 C 
ATOM     23  O   UNL     1       4.137   1.410   5.862  0.00  0.00    +0.000 OA
ATOM     24  H   UNL     1       0.993   1.000   5.891  0.00  0.00    +0.000 HD
BRANCH  21  25
ATOM     25  C   UNL     1       2.271  -0.409   4.925  0.00  0.00    +0.000 C 
BRANCH  25  27
ATOM     26  N   UNL     1       2.326  -1.564   7.091  0.00  0.00    +0.000 N 
ATOM     27  C   UNL     1       2.585  -1.666   5.746  0.00  0.00    +0.000 C 
ATOM     28  O   UNL     1       2.970  -2.707   5.216  0.00  0.00    +0.000 OA
ATOM     29  H   UNL     1       1.974  -0.689   7.464  0.00  0.00    +0.000 HD
BRANCH  26  31
ATOM     30  C   UNL     1       1.531  -3.784   7.799  0.00  0.00    +0.000 C 
ATOM     31  C   UNL     1       2.536  -2.653   8.028  0.00  0.00    +0.000 C 
BRANCH  31  32
ATOM     32  C   UNL     1       2.403  -2.173   9.470  0.00  0.00    +0.000 A 
ATOM     33  C   UNL     1       3.173  -2.766  10.471  0.00  0.00    +0.000 A 
ATOM     34  C   UNL     1       2.923  -2.436  11.800  0.00  0.00    +0.000 A 
ATOM     35  C   UNL     1       1.914  -1.529  12.098  0.00  0.00    +0.000 A 
ATOM     36  C   UNL     1       1.210  -0.964  11.047  0.00  0.00    +0.000 A 
ATOM     37  N   UNL     1       1.437  -1.252   9.745  0.00  0.00    +0.000 NA
ENDBRANCH  31  32
ENDBRANCH  26  31
ENDBRANCH  25  27
ENDBRANCH  21  25
ENDBRANCH   1  22
TORSDOF 7
