REMARK  Name = 
REMARK  6 active torsions:
REMARK  status: ('A' for Active; 'I' for Inactive)
REMARK    1  A    between atoms: C_2  and  C_3
REMARK    2  A    between atoms: C_3  and  N_4
REMARK    3  A    between atoms: N_15  and  C_16
REMARK    4  A    between atoms: C_16  and  C_17
REMARK    5  A    between atoms: C_19  and  O_20
REMARK    6  A    between atoms: O_20  and  C_21
REMARK                            x       y       z     vdW  Elec       q    Type
REMARK                         _______ _______ _______ _____ _____    ______ ____
ROOT
ATOM      1  O   UNL     1       2.968   0.949   0.305  0.00  0.00    +0.000 OA
ATOM      2  C   UNL     1       2.413   0.047  -0.319  0.00  0.00    +0.000 C 
ATOM      3  N   UNL     1       3.101  -1.028  -0.846  0.00  0.00    +0.000 N 
ATOM      4  H   UNL     1       2.658  -1.615  -1.543  0.00  0.00    +0.000 HD
ENDROOT
BRANCH   2   5
ATOM      5  C   UNL     1       0.896  -0.003  -0.530  0.00  0.00    +0.000 C 
BRANCH   5   6
ATOM      6  N   UNL     1       0.486   0.722  -1.751  0.00  0.00    +0.000 N 
ATOM      7  C   UNL     1       0.412   0.072  -2.973  0.00  0.00    +0.000 A 
ATOM      8  C   UNL     1      -0.012   0.603  -4.121  0.00  0.00    +0.000 A 
ATOM      9  C   UNL     1      -0.455   2.008  -4.117  0.00  0.00    +0.000 A 
ATOM     10  O   UNL     1      -0.831   2.538  -5.157  0.00  0.00    +0.000 OA
ATOM     11  C   UNL     1      -0.434   2.725  -2.819  0.00  0.00    +0.000 A 
ATOM     12  C   UNL     1      -0.928   4.041  -2.781  0.00  0.00    +0.000 A 
ATOM     13  C   UNL     1      -0.926   4.744  -1.583  0.00  0.00    +0.000 A 
ATOM     14  C   UNL     1      -0.404   4.146  -0.441  0.00  0.00    +0.000 A 
ATOM     15  C   UNL     1       0.099   2.835  -0.485  0.00  0.00    +0.000 A 
ATOM     16  C   UNL     1       0.067   2.074  -1.667  0.00  0.00    +0.000 A 
ENDBRANCH   5   6
ENDBRANCH   2   5
BRANCH   3  17
ATOM     17  C   UNL     1       4.549  -1.111  -0.793  0.00  0.00    +0.000 C 
BRANCH  17  18
ATOM     18  C   UNL     1       5.014  -2.546  -0.917  0.00  0.00    +0.000 A 
ATOM     19  C   UNL     1       5.713  -3.145   0.125  0.00  0.00    +0.000 A 
ATOM     20  C   UNL     1       6.021  -4.503   0.039  0.00  0.00    +0.000 A 
ATOM     21  C   UNL     1       5.733  -5.194  -1.131  0.00  0.00    +0.000 A 
ATOM     22  C   UNL     1       5.069  -4.516  -2.136  0.00  0.00    +0.000 A 
ATOM     23  N   UNL     1       4.675  -3.223  -2.046  0.00  0.00    +0.000 NA
BRANCH  20  24
ATOM     24  O   UNL     1       6.633  -5.225   1.043  0.00  0.00    +0.000 OA
BRANCH  24  25
ATOM     25  C   UNL     1       6.389  -4.875   2.354  0.00  0.00    +0.000 A 
ATOM     26  C   UNL     1       5.143  -4.442   2.819  0.00  0.00    +0.000 A 
ATOM     27  C   UNL     1       5.022  -4.005   4.131  0.00  0.00    +0.000 A 
ATOM     28  F   UNL     1       3.852  -3.501   4.547  0.00  0.00    +0.000 F 
ATOM     29  C   UNL     1       6.096  -4.060   5.010  0.00  0.00    +0.000 A 
ATOM     30  C   UNL     1       7.313  -4.582   4.574  0.00  0.00    +0.000 A 
ATOM     31  C   UNL     1       7.459  -4.991   3.245  0.00  0.00    +0.000 A 
ENDBRANCH  24  25
ENDBRANCH  20  24
ENDBRANCH  17  18
ENDBRANCH   3  17
TORSDOF 6
