REMARK  Name = 
REMARK  7 active torsions:
REMARK  status: ('A' for Active; 'I' for Inactive)
REMARK    1  A    between atoms: C_1  and  N_2
REMARK    2  A    between atoms: C_4  and  C_5
REMARK    3  A    between atoms: C_9  and  C_10
REMARK    4  A    between atoms: N_12  and  C_13
REMARK    5  A    between atoms: C_16  and  O_17
REMARK    6  A    between atoms: O_17  and  C_18
REMARK    7  A    between atoms: C_23  and  C_24
REMARK                            x       y       z     vdW  Elec       q    Type
REMARK                         _______ _______ _______ _____ _____    ______ ____
ROOT
ATOM      1  C   UNL     1       5.649  -1.889   1.958  0.00  0.00    +0.000 C 
ATOM      2  O   UNL     1       5.182  -1.297   2.928  0.00  0.00    +0.000 OA
ATOM      3  N   UNL     1       6.920  -2.438   1.879  0.00  0.00    +0.000 N 
ATOM      4  H   UNL     1       7.183  -2.789   0.960  0.00  0.00    +0.000 HD
ENDROOT
BRANCH   1   9
ATOM      5  C   UNL     1       4.593  -2.800  -1.444  0.00  0.00    +0.000 A 
ATOM      6  C   UNL     1       3.315  -2.247  -1.539  0.00  0.00    +0.000 A 
ATOM      7  C   UNL     1       2.793  -1.557  -0.451  0.00  0.00    +0.000 A 
ATOM      8  C   UNL     1       3.557  -1.439   0.700  0.00  0.00    +0.000 A 
ATOM      9  C   UNL     1       4.822  -2.019   0.719  0.00  0.00    +0.000 A 
ATOM     10  N   UNL     1       5.365  -2.696  -0.329  0.00  0.00    +0.000 NA
BRANCH   5  14
ATOM     11  C   UNL     1       7.779  -5.271  -4.332  0.00  0.00    +0.000 C 
ATOM     12  N   UNL     1       6.603  -4.605  -3.828  0.00  0.00    +0.000 N 
ATOM     13  C   UNL     1       6.420  -4.099  -2.576  0.00  0.00    +0.000 A 
ATOM     14  C   UNL     1       5.175  -3.503  -2.574  0.00  0.00    +0.000 A 
ATOM     15  C   UNL     1       4.686  -3.740  -3.880  0.00  0.00    +0.000 A 
ATOM     16  N   UNL     1       5.553  -4.408  -4.644  0.00  0.00    +0.000 NA
ENDBRANCH   5  14
ENDBRANCH   1   9
BRANCH   3  17
ATOM     17  C   UNL     1       7.882  -2.444   2.913  0.00  0.00    +0.000 A 
ATOM     18  C   UNL     1       7.589  -2.146   4.245  0.00  0.00    +0.000 A 
ATOM     19  C   UNL     1       8.607  -2.103   5.202  0.00  0.00    +0.000 A 
ATOM     20  C   UNL     1       9.898  -2.385   4.792  0.00  0.00    +0.000 A 
ATOM     21  N   UNL     1      10.210  -2.752   3.528  0.00  0.00    +0.000 NA
ATOM     22  C   UNL     1       9.204  -2.755   2.620  0.00  0.00    +0.000 A 
BRANCH  20  23
ATOM     23  O   UNL     1      10.916  -2.256   5.732  0.00  0.00    +0.000 OA
BRANCH  23  24
ATOM     24  C   UNL     1      12.150  -1.833   5.266  0.00  0.00    +0.000 A 
ATOM     25  C   UNL     1      12.261  -0.875   4.244  0.00  0.00    +0.000 A 
ATOM     26  C   UNL     1      13.507  -0.474   3.770  0.00  0.00    +0.000 A 
ATOM     27  C   UNL     1      14.664  -0.979   4.357  0.00  0.00    +0.000 A 
ATOM     28  C   UNL     1      14.567  -1.894   5.407  0.00  0.00    +0.000 A 
ATOM     29  C   UNL     1      13.313  -2.331   5.869  0.00  0.00    +0.000 A 
BRANCH  29  30
ATOM     30  C   UNL     1      13.266  -3.289   6.939  0.00  0.00    +0.000 C 
ATOM     31  N   UNL     1      13.281  -4.057   7.807  0.00  0.00    +0.000 NA
ENDBRANCH  29  30
ENDBRANCH  23  24
ENDBRANCH  20  23
ENDBRANCH   3  17
TORSDOF 6
