REMARK  Name = 
REMARK  7 active torsions:
REMARK  status: ('A' for Active; 'I' for Inactive)
REMARK    1  A    between atoms: C_2  and  C_3
REMARK    2  A    between atoms: C_2  and  O_16
REMARK    3  A    between atoms: C_3  and  N_4
REMARK    4  A    between atoms: O_16  and  C_17
REMARK    5  A    between atoms: C_17  and  C_18
REMARK    6  A    between atoms: C_21  and  C_22
REMARK    7  A    between atoms: C_26  and  C_27
REMARK                            x       y       z     vdW  Elec       q    Type
REMARK                         _______ _______ _______ _____ _____    ______ ____
ROOT
ATOM      1  O   UNL     1       2.931  -0.362   1.098  0.00  0.00    +0.000 OA
ENDROOT
BRANCH   1   3
ATOM      2  O   UNL     1       2.826   1.883   0.638  0.00  0.00    +0.000 OA
ATOM      3  C   UNL     1       2.287   0.796   0.812  0.00  0.00    +0.000 C 
BRANCH   3   4
ATOM      4  C   UNL     1       0.781   0.607   0.808  0.00  0.00    +0.000 C 
BRANCH   4   5
ATOM      5  N   UNL     1       0.230   0.966   2.105  0.00  0.00    +0.000 N 
ATOM      6  C   UNL     1      -0.173   2.254   2.365  0.00  0.00    +0.000 A 
ATOM      7  N   UNL     1      -0.715   2.651   3.466  0.00  0.00    +0.000 NA
ATOM      8  C   UNL     1      -0.906   1.696   4.480  0.00  0.00    +0.000 A 
ATOM      9  C   UNL     1      -1.529   2.082   5.671  0.00  0.00    +0.000 A 
ATOM     10  C   UNL     1      -1.738   1.151   6.693  0.00  0.00    +0.000 A 
ATOM     11  C   UNL     1      -1.311  -0.162   6.529  0.00  0.00    +0.000 A 
ATOM     12  F   UNL     1      -1.511  -1.049   7.512  0.00  0.00    +0.000 F 
ATOM     13  C   UNL     1      -0.687  -0.569   5.359  0.00  0.00    +0.000 A 
ATOM     14  C   UNL     1      -0.500   0.368   4.337  0.00  0.00    +0.000 A 
ATOM     15  C   UNL     1       0.102  -0.028   3.056  0.00  0.00    +0.000 A 
ATOM     16  O   UNL     1       0.442  -1.194   2.875  0.00  0.00    +0.000 OA
ENDBRANCH   4   5
ENDBRANCH   3   4
ENDBRANCH   1   3
BRANCH   1  17
ATOM     17  C   UNL     1       4.368  -0.307   1.176  0.00  0.00    +0.000 C 
BRANCH  17  18
ATOM     18  C   UNL     1       4.869  -0.644   2.537  0.00  0.00    +0.000 A 
ATOM     19  C   UNL     1       5.156   0.196   3.589  0.00  0.00    +0.000 A 
ATOM     20  O   UNL     1       5.605  -0.559   4.630  0.00  0.00    +0.000 OA
ATOM     21  C   UNL     1       5.574  -1.846   4.156  0.00  0.00    +0.000 A 
ATOM     22  N   UNL     1       5.159  -1.943   2.906  0.00  0.00    +0.000 NA
BRANCH  21  23
ATOM     23  C   UNL     1       5.985  -2.904   5.079  0.00  0.00    +0.000 A 
ATOM     24  C   UNL     1       6.007  -4.234   4.633  0.00  0.00    +0.000 A 
ATOM     25  C   UNL     1       6.364  -5.276   5.491  0.00  0.00    +0.000 A 
ATOM     26  C   UNL     1       6.689  -5.004   6.818  0.00  0.00    +0.000 A 
ATOM     27  C   UNL     1       6.667  -3.687   7.300  0.00  0.00    +0.000 A 
ATOM     28  C   UNL     1       6.332  -2.643   6.415  0.00  0.00    +0.000 A 
BRANCH  27  29
ATOM     29  C   UNL     1       6.965  -3.390   8.749  0.00  0.00    +0.000 C 
ATOM     30  F   UNL     1       7.205  -4.506   9.495  0.00  0.00    +0.000 F 
ATOM     31  F   UNL     1       8.058  -2.594   8.909  0.00  0.00    +0.000 F 
ATOM     32  F   UNL     1       5.938  -2.745   9.369  0.00  0.00    +0.000 F 
ENDBRANCH  27  29
ENDBRANCH  21  23
ENDBRANCH  17  18
ENDBRANCH   1  17
TORSDOF 7
