REMARK  Name = 
REMARK  8 active torsions:
REMARK  status: ('A' for Active; 'I' for Inactive)
REMARK    1  A    between atoms: C_1  and  N_2
REMARK    2  A    between atoms: C_5  and  C_6
REMARK    3  A    between atoms: C_6  and  N_7
REMARK    4  A    between atoms: C_6  and  C_25
REMARK    5  A    between atoms: N_7  and  S_8
REMARK    6  A    between atoms: S_8  and  C_11
REMARK    7  A    between atoms: C_16  and  C_17
REMARK    8  A    between atoms: C_17  and  C_19
REMARK                            x       y       z     vdW  Elec       q    Type
REMARK                         _______ _______ _______ _____ _____    ______ ____
ROOT
ATOM      1  S   UNL     1       1.342   3.849   1.005  0.00  0.00    +0.000 S 
ATOM      2  O   UNL     1       2.170   4.701   0.175  0.00  0.00    +0.000 OA
ATOM      3  O   UNL     1       0.045   3.435   0.531  0.00  0.00    +0.000 OA
ENDROOT
BRANCH   1   4
ATOM      4  C   UNL     1       1.152   4.665   2.575  0.00  0.00    +0.000 A 
ATOM      5  C   UNL     1       2.229   5.470   2.998  0.00  0.00    +0.000 A 
ATOM      6  C   UNL     1       2.137   6.268   4.139  0.00  0.00    +0.000 A 
ATOM      7  C   UNL     1       0.948   6.313   4.852  0.00  0.00    +0.000 A 
ATOM      8  C   UNL     1      -0.135   5.543   4.429  0.00  0.00    +0.000 A 
ATOM      9  C   UNL     1      -0.045   4.703   3.298  0.00  0.00    +0.000 A 
BRANCH   9  10
ATOM     10  C   UNL     1      -1.310   4.012   2.964  0.00  0.00    +0.000 C 
ATOM     11  O   UNL     1      -2.322   4.708   2.881  0.00  0.00    +0.000 OA
BRANCH  10  12
ATOM     12  C   UNL     1      -1.445   2.533   2.908  0.00  0.00    +0.000 A 
ATOM     13  C   UNL     1      -2.631   2.008   2.374  0.00  0.00    +0.000 A 
ATOM     14  C   UNL     1      -2.872   0.635   2.398  0.00  0.00    +0.000 A 
ATOM     15  C   UNL     1      -1.921  -0.224   2.945  0.00  0.00    +0.000 A 
ATOM     16  C   UNL     1      -0.725   0.288   3.451  0.00  0.00    +0.000 A 
ATOM     17  C   UNL     1      -0.486   1.665   3.443  0.00  0.00    +0.000 A 
ENDBRANCH  10  12
ENDBRANCH   9  10
ENDBRANCH   1   4
BRANCH   1  18
ATOM     18  N   UNL     1       2.175   2.428   1.319  0.00  0.00    +0.000 NA
ATOM     19  H   UNL     1       1.558   1.623   1.415  0.00  0.00    +0.000 HD
BRANCH  18  20
ATOM     20  C   UNL     1       3.424   2.394   2.087  0.00  0.00    +0.000 C 
BRANCH  20  21
ATOM     21  C   UNL     1       4.044   0.997   2.189  0.00  0.00    +0.000 A 
ATOM     22  C   UNL     1       4.672   0.612   3.394  0.00  0.00    +0.000 A 
ATOM     23  C   UNL     1       5.298  -0.632   3.514  0.00  0.00    +0.000 A 
ATOM     24  C   UNL     1       5.307  -1.499   2.431  0.00  0.00    +0.000 A 
ATOM     25  F   UNL     1       5.922  -2.684   2.541  0.00  0.00    +0.000 F 
ATOM     26  C   UNL     1       4.699  -1.149   1.232  0.00  0.00    +0.000 A 
ATOM     27  C   UNL     1       4.068   0.096   1.107  0.00  0.00    +0.000 A 
ENDBRANCH  20  21
BRANCH  20  32
ATOM     28  C   UNL     1       7.017   5.645   2.194  0.00  0.00    +0.000 C 
ATOM     29  N   UNL     1       6.125   4.673   1.610  0.00  0.00    +0.000 N 
ATOM     30  C   UNL     1       5.948   4.421   0.284  0.00  0.00    +0.000 A 
ATOM     31  C   UNL     1       4.931   3.499   0.207  0.00  0.00    +0.000 A 
ATOM     32  C   UNL     1       4.538   3.259   1.551  0.00  0.00    +0.000 A 
ATOM     33  N   UNL     1       5.291   3.979   2.405  0.00  0.00    +0.000 NA
ENDBRANCH  20  32
ENDBRANCH  18  20
ENDBRANCH   1  18
TORSDOF 7
