REMARK  Name = 
REMARK  8 active torsions:
REMARK  status: ('A' for Active; 'I' for Inactive)
REMARK    1  A    between atoms: C_1  and  N_2
REMARK    2  A    between atoms: C_8  and  C_9
REMARK    3  A    between atoms: N_11  and  C_12
REMARK    4  A    between atoms: C_12  and  C_13
REMARK    5  A    between atoms: C_17  and  C_18
REMARK    6  A    between atoms: C_18  and  O_20
REMARK    7  A    between atoms: O_20  and  C_21
REMARK    8  A    between atoms: C_21  and  C_22
REMARK                            x       y       z     vdW  Elec       q    Type
REMARK                         _______ _______ _______ _____ _____    ______ ____
ROOT
ATOM      1  C   UNL     1       8.827  -1.085  -0.204  0.00  0.00    +0.000 C 
ATOM      2  O   UNL     1       9.412  -0.019  -0.024  0.00  0.00    +0.000 OA
ATOM      3  N   UNL     1       9.479  -2.287  -0.367  0.00  0.00    +0.000 N 
ATOM      4  H   UNL     1       8.975  -3.101  -0.693  0.00  0.00    +0.000 HD
ENDROOT
BRANCH   1  12
ATOM      5  C   UNL     1       1.074   0.122  -1.184  0.00  0.00    +0.000 C 
ATOM      6  N   UNL     1       2.516   0.114  -1.036  0.00  0.00    +0.000 N 
ATOM      7  C   UNL     1       3.243   1.216  -1.457  0.00  0.00    +0.000 A 
ATOM      8  O   UNL     1       2.747   2.224  -1.957  0.00  0.00    +0.000 OA
ATOM      9  N   UNL     1       4.600   1.152  -1.299  0.00  0.00    +0.000 N 
ATOM     10  C   UNL     1       5.275   0.040  -0.800  0.00  0.00    +0.000 A 
ATOM     11  C   UNL     1       6.669   0.035  -0.729  0.00  0.00    +0.000 A 
ATOM     12  C   UNL     1       7.341  -1.116  -0.282  0.00  0.00    +0.000 A 
ATOM     13  C   UNL     1       6.606  -2.243   0.111  0.00  0.00    +0.000 A 
ATOM     14  C   UNL     1       5.210  -2.218   0.066  0.00  0.00    +0.000 A 
ATOM     15  C   UNL     1       4.550  -1.073  -0.392  0.00  0.00    +0.000 A 
ATOM     16  C   UNL     1       3.078  -1.025  -0.465  0.00  0.00    +0.000 A 
ATOM     17  O   UNL     1       2.424  -1.974  -0.036  0.00  0.00    +0.000 OA
ATOM     18  H   UNL     1       5.110   1.968  -1.615  0.00  0.00    +0.000 HD
ENDBRANCH   1  12
BRANCH   3  19
ATOM     19  C   UNL     1      10.921  -2.358  -0.324  0.00  0.00    +0.000 C 
BRANCH  19  20
ATOM     20  C   UNL     1      11.411  -3.766  -0.545  0.00  0.00    +0.000 A 
ATOM     21  C   UNL     1      11.537  -4.650   0.536  0.00  0.00    +0.000 A 
ATOM     22  C   UNL     1      12.031  -5.940   0.345  0.00  0.00    +0.000 A 
ATOM     23  C   UNL     1      12.414  -6.357  -0.930  0.00  0.00    +0.000 A 
ATOM     24  C   UNL     1      12.281  -5.497  -2.029  0.00  0.00    +0.000 A 
ATOM     25  C   UNL     1      11.754  -4.211  -1.835  0.00  0.00    +0.000 A 
BRANCH  24  26
ATOM     26  C   UNL     1      12.765  -5.984  -3.353  0.00  0.00    +0.000 C 
ATOM     27  O   UNL     1      13.278  -7.082  -3.503  0.00  0.00    +0.000 OA
BRANCH  26  28
ATOM     28  O   UNL     1      12.593  -5.045  -4.314  0.00  0.00    +0.000 OA
BRANCH  28  29
ATOM     29  C   UNL     1      13.124  -5.374  -5.606  0.00  0.00    +0.000 C 
BRANCH  29  30
ATOM     30  C   UNL     1      12.020  -5.321  -6.631  0.00  0.00    +0.000 A 
ATOM     31  C   UNL     1      11.735  -4.131  -7.315  0.00  0.00    +0.000 A 
ATOM     32  C   UNL     1      10.706  -4.084  -8.257  0.00  0.00    +0.000 A 
ATOM     33  C   UNL     1       9.949  -5.224  -8.522  0.00  0.00    +0.000 A 
ATOM     34  C   UNL     1      10.225  -6.413  -7.850  0.00  0.00    +0.000 A 
ATOM     35  C   UNL     1      11.252  -6.462  -6.906  0.00  0.00    +0.000 A 
ENDBRANCH  29  30
ENDBRANCH  28  29
ENDBRANCH  26  28
ENDBRANCH  24  26
ENDBRANCH  19  20
ENDBRANCH   3  19
TORSDOF 7
