REMARK  Name = 
REMARK  9 active torsions:
REMARK  status: ('A' for Active; 'I' for Inactive)
REMARK    1  A    between atoms: C_2  and  C_4
REMARK    2  A    between atoms: C_4  and  N_5
REMARK    3  A    between atoms: N_5  and  C_6
REMARK    4  A    between atoms: C_6  and  C_7
REMARK    5  A    between atoms: C_10  and  C_11
REMARK    6  A    between atoms: C_19  and  C_21
REMARK    7  A    between atoms: C_21  and  C_22
REMARK    8  A    between atoms: C_22  and  C_23
REMARK    9  A    between atoms: C_23  and  C_25
REMARK                            x       y       z     vdW  Elec       q    Type
REMARK                         _______ _______ _______ _____ _____    ______ ____
ROOT
ATOM      1  N   UNL     1       4.689  -0.519   1.005  0.00  0.00    +0.000 N 
ATOM      2  C   UNL     1       5.572  -1.253   1.796  0.00  0.00    +0.000 C 
ATOM      3  O   UNL     1       5.180  -1.987   2.705  0.00  0.00    +0.000 OA
ENDROOT
BRANCH   1   4
ATOM      4  C   UNL     1       3.243  -0.734   1.221  0.00  0.00    +0.000 C 
BRANCH   4   6
ATOM      5  N   UNL     1       2.904   1.639   1.835  0.00  0.00    +0.000 N 
ATOM      6  C   UNL     1       2.337   0.492   1.368  0.00  0.00    +0.000 C 
ATOM      7  O   UNL     1       1.120   0.438   1.204  0.00  0.00    +0.000 OA
ATOM      8  H   UNL     1       2.293   2.432   1.990  0.00  0.00    +0.000 HD
ATOM      9  H   UNL     1       3.895   1.732   1.999  0.00  0.00    +0.000 HD
ENDBRANCH   4   6
ENDBRANCH   1   4
BRANCH   1  10
ATOM     10  C   UNL     1       5.098   0.250  -0.181  0.00  0.00    +0.000 C 
BRANCH  10  11
ATOM     11  C   UNL     1       4.833  -0.396  -1.524  0.00  0.00    +0.000 A 
ATOM     12  C   UNL     1       4.713   0.420  -2.658  0.00  0.00    +0.000 A 
ATOM     13  C   UNL     1       4.591  -0.135  -3.942  0.00  0.00    +0.000 A 
ATOM     14  C   UNL     1       4.600  -1.523  -4.146  0.00  0.00    +0.000 A 
ATOM     15  C   UNL     1       4.695  -2.328  -2.994  0.00  0.00    +0.000 A 
ATOM     16  C   UNL     1       4.811  -1.779  -1.708  0.00  0.00    +0.000 A 
BRANCH  14  17
ATOM     17  C   UNL     1       4.554  -2.125  -5.504  0.00  0.00    +0.000 A 
ATOM     18  C   UNL     1       5.127  -1.483  -6.619  0.00  0.00    +0.000 A 
ATOM     19  C   UNL     1       5.121  -2.075  -7.889  0.00  0.00    +0.000 A 
ATOM     20  C   UNL     1       4.553  -3.331  -8.072  0.00  0.00    +0.000 A 
ATOM     21  C   UNL     1       3.978  -3.988  -6.992  0.00  0.00    +0.000 A 
ATOM     22  C   UNL     1       3.970  -3.386  -5.729  0.00  0.00    +0.000 A 
ENDBRANCH  14  17
ENDBRANCH  10  11
ENDBRANCH   1  10
BRANCH   2  23
ATOM     23  C   UNL     1       7.059  -1.124   1.515  0.00  0.00    +0.000 C 
BRANCH  23  24
ATOM     24  C   UNL     1       7.897  -1.994   2.461  0.00  0.00    +0.000 C 
BRANCH  24  25
ATOM     25  C   UNL     1       9.378  -1.832   2.196  0.00  0.00    +0.000 C 
ATOM     26  O   UNL     1       9.807  -1.056   1.337  0.00  0.00    +0.000 OA
BRANCH  25  27
ATOM     27  C   UNL     1      10.357  -2.629   3.001  0.00  0.00    +0.000 A 
ATOM     28  C   UNL     1       9.958  -3.477   4.046  0.00  0.00    +0.000 A 
ATOM     29  C   UNL     1      10.915  -4.197   4.772  0.00  0.00    +0.000 A 
ATOM     30  C   UNL     1      12.263  -4.070   4.454  0.00  0.00    +0.000 A 
ATOM     31  F   UNL     1      13.172  -4.762   5.155  0.00  0.00    +0.000 F 
ATOM     32  C   UNL     1      12.663  -3.233   3.421  0.00  0.00    +0.000 A 
ATOM     33  F   UNL     1      13.962  -3.112   3.116  0.00  0.00    +0.000 F 
ATOM     34  C   UNL     1      11.721  -2.512   2.693  0.00  0.00    +0.000 A 
ENDBRANCH  25  27
ENDBRANCH  24  25
ENDBRANCH  23  24
ENDBRANCH   2  23
TORSDOF 9
