REMARK  Name = 
REMARK  3 active torsions:
REMARK  status: ('A' for Active; 'I' for Inactive)
REMARK    1  A    between atoms: C_2  and  C_18
REMARK    2  A    between atoms: C_6  and  C_7
REMARK    3  A    between atoms: N_22  and  C_23
REMARK                            x       y       z     vdW  Elec       q    Type
REMARK                         _______ _______ _______ _____ _____    ______ ____
ROOT
ATOM      1  O   UNL     1       1.018   0.326  -0.337  0.00  0.00    +0.000 OA
ATOM      2  C   UNL     1       2.163  -0.026  -0.088  0.00  0.00    +0.000 C 
ATOM      3  N   UNL     1       2.797  -1.125  -0.612  0.00  0.00    +0.000 N 
ATOM      4  C   UNL     1       2.208  -2.034  -1.479  0.00  0.00    +0.000 A 
ATOM      5  N   UNL     1       2.901  -3.167  -1.665  0.00  0.00    +0.000 NA
ATOM      6  C   UNL     1       2.341  -4.118  -2.452  0.00  0.00    +0.000 A 
ATOM      7  C   UNL     1       1.112  -3.931  -3.056  0.00  0.00    +0.000 A 
ATOM      8  C   UNL     1       0.498  -2.729  -2.823  0.00  0.00    +0.000 A 
ATOM      9  N   UNL     1       1.027  -1.777  -2.042  0.00  0.00    +0.000 NA
ATOM     10  H   UNL     1       3.701  -1.411  -0.275  0.00  0.00    +0.000 HD
ENDROOT
BRANCH   6  11
ATOM     11  C   UNL     1       3.110  -5.371  -2.599  0.00  0.00    +0.000 A 
ATOM     12  C   UNL     1       3.923  -5.850  -1.554  0.00  0.00    +0.000 A 
ATOM     13  C   UNL     1       4.633  -7.043  -1.685  0.00  0.00    +0.000 A 
ATOM     14  F   UNL     1       5.388  -7.473  -0.666  0.00  0.00    +0.000 F 
ATOM     15  C   UNL     1       4.565  -7.794  -2.847  0.00  0.00    +0.000 A 
ATOM     16  C   UNL     1       3.774  -7.333  -3.885  0.00  0.00    +0.000 A 
ATOM     17  F   UNL     1       3.693  -8.042  -5.019  0.00  0.00    +0.000 F 
ATOM     18  C   UNL     1       3.056  -6.143  -3.775  0.00  0.00    +0.000 A 
ENDBRANCH   6  11
BRANCH   2  19
ATOM     19  C   UNL     1       2.967   0.696   0.870  0.00  0.00    +0.000 A 
ATOM     20  C   UNL     1       4.282   1.106   0.741  0.00  0.00    +0.000 A 
ATOM     21  N   UNL     1       4.655   1.928   1.763  0.00  0.00    +0.000 NA
ATOM     22  C   UNL     1       3.582   2.040   2.512  0.00  0.00    +0.000 A 
ATOM     23  N   UNL     1       2.526   1.276   2.056  0.00  0.00    +0.000 N 
BRANCH  23  24
ATOM     24  C   UNL     1       1.284   1.106   2.736  0.00  0.00    +0.000 A 
ATOM     25  C   UNL     1       0.540  -0.072   2.594  0.00  0.00    +0.000 A 
ATOM     26  C   UNL     1      -0.672  -0.210   3.263  0.00  0.00    +0.000 A 
ATOM     27  F   UNL     1      -1.371  -1.346   3.128  0.00  0.00    +0.000 F 
ATOM     28  C   UNL     1      -1.166   0.800   4.076  0.00  0.00    +0.000 A 
ATOM     29  C   UNL     1      -0.425   1.969   4.239  0.00  0.00    +0.000 A 
ATOM     30  C   UNL     1       0.801   2.120   3.582  0.00  0.00    +0.000 A 
ENDBRANCH  23  24
ENDBRANCH   2  19
TORSDOF 3
