REMARK  Name = 
REMARK  6 active torsions:
REMARK  status: ('A' for Active; 'I' for Inactive)
REMARK    1  A    between atoms: C_2  and  C_4
REMARK    2  A    between atoms: C_7  and  C_8
REMARK    3  A    between atoms: C_8  and  C_9
REMARK    4  A    between atoms: N_11  and  C_12
REMARK    5  A    between atoms: C_12  and  C_13
REMARK    6  A    between atoms: C_16  and  C_17
REMARK                            x       y       z     vdW  Elec       q    Type
REMARK                         _______ _______ _______ _____ _____    ______ ____
ROOT
ATOM      1  C   UNL     1       4.885  -7.179  -4.524  0.00  0.00    +0.000 C 
ENDROOT
BRANCH   1   2
ATOM      2  C   UNL     1       5.582  -8.436  -4.949  0.00  0.00    +0.000 A 
ATOM      3  C   UNL     1       6.898  -8.366  -5.401  0.00  0.00    +0.000 A 
ATOM      4  C   UNL     1       7.592  -9.533  -5.701  0.00  0.00    +0.000 A 
ATOM      5  C   UNL     1       7.034 -10.820  -5.525  0.00  0.00    +0.000 A 
ATOM      6  C   UNL     1       5.683 -10.872  -5.158  0.00  0.00    +0.000 A 
ATOM      7  C   UNL     1       4.963  -9.694  -4.880  0.00  0.00    +0.000 A 
BRANCH   5   8
ATOM      8  C   UNL     1       7.906 -12.009  -5.698  0.00  0.00    +0.000 A 
ATOM      9  C   UNL     1       9.287 -11.854  -5.446  0.00  0.00    +0.000 A 
ATOM     10  C   UNL     1      10.210 -12.816  -5.827  0.00  0.00    +0.000 A 
ATOM     11  C   UNL     1       9.778 -14.038  -6.293  0.00  0.00    +0.000 A 
ATOM     12  C   UNL     1      10.720 -14.998  -6.675  0.00  0.00    +0.000 A 
ATOM     13  C   UNL     1      10.390 -16.342  -6.601  0.00  0.00    +0.000 A 
ATOM     14  C   UNL     1       9.058 -16.703  -6.439  0.00  0.00    +0.000 A 
ATOM     15  C   UNL     1       8.060 -15.716  -6.409  0.00  0.00    +0.000 A 
ATOM     16  C   UNL     1       8.408 -14.357  -6.277  0.00  0.00    +0.000 A 
ATOM     17  C   UNL     1       7.477 -13.291  -6.093  0.00  0.00    +0.000 A 
ENDBRANCH   5   8
ENDBRANCH   1   2
BRANCH   1  20
ATOM     18  C   UNL     1       3.606  -5.302  -5.397  0.00  0.00    +0.000 C 
ATOM     19  O   UNL     1       3.649  -4.746  -4.301  0.00  0.00    +0.000 OA
ATOM     20  N   UNL     1       4.207  -6.523  -5.614  0.00  0.00    +0.000 N 
ATOM     21  H   UNL     1       4.267  -6.926  -6.540  0.00  0.00    +0.000 HD
BRANCH  18  22
ATOM     22  C   UNL     1       2.928  -4.678  -6.607  0.00  0.00    +0.000 C 
BRANCH  22  26
ATOM     23  C   UNL     1      -1.272  -3.935  -6.431  0.00  0.00    +0.000 A 
ATOM     24  C   UNL     1      -0.584  -3.967  -5.233  0.00  0.00    +0.000 A 
ATOM     25  C   UNL     1       0.790  -4.219  -5.265  0.00  0.00    +0.000 A 
ATOM     26  C   UNL     1       1.435  -4.454  -6.483  0.00  0.00    +0.000 A 
ATOM     27  C   UNL     1       0.651  -4.380  -7.632  0.00  0.00    +0.000 A 
ATOM     28  N   UNL     1      -0.687  -4.141  -7.646  0.00  0.00    +0.000 NA
BRANCH  23  30
ATOM     29  N   UNL     1      -3.356  -3.668  -7.659  0.00  0.00    +0.000 N 
ATOM     30  C   UNL     1      -2.745  -3.652  -6.442  0.00  0.00    +0.000 C 
ATOM     31  O   UNL     1      -3.377  -3.407  -5.407  0.00  0.00    +0.000 OA
ATOM     32  H   UNL     1      -4.337  -3.489  -7.738  0.00  0.00    +0.000 HD
ATOM     33  H   UNL     1      -2.790  -3.868  -8.479  0.00  0.00    +0.000 HD
ENDBRANCH  23  30
ENDBRANCH  22  26
ENDBRANCH  18  22
ENDBRANCH   1  20
TORSDOF 6
