REMARK  Name = 
REMARK  4 active torsions:
REMARK  status: ('A' for Active; 'I' for Inactive)
REMARK    1  A    between atoms: C_2  and  C_16
REMARK    2  A    between atoms: N_6  and  C_7
REMARK    3  A    between atoms: C_18  and  C_19
REMARK    4  A    between atoms: C_28  and  O_29
REMARK                            x       y       z     vdW  Elec       q    Type
REMARK                         _______ _______ _______ _____ _____    ______ ____
ROOT
ATOM      1  O   UNL     1       1.096  -0.141  -0.392  0.00  0.00    +0.000 OA
ATOM      2  C   UNL     1       2.281  -0.072  -0.078  0.00  0.00    +0.000 C 
ATOM      3  N   UNL     1       2.866  -0.606   1.053  0.00  0.00    +0.000 N 
ATOM      4  C   UNL     1       2.176  -1.286   2.031  0.00  0.00    +0.000 A 
ATOM      5  N   UNL     1       0.875  -1.540   2.001  0.00  0.00    +0.000 NA
ATOM      6  N   UNL     1       0.658  -2.221   3.141  0.00  0.00    +0.000 N 
ATOM      7  N   UNL     1       1.742  -2.400   3.944  0.00  0.00    +0.000 NA
ATOM      8  C   UNL     1       2.707  -1.822   3.221  0.00  0.00    +0.000 A 
ATOM      9  H   UNL     1       3.865  -0.488   1.189  0.00  0.00    +0.000 HD
ENDROOT
BRANCH   6  10
ATOM     10  C   UNL     1      -0.626  -2.739   3.443  0.00  0.00    +0.000 A 
ATOM     11  C   UNL     1      -1.662  -2.601   2.502  0.00  0.00    +0.000 A 
ATOM     12  C   UNL     1      -2.919  -3.140   2.769  0.00  0.00    +0.000 A 
ATOM     13  C   UNL     1      -3.137  -3.800   3.972  0.00  0.00    +0.000 A 
ATOM     14  F   UNL     1      -4.343  -4.324   4.225  0.00  0.00    +0.000 F 
ATOM     15  C   UNL     1      -2.122  -3.928   4.917  0.00  0.00    +0.000 A 
ATOM     16  C   UNL     1      -0.857  -3.400   4.656  0.00  0.00    +0.000 A 
ENDBRANCH   6  10
BRANCH   2  17
ATOM     17  C   UNL     1       3.182   0.681  -0.989  0.00  0.00    +0.000 A 
ATOM     18  C   UNL     1       2.624   1.369  -2.076  0.00  0.00    +0.000 A 
ATOM     19  C   UNL     1       3.423   2.125  -2.948  0.00  0.00    +0.000 A 
ATOM     20  C   UNL     1       4.792   2.125  -2.657  0.00  0.00    +0.000 A 
ATOM     21  N   UNL     1       5.379   1.465  -1.627  0.00  0.00    +0.000 NA
ATOM     22  C   UNL     1       4.554   0.768  -0.830  0.00  0.00    +0.000 A 
BRANCH  19  23
ATOM     23  C   UNL     1       2.854   2.881  -4.085  0.00  0.00    +0.000 A 
ATOM     24  C   UNL     1       1.583   3.485  -4.004  0.00  0.00    +0.000 A 
ATOM     25  C   UNL     1       1.048   4.211  -5.076  0.00  0.00    +0.000 A 
ATOM     26  C   UNL     1       1.773   4.357  -6.255  0.00  0.00    +0.000 A 
ATOM     27  C   UNL     1       3.029   3.771  -6.364  0.00  0.00    +0.000 A 
ATOM     28  C   UNL     1       3.551   3.043  -5.295  0.00  0.00    +0.000 A 
ATOM     29  F   UNL     1       4.759   2.481  -5.463  0.00  0.00    +0.000 F 
ENDBRANCH  19  23
BRANCH  22  30
ATOM     30  O   UNL     1       5.229   0.148   0.173  0.00  0.00    +0.000 OA
ATOM     31  H   UNL     1       6.140   0.408  -0.072  0.00  0.00    +0.000 HD
ENDBRANCH  22  30
ENDBRANCH   2  17
TORSDOF 4
