REMARK  Name = 
REMARK  9 active torsions:
REMARK  status: ('A' for Active; 'I' for Inactive)
REMARK    1  A    between atoms: C_1  and  N_2
REMARK    2  A    between atoms: N_2  and  C_3
REMARK    3  A    between atoms: C_3  and  C_4
REMARK    4  A    between atoms: C_4  and  O_5
REMARK    5  A    between atoms: O_5  and  C_6
REMARK    6  A    between atoms: C_10  and  C_11
REMARK    7  A    between atoms: C_14  and  C_16
REMARK    8  A    between atoms: N_18  and  C_19
REMARK    9  A    between atoms: C_26  and  C_27
REMARK                            x       y       z     vdW  Elec       q    Type
REMARK                         _______ _______ _______ _____ _____    ______ ____
ROOT
ATOM      1  C   UNL     1       4.560   1.127   0.060  0.00  0.00    +0.000 A 
ATOM      2  C   UNL     1       5.471   0.461  -0.730  0.00  0.00    +0.000 A 
ATOM      3  N   UNL     1       6.732   0.809  -0.324  0.00  0.00    +0.000 N 
ATOM      4  N   UNL     1       6.691   1.586   0.780  0.00  0.00    +0.000 NA
ATOM      5  C   UNL     1       5.384   1.824   1.007  0.00  0.00    +0.000 A 
ENDROOT
BRANCH   3   6
ATOM      6  C   UNL     1       7.951   0.419  -0.946  0.00  0.00    +0.000 A 
ATOM      7  C   UNL     1       7.945  -0.237  -2.189  0.00  0.00    +0.000 A 
ATOM      8  C   UNL     1       9.143  -0.615  -2.797  0.00  0.00    +0.000 A 
ATOM      9  C   UNL     1      10.354  -0.347  -2.168  0.00  0.00    +0.000 A 
ATOM     10  C   UNL     1      10.370   0.307  -0.934  0.00  0.00    +0.000 A 
ATOM     11  C   UNL     1       9.174   0.696  -0.324  0.00  0.00    +0.000 A 
ENDBRANCH   3   6
BRANCH   5  12
ATOM     12  C   UNL     1       4.976   2.719   2.101  0.00  0.00    +0.000 A 
ATOM     13  C   UNL     1       3.850   3.538   1.984  0.00  0.00    +0.000 A 
ATOM     14  C   UNL     1       3.511   4.366   3.042  0.00  0.00    +0.000 A 
ATOM     15  N   UNL     1       4.222   4.454   4.183  0.00  0.00    +0.000 NA
ATOM     16  C   UNL     1       5.316   3.668   4.273  0.00  0.00    +0.000 A 
ATOM     17  C   UNL     1       5.726   2.794   3.277  0.00  0.00    +0.000 A 
ENDBRANCH   5  12
BRANCH   1  20
ATOM     18  C   UNL     1       0.968   1.082  -1.098  0.00  0.00    +0.000 C 
ATOM     19  N   UNL     1       2.420   0.977  -1.208  0.00  0.00    +0.000 N 
ATOM     20  C   UNL     1       3.102   1.034   0.025  0.00  0.00    +0.000 C 
ATOM     21  O   UNL     1       2.467   1.032   1.079  0.00  0.00    +0.000 OA
BRANCH  19  22
ATOM     22  C   UNL     1       3.075   1.059  -2.525  0.00  0.00    +0.000 C 
BRANCH  22  23
ATOM     23  C   UNL     1       2.226   0.808  -3.768  0.00  0.00    +0.000 C 
BRANCH  23  24
ATOM     24  O   UNL     1       1.418   1.947  -4.048  0.00  0.00    +0.000 OA
BRANCH  24  25
ATOM     25  C   UNL     1       0.551   1.799  -5.096  0.00  0.00    +0.000 A 
ATOM     26  C   UNL     1       0.091   0.581  -5.603  0.00  0.00    +0.000 A 
ATOM     27  C   UNL     1      -0.784   0.554  -6.687  0.00  0.00    +0.000 A 
ATOM     28  C   UNL     1      -1.210   1.750  -7.265  0.00  0.00    +0.000 A 
ATOM     29  C   UNL     1      -0.772   2.968  -6.744  0.00  0.00    +0.000 A 
ATOM     30  C   UNL     1       0.100   2.993  -5.653  0.00  0.00    +0.000 A 
BRANCH  29  31
ATOM     31  C   UNL     1      -1.214   4.199  -7.331  0.00  0.00    +0.000 C 
ATOM     32  N   UNL     1      -1.567   5.190  -7.811  0.00  0.00    +0.000 NA
ENDBRANCH  29  31
ENDBRANCH  24  25
ENDBRANCH  23  24
ENDBRANCH  22  23
ENDBRANCH  19  22
ENDBRANCH   1  20
TORSDOF 8
