REMARK  Name = 
REMARK  6 active torsions:
REMARK  status: ('A' for Active; 'I' for Inactive)
REMARK    1  A    between atoms: C_1  and  O_2
REMARK    2  A    between atoms: O_2  and  C_3
REMARK    3  A    between atoms: C_3  and  C_5
REMARK    4  A    between atoms: C_10  and  C_11
REMARK    5  A    between atoms: N_13  and  C_14
REMARK    6  A    between atoms: C_17  and  N_18
REMARK                            x       y       z     vdW  Elec       q    Type
REMARK                         _______ _______ _______ _____ _____    ______ ____
ROOT
ATOM      1  C   UNL     1      10.914  -2.037  -0.576  0.00  0.00    +0.000 C 
ATOM      2  O   UNL     1      11.461  -2.829  -1.342  0.00  0.00    +0.000 OA
ATOM      3  N   UNL     1      11.574  -1.146   0.261  0.00  0.00    +0.000 N 
ATOM      4  H   UNL     1      11.000  -0.669   0.948  0.00  0.00    +0.000 HD
ENDROOT
BRANCH   1  10
ATOM      5  C   UNL     1       4.564  -1.291   0.331  0.00  0.00    +0.000 A 
ATOM      6  C   UNL     1       5.273  -0.390   1.129  0.00  0.00    +0.000 A 
ATOM      7  C   UNL     1       6.678  -0.384   1.118  0.00  0.00    +0.000 A 
ATOM      8  C   UNL     1       7.419  -1.253   0.320  0.00  0.00    +0.000 A 
ATOM      9  N   UNL     1       8.773  -1.207   0.325  0.00  0.00    +0.000 NA
ATOM     10  C   UNL     1       9.419  -2.073  -0.504  0.00  0.00    +0.000 A 
ATOM     11  C   UNL     1       8.768  -2.996  -1.318  0.00  0.00    +0.000 A 
ATOM     12  C   UNL     1       7.385  -3.039  -1.306  0.00  0.00    +0.000 A 
ATOM     13  C   UNL     1       6.685  -2.159  -0.486  0.00  0.00    +0.000 A 
ATOM     14  C   UNL     1       5.280  -2.178  -0.474  0.00  0.00    +0.000 A 
BRANCH   5  15
ATOM     15  C   UNL     1       3.076  -1.352   0.292  0.00  0.00    +0.000 C 
ATOM     16  O   UNL     1       2.456  -2.156  -0.385  0.00  0.00    +0.000 OA
BRANCH  15  18
ATOM     17  C   UNL     1       1.106  -0.377   1.082  0.00  0.00    +0.000 C 
ATOM     18  O   UNL     1       2.535  -0.402   1.093  0.00  0.00    +0.000 OA
ENDBRANCH  15  18
ENDBRANCH   5  15
ENDBRANCH   1  10
BRANCH   3  19
ATOM     19  C   UNL     1      12.983  -0.993   0.308  0.00  0.00    +0.000 A 
ATOM     20  C   UNL     1      13.824  -1.436  -0.721  0.00  0.00    +0.000 A 
ATOM     21  C   UNL     1      15.214  -1.324  -0.632  0.00  0.00    +0.000 A 
ATOM     22  C   UNL     1      15.801  -0.798   0.519  0.00  0.00    +0.000 A 
ATOM     23  C   UNL     1      14.966  -0.333   1.550  0.00  0.00    +0.000 A 
ATOM     24  C   UNL     1      13.568  -0.395   1.427  0.00  0.00    +0.000 A 
BRANCH  22  25
ATOM     25  N   UNL     1      17.221  -0.754   0.657  0.00  0.00    +0.000 N 
ATOM     26  C   UNL     1      17.835  -1.329   1.765  0.00  0.00    +0.000 A 
ATOM     27  C   UNL     1      19.160  -1.277   1.948  0.00  0.00    +0.000 A 
ATOM     28  C   UNL     1      19.989  -0.582   1.002  0.00  0.00    +0.000 A 
ATOM     29  C   UNL     1      19.449  -0.034  -0.093  0.00  0.00    +0.000 A 
ATOM     30  C   UNL     1      17.979  -0.118  -0.345  0.00  0.00    +0.000 A 
ATOM     31  O   UNL     1      17.543   0.414  -1.365  0.00  0.00    +0.000 OA
ENDBRANCH  22  25
ENDBRANCH   3  19
TORSDOF 5
