REMARK  Name = 
REMARK  5 active torsions:
REMARK  status: ('A' for Active; 'I' for Inactive)
REMARK    1  A    between atoms: C_2  and  C_3
REMARK    2  A    between atoms: C_3  and  C_4
REMARK    3  A    between atoms: C_7  and  O_8
REMARK    4  A    between atoms: O_8  and  C_9
REMARK    5  A    between atoms: C_9  and  C_10
REMARK                            x       y       z     vdW  Elec       q    Type
REMARK                         _______ _______ _______ _____ _____    ______ ____
ROOT
ATOM      1  C   UNL     1       3.061  -0.891   0.754  0.00  0.00    +0.000 C 
ENDROOT
BRANCH   1   3
ATOM      2  O   UNL     1       3.947  -0.934  -1.450  0.00  0.00    +0.000 OA
ATOM      3  C   UNL     1       2.971  -1.172  -0.740  0.00  0.00    +0.000 C 
ATOM      4  N   UNL     1       1.732  -1.619  -1.162  0.00  0.00    +0.000 N 
ATOM      5  C   UNL     1       1.420  -2.057  -2.463  0.00  0.00    +0.000 A 
ATOM      6  N   UNL     1       2.380  -2.016  -3.402  0.00  0.00    +0.000 NA
ATOM      7  C   UNL     1       2.098  -2.487  -4.628  0.00  0.00    +0.000 A 
ATOM      8  C   UNL     1       0.874  -3.021  -4.969  0.00  0.00    +0.000 A 
ATOM      9  C   UNL     1      -0.130  -3.059  -4.025  0.00  0.00    +0.000 A 
ATOM     10  N   UNL     1      -1.316  -3.574  -4.382  0.00  0.00    +0.000 NA
ATOM     11  C   UNL     1      -2.282  -3.591  -3.452  0.00  0.00    +0.000 A 
ATOM     12  N   UNL     1      -2.172  -3.140  -2.199  0.00  0.00    +0.000 NA
ATOM     13  C   UNL     1      -0.966  -2.637  -1.874  0.00  0.00    +0.000 A 
ATOM     14  C   UNL     1       0.128  -2.563  -2.743  0.00  0.00    +0.000 A 
ATOM     15  H   UNL     1       1.024  -1.723  -0.454  0.00  0.00    +0.000 HD
ENDBRANCH   1   3
BRANCH   1  16
ATOM     16  C   UNL     1       2.176  -1.732   1.647  0.00  0.00    +0.000 A 
ATOM     17  C   UNL     1       2.273  -3.132   1.655  0.00  0.00    +0.000 A 
ATOM     18  C   UNL     1       1.477  -3.890   2.517  0.00  0.00    +0.000 A 
ATOM     19  C   UNL     1       0.598  -3.260   3.397  0.00  0.00    +0.000 A 
ATOM     20  C   UNL     1       0.460  -1.871   3.353  0.00  0.00    +0.000 A 
ATOM     21  C   UNL     1       1.254  -1.111   2.496  0.00  0.00    +0.000 A 
BRANCH  19  22
ATOM     22  O   UNL     1      -0.065  -4.080   4.273  0.00  0.00    +0.000 OA
BRANCH  22  23
ATOM     23  C   UNL     1      -0.490  -3.433   5.477  0.00  0.00    +0.000 C 
BRANCH  23  24
ATOM     24  C   UNL     1      -0.702  -4.420   6.601  0.00  0.00    +0.000 A 
ATOM     25  C   UNL     1      -0.425  -4.019   7.920  0.00  0.00    +0.000 A 
ATOM     26  C   UNL     1      -0.649  -4.887   8.987  0.00  0.00    +0.000 A 
ATOM     27  C   UNL     1      -1.160  -6.155   8.738  0.00  0.00    +0.000 A 
ATOM     28  F   UNL     1      -1.379  -6.987   9.762  0.00  0.00    +0.000 F 
ATOM     29  C   UNL     1      -1.453  -6.567   7.442  0.00  0.00    +0.000 A 
ATOM     30  C   UNL     1      -1.229  -5.699   6.372  0.00  0.00    +0.000 A 
ENDBRANCH  23  24
ENDBRANCH  22  23
ENDBRANCH  19  22
ENDBRANCH   1  16
TORSDOF 5
