REMARK  Name = 
REMARK  5 active torsions:
REMARK  status: ('A' for Active; 'I' for Inactive)
REMARK    1  A    between atoms: C_2  and  C_19
REMARK    2  A    between atoms: N_3  and  C_4
REMARK    3  A    between atoms: C_7  and  O_8
REMARK    4  A    between atoms: O_8  and  C_9
REMARK    5  A    between atoms: C_9  and  C_10
REMARK                            x       y       z     vdW  Elec       q    Type
REMARK                         _______ _______ _______ _____ _____    ______ ____
ROOT
ATOM      1  O   UNL     1       1.167  -0.708   0.531  0.00  0.00    +0.000 OA
ATOM      2  C   UNL     1       2.246  -0.260   0.174  0.00  0.00    +0.000 C 
ATOM      3  N   UNL     1       2.771   0.995   0.417  0.00  0.00    +0.000 N 
ATOM      4  H   UNL     1       3.603   1.253  -0.098  0.00  0.00    +0.000 HD
ENDROOT
BRANCH   2   5
ATOM      5  C   UNL     1       3.109  -1.087  -0.709  0.00  0.00    +0.000 A 
ATOM      6  C   UNL     1       4.510  -0.978  -0.619  0.00  0.00    +0.000 A 
ATOM      7  C   UNL     1       5.317  -1.594  -1.565  0.00  0.00    +0.000 A 
ATOM      8  C   UNL     1       4.715  -2.401  -2.521  0.00  0.00    +0.000 A 
ATOM      9  C   UNL     1       5.545  -3.143  -3.468  0.00  0.00    +0.000 A 
ATOM     10  O   UNL     1       6.617  -2.697  -3.855  0.00  0.00    +0.000 OA
ATOM     11  N   UNL     1       5.035  -4.378  -3.744  0.00  0.00    +0.000 N 
ATOM     12  N   UNL     1       3.707  -4.704  -3.759  0.00  0.00    +0.000 NA
ATOM     13  C   UNL     1       2.890  -3.845  -3.222  0.00  0.00    +0.000 A 
ATOM     14  C   UNL     1       3.350  -2.667  -2.486  0.00  0.00    +0.000 A 
ATOM     15  C   UNL     1       2.515  -1.963  -1.629  0.00  0.00    +0.000 A 
ATOM     16  H   UNL     1       5.702  -5.116  -3.979  0.00  0.00    +0.000 HD
ENDBRANCH   2   5
BRANCH   3  17
ATOM     17  C   UNL     1       2.221   2.018   1.198  0.00  0.00    +0.000 A 
ATOM     18  C   UNL     1       1.110   1.853   2.021  0.00  0.00    +0.000 A 
ATOM     19  C   UNL     1       0.626   2.932   2.762  0.00  0.00    +0.000 A 
ATOM     20  C   UNL     1       1.255   4.175   2.699  0.00  0.00    +0.000 A 
ATOM     21  C   UNL     1       2.354   4.349   1.860  0.00  0.00    +0.000 A 
ATOM     22  C   UNL     1       2.845   3.270   1.122  0.00  0.00    +0.000 A 
BRANCH  20  23
ATOM     23  O   UNL     1       0.707   5.145   3.489  0.00  0.00    +0.000 OA
BRANCH  23  24
ATOM     24  C   UNL     1       1.569   6.239   3.819  0.00  0.00    +0.000 C 
BRANCH  24  25
ATOM     25  C   UNL     1       1.088   6.900   5.082  0.00  0.00    +0.000 A 
ATOM     26  C   UNL     1      -0.283   7.002   5.386  0.00  0.00    +0.000 A 
ATOM     27  C   UNL     1      -0.701   7.621   6.571  0.00  0.00    +0.000 A 
ATOM     28  C   UNL     1       0.239   8.159   7.450  0.00  0.00    +0.000 A 
ATOM     29  C   UNL     1       1.602   8.069   7.155  0.00  0.00    +0.000 A 
ATOM     30  C   UNL     1       2.017   7.444   5.965  0.00  0.00    +0.000 A 
ATOM     31  F   UNL     1       3.321   7.391   5.687  0.00  0.00    +0.000 F 
ENDBRANCH  24  25
ENDBRANCH  23  24
ENDBRANCH  20  23
ENDBRANCH   3  17
TORSDOF 5
