REMARK  Name = 
REMARK  5 active torsions:
REMARK  status: ('A' for Active; 'I' for Inactive)
REMARK    1  A    between atoms: C_2  and  C_17
REMARK    2  A    between atoms: N_3  and  C_4
REMARK    3  A    between atoms: C_4  and  C_5
REMARK    4  A    between atoms: C_8  and  C_9
REMARK    5  A    between atoms: C_20  and  C_21
REMARK                            x       y       z     vdW  Elec       q    Type
REMARK                         _______ _______ _______ _____ _____    ______ ____
ROOT
ATOM      1  O   UNL     1       1.222  -0.129  -0.122  0.00  0.00    +0.000 OA
ATOM      2  C   UNL     1       2.427   0.084  -0.060  0.00  0.00    +0.000 C 
ATOM      3  N   UNL     1       3.090   0.956  -0.898  0.00  0.00    +0.000 N 
ATOM      4  H   UNL     1       4.098   0.911  -0.971  0.00  0.00    +0.000 HD
ENDROOT
BRANCH   2   5
ATOM      5  C   UNL     1       3.254  -0.660   0.928  0.00  0.00    +0.000 A 
ATOM      6  C   UNL     1       2.818  -1.931   1.325  0.00  0.00    +0.000 A 
ATOM      7  C   UNL     1       3.559  -2.682   2.244  0.00  0.00    +0.000 A 
ATOM      8  C   UNL     1       4.731  -2.153   2.798  0.00  0.00    +0.000 A 
ATOM      9  C   UNL     1       5.161  -0.876   2.404  0.00  0.00    +0.000 A 
ATOM     10  C   UNL     1       4.424  -0.128   1.476  0.00  0.00    +0.000 A 
BRANCH   8  11
ATOM     11  C   UNL     1       5.554  -2.914   3.787  0.00  0.00    +0.000 A 
ATOM     12  N   UNL     1       6.837  -2.709   3.834  0.00  0.00    +0.000 NA
ATOM     13  N   UNL     1       7.549  -3.422   4.757  0.00  0.00    +0.000 N 
ATOM     14  C   UNL     1       7.033  -4.329   5.644  0.00  0.00    +0.000 A 
ATOM     15  O   UNL     1       7.712  -4.942   6.459  0.00  0.00    +0.000 OA
ATOM     16  C   UNL     1       5.574  -4.531   5.576  0.00  0.00    +0.000 A 
ATOM     17  C   UNL     1       4.841  -3.855   4.689  0.00  0.00    +0.000 A 
ATOM     18  H   UNL     1       8.550  -3.262   4.781  0.00  0.00    +0.000 HD
ENDBRANCH   8  11
ENDBRANCH   2   5
BRANCH   3  19
ATOM     19  C   UNL     1       2.385   1.558  -2.006  0.00  0.00    +0.000 C 
BRANCH  19  20
ATOM     20  C   UNL     1       3.001   2.859  -2.362  0.00  0.00    +0.000 A 
ATOM     21  C   UNL     1       2.517   4.148  -2.311  0.00  0.00    +0.000 A 
ATOM     22  C   UNL     1       3.530   4.978  -2.838  0.00  0.00    +0.000 A 
ATOM     23  C   UNL     1       4.593   4.158  -3.167  0.00  0.00    +0.000 A 
ATOM     24  O   UNL     1       4.268   2.857  -2.877  0.00  0.00    +0.000 OA
BRANCH  23  25
ATOM     25  C   UNL     1       5.926   4.412  -3.715  0.00  0.00    +0.000 A 
ATOM     26  C   UNL     1       6.814   3.371  -4.010  0.00  0.00    +0.000 A 
ATOM     27  C   UNL     1       8.092   3.656  -4.487  0.00  0.00    +0.000 A 
ATOM     28  F   UNL     1       8.934   2.647  -4.752  0.00  0.00    +0.000 F 
ATOM     29  C   UNL     1       8.516   4.964  -4.688  0.00  0.00    +0.000 A 
ATOM     30  C   UNL     1       7.642   6.011  -4.419  0.00  0.00    +0.000 A 
ATOM     31  C   UNL     1       6.357   5.734  -3.939  0.00  0.00    +0.000 A 
ENDBRANCH  23  25
ENDBRANCH  19  20
ENDBRANCH   3  19
TORSDOF 5
