REMARK  Name = 
REMARK  8 active torsions:
REMARK  status: ('A' for Active; 'I' for Inactive)
REMARK    1  A    between atoms: C_2  and  C_3
REMARK    2  A    between atoms: C_3  and  N_4
REMARK    3  A    between atoms: C_6  and  C_7
REMARK    4  A    between atoms: N_9  and  C_10
REMARK    5  A    between atoms: N_9  and  C_14
REMARK    6  A    between atoms: C_10  and  C_11
REMARK    7  A    between atoms: C_14  and  C_15
REMARK    8  A    between atoms: C_18  and  C_19
REMARK                            x       y       z     vdW  Elec       q    Type
REMARK                         _______ _______ _______ _____ _____    ______ ____
ROOT
ATOM      1  C   UNL     1       4.458   4.929  -0.468  0.00  0.00    +0.000 C 
ATOM      2  O   UNL     1       4.785   3.788  -0.791  0.00  0.00    +0.000 OA
ATOM      3  N   UNL     1       3.358   5.140   0.395  0.00  0.00    +0.000 N 
ENDROOT
BRANCH   1   6
ATOM      4  N   UNL     1       6.677   7.776  -1.006  0.00  0.00    +0.000 N 
ATOM      5  C   UNL     1       5.642   7.193  -0.306  0.00  0.00    +0.000 A 
ATOM      6  C   UNL     1       5.270   6.038  -0.966  0.00  0.00    +0.000 A 
ATOM      7  C   UNL     1       5.957   6.061  -2.233  0.00  0.00    +0.000 A 
ATOM      8  C   UNL     1       5.959   5.204  -3.357  0.00  0.00    +0.000 A 
ATOM      9  C   UNL     1       6.701   5.533  -4.491  0.00  0.00    +0.000 A 
ATOM     10  C   UNL     1       7.456   6.698  -4.519  0.00  0.00    +0.000 A 
ATOM     11  C   UNL     1       7.534   7.538  -3.401  0.00  0.00    +0.000 A 
ATOM     12  C   UNL     1       6.772   7.201  -2.262  0.00  0.00    +0.000 A 
BRANCH   4  13
ATOM     13  C   UNL     1       7.590   8.781  -0.468  0.00  0.00    +0.000 C 
BRANCH  13  15
ATOM     14  N   UNL     1       7.401   9.161   2.280  0.00  0.00    +0.000 NA
ATOM     15  C   UNL     1       7.487   8.989   1.034  0.00  0.00    +0.000 C 
ENDBRANCH  13  15
ENDBRANCH   4  13
ENDBRANCH   1   6
BRANCH   3  16
ATOM     16  C   UNL     1       2.799   6.476   0.711  0.00  0.00    +0.000 C 
BRANCH  16  17
ATOM     17  C   UNL     1       1.310   6.672   0.975  0.00  0.00    +0.000 A 
ATOM     18  C   UNL     1       0.554   5.851   1.805  0.00  0.00    +0.000 A 
ATOM     19  C   UNL     1      -0.819   6.040   1.983  0.00  0.00    +0.000 A 
ATOM     20  C   UNL     1      -1.499   7.146   1.454  0.00  0.00    +0.000 A 
ATOM     21  C   UNL     1      -0.715   8.048   0.723  0.00  0.00    +0.000 A 
ATOM     22  C   UNL     1       0.655   7.812   0.476  0.00  0.00    +0.000 A 
BRANCH  20  23
ATOM     23  C   UNL     1      -2.958   7.317   1.692  0.00  0.00    +0.000 A 
ATOM     24  C   UNL     1      -3.593   6.724   2.804  0.00  0.00    +0.000 A 
ATOM     25  C   UNL     1      -4.972   6.822   3.014  0.00  0.00    +0.000 A 
ATOM     26  C   UNL     1      -5.757   7.542   2.125  0.00  0.00    +0.000 A 
ATOM     27  C   UNL     1      -5.162   8.158   1.028  0.00  0.00    +0.000 A 
ATOM     28  C   UNL     1      -3.782   8.038   0.810  0.00  0.00    +0.000 A 
ENDBRANCH  20  23
ENDBRANCH  16  17
ENDBRANCH   3  16
BRANCH   3  29
ATOM     29  C   UNL     1       2.782   3.906   0.964  0.00  0.00    +0.000 C 
BRANCH  29  30
ATOM     30  C   UNL     1       2.977   3.616   2.462  0.00  0.00    +0.000 C 
ATOM     31  N   UNL     1       3.940   4.307   3.133  0.00  0.00    +0.000 N 
ATOM     32  O   UNL     1       2.337   2.748   3.051  0.00  0.00    +0.000 OA
ATOM     33  H   UNL     1       4.574   4.943   2.674  0.00  0.00    +0.000 HD
ATOM     34  H   UNL     1       4.118   4.038   4.094  0.00  0.00    +0.000 HD
ENDBRANCH  29  30
ENDBRANCH   3  29
TORSDOF 8
