REMARK  Name = 
REMARK  6 active torsions:
REMARK  status: ('A' for Active; 'I' for Inactive)
REMARK    1  A    between atoms: N_3  and  C_4
REMARK    2  A    between atoms: C_4  and  C_5
REMARK    3  A    between atoms: C_5  and  O_6
REMARK    4  A    between atoms: C_5  and  C_7
REMARK    5  A    between atoms: N_17  and  C_18
REMARK    6  A    between atoms: N_22  and  C_23
REMARK                            x       y       z     vdW  Elec       q    Type
REMARK                         _______ _______ _______ _____ _____    ______ ____
ROOT
ATOM      1  O   UNL     1       0.990   0.026   0.095  0.00  0.00    +0.000 OA
ATOM      2  C   UNL     1       2.212   0.135   0.048  0.00  0.00    +0.000 C 
ATOM      3  N   UNL     1       2.928   0.714   1.066  0.00  0.00    +0.000 N 
ATOM      4  N   UNL     1       2.996  -0.238  -1.016  0.00  0.00    +0.000 N 
ATOM      5  H   UNL     1       3.880   0.402   1.195  0.00  0.00    +0.000 HD
ATOM      6  H   UNL     1       3.988  -0.381  -0.859  0.00  0.00    +0.000 HD
ENDROOT
BRANCH   4   7
ATOM      7  C   UNL     1       2.544  -0.639  -2.264  0.00  0.00    +0.000 A 
ATOM      8  C   UNL     1       1.356  -0.313  -2.783  0.00  0.00    +0.000 A 
ATOM      9  C   UNL     1       1.009  -0.649  -4.142  0.00  0.00    +0.000 A 
ATOM     10  C   UNL     1       1.846  -1.373  -4.887  0.00  0.00    +0.000 A 
ATOM     11  N   UNL     1       3.047  -1.847  -4.378  0.00  0.00    +0.000 N 
ATOM     12  C   UNL     1       3.495  -1.478  -3.093  0.00  0.00    +0.000 A 
ATOM     13  O   UNL     1       4.587  -1.774  -2.598  0.00  0.00    +0.000 OA
BRANCH  11  14
ATOM     14  C   UNL     1       3.856  -2.738  -5.141  0.00  0.00    +0.000 A 
ATOM     15  C   UNL     1       4.167  -4.008  -4.635  0.00  0.00    +0.000 A 
ATOM     16  C   UNL     1       4.989  -4.875  -5.358  0.00  0.00    +0.000 A 
ATOM     17  C   UNL     1       5.522  -4.471  -6.580  0.00  0.00    +0.000 A 
ATOM     18  C   UNL     1       5.200  -3.216  -7.099  0.00  0.00    +0.000 A 
ATOM     19  C   UNL     1       4.349  -2.360  -6.394  0.00  0.00    +0.000 A 
ENDBRANCH  11  14
ENDBRANCH   4   7
BRANCH   3  20
ATOM     20  C   UNL     1       2.230   1.186   2.261  0.00  0.00    +0.000 C 
BRANCH  20  21
ATOM     21  C   UNL     1       2.141   0.093   3.351  0.00  0.00    +0.000 C 
BRANCH  21  22
ATOM     22  C   UNL     1       1.355   0.540   4.575  0.00  0.00    +0.000 A 
ATOM     23  C   UNL     1       1.924   0.595   5.854  0.00  0.00    +0.000 A 
ATOM     24  C   UNL     1       1.173   1.009   6.960  0.00  0.00    +0.000 A 
ATOM     25  C   UNL     1      -0.174   1.369   6.822  0.00  0.00    +0.000 A 
ATOM     26  C   UNL     1      -0.935   1.789   7.926  0.00  0.00    +0.000 A 
ATOM     27  C   UNL     1      -2.279   2.135   7.775  0.00  0.00    +0.000 A 
ATOM     28  C   UNL     1      -2.877   2.062   6.521  0.00  0.00    +0.000 A 
ATOM     29  C   UNL     1      -2.133   1.644   5.416  0.00  0.00    +0.000 A 
ATOM     30  C   UNL     1      -0.777   1.297   5.549  0.00  0.00    +0.000 A 
ATOM     31  C   UNL     1      -0.006   0.879   4.445  0.00  0.00    +0.000 A 
ENDBRANCH  21  22
BRANCH  21  32
ATOM     32  O   UNL     1       3.486  -0.282   3.699  0.00  0.00    +0.000 OA
ATOM     33  H   UNL     1       3.948   0.534   3.954  0.00  0.00    +0.000 HD
ENDBRANCH  21  32
ENDBRANCH  20  21
ENDBRANCH   3  20
TORSDOF 6
