REMARK  Name = 
REMARK  9 active torsions:
REMARK  status: ('A' for Active; 'I' for Inactive)
REMARK    1  A    between atoms: C_1  and  C_2
REMARK    2  A    between atoms: C_6  and  C_7
REMARK    3  A    between atoms: C_7  and  O_8
REMARK    4  A    between atoms: O_8  and  C_9
REMARK    5  A    between atoms: C_14  and  C_15
REMARK    6  A    between atoms: C_15  and  O_17
REMARK    7  A    between atoms: O_17  and  C_18
REMARK    8  A    between atoms: C_18  and  C_19
REMARK    9  A    between atoms: C_22  and  C_23
REMARK                            x       y       z     vdW  Elec       q    Type
REMARK                         _______ _______ _______ _____ _____    ______ ____
ROOT
ATOM      1  C   UNL     1      10.529  -1.947  -0.039  0.00  0.00    +0.000 A 
ATOM      2  C   UNL     1      10.946  -3.014  -0.850  0.00  0.00    +0.000 A 
ATOM      3  C   UNL     1      12.230  -3.551  -0.724  0.00  0.00    +0.000 A 
ATOM      4  C   UNL     1      13.123  -3.010   0.192  0.00  0.00    +0.000 A 
ATOM      5  C   UNL     1      12.736  -1.924   0.972  0.00  0.00    +0.000 A 
ATOM      6  C   UNL     1      11.447  -1.373   0.859  0.00  0.00    +0.000 A 
ENDROOT
BRANCH   6   7
ATOM      7  C   UNL     1      11.140  -0.243   1.778  0.00  0.00    +0.000 C 
ATOM      8  O   UNL     1      11.720  -0.108   2.846  0.00  0.00    +0.000 OA
BRANCH   7   9
ATOM      9  O   UNL     1      10.239   0.622   1.259  0.00  0.00    +0.000 OA
BRANCH   9  10
ATOM     10  C   UNL     1       9.867   1.720   2.104  0.00  0.00    +0.000 C 
BRANCH  10  11
ATOM     11  C   UNL     1      10.142   3.022   1.400  0.00  0.00    +0.000 A 
ATOM     12  C   UNL     1      11.438   3.353   0.983  0.00  0.00    +0.000 A 
ATOM     13  C   UNL     1      11.702   4.591   0.384  0.00  0.00    +0.000 A 
ATOM     14  C   UNL     1      10.671   5.524   0.207  0.00  0.00    +0.000 A 
ATOM     15  C   UNL     1       9.373   5.188   0.607  0.00  0.00    +0.000 A 
ATOM     16  C   UNL     1       9.122   3.953   1.198  0.00  0.00    +0.000 A 
ATOM     17  F   UNL     1       7.872   3.671   1.595  0.00  0.00    +0.000 F 
BRANCH  14  18
ATOM     18  C   UNL     1      10.886   6.878  -0.380  0.00  0.00    +0.000 C 
ATOM     19  N   UNL     1      12.164   7.284  -0.643  0.00  0.00    +0.000 N 
ATOM     20  O   UNL     1       9.946   7.633  -0.602  0.00  0.00    +0.000 OA
ATOM     21  H   UNL     1      12.997   6.785  -0.374  0.00  0.00    +0.000 HD
ATOM     22  H   UNL     1      12.273   8.234  -0.974  0.00  0.00    +0.000 HD
ENDBRANCH  14  18
ENDBRANCH  10  11
ENDBRANCH   9  10
ENDBRANCH   7   9
ENDBRANCH   6   7
BRANCH   1  23
ATOM     23  O   UNL     1       9.253  -1.448  -0.070  0.00  0.00    +0.000 OA
BRANCH  23  24
ATOM     24  C   UNL     1       8.238  -2.315  -0.590  0.00  0.00    +0.000 C 
BRANCH  24  30
ATOM     25  C   UNL     1       1.877   0.556   1.948  0.00  0.00    +0.000 C 
ATOM     26  C   UNL     1       2.918  -0.323   1.334  0.00  0.00    +0.000 A 
ATOM     27  C   UNL     1       4.238  -0.051   1.367  0.00  0.00    +0.000 A 
ATOM     28  N   UNL     1       5.128  -0.908   0.730  0.00  0.00    +0.000 N 
ATOM     29  C   UNL     1       6.489  -0.815   0.610  0.00  0.00    +0.000 A 
ATOM     30  C   UNL     1       6.875  -1.905  -0.144  0.00  0.00    +0.000 A 
ATOM     31  N   UNL     1       5.778  -2.675  -0.476  0.00  0.00    +0.000 NA
ATOM     32  C   UNL     1       4.743  -2.061   0.056  0.00  0.00    +0.000 A 
ATOM     33  C   UNL     1       3.355  -2.369   0.044  0.00  0.00    +0.000 A 
ATOM     34  C   UNL     1       2.481  -1.541   0.651  0.00  0.00    +0.000 A 
ENDBRANCH  24  30
ENDBRANCH  23  24
ENDBRANCH   1  23
TORSDOF 8
