REMARK  Name = 
REMARK  4 active torsions:
REMARK  status: ('A' for Active; 'I' for Inactive)
REMARK    1  A    between atoms: C_2  and  C_3
REMARK    2  A    between atoms: C_5  and  C_6
REMARK    3  A    between atoms: C_13  and  N_14
REMARK    4  A    between atoms: C_15  and  C_17
REMARK                            x       y       z     vdW  Elec       q    Type
REMARK                         _______ _______ _______ _____ _____    ______ ____
ROOT
ATOM      1  N   UNL     1       2.533   2.320   0.033  0.00  0.00    +0.000 N 
ATOM      2  C   UNL     1       3.921   2.381   0.021  0.00  0.00    +0.000 C 
ATOM      3  O   UNL     1       4.666   1.409  -0.050  0.00  0.00    +0.000 OA
ATOM      4  H   UNL     1       2.011   3.184   0.061  0.00  0.00    +0.000 HD
ENDROOT
BRANCH   2   5
ATOM      5  C   UNL     1       4.527   3.757   0.099  0.00  0.00    +0.000 A 
ATOM      6  C   UNL     1       3.852   4.782  -0.463  0.00  0.00    +0.000 A 
ATOM      7  C   UNL     1       4.382   6.156  -0.483  0.00  0.00    +0.000 A 
ATOM      8  O   UNL     1       3.702   7.071  -0.933  0.00  0.00    +0.000 OA
ATOM      9  N   UNL     1       5.638   6.341   0.000  0.00  0.00    +0.000 N 
ATOM     10  C   UNL     1       6.436   5.307   0.497  0.00  0.00    +0.000 A 
ATOM     11  C   UNL     1       7.757   5.598   0.854  0.00  0.00    +0.000 A 
ATOM     12  C   UNL     1       8.584   4.582   1.320  0.00  0.00    +0.000 A 
ATOM     13  C   UNL     1       8.064   3.305   1.478  0.00  0.00    +0.000 A 
ATOM     14  F   UNL     1       8.855   2.329   1.944  0.00  0.00    +0.000 F 
ATOM     15  C   UNL     1       6.740   3.016   1.147  0.00  0.00    +0.000 A 
ATOM     16  C   UNL     1       5.906   4.006   0.606  0.00  0.00    +0.000 A 
ATOM     17  H   UNL     1       5.993   7.287  -0.046  0.00  0.00    +0.000 HD
ENDBRANCH   2   5
BRANCH   1  22
ATOM     18  C   UNL     1      -0.450   0.119  -0.121  0.00  0.00    +0.000 A 
ATOM     19  C   UNL     1       0.131  -1.155  -0.032  0.00  0.00    +0.000 A 
ATOM     20  C   UNL     1       1.520  -1.308   0.086  0.00  0.00    +0.000 A 
ATOM     21  C   UNL     1       2.294  -0.135   0.111  0.00  0.00    +0.000 A 
ATOM     22  C   UNL     1       1.746   1.144   0.006  0.00  0.00    +0.000 A 
ATOM     23  C   UNL     1       0.360   1.266  -0.103  0.00  0.00    +0.000 A 
BRANCH  20  24
ATOM     24  C   UNL     1       2.186  -2.624   0.217  0.00  0.00    +0.000 A 
ATOM     25  C   UNL     1       3.476  -2.841  -0.299  0.00  0.00    +0.000 A 
ATOM     26  C   UNL     1       4.105  -4.058  -0.090  0.00  0.00    +0.000 A 
ATOM     27  N   UNL     1       3.540  -5.084   0.574  0.00  0.00    +0.000 NA
ATOM     28  C   UNL     1       2.297  -4.876   1.053  0.00  0.00    +0.000 A 
ATOM     29  C   UNL     1       1.594  -3.689   0.905  0.00  0.00    +0.000 A 
ENDBRANCH  20  24
BRANCH  18  31
ATOM     30  N   UNL     1      -3.026   0.364  -0.290  0.00  0.00    +0.000 NA
ATOM     31  C   UNL     1      -1.874   0.252  -0.217  0.00  0.00    +0.000 C 
ENDBRANCH  18  31
ENDBRANCH   1  22
TORSDOF 4
