REMARK  Name = 
REMARK  4 active torsions:
REMARK  status: ('A' for Active; 'I' for Inactive)
REMARK    1  A    between atoms: C_2  and  C_17
REMARK    2  A    between atoms: N_6  and  C_7
REMARK    3  A    between atoms: C_22  and  O_23
REMARK    4  A    between atoms: O_23  and  C_24
REMARK                            x       y       z     vdW  Elec       q    Type
REMARK                         _______ _______ _______ _____ _____    ______ ____
ROOT
ATOM      1  O   UNL     1       0.968  -0.076  -0.388  0.00  0.00    +0.000 OA
ATOM      2  C   UNL     1       2.180   0.113  -0.308  0.00  0.00    +0.000 C 
ATOM      3  N   UNL     1       2.761   1.304   0.046  0.00  0.00    +0.000 N 
ATOM      4  C   UNL     1       2.049   2.437   0.353  0.00  0.00    +0.000 A 
ATOM      5  N   UNL     1       0.749   2.667   0.166  0.00  0.00    +0.000 NA
ATOM      6  N   UNL     1       0.560   3.871   0.741  0.00  0.00    +0.000 N 
ATOM      7  C   UNL     1       1.769   4.338   1.196  0.00  0.00    +0.000 A 
ATOM      8  N   UNL     1       2.723   3.472   0.937  0.00  0.00    +0.000 NA
ATOM      9  H   UNL     1       3.755   1.376   0.205  0.00  0.00    +0.000 HD
ENDROOT
BRANCH   6  10
ATOM     10  C   UNL     1      -0.723   4.474   0.832  0.00  0.00    +0.000 A 
ATOM     11  C   UNL     1      -1.822   3.880   0.192  0.00  0.00    +0.000 A 
ATOM     12  C   UNL     1      -3.082   4.470   0.287  0.00  0.00    +0.000 A 
ATOM     13  F   UNL     1      -4.125   3.906  -0.336  0.00  0.00    +0.000 F 
ATOM     14  C   UNL     1      -3.280   5.634   1.017  0.00  0.00    +0.000 A 
ATOM     15  C   UNL     1      -2.191   6.213   1.652  0.00  0.00    +0.000 A 
ATOM     16  F   UNL     1      -2.365   7.329   2.369  0.00  0.00    +0.000 F 
ATOM     17  C   UNL     1      -0.916   5.655   1.566  0.00  0.00    +0.000 A 
ENDBRANCH   6  10
BRANCH   2  18
ATOM     18  C   UNL     1       3.073  -1.054  -0.619  0.00  0.00    +0.000 A 
ATOM     19  C   UNL     1       2.407  -2.252  -0.951  0.00  0.00    +0.000 A 
ATOM     20  C   UNL     1       3.100  -3.412  -1.310  0.00  0.00    +0.000 A 
ATOM     21  C   UNL     1       4.479  -3.378  -1.423  0.00  0.00    +0.000 A 
ATOM     22  C   UNL     1       5.160  -2.198  -1.125  0.00  0.00    +0.000 A 
ATOM     23  C   UNL     1       4.483  -1.068  -0.619  0.00  0.00    +0.000 A 
BRANCH  23  24
ATOM     24  O   UNL     1       5.208  -0.001  -0.096  0.00  0.00    +0.000 OA
BRANCH  24  25
ATOM     25  C   UNL     1       6.402  -0.309   0.545  0.00  0.00    +0.000 A 
ATOM     26  C   UNL     1       7.500   0.511   0.302  0.00  0.00    +0.000 A 
ATOM     27  C   UNL     1       8.726   0.117   0.819  0.00  0.00    +0.000 A 
ATOM     28  N   UNL     1       8.915  -1.012   1.537  0.00  0.00    +0.000 NA
ATOM     29  C   UNL     1       7.823  -1.756   1.802  0.00  0.00    +0.000 A 
ATOM     30  C   UNL     1       6.552  -1.425   1.373  0.00  0.00    +0.000 A 
ENDBRANCH  24  25
ENDBRANCH  23  24
ENDBRANCH   2  18
TORSDOF 4
