REMARK  Name = 
REMARK  5 active torsions:
REMARK  status: ('A' for Active; 'I' for Inactive)
REMARK    1  A    between atoms: C_2  and  C_14
REMARK    2  A    between atoms: N_3  and  C_4
REMARK    3  A    between atoms: C_4  and  C_5
REMARK    4  A    between atoms: C_15  and  C_16
REMARK    5  A    between atoms: C_16  and  C_18
REMARK                            x       y       z     vdW  Elec       q    Type
REMARK                         _______ _______ _______ _____ _____    ______ ____
ROOT
ATOM      1  C   UNL     1       2.833  -0.939   0.860  0.00  0.00    +0.000 A 
ATOM      2  C   UNL     1       2.483  -2.304   0.809  0.00  0.00    +0.000 A 
ATOM      3  C   UNL     1       3.137  -3.211   1.661  0.00  0.00    +0.000 A 
ATOM      4  C   UNL     1       4.130  -2.766   2.526  0.00  0.00    +0.000 A 
ATOM      5  F   UNL     1       4.729  -3.646   3.339  0.00  0.00    +0.000 F 
ATOM      6  C   UNL     1       4.512  -1.433   2.534  0.00  0.00    +0.000 A 
ATOM      7  F   UNL     1       5.498  -1.020   3.341  0.00  0.00    +0.000 F 
ATOM      8  C   UNL     1       3.873  -0.517   1.709  0.00  0.00    +0.000 A 
ENDROOT
BRANCH   1  10
ATOM      9  O   UNL     1       2.826   1.068  -0.354  0.00  0.00    +0.000 OA
ATOM     10  C   UNL     1       2.164   0.128   0.073  0.00  0.00    +0.000 C 
ATOM     11  N   UNL     1       0.800   0.036  -0.056  0.00  0.00    +0.000 N 
ATOM     12  H   UNL     1       0.268  -0.697   0.383  0.00  0.00    +0.000 HD
BRANCH  11  13
ATOM     13  C   UNL     1       0.062   0.923  -0.927  0.00  0.00    +0.000 C 
BRANCH  13  14
ATOM     14  C   UNL     1      -0.599   2.036  -0.150  0.00  0.00    +0.000 A 
ATOM     15  C   UNL     1       0.129   3.202   0.109  0.00  0.00    +0.000 A 
ATOM     16  C   UNL     1      -0.461   4.240   0.829  0.00  0.00    +0.000 A 
ATOM     17  C   UNL     1      -1.779   4.054   1.267  0.00  0.00    +0.000 A 
ATOM     18  C   UNL     1      -2.729   4.825   1.989  0.00  0.00    +0.000 A 
ATOM     19  C   UNL     1      -3.882   4.075   2.095  0.00  0.00    +0.000 A 
ATOM     20  N   UNL     1      -3.658   2.873   1.474  0.00  0.00    +0.000 N 
ATOM     21  C   UNL     1      -2.390   2.844   0.963  0.00  0.00    +0.000 A 
ATOM     22  N   UNL     1      -1.868   1.807   0.283  0.00  0.00    +0.000 NA
ATOM     23  H   UNL     1      -4.315   2.112   1.380  0.00  0.00    +0.000 HD
ENDBRANCH  13  14
ENDBRANCH  11  13
ENDBRANCH   1  10
BRANCH   2  24
ATOM     24  C   UNL     1       1.548  -2.844  -0.217  0.00  0.00    +0.000 C 
ATOM     25  O   UNL     1       1.540  -2.357  -1.343  0.00  0.00    +0.000 OA
BRANCH  24  26
ATOM     26  C   UNL     1       0.665  -4.004   0.062  0.00  0.00    +0.000 A 
ATOM     27  C   UNL     1       0.367  -4.888  -0.985  0.00  0.00    +0.000 A 
ATOM     28  C   UNL     1      -0.423  -6.009  -0.750  0.00  0.00    +0.000 A 
ATOM     29  C   UNL     1      -0.927  -6.249   0.528  0.00  0.00    +0.000 A 
ATOM     30  C   UNL     1      -0.655  -5.360   1.567  0.00  0.00    +0.000 A 
ATOM     31  C   UNL     1       0.128  -4.230   1.335  0.00  0.00    +0.000 A 
ENDBRANCH  24  26
ENDBRANCH   2  24
TORSDOF 5
