REMARK  Name = 
REMARK  5 active torsions:
REMARK  status: ('A' for Active; 'I' for Inactive)
REMARK    1  A    between atoms: N_1  and  C_2
REMARK    2  A    between atoms: C_8  and  C_9
REMARK    3  A    between atoms: N_11  and  C_12
REMARK    4  A    between atoms: C_14  and  N_15
REMARK    5  A    between atoms: C_16  and  C_18
REMARK                            x       y       z     vdW  Elec       q    Type
REMARK                         _______ _______ _______ _____ _____    ______ ____
ROOT
ATOM      1  C   UNL     1       0.405   3.834   0.037  0.00  0.00    +0.000 A 
ATOM      2  C   UNL     1       0.743   4.775  -0.949  0.00  0.00    +0.000 A 
ATOM      3  C   UNL     1       0.009   5.952  -1.122  0.00  0.00    +0.000 A 
ATOM      4  C   UNL     1      -1.073   6.193  -0.267  0.00  0.00    +0.000 A 
ATOM      5  C   UNL     1      -1.460   5.234   0.676  0.00  0.00    +0.000 A 
ATOM      6  C   UNL     1      -0.734   4.049   0.816  0.00  0.00    +0.000 A 
ENDROOT
BRANCH   1   9
ATOM      7  C   UNL     1       2.470   2.447  -0.150  0.00  0.00    +0.000 C 
ATOM      8  O   UNL     1       3.183   3.237  -0.764  0.00  0.00    +0.000 OA
ATOM      9  N   UNL     1       1.174   2.675   0.287  0.00  0.00    +0.000 N 
ATOM     10  H   UNL     1       0.810   1.980   0.933  0.00  0.00    +0.000 HD
BRANCH   7  17
ATOM     11  C   UNL     1       4.169   0.603  -0.443  0.00  0.00    +0.000 A 
ATOM     12  C   UNL     1       4.636  -0.647  -0.026  0.00  0.00    +0.000 A 
ATOM     13  C   UNL     1       4.054  -1.270   1.067  0.00  0.00    +0.000 A 
ATOM     14  F   UNL     1       4.529  -2.443   1.502  0.00  0.00    +0.000 F 
ATOM     15  C   UNL     1       2.977  -0.668   1.700  0.00  0.00    +0.000 A 
ATOM     16  N   UNL     1       2.429   0.505   1.306  0.00  0.00    +0.000 NA
ATOM     17  C   UNL     1       3.039   1.116   0.240  0.00  0.00    +0.000 A 
BRANCH  11  18
ATOM     18  N   UNL     1       4.681   1.153  -1.630  0.00  0.00    +0.000 N 
ATOM     19  H   UNL     1       5.645   0.922  -1.844  0.00  0.00    +0.000 HD
ATOM     20  H   UNL     1       4.505   2.166  -1.686  0.00  0.00    +0.000 HD
ENDBRANCH  11  18
ENDBRANCH   7  17
ENDBRANCH   1   9
BRANCH   3  21
ATOM     21  N   UNL     1       0.323   6.939  -2.093  0.00  0.00    +0.000 N 
ATOM     22  C   UNL     1       1.186   6.805  -3.183  0.00  0.00    +0.000 C 
ATOM     23  O   UNL     1       1.682   5.753  -3.566  0.00  0.00    +0.000 OA
ATOM     24  H   UNL     1      -0.200   7.801  -2.020  0.00  0.00    +0.000 HD
BRANCH  22  25
ATOM     25  C   UNL     1       1.495   8.079  -3.932  0.00  0.00    +0.000 A 
ATOM     26  C   UNL     1       1.550   9.270  -3.184  0.00  0.00    +0.000 A 
ATOM     27  C   UNL     1       1.869  10.473  -3.798  0.00  0.00    +0.000 A 
ATOM     28  C   UNL     1       2.163  10.495  -5.157  0.00  0.00    +0.000 A 
ATOM     29  C   UNL     1       2.145   9.348  -5.930  0.00  0.00    +0.000 A 
ATOM     30  N   UNL     1       2.462   9.504  -7.225  0.00  0.00    +0.000 NA
ATOM     31  C   UNL     1       2.459   8.422  -8.021  0.00  0.00    +0.000 A 
ATOM     32  C   UNL     1       2.134   7.158  -7.575  0.00  0.00    +0.000 A 
ATOM     33  C   UNL     1       1.803   7.004  -6.228  0.00  0.00    +0.000 A 
ATOM     34  C   UNL     1       1.804   8.106  -5.336  0.00  0.00    +0.000 A 
ENDBRANCH  22  25
ENDBRANCH   3  21
TORSDOF 5
