REMARK  Name = 
REMARK  3 active torsions:
REMARK  status: ('A' for Active; 'I' for Inactive)
REMARK    1  A    between atoms: C_2  and  C_3
REMARK    2  A    between atoms: C_2  and  C_11
REMARK    3  A    between atoms: C_16  and  C_17
REMARK                            x       y       z     vdW  Elec       q    Type
REMARK                         _______ _______ _______ _____ _____    ______ ____
ROOT
ATOM      1  C   UNL     1       3.072  -0.148   1.158  0.00  0.00    +0.000 A 
ATOM      2  C   UNL     1       2.792  -1.100   2.172  0.00  0.00    +0.000 A 
ATOM      3  C   UNL     1       3.504  -1.144   3.368  0.00  0.00    +0.000 A 
ATOM      4  C   UNL     1       4.593  -0.314   3.533  0.00  0.00    +0.000 A 
ATOM      5  C   UNL     1       4.939   0.574   2.514  0.00  0.00    +0.000 A 
ATOM      6  C   UNL     1       4.154   0.747   1.353  0.00  0.00    +0.000 A 
ENDROOT
BRANCH   6   7
ATOM      7  C   UNL     1       4.583   1.835   0.397  0.00  0.00    +0.000 C 
ATOM      8  O   UNL     1       4.496   1.670  -0.814  0.00  0.00    +0.000 OA
ATOM      9  N   UNL     1       5.115   3.033   0.874  0.00  0.00    +0.000 N 
ATOM     10  C   UNL     1       5.229   3.537   2.246  0.00  0.00    +0.000 C 
ATOM     11  C   UNL     1       5.513   4.990   2.083  0.00  0.00    +0.000 A 
ATOM     12  C   UNL     1       5.631   5.974   3.042  0.00  0.00    +0.000 A 
ATOM     13  C   UNL     1       5.928   7.257   2.600  0.00  0.00    +0.000 A 
ATOM     14  F   UNL     1       6.043   8.259   3.481  0.00  0.00    +0.000 F 
ATOM     15  C   UNL     1       6.107   7.489   1.238  0.00  0.00    +0.000 A 
ATOM     16  N   UNL     1       6.013   6.529   0.280  0.00  0.00    +0.000 NA
ATOM     17  C   UNL     1       5.714   5.299   0.741  0.00  0.00    +0.000 A 
ATOM     18  C   UNL     1       5.546   4.055  -0.099  0.00  0.00    +0.000 C 
ENDBRANCH   6   7
BRANCH   1  20
ATOM     19  O   UNL     1       2.757  -0.120  -1.205  0.00  0.00    +0.000 OA
ATOM     20  C   UNL     1       2.253  -0.280  -0.104  0.00  0.00    +0.000 C 
BRANCH  20  21
ATOM     21  C   UNL     1       0.867  -0.835  -0.087  0.00  0.00    +0.000 A 
ATOM     22  C   UNL     1       0.483  -1.653  -1.171  0.00  0.00    +0.000 A 
ATOM     23  C   UNL     1      -0.733  -2.341  -1.151  0.00  0.00    +0.000 A 
ATOM     24  C   UNL     1      -1.567  -2.210  -0.049  0.00  0.00    +0.000 A 
ATOM     25  F   UNL     1      -2.701  -2.922   0.007  0.00  0.00    +0.000 F 
ATOM     26  C   UNL     1      -1.221  -1.360   0.996  0.00  0.00    +0.000 A 
ATOM     27  F   UNL     1      -2.021  -1.251   2.066  0.00  0.00    +0.000 F 
ATOM     28  C   UNL     1      -0.024  -0.645   0.974  0.00  0.00    +0.000 A 
ENDBRANCH  20  21
ENDBRANCH   1  20
TORSDOF 3
