REMARK  Name = 
REMARK  5 active torsions:
REMARK  status: ('A' for Active; 'I' for Inactive)
REMARK    1  A    between atoms: C_2  and  C_3
REMARK    2  A    between atoms: N_5  and  C_6
REMARK    3  A    between atoms: C_9  and  N_10
REMARK    4  A    between atoms: C_11  and  C_13
REMARK    5  A    between atoms: C_16  and  C_17
REMARK                            x       y       z     vdW  Elec       q    Type
REMARK                         _______ _______ _______ _____ _____    ______ ____
ROOT
ATOM      1  N   UNL     1      10.487   3.639   0.382  0.00  0.00    +0.000 N 
ATOM      2  C   UNL     1      10.835   4.537   1.381  0.00  0.00    +0.000 C 
ATOM      3  O   UNL     1      10.155   4.840   2.356  0.00  0.00    +0.000 OA
ATOM      4  H   UNL     1      11.179   3.518  -0.352  0.00  0.00    +0.000 HD
ENDROOT
BRANCH   1   8
ATOM      5  C   UNL     1       6.917   1.384   0.032  0.00  0.00    +0.000 A 
ATOM      6  C   UNL     1       7.105   2.232   1.125  0.00  0.00    +0.000 A 
ATOM      7  C   UNL     1       8.283   2.971   1.253  0.00  0.00    +0.000 A 
ATOM      8  C   UNL     1       9.292   2.895   0.293  0.00  0.00    +0.000 A 
ATOM      9  C   UNL     1       9.108   2.044  -0.804  0.00  0.00    +0.000 A 
ATOM     10  C   UNL     1       7.929   1.288  -0.935  0.00  0.00    +0.000 A 
BRANCH   5  13
ATOM     11  C   UNL     1       3.764  -0.333   0.334  0.00  0.00    +0.000 A 
ATOM     12  C   UNL     1       4.624   0.651   0.758  0.00  0.00    +0.000 A 
ATOM     13  N   UNL     1       5.725   0.614  -0.076  0.00  0.00    +0.000 N 
ATOM     14  N   UNL     1       5.563  -0.313  -1.058  0.00  0.00    +0.000 NA
ATOM     15  C   UNL     1       4.392  -0.896  -0.782  0.00  0.00    +0.000 A 
BRANCH  11  17
ATOM     16  N   UNL     1       1.502  -0.966   1.412  0.00  0.00    +0.000 NA
ATOM     17  C   UNL     1       2.515  -0.684   0.924  0.00  0.00    +0.000 C 
ENDBRANCH  11  17
ENDBRANCH   5  13
ENDBRANCH   1   8
BRANCH   2  18
ATOM     18  C   UNL     1      12.159   5.136   1.209  0.00  0.00    +0.000 A 
ATOM     19  N   UNL     1      12.935   4.896   0.140  0.00  0.00    +0.000 NA
ATOM     20  O   UNL     1      14.109   5.596   0.369  0.00  0.00    +0.000 OA
ATOM     21  C   UNL     1      14.041   6.246   1.569  0.00  0.00    +0.000 A 
ATOM     22  C   UNL     1      12.807   6.008   2.120  0.00  0.00    +0.000 A 
BRANCH  21  23
ATOM     23  C   UNL     1      15.223   6.992   1.984  0.00  0.00    +0.000 A 
ATOM     24  C   UNL     1      15.232   7.689   3.208  0.00  0.00    +0.000 A 
ATOM     25  C   UNL     1      16.358   8.411   3.618  0.00  0.00    +0.000 A 
ATOM     26  C   UNL     1      17.485   8.439   2.807  0.00  0.00    +0.000 A 
ATOM     27  F   UNL     1      18.559   9.138   3.197  0.00  0.00    +0.000 F 
ATOM     28  C   UNL     1      17.496   7.748   1.604  0.00  0.00    +0.000 A 
ATOM     29  F   UNL     1      18.587   7.767   0.826  0.00  0.00    +0.000 F 
ATOM     30  C   UNL     1      16.379   7.027   1.189  0.00  0.00    +0.000 A 
ENDBRANCH  21  23
ENDBRANCH   2  18
TORSDOF 5
