REMARK  Name = 
REMARK  6 active torsions:
REMARK  status: ('A' for Active; 'I' for Inactive)
REMARK    1  A    between atoms: C_1  and  C_2
REMARK    2  A    between atoms: N_4  and  C_5
REMARK    3  A    between atoms: C_8  and  C_9
REMARK    4  A    between atoms: N_11  and  C_12
REMARK    5  A    between atoms: C_13  and  C_14
REMARK    6  A    between atoms: N_18  and  C_19
REMARK                            x       y       z     vdW  Elec       q    Type
REMARK                         _______ _______ _______ _____ _____    ______ ____
ROOT
ATOM      1  C   UNL     1       9.681   3.486   0.473  0.00  0.00    +0.000 C 
ATOM      2  O   UNL     1      10.446   3.230  -0.450  0.00  0.00    +0.000 OA
ATOM      3  N   UNL     1       9.930   4.464   1.438  0.00  0.00    +0.000 N 
ATOM      4  H   UNL     1       9.597   4.212   2.363  0.00  0.00    +0.000 HD
ENDROOT
BRANCH   3   5
ATOM      5  C   UNL     1      11.004   5.347   1.365  0.00  0.00    +0.000 A 
ATOM      6  C   UNL     1      11.287   6.146   0.309  0.00  0.00    +0.000 A 
ATOM      7  C   UNL     1      12.532   6.960   0.268  0.00  0.00    +0.000 A 
ATOM      8  O   UNL     1      12.740   7.692  -0.698  0.00  0.00    +0.000 OA
ATOM      9  N   UNL     1      13.373   6.845   1.395  0.00  0.00    +0.000 N 
ATOM     10  C   UNL     1      13.011   6.068   2.488  0.00  0.00    +0.000 A 
ATOM     11  C   UNL     1      11.875   5.363   2.515  0.00  0.00    +0.000 A 
BRANCH   9  12
ATOM     12  C   UNL     1      14.597   7.582   1.415  0.00  0.00    +0.000 A 
ATOM     13  C   UNL     1      14.943   8.329   2.549  0.00  0.00    +0.000 A 
ATOM     14  C   UNL     1      16.126   9.068   2.573  0.00  0.00    +0.000 A 
ATOM     15  C   UNL     1      16.994   9.034   1.483  0.00  0.00    +0.000 A 
ATOM     16  C   UNL     1      16.671   8.274   0.360  0.00  0.00    +0.000 A 
ATOM     17  C   UNL     1      15.470   7.563   0.318  0.00  0.00    +0.000 A 
ENDBRANCH   9  12
BRANCH   6  18
ATOM     18  C   UNL     1      10.381   6.139  -0.911  0.00  0.00    +0.000 C 
ATOM     19  N   UNL     1       9.629   6.133  -1.923  0.00  0.00    +0.000 NA
ENDBRANCH   6  18
ENDBRANCH   3   5
BRANCH   1  23
ATOM     20  C   UNL     1       6.119   1.089   0.892  0.00  0.00    +0.000 A 
ATOM     21  C   UNL     1       7.285   0.543   0.341  0.00  0.00    +0.000 A 
ATOM     22  C   UNL     1       8.440   1.333   0.222  0.00  0.00    +0.000 A 
ATOM     23  C   UNL     1       8.453   2.660   0.670  0.00  0.00    +0.000 A 
ATOM     24  C   UNL     1       7.293   3.203   1.231  0.00  0.00    +0.000 A 
ATOM     25  C   UNL     1       6.138   2.423   1.336  0.00  0.00    +0.000 A 
BRANCH  20  29
ATOM     26  C   UNL     1       2.635  -2.539   0.681  0.00  0.00    +0.000 C 
ATOM     27  C   UNL     1       3.362  -1.266   0.880  0.00  0.00    +0.000 A 
ATOM     28  C   UNL     1       4.696  -0.990   0.657  0.00  0.00    +0.000 A 
ATOM     29  N   UNL     1       4.910   0.336   0.983  0.00  0.00    +0.000 N 
ATOM     30  N   UNL     1       3.765   0.914   1.430  0.00  0.00    +0.000 NA
ATOM     31  C   UNL     1       2.841  -0.042   1.339  0.00  0.00    +0.000 A 
ENDBRANCH  20  29
ENDBRANCH   1  23
TORSDOF 5
