REMARK  Name = 
REMARK  4 active torsions:
REMARK  status: ('A' for Active; 'I' for Inactive)
REMARK    1  A    between atoms: C_2  and  C_17
REMARK    2  A    between atoms: N_3  and  C_4
REMARK    3  A    between atoms: N_8  and  C_9
REMARK    4  A    between atoms: C_21  and  C_22
REMARK                            x       y       z     vdW  Elec       q    Type
REMARK                         _______ _______ _______ _____ _____    ______ ____
ROOT
ATOM      1  O   UNL     1       4.967   1.038   2.503  0.00  0.00    +0.000 OA
ATOM      2  C   UNL     1       4.423   0.469   1.554  0.00  0.00    +0.000 C 
ATOM      3  N   UNL     1       3.115   0.061   1.600  0.00  0.00    +0.000 N 
ATOM      4  H   UNL     1       2.803  -0.714   1.025  0.00  0.00    +0.000 HD
ENDROOT
BRANCH   2   5
ATOM      5  C   UNL     1       5.203   0.225   0.303  0.00  0.00    +0.000 A 
ATOM      6  C   UNL     1       6.335   0.958   0.302  0.00  0.00    +0.000 A 
ATOM      7  C   UNL     1       7.194   0.958  -0.806  0.00  0.00    +0.000 A 
ATOM      8  N   UNL     1       8.284   1.648  -0.998  0.00  0.00    +0.000 NA
ATOM      9  C   UNL     1       8.708   1.334  -2.269  0.00  0.00    +0.000 A 
ATOM     10  C   UNL     1       7.848   0.391  -2.828  0.00  0.00    +0.000 A 
ATOM     11  N   UNL     1       6.860   0.171  -1.890  0.00  0.00    +0.000 N 
ATOM     12  C   UNL     1       5.708  -0.625  -1.912  0.00  0.00    +0.000 A 
ATOM     13  C   UNL     1       4.870  -0.617  -0.850  0.00  0.00    +0.000 A 
BRANCH   9  14
ATOM     14  C   UNL     1       9.922   2.016  -2.822  0.00  0.00    +0.000 C 
ATOM     15  F   UNL     1      10.452   2.921  -1.954  0.00  0.00    +0.000 F 
ATOM     16  F   UNL     1      10.913   1.136  -3.118  0.00  0.00    +0.000 F 
ATOM     17  F   UNL     1       9.642   2.697  -3.965  0.00  0.00    +0.000 F 
ENDBRANCH   9  14
ENDBRANCH   2   5
BRANCH   3  18
ATOM     18  C   UNL     1       2.267   0.401   2.647  0.00  0.00    +0.000 A 
ATOM     19  C   UNL     1       2.395   1.504   3.405  0.00  0.00    +0.000 A 
ATOM     20  C   UNL     1       1.563   1.740   4.548  0.00  0.00    +0.000 A 
ATOM     21  C   UNL     1       0.659   0.823   4.900  0.00  0.00    +0.000 A 
ATOM     22  N   UNL     1       0.445  -0.326   4.154  0.00  0.00    +0.000 N 
ATOM     23  C   UNL     1       1.165  -0.576   2.967  0.00  0.00    +0.000 A 
ATOM     24  O   UNL     1       1.042  -1.552   2.221  0.00  0.00    +0.000 OA
BRANCH  22  25
ATOM     25  C   UNL     1      -0.448  -1.332   4.626  0.00  0.00    +0.000 A 
ATOM     26  C   UNL     1      -0.360  -1.770   5.956  0.00  0.00    +0.000 A 
ATOM     27  C   UNL     1      -1.163  -2.818   6.405  0.00  0.00    +0.000 A 
ATOM     28  C   UNL     1      -2.088  -3.403   5.542  0.00  0.00    +0.000 A 
ATOM     29  C   UNL     1      -2.208  -2.947   4.231  0.00  0.00    +0.000 A 
ATOM     30  C   UNL     1      -1.382  -1.923   3.770  0.00  0.00    +0.000 A 
ENDBRANCH  22  25
ENDBRANCH   3  18
TORSDOF 4
