REMARK  Name = 
REMARK  5 active torsions:
REMARK  status: ('A' for Active; 'I' for Inactive)
REMARK    1  A    between atoms: C_2  and  C_19
REMARK    2  A    between atoms: N_3  and  C_4
REMARK    3  A    between atoms: C_4  and  C_5
REMARK    4  A    between atoms: C_8  and  O_9
REMARK    5  A    between atoms: O_9  and  C_10
REMARK                            x       y       z     vdW  Elec       q    Type
REMARK                         _______ _______ _______ _____ _____    ______ ____
ROOT
ATOM      1  O   UNL     1       1.317  -0.053  -0.110  0.00  0.00    +0.000 OA
ATOM      2  C   UNL     1       2.546   0.015  -0.149  0.00  0.00    +0.000 C 
ATOM      3  N   UNL     1       3.320  -0.932   0.489  0.00  0.00    +0.000 N 
ATOM      4  H   UNL     1       4.330  -0.924   0.487  0.00  0.00    +0.000 HD
ENDROOT
BRANCH   2   5
ATOM      5  C   UNL     1       3.167   1.105  -0.956  0.00  0.00    +0.000 A 
ATOM      6  C   UNL     1       2.249   1.916  -1.658  0.00  0.00    +0.000 A 
ATOM      7  C   UNL     1       2.669   2.866  -2.582  0.00  0.00    +0.000 A 
ATOM      8  C   UNL     1       4.029   3.056  -2.756  0.00  0.00    +0.000 A 
ATOM      9  C   UNL     1       4.520   3.972  -3.780  0.00  0.00    +0.000 A 
ATOM     10  N   UNL     1       5.739   4.398  -3.825  0.00  0.00    +0.000 NA
ATOM     11  N   UNL     1       6.601   3.917  -2.877  0.00  0.00    +0.000 N 
ATOM     12  C   UNL     1       6.356   2.856  -2.023  0.00  0.00    +0.000 A 
ATOM     13  O   UNL     1       7.215   2.365  -1.302  0.00  0.00    +0.000 OA
ATOM     14  C   UNL     1       4.955   2.383  -1.965  0.00  0.00    +0.000 A 
ATOM     15  C   UNL     1       4.538   1.360  -1.089  0.00  0.00    +0.000 A 
ATOM     16  H   UNL     1       7.537   4.311  -2.894  0.00  0.00    +0.000 HD
ENDBRANCH   2   5
BRANCH   3  17
ATOM     17  C   UNL     1       2.611  -2.033   1.111  0.00  0.00    +0.000 C 
BRANCH  17  18
ATOM     18  C   UNL     1       3.498  -3.027   1.799  0.00  0.00    +0.000 A 
ATOM     19  C   UNL     1       3.957  -2.771   3.096  0.00  0.00    +0.000 A 
ATOM     20  C   UNL     1       4.736  -3.711   3.772  0.00  0.00    +0.000 A 
ATOM     21  C   UNL     1       5.017  -4.944   3.178  0.00  0.00    +0.000 A 
ATOM     22  C   UNL     1       4.595  -5.189   1.871  0.00  0.00    +0.000 A 
ATOM     23  C   UNL     1       3.844  -4.236   1.181  0.00  0.00    +0.000 A 
BRANCH  21  24
ATOM     24  O   UNL     1       5.750  -5.950   3.768  0.00  0.00    +0.000 OA
BRANCH  24  25
ATOM     25  C   UNL     1       5.730  -6.115   5.135  0.00  0.00    +0.000 A 
ATOM     26  C   UNL     1       4.612  -5.893   5.941  0.00  0.00    +0.000 A 
ATOM     27  C   UNL     1       4.714  -6.069   7.316  0.00  0.00    +0.000 A 
ATOM     28  F   UNL     1       3.661  -5.797   8.093  0.00  0.00    +0.000 F 
ATOM     29  C   UNL     1       5.891  -6.511   7.898  0.00  0.00    +0.000 A 
ATOM     30  C   UNL     1       6.995  -6.794   7.094  0.00  0.00    +0.000 A 
ATOM     31  C   UNL     1       6.910  -6.599   5.713  0.00  0.00    +0.000 A 
ENDBRANCH  24  25
ENDBRANCH  21  24
ENDBRANCH  17  18
ENDBRANCH   3  17
TORSDOF 5
