REMARK  Name = 
REMARK  5 active torsions:
REMARK  status: ('A' for Active; 'I' for Inactive)
REMARK    1  A    between atoms: C_2  and  C_3
REMARK    2  A    between atoms: C_4  and  N_5
REMARK    3  A    between atoms: C_6  and  C_8
REMARK    4  A    between atoms: C_8  and  C_11
REMARK    5  A    between atoms: N_21  and  C_22
REMARK                            x       y       z     vdW  Elec       q    Type
REMARK                         _______ _______ _______ _____ _____    ______ ____
ROOT
ATOM      1  C   UNL     1       3.869   0.027   0.040  0.00  0.00    +0.000 A 
ATOM      2  C   UNL     1       4.542   1.202   0.189  0.00  0.00    +0.000 A 
ATOM      3  C   UNL     1       5.986   1.125   0.293  0.00  0.00    +0.000 A 
ATOM      4  C   UNL     1       6.626  -0.049   0.245  0.00  0.00    +0.000 A 
ATOM      5  N   UNL     1       5.951  -1.250   0.113  0.00  0.00    +0.000 N 
ATOM      6  C   UNL     1       4.552  -1.289  -0.004  0.00  0.00    +0.000 A 
ATOM      7  O   UNL     1       3.873  -2.301  -0.169  0.00  0.00    +0.000 OA
ENDROOT
BRANCH   5   8
ATOM      8  C   UNL     1       6.663  -2.483   0.038  0.00  0.00    +0.000 A 
ATOM      9  C   UNL     1       7.757  -2.609  -0.827  0.00  0.00    +0.000 A 
ATOM     10  C   UNL     1       8.381  -3.848  -0.989  0.00  0.00    +0.000 A 
ATOM     11  C   UNL     1       7.946  -4.955  -0.258  0.00  0.00    +0.000 A 
ATOM     12  C   UNL     1       6.890  -4.820   0.645  0.00  0.00    +0.000 A 
ATOM     13  C   UNL     1       6.246  -3.591   0.786  0.00  0.00    +0.000 A 
ENDBRANCH   5   8
BRANCH   2  14
ATOM     14  N   UNL     1       3.901   2.451   0.294  0.00  0.00    +0.000 N 
ATOM     15  C   UNL     1       4.468   3.743   0.364  0.00  0.00    +0.000 C 
ATOM     16  O   UNL     1       5.674   3.983   0.296  0.00  0.00    +0.000 OA
ATOM     17  H   UNL     1       2.879   2.461   0.296  0.00  0.00    +0.000 HD
BRANCH  15  18
ATOM     18  C   UNL     1       3.423   4.893   0.600  0.00  0.00    +0.000 C 
ATOM     19  F   UNL     1       2.151   4.383   0.489  0.00  0.00    +0.000 F 
ATOM     20  F   UNL     1       3.499   5.296   1.910  0.00  0.00    +0.000 F 
BRANCH  18  21
ATOM     21  C   UNL     1       3.612   6.068  -0.343  0.00  0.00    +0.000 A 
ATOM     22  C   UNL     1       3.856   7.374   0.123  0.00  0.00    +0.000 A 
ATOM     23  C   UNL     1       3.924   8.438  -0.780  0.00  0.00    +0.000 A 
ATOM     24  F   UNL     1       4.132   9.679  -0.320  0.00  0.00    +0.000 F 
ATOM     25  C   UNL     1       3.764   8.237  -2.147  0.00  0.00    +0.000 A 
ATOM     26  C   UNL     1       3.546   6.946  -2.620  0.00  0.00    +0.000 A 
ATOM     27  C   UNL     1       3.473   5.885  -1.719  0.00  0.00    +0.000 A 
ATOM     28  F   UNL     1       3.234   4.652  -2.185  0.00  0.00    +0.000 F 
ENDBRANCH  18  21
ENDBRANCH  15  18
ENDBRANCH   2  14
BRANCH   1  30
ATOM     29  N   UNL     1       1.087   0.027   0.040  0.00  0.00    +0.000 NA
ATOM     30  C   UNL     1       2.349   0.027   0.040  0.00  0.00    +0.000 C 
ENDBRANCH   1  30
TORSDOF 5
