REMARK  Name = 
REMARK  4 active torsions:
REMARK  status: ('A' for Active; 'I' for Inactive)
REMARK    1  A    between atoms: C_2  and  C_11
REMARK    2  A    between atoms: N_3  and  C_4
REMARK    3  A    between atoms: N_16  and  C_17
REMARK    4  A    between atoms: C_17  and  C_18
REMARK                            x       y       z     vdW  Elec       q    Type
REMARK                         _______ _______ _______ _____ _____    ______ ____
ROOT
ATOM      1  C   UNL     1       3.328  -0.170  -1.538  0.00  0.00    +0.000 A 
ATOM      2  C   UNL     1       2.821   0.862  -2.327  0.00  0.00    +0.000 A 
ATOM      3  C   UNL     1       3.516   1.244  -3.457  0.00  0.00    +0.000 A 
ATOM      4  C   UNL     1       4.694   0.580  -3.759  0.00  0.00    +0.000 A 
ATOM      5  C   UNL     1       5.141  -0.466  -2.943  0.00  0.00    +0.000 A 
ATOM      6  N   UNL     1       6.269  -1.137  -3.398  0.00  0.00    +0.000 N 
ATOM      7  N   UNL     1       4.479  -0.848  -1.822  0.00  0.00    +0.000 NA
ATOM      8  H   UNL     1       7.073  -0.554  -3.595  0.00  0.00    +0.000 HD
ENDROOT
BRANCH   1  10
ATOM      9  O   UNL     1       1.351  -0.147  -0.300  0.00  0.00    +0.000 OA
ATOM     10  C   UNL     1       2.517  -0.540  -0.330  0.00  0.00    +0.000 C 
ATOM     11  N   UNL     1       3.152  -1.236   0.691  0.00  0.00    +0.000 N 
ATOM     12  H   UNL     1       4.138  -1.439   0.550  0.00  0.00    +0.000 HD
BRANCH  11  13
ATOM     13  C   UNL     1       2.569  -1.551   1.951  0.00  0.00    +0.000 A 
ATOM     14  C   UNL     1       1.198  -1.405   2.224  0.00  0.00    +0.000 A 
ATOM     15  C   UNL     1       0.673  -1.675   3.497  0.00  0.00    +0.000 A 
ATOM     16  C   UNL     1       1.528  -2.100   4.504  0.00  0.00    +0.000 A 
ATOM     17  F   UNL     1       1.032  -2.344   5.727  0.00  0.00    +0.000 F 
ATOM     18  C   UNL     1       2.881  -2.272   4.260  0.00  0.00    +0.000 A 
ATOM     19  C   UNL     1       3.402  -2.010   2.980  0.00  0.00    +0.000 A 
ENDBRANCH  11  13
ENDBRANCH   1  10
BRANCH   6  20
ATOM     20  C   UNL     1       6.527  -2.510  -3.036  0.00  0.00    +0.000 C 
BRANCH  20  21
ATOM     21  C   UNL     1       7.320  -2.722  -1.769  0.00  0.00    +0.000 A 
ATOM     22  C   UNL     1       7.683  -4.040  -1.429  0.00  0.00    +0.000 A 
ATOM     23  C   UNL     1       8.421  -4.308  -0.277  0.00  0.00    +0.000 A 
ATOM     24  C   UNL     1       8.912  -3.240   0.470  0.00  0.00    +0.000 A 
ATOM     25  C   UNL     1       9.811  -3.476   1.626  0.00  0.00    +0.000 A 
ATOM     26  O   UNL     1       9.899  -4.568   2.174  0.00  0.00    +0.000 OA
ATOM     27  C   UNL     1      10.655  -2.335   2.054  0.00  0.00    +0.000 A 
ATOM     28  C   UNL     1      10.365  -1.124   1.565  0.00  0.00    +0.000 A 
ATOM     29  N   UNL     1       9.303  -0.849   0.738  0.00  0.00    +0.000 N 
ATOM     30  C   UNL     1       8.661  -1.916   0.081  0.00  0.00    +0.000 A 
ATOM     31  C   UNL     1       7.763  -1.670  -0.957  0.00  0.00    +0.000 A 
ATOM     32  H   UNL     1       9.375   0.006   0.192  0.00  0.00    +0.000 HD
ENDBRANCH  20  21
ENDBRANCH   6  20
TORSDOF 4
