REMARK  Name = 
REMARK  10 active torsions:
REMARK  status: ('A' for Active; 'I' for Inactive)
REMARK    1  A    between atoms: C_1  and  O_2
REMARK    2  A    between atoms: O_2  and  C_3
REMARK    3  A    between atoms: C_7  and  O_8
REMARK    4  A    between atoms: O_8  and  C_9
REMARK    5  A    between atoms: C_14  and  C_15
REMARK    6  A    between atoms: C_15  and  N_16
REMARK    7  A    between atoms: N_19  and  C_20
REMARK    8  A    between atoms: C_20  and  C_21
REMARK    9  A    between atoms: C_21  and  C_22
REMARK   10  A    between atoms: C_25  and  N_26
REMARK                            x       y       z     vdW  Elec       q    Type
REMARK                         _______ _______ _______ _____ _____    ______ ____
ROOT
ATOM      1  N   UNL     1       7.737   2.802   3.648  0.00  0.00    +0.000 N 
ATOM      2  C   UNL     1       7.258   1.976   4.630  0.00  0.00    +0.000 C 
ATOM      3  O   UNL     1       6.485   1.046   4.427  0.00  0.00    +0.000 OA
ATOM      4  N   UNL     1       7.766   2.291   5.869  0.00  0.00    +0.000 N 
ATOM      5  H   UNL     1       7.882   3.756   3.947  0.00  0.00    +0.000 HD
ATOM      6  H   UNL     1       8.707   2.656   5.836  0.00  0.00    +0.000 HD
ENDROOT
BRANCH   1   7
ATOM      7  C   UNL     1       7.256   2.632   2.279  0.00  0.00    +0.000 C 
BRANCH   7  13
ATOM      8  C   UNL     1       7.771   3.535  -0.035  0.00  0.00    +0.000 A 
ATOM      9  N   UNL     1       8.607   3.977  -1.011  0.00  0.00    +0.000 NA
ATOM     10  C   UNL     1       9.930   3.928  -0.779  0.00  0.00    +0.000 A 
ATOM     11  C   UNL     1      10.472   3.495   0.411  0.00  0.00    +0.000 A 
ATOM     12  C   UNL     1       9.602   3.104   1.427  0.00  0.00    +0.000 A 
ATOM     13  C   UNL     1       8.211   3.136   1.230  0.00  0.00    +0.000 A 
BRANCH   8  14
ATOM     14  O   UNL     1       6.407   3.446  -0.328  0.00  0.00    +0.000 OA
BRANCH  14  19
ATOM     15  C   UNL     1       4.656   4.207  -3.468  0.00  0.00    +0.000 A 
ATOM     16  C   UNL     1       5.396   3.448  -4.379  0.00  0.00    +0.000 A 
ATOM     17  C   UNL     1       6.419   2.614  -3.930  0.00  0.00    +0.000 A 
ATOM     18  C   UNL     1       6.726   2.557  -2.573  0.00  0.00    +0.000 A 
ATOM     19  C   UNL     1       6.057   3.385  -1.666  0.00  0.00    +0.000 A 
ATOM     20  C   UNL     1       4.989   4.169  -2.107  0.00  0.00    +0.000 A 
BRANCH  15  22
ATOM     21  C   UNL     1       3.285   5.121  -5.180  0.00  0.00    +0.000 C 
ATOM     22  O   UNL     1       3.607   5.026  -3.796  0.00  0.00    +0.000 OA
ENDBRANCH  15  22
ENDBRANCH  14  19
ENDBRANCH   8  14
ENDBRANCH   7  13
ENDBRANCH   1   7
BRANCH   4  23
ATOM     23  C   UNL     1       7.430   1.425   6.995  0.00  0.00    +0.000 C 
BRANCH  23  24
ATOM     24  C   UNL     1       8.051   1.889   8.316  0.00  0.00    +0.000 C 
BRANCH  24  25
ATOM     25  C   UNL     1       7.679   1.035   9.511  0.00  0.00    +0.000 A 
ATOM     26  C   UNL     1       7.983  -0.333   9.551  0.00  0.00    +0.000 A 
ATOM     27  C   UNL     1       7.691  -1.104  10.684  0.00  0.00    +0.000 A 
ATOM     28  C   UNL     1       7.088  -0.517  11.803  0.00  0.00    +0.000 A 
ATOM     29  C   UNL     1       6.771   0.848  11.767  0.00  0.00    +0.000 A 
ATOM     30  C   UNL     1       7.068   1.614  10.632  0.00  0.00    +0.000 A 
BRANCH  28  31
ATOM     31  N   UNL     1       6.801  -1.278  12.974  0.00  0.00    +0.000 N 
ATOM     32  C   UNL     1       7.093  -2.606  13.218  0.00  0.00    +0.000 A 
ATOM     33  C   UNL     1       6.606  -2.909  14.468  0.00  0.00    +0.000 A 
ATOM     34  C   UNL     1       6.046  -1.710  14.925  0.00  0.00    +0.000 A 
ATOM     35  N   UNL     1       6.168  -0.718  14.041  0.00  0.00    +0.000 NA
ENDBRANCH  28  31
ENDBRANCH  24  25
ENDBRANCH  23  24
ENDBRANCH   4  23
TORSDOF 9
