REMARK  Name = 
REMARK  7 active torsions:
REMARK  status: ('A' for Active; 'I' for Inactive)
REMARK    1  A    between atoms: C_1  and  N_2
REMARK    2  A    between atoms: C_3  and  C_4
REMARK    3  A    between atoms: N_6  and  C_7
REMARK    4  A    between atoms: C_7  and  C_8
REMARK    5  A    between atoms: C_12  and  N_13
REMARK    6  A    between atoms: C_21  and  C_22
REMARK    7  A    between atoms: C_22  and  C_24
REMARK                            x       y       z     vdW  Elec       q    Type
REMARK                         _______ _______ _______ _____ _____    ______ ____
ROOT
ATOM      1  C   UNL     1       0.467  -2.584  -0.104  0.00  0.00    +0.000 C 
ATOM      2  O   UNL     1      -0.316  -3.429  -0.526  0.00  0.00    +0.000 OA
ATOM      3  N   UNL     1       1.769  -2.908   0.217  0.00  0.00    +0.000 N 
ATOM      4  H   UNL     1       2.327  -2.235   0.715  0.00  0.00    +0.000 HD
ENDROOT
BRANCH   1   7
ATOM      5  C   UNL     1      -2.331  -1.220  -0.542  0.00  0.00    +0.000 C 
ATOM      6  N   UNL     1      -1.120  -0.572  -0.070  0.00  0.00    +0.000 N 
ATOM      7  C   UNL     1       0.126  -1.173   0.109  0.00  0.00    +0.000 A 
ATOM      8  C   UNL     1       0.978  -0.148   0.509  0.00  0.00    +0.000 A 
ATOM      9  C   UNL     1       0.241   1.043   0.630  0.00  0.00    +0.000 A 
ATOM     10  C   UNL     1      -1.060   0.791   0.231  0.00  0.00    +0.000 A 
BRANCH  10  11
ATOM     11  C   UNL     1      -2.166   1.740   0.154  0.00  0.00    +0.000 C 
ATOM     12  O   UNL     1      -3.339   1.412   0.331  0.00  0.00    +0.000 OA
BRANCH  11  13
ATOM     13  C   UNL     1      -1.899   3.184  -0.121  0.00  0.00    +0.000 A 
ATOM     14  C   UNL     1      -2.719   4.159   0.470  0.00  0.00    +0.000 A 
ATOM     15  C   UNL     1      -2.509   5.518   0.202  0.00  0.00    +0.000 A 
ATOM     16  C   UNL     1      -1.482   5.913  -0.655  0.00  0.00    +0.000 A 
ATOM     17  C   UNL     1      -0.673   4.950  -1.254  0.00  0.00    +0.000 A 
ATOM     18  C   UNL     1      -0.894   3.598  -0.998  0.00  0.00    +0.000 A 
ATOM     19  F   UNL     1      -0.128   2.712  -1.650  0.00  0.00    +0.000 F 
ENDBRANCH  11  13
ENDBRANCH  10  11
ENDBRANCH   1   7
BRANCH   3  20
ATOM     20  C   UNL     1       2.330  -4.236   0.097  0.00  0.00    +0.000 C 
BRANCH  20  21
ATOM     21  C   UNL     1       3.791  -4.151  -0.288  0.00  0.00    +0.000 A 
ATOM     22  C   UNL     1       4.164  -4.239  -1.636  0.00  0.00    +0.000 A 
ATOM     23  C   UNL     1       5.500  -4.096  -2.017  0.00  0.00    +0.000 A 
ATOM     24  C   UNL     1       6.481  -3.835  -1.060  0.00  0.00    +0.000 A 
ATOM     25  C   UNL     1       6.133  -3.729   0.293  0.00  0.00    +0.000 A 
ATOM     26  C   UNL     1       4.789  -3.908   0.676  0.00  0.00    +0.000 A 
BRANCH  25  27
ATOM     27  N   UNL     1       7.115  -3.410   1.275  0.00  0.00    +0.000 N 
ATOM     28  C   UNL     1       8.437  -3.071   1.074  0.00  0.00    +0.000 A 
ATOM     29  C   UNL     1       8.986  -2.804   2.307  0.00  0.00    +0.000 A 
ATOM     30  C   UNL     1       7.936  -3.018   3.207  0.00  0.00    +0.000 A 
ATOM     31  N   UNL     1       6.803  -3.374   2.599  0.00  0.00    +0.000 NA
ENDBRANCH  25  27
ENDBRANCH  20  21
ENDBRANCH   3  20
TORSDOF 6
