REMARK  Name = 
REMARK  7 active torsions:
REMARK  status: ('A' for Active; 'I' for Inactive)
REMARK    1  A    between atoms: C_2  and  C_10
REMARK    2  A    between atoms: N_3  and  C_4
REMARK    3  A    between atoms: C_13  and  C_14
REMARK    4  A    between atoms: C_14  and  O_15
REMARK    5  A    between atoms: O_15  and  C_16
REMARK    6  A    between atoms: C_16  and  C_18
REMARK    7  A    between atoms: N_22  and  C_23
REMARK                            x       y       z     vdW  Elec       q    Type
REMARK                         _______ _______ _______ _____ _____    ______ ____
ROOT
ATOM      1  C   UNL     1       3.160  -1.209   0.301  0.00  0.00    +0.000 A 
ATOM      2  C   UNL     1       2.733  -2.421  -0.259  0.00  0.00    +0.000 A 
ATOM      3  C   UNL     1       3.467  -3.590  -0.052  0.00  0.00    +0.000 A 
ATOM      4  C   UNL     1       4.628  -3.561   0.729  0.00  0.00    +0.000 A 
ATOM      5  C   UNL     1       5.054  -2.340   1.279  0.00  0.00    +0.000 A 
ATOM      6  C   UNL     1       4.325  -1.167   1.070  0.00  0.00    +0.000 A 
ENDROOT
BRANCH   1   8
ATOM      7  O   UNL     1       1.090  -0.184   0.069  0.00  0.00    +0.000 OA
ATOM      8  C   UNL     1       2.304  -0.009   0.107  0.00  0.00    +0.000 C 
ATOM      9  N   UNL     1       2.976   1.186  -0.075  0.00  0.00    +0.000 N 
ATOM     10  H   UNL     1       3.977   1.142  -0.213  0.00  0.00    +0.000 HD
BRANCH   9  11
ATOM     11  C   UNL     1       2.372   2.446  -0.290  0.00  0.00    +0.000 A 
ATOM     12  C   UNL     1       1.021   2.701  -0.044  0.00  0.00    +0.000 A 
ATOM     13  C   UNL     1       0.472   3.957  -0.315  0.00  0.00    +0.000 A 
ATOM     14  C   UNL     1       1.271   4.971  -0.833  0.00  0.00    +0.000 A 
ATOM     15  C   UNL     1       2.625   4.736  -1.061  0.00  0.00    +0.000 A 
ATOM     16  C   UNL     1       3.177   3.482  -0.779  0.00  0.00    +0.000 A 
ENDBRANCH   9  11
ENDBRANCH   1   8
BRANCH   4  17
ATOM     17  C   UNL     1       5.435  -4.817   0.961  0.00  0.00    +0.000 C 
BRANCH  17  18
ATOM     18  O   UNL     1       6.747  -4.591   0.437  0.00  0.00    +0.000 OA
BRANCH  18  19
ATOM     19  C   UNL     1       6.887  -4.917  -0.874  0.00  0.00    +0.000 C 
ATOM     20  O   UNL     1       6.141  -5.667  -1.489  0.00  0.00    +0.000 OA
BRANCH  19  21
ATOM     21  C   UNL     1       7.980  -4.172  -1.428  0.00  0.00    +0.000 A 
ATOM     22  C   UNL     1       9.147  -3.754  -0.808  0.00  0.00    +0.000 A 
ATOM     23  C   UNL     1       9.928  -3.203  -1.829  0.00  0.00    +0.000 A 
ATOM     24  N   UNL     1       9.322  -3.261  -3.013  0.00  0.00    +0.000 NA
ATOM     25  N   UNL     1       8.076  -3.741  -2.743  0.00  0.00    +0.000 N 
BRANCH  25  26
ATOM     26  C   UNL     1       7.078  -3.663  -3.746  0.00  0.00    +0.000 A 
ATOM     27  C   UNL     1       5.717  -3.554  -3.451  0.00  0.00    +0.000 A 
ATOM     28  C   UNL     1       4.791  -3.495  -4.489  0.00  0.00    +0.000 A 
ATOM     29  C   UNL     1       5.261  -3.534  -5.790  0.00  0.00    +0.000 A 
ATOM     30  N   UNL     1       6.570  -3.600  -6.113  0.00  0.00    +0.000 NA
ATOM     31  C   UNL     1       7.453  -3.651  -5.085  0.00  0.00    +0.000 A 
ENDBRANCH  25  26
ENDBRANCH  19  21
ENDBRANCH  18  19
ENDBRANCH  17  18
ENDBRANCH   4  17
TORSDOF 7
