REMARK  Name = 
REMARK  4 active torsions:
REMARK  status: ('A' for Active; 'I' for Inactive)
REMARK    1  A    between atoms: C_2  and  C_17
REMARK    2  A    between atoms: N_3  and  C_4
REMARK    3  A    between atoms: N_8  and  C_9
REMARK    4  A    between atoms: C_20  and  N_21
REMARK                            x       y       z     vdW  Elec       q    Type
REMARK                         _______ _______ _______ _____ _____    ______ ____
ROOT
ATOM      1  O   UNL     1       0.888   0.149   0.048  0.00  0.00    +0.000 OA
ATOM      2  C   UNL     1       2.107   0.033   0.056  0.00  0.00    +0.000 C 
ATOM      3  N   UNL     1       2.822  -0.846   0.847  0.00  0.00    +0.000 N 
ATOM      4  H   UNL     1       3.807  -0.662   1.020  0.00  0.00    +0.000 HD
ENDROOT
BRANCH   3   5
ATOM      5  C   UNL     1       2.250  -1.807   1.669  0.00  0.00    +0.000 A 
ATOM      6  C   UNL     1       1.002  -2.280   1.531  0.00  0.00    +0.000 A 
ATOM      7  C   UNL     1       0.446  -3.230   2.449  0.00  0.00    +0.000 A 
ATOM      8  C   UNL     1       1.153  -3.622   3.510  0.00  0.00    +0.000 A 
ATOM      9  N   UNL     1       2.455  -3.187   3.728  0.00  0.00    +0.000 N 
ATOM     10  C   UNL     1       3.102  -2.327   2.812  0.00  0.00    +0.000 A 
ATOM     11  O   UNL     1       4.259  -1.906   2.901  0.00  0.00    +0.000 OA
BRANCH   9  12
ATOM     12  C   UNL     1       3.128  -3.539   4.939  0.00  0.00    +0.000 A 
ATOM     13  C   UNL     1       2.471  -3.383   6.170  0.00  0.00    +0.000 A 
ATOM     14  C   UNL     1       3.140  -3.639   7.368  0.00  0.00    +0.000 A 
ATOM     15  C   UNL     1       4.456  -4.097   7.345  0.00  0.00    +0.000 A 
ATOM     16  C   UNL     1       5.102  -4.298   6.125  0.00  0.00    +0.000 A 
ATOM     17  C   UNL     1       4.446  -4.006   4.927  0.00  0.00    +0.000 A 
ENDBRANCH   9  12
ENDBRANCH   3   5
BRANCH   2  18
ATOM     18  C   UNL     1       2.867   0.953  -0.814  0.00  0.00    +0.000 A 
ATOM     19  C   UNL     1       2.376   2.254  -0.964  0.00  0.00    +0.000 A 
ATOM     20  C   UNL     1       2.924   3.105  -1.921  0.00  0.00    +0.000 A 
ATOM     21  C   UNL     1       3.963   2.672  -2.754  0.00  0.00    +0.000 A 
ATOM     22  C   UNL     1       4.469   1.377  -2.563  0.00  0.00    +0.000 A 
ATOM     23  C   UNL     1       3.925   0.512  -1.605  0.00  0.00    +0.000 A 
BRANCH  21  24
ATOM     24  N   UNL     1       4.483   3.570  -3.690  0.00  0.00    +0.000 N 
ATOM     25  C   UNL     1       5.709   3.631  -4.338  0.00  0.00    +0.000 A 
ATOM     26  N   UNL     1       6.718   2.823  -3.978  0.00  0.00    +0.000 NA
ATOM     27  C   UNL     1       7.898   2.988  -4.599  0.00  0.00    +0.000 A 
ATOM     28  C   UNL     1       8.108   3.923  -5.579  0.00  0.00    +0.000 A 
ATOM     29  C   UNL     1       7.019   4.699  -5.889  0.00  0.00    +0.000 A 
ATOM     30  N   UNL     1       5.823   4.580  -5.282  0.00  0.00    +0.000 NA
ATOM     31  H   UNL     1       3.897   4.337  -3.983  0.00  0.00    +0.000 HD
ENDBRANCH  21  24
ENDBRANCH   2  18
TORSDOF 4
