REMARK  Name = 
REMARK  7 active torsions:
REMARK  status: ('A' for Active; 'I' for Inactive)
REMARK    1  A    between atoms: C_1  and  N_2
REMARK    2  A    between atoms: N_2  and  C_3
REMARK    3  A    between atoms: N_2  and  C_25
REMARK    4  A    between atoms: C_3  and  C_4
REMARK    5  A    between atoms: C_7  and  C_8
REMARK    6  A    between atoms: N_10  and  C_11
REMARK    7  A    between atoms: C_14  and  C_15
REMARK                            x       y       z     vdW  Elec       q    Type
REMARK                         _______ _______ _______ _____ _____    ______ ____
ROOT
ATOM      1  C   UNL     1      -0.138   4.219   4.219  0.00  0.00    +0.000 C 
ATOM      2  O   UNL     1      -0.470   3.787   5.316  0.00  0.00    +0.000 OA
ATOM      3  N   UNL     1      -0.573   5.401   3.646  0.00  0.00    +0.000 N 
ATOM      4  H   UNL     1      -0.409   5.534   2.656  0.00  0.00    +0.000 HD
ENDROOT
BRANCH   1   8
ATOM      5  C   UNL     1       2.367   1.741   1.796  0.00  0.00    +0.000 A 
ATOM      6  C   UNL     1       1.458   1.175   2.701  0.00  0.00    +0.000 A 
ATOM      7  C   UNL     1       0.654   1.994   3.488  0.00  0.00    +0.000 A 
ATOM      8  C   UNL     1       0.747   3.386   3.371  0.00  0.00    +0.000 A 
ATOM      9  C   UNL     1       1.668   3.960   2.489  0.00  0.00    +0.000 A 
ATOM     10  C   UNL     1       2.469   3.138   1.698  0.00  0.00    +0.000 A 
BRANCH   5  11
ATOM     11  C   UNL     1       3.213   0.854   0.915  0.00  0.00    +0.000 C 
BRANCH  11  13
ATOM     12  C   UNL     1       1.288   0.909  -0.774  0.00  0.00    +0.000 C 
ATOM     13  N   UNL     1       2.662   0.568  -0.415  0.00  0.00    +0.000 N 
BRANCH  13  14
ATOM     14  C   UNL     1       3.464  -0.108  -1.344  0.00  0.00    +0.000 A 
ATOM     15  C   UNL     1       3.048  -0.334  -2.669  0.00  0.00    +0.000 A 
ATOM     16  C   UNL     1       3.869  -0.965  -3.613  0.00  0.00    +0.000 A 
ATOM     17  C   UNL     1       5.137  -1.401  -3.256  0.00  0.00    +0.000 A 
ATOM     18  C   UNL     1       5.575  -1.220  -1.952  0.00  0.00    +0.000 A 
ATOM     19  C   UNL     1       4.747  -0.589  -1.016  0.00  0.00    +0.000 A 
ENDBRANCH  13  14
ENDBRANCH  11  13
ENDBRANCH   5  11
ENDBRANCH   1   8
BRANCH   3  20
ATOM     20  C   UNL     1      -1.430   6.321   4.282  0.00  0.00    +0.000 A 
ATOM     21  C   UNL     1      -1.708   6.341   5.634  0.00  0.00    +0.000 A 
ATOM     22  N   UNL     1      -2.585   7.188   6.211  0.00  0.00    +0.000 NA
ATOM     23  C   UNL     1      -3.231   8.050   5.395  0.00  0.00    +0.000 A 
ATOM     24  N   UNL     1      -2.987   8.151   4.064  0.00  0.00    +0.000 NA
ATOM     25  C   UNL     1      -2.084   7.292   3.549  0.00  0.00    +0.000 A 
BRANCH  23  26
ATOM     26  C   UNL     1      -4.312   8.884   5.989  0.00  0.00    +0.000 A 
ATOM     27  N   UNL     1      -4.236   9.182   7.309  0.00  0.00    +0.000 NA
ATOM     28  C   UNL     1      -5.253   9.886   7.832  0.00  0.00    +0.000 A 
ATOM     29  C   UNL     1      -6.341  10.300   7.103  0.00  0.00    +0.000 A 
ATOM     30  C   UNL     1      -6.335   9.952   5.776  0.00  0.00    +0.000 A 
ATOM     31  N   UNL     1      -5.342   9.258   5.191  0.00  0.00    +0.000 NA
ENDBRANCH  23  26
ENDBRANCH   3  20
TORSDOF 6
