REMARK  Name = 
REMARK  6 active torsions:
REMARK  status: ('A' for Active; 'I' for Inactive)
REMARK    1  A    between atoms: C_2  and  C_22
REMARK    2  A    between atoms: N_3  and  C_4
REMARK    3  A    between atoms: C_9  and  C_10
REMARK    4  A    between atoms: C_10  and  C_12
REMARK    5  A    between atoms: C_24  and  C_25
REMARK    6  A    between atoms: C_25  and  O_26
REMARK                            x       y       z     vdW  Elec       q    Type
REMARK                         _______ _______ _______ _____ _____    ______ ____
ROOT
ATOM      1  C   UNL     1       2.231   1.741   1.894  0.00  0.00    +0.000 A 
ATOM      2  C   UNL     1       1.100   1.305   2.592  0.00  0.00    +0.000 A 
ATOM      3  C   UNL     1       0.459   2.139   3.501  0.00  0.00    +0.000 A 
ATOM      4  C   UNL     1       0.944   3.417   3.725  0.00  0.00    +0.000 A 
ATOM      5  F   UNL     1       0.226   4.210   4.532  0.00  0.00    +0.000 F 
ATOM      6  C   UNL     1       2.114   3.858   3.105  0.00  0.00    +0.000 A 
ATOM      7  C   UNL     1       2.764   3.006   2.187  0.00  0.00    +0.000 A 
ENDROOT
BRANCH   1  10
ATOM      8  O   UNL     1       1.052  -0.464   0.386  0.00  0.00    +0.000 OA
ATOM      9  C   UNL     1       2.216  -0.103   0.238  0.00  0.00    +0.000 C 
ATOM     10  N   UNL     1       2.840   0.954   0.888  0.00  0.00    +0.000 N 
ATOM     11  H   UNL     1       3.708   1.307   0.500  0.00  0.00    +0.000 HD
BRANCH   9  12
ATOM     12  C   UNL     1       3.007  -0.826  -0.775  0.00  0.00    +0.000 A 
ATOM     13  C   UNL     1       2.360  -1.358  -1.897  0.00  0.00    +0.000 A 
ATOM     14  C   UNL     1       3.080  -2.126  -2.816  0.00  0.00    +0.000 A 
ATOM     15  C   UNL     1       4.432  -2.323  -2.557  0.00  0.00    +0.000 A 
ATOM     16  N   UNL     1       5.087  -1.817  -1.485  0.00  0.00    +0.000 NA
ATOM     17  C   UNL     1       4.355  -1.091  -0.603  0.00  0.00    +0.000 A 
BRANCH  14  18
ATOM     18  C   UNL     1       2.429  -2.764  -4.002  0.00  0.00    +0.000 C 
BRANCH  18  19
ATOM     19  O   UNL     1       3.050  -2.313  -5.197  0.00  0.00    +0.000 OA
ATOM     20  H   UNL     1       2.843  -1.367  -5.287  0.00  0.00    +0.000 HD
ENDBRANCH  18  19
ENDBRANCH  14  18
ENDBRANCH   9  12
ENDBRANCH   1  10
BRANCH   6  21
ATOM     21  C   UNL     1       2.639   5.234   3.313  0.00  0.00    +0.000 C 
ATOM     22  O   UNL     1       3.260   5.754   2.387  0.00  0.00    +0.000 OA
BRANCH  21  23
ATOM     23  C   UNL     1       2.442   5.920   4.591  0.00  0.00    +0.000 A 
ATOM     24  C   UNL     1       2.348   5.324   5.839  0.00  0.00    +0.000 A 
ATOM     25  N   UNL     1       2.208   6.303   6.783  0.00  0.00    +0.000 N 
ATOM     26  C   UNL     1       2.235   7.541   6.190  0.00  0.00    +0.000 A 
ATOM     27  C   UNL     1       2.171   8.814   6.769  0.00  0.00    +0.000 A 
ATOM     28  C   UNL     1       2.206   9.917   5.913  0.00  0.00    +0.000 A 
ATOM     29  C   UNL     1       2.282   9.750   4.533  0.00  0.00    +0.000 A 
ATOM     30  C   UNL     1       2.352   8.469   3.971  0.00  0.00    +0.000 A 
ATOM     31  C   UNL     1       2.348   7.336   4.814  0.00  0.00    +0.000 A 
ATOM     32  H   UNL     1       2.115   6.146   7.777  0.00  0.00    +0.000 HD
ENDBRANCH  21  23
ENDBRANCH   6  21
TORSDOF 6
