REMARK  Name = 
REMARK  9 active torsions:
REMARK  status: ('A' for Active; 'I' for Inactive)
REMARK    1  A    between atoms: C_1  and  C_2
REMARK    2  A    between atoms: C_5  and  C_6
REMARK    3  A    between atoms: C_6  and  N_7
REMARK    4  A    between atoms: C_11  and  N_12
REMARK    5  A    between atoms: C_13  and  C_15
REMARK    6  A    between atoms: C_18  and  O_19
REMARK    7  A    between atoms: O_19  and  C_20
REMARK    8  A    between atoms: C_20  and  C_21
REMARK    9  A    between atoms: N_25  and  C_26
REMARK                            x       y       z     vdW  Elec       q    Type
REMARK                         _______ _______ _______ _____ _____    ______ ____
ROOT
ATOM      1  N   UNL     1      -3.822   4.321  -2.300  0.00  0.00    +0.000 N 
ATOM      2  C   UNL     1      -3.494   3.892  -3.574  0.00  0.00    +0.000 C 
ATOM      3  O   UNL     1      -3.332   2.723  -3.911  0.00  0.00    +0.000 OA
ATOM      4  H   UNL     1      -3.928   5.315  -2.118  0.00  0.00    +0.000 HD
ENDROOT
BRANCH   1   9
ATOM      5  N   UNL     1      -4.235   3.554   1.320  0.00  0.00    +0.000 N 
ATOM      6  C   UNL     1      -3.980   2.193   1.324  0.00  0.00    +0.000 A 
ATOM      7  C   UNL     1      -3.743   1.529   0.190  0.00  0.00    +0.000 A 
ATOM      8  C   UNL     1      -3.711   2.228  -1.069  0.00  0.00    +0.000 A 
ATOM      9  C   UNL     1      -3.913   3.550  -1.149  0.00  0.00    +0.000 A 
ATOM     10  C   UNL     1      -4.233   4.301   0.138  0.00  0.00    +0.000 A 
ATOM     11  O   UNL     1      -4.474   5.510   0.073  0.00  0.00    +0.000 OA
BRANCH   5  12
ATOM     12  C   UNL     1      -4.505   4.226   2.594  0.00  0.00    +0.000 C 
BRANCH  12  17
ATOM     13  C   UNL     1       0.503   6.024   4.981  0.00  0.00    +0.000 C 
ATOM     14  C   UNL     1      -0.815   5.588   4.415  0.00  0.00    +0.000 A 
ATOM     15  C   UNL     1      -1.560   6.437   3.590  0.00  0.00    +0.000 A 
ATOM     16  C   UNL     1      -2.760   6.002   3.022  0.00  0.00    +0.000 A 
ATOM     17  C   UNL     1      -3.244   4.712   3.275  0.00  0.00    +0.000 A 
ATOM     18  C   UNL     1      -2.516   3.877   4.135  0.00  0.00    +0.000 A 
ATOM     19  C   UNL     1      -1.314   4.312   4.700  0.00  0.00    +0.000 A 
ENDBRANCH  12  17
ENDBRANCH   5  12
ENDBRANCH   1   9
BRANCH   2  20
ATOM     20  C   UNL     1      -3.268   4.951  -4.603  0.00  0.00    +0.000 A 
ATOM     21  C   UNL     1      -2.384   4.659  -5.655  0.00  0.00    +0.000 A 
ATOM     22  C   UNL     1      -2.092   5.612  -6.638  0.00  0.00    +0.000 A 
ATOM     23  C   UNL     1      -2.704   6.862  -6.593  0.00  0.00    +0.000 A 
ATOM     24  C   UNL     1      -3.594   7.153  -5.554  0.00  0.00    +0.000 A 
ATOM     25  C   UNL     1      -3.887   6.203  -4.566  0.00  0.00    +0.000 A 
BRANCH  23  26
ATOM     26  O   UNL     1      -2.505   7.879  -7.487  0.00  0.00    +0.000 OA
BRANCH  26  27
ATOM     27  C   UNL     1      -2.010   7.505  -8.775  0.00  0.00    +0.000 C 
BRANCH  27  28
ATOM     28  C   UNL     1      -2.391   8.592  -9.728  0.00  0.00    +0.000 A 
ATOM     29  N   UNL     1      -3.232   8.456 -10.741  0.00  0.00    +0.000 NA
ATOM     30  C   UNL     1      -3.297   9.680 -11.348  0.00  0.00    +0.000 A 
ATOM     31  C   UNL     1      -2.473  10.578 -10.716  0.00  0.00    +0.000 A 
ATOM     32  N   UNL     1      -1.899   9.876  -9.691  0.00  0.00    +0.000 N 
ATOM     33  C   UNL     1      -0.940  10.407  -8.754  0.00  0.00    +0.000 C 
ENDBRANCH  27  28
ENDBRANCH  26  27
ENDBRANCH  23  26
ENDBRANCH   2  20
TORSDOF 7
