REMARK  Name = 
REMARK  5 active torsions:
REMARK  status: ('A' for Active; 'I' for Inactive)
REMARK    1  A    between atoms: C_2  and  C_18
REMARK    2  A    between atoms: N_3  and  C_4
REMARK    3  A    between atoms: C_5  and  C_6
REMARK    4  A    between atoms: N_9  and  C_10
REMARK    5  A    between atoms: C_21  and  C_22
REMARK                            x       y       z     vdW  Elec       q    Type
REMARK                         _______ _______ _______ _____ _____    ______ ____
ROOT
ATOM      1  O   UNL     1       1.268  -0.877   0.470  0.00  0.00    +0.000 OA
ATOM      2  C   UNL     1       2.278  -0.261   0.143  0.00  0.00    +0.000 C 
ATOM      3  N   UNL     1       2.759   0.857   0.786  0.00  0.00    +0.000 N 
ATOM      4  H   UNL     1       3.428   1.449   0.296  0.00  0.00    +0.000 HD
ENDROOT
BRANCH   2   5
ATOM      5  C   UNL     1       3.031  -0.682  -1.070  0.00  0.00    +0.000 A 
ATOM      6  C   UNL     1       2.721  -1.909  -1.661  0.00  0.00    +0.000 A 
ATOM      7  C   UNL     1       3.434  -2.354  -2.781  0.00  0.00    +0.000 A 
ATOM      8  C   UNL     1       4.481  -1.593  -3.334  0.00  0.00    +0.000 A 
ATOM      9  C   UNL     1       4.756  -0.353  -2.749  0.00  0.00    +0.000 A 
ATOM     10  C   UNL     1       4.041   0.091  -1.641  0.00  0.00    +0.000 A 
ATOM     11  F   UNL     1       4.358   1.295  -1.142  0.00  0.00    +0.000 F 
BRANCH   8  12
ATOM     12  C   UNL     1       5.257  -2.075  -4.491  0.00  0.00    +0.000 A 
ATOM     13  C   UNL     1       5.775  -1.242  -5.465  0.00  0.00    +0.000 A 
ATOM     14  N   UNL     1       6.504  -1.640  -6.533  0.00  0.00    +0.000 NA
ATOM     15  C   UNL     1       6.721  -2.957  -6.620  0.00  0.00    +0.000 A 
ATOM     16  N   UNL     1       6.275  -3.878  -5.760  0.00  0.00    +0.000 NA
ATOM     17  C   UNL     1       5.558  -3.414  -4.714  0.00  0.00    +0.000 A 
ENDBRANCH   8  12
ENDBRANCH   2   5
BRANCH   3  18
ATOM     18  C   UNL     1       2.125   1.427   1.867  0.00  0.00    +0.000 A 
ATOM     19  C   UNL     1       2.039   2.788   2.057  0.00  0.00    +0.000 A 
ATOM     20  N   UNL     1       1.265   2.962   3.187  0.00  0.00    +0.000 N 
ATOM     21  N   UNL     1       1.061   1.783   3.835  0.00  0.00    +0.000 NA
ATOM     22  C   UNL     1       1.477   0.854   2.970  0.00  0.00    +0.000 A 
BRANCH  20  23
ATOM     23  C   UNL     1       0.638   4.134   3.683  0.00  0.00    +0.000 A 
ATOM     24  C   UNL     1       0.161   5.125   2.826  0.00  0.00    +0.000 A 
ATOM     25  C   UNL     1      -0.460   6.228   3.388  0.00  0.00    +0.000 A 
ATOM     26  N   UNL     1      -0.627   6.402   4.715  0.00  0.00    +0.000 NA
ATOM     27  C   UNL     1      -0.183   5.411   5.519  0.00  0.00    +0.000 A 
ATOM     28  C   UNL     1       0.434   4.262   5.060  0.00  0.00    +0.000 A 
ENDBRANCH  20  23
BRANCH  19  29
ATOM     29  C   UNL     1       2.605   3.882   1.255  0.00  0.00    +0.000 C 
ATOM     30  F   UNL     1       3.321   4.742   2.021  0.00  0.00    +0.000 F 
ATOM     31  F   UNL     1       3.479   3.397   0.326  0.00  0.00    +0.000 F 
ENDBRANCH  19  29
ENDBRANCH   3  18
TORSDOF 5
