REMARK  Name = 
REMARK  7 active torsions:
REMARK  status: ('A' for Active; 'I' for Inactive)
REMARK    1  A    between atoms: C_1  and  C_2
REMARK    2  A    between atoms: C_7  and  O_8
REMARK    3  A    between atoms: O_8  and  C_9
REMARK    4  A    between atoms: C_9  and  C_10
REMARK    5  A    between atoms: N_12  and  C_13
REMARK    6  A    between atoms: N_19  and  C_20
REMARK    7  A    between atoms: C_22  and  O_23
REMARK                            x       y       z     vdW  Elec       q    Type
REMARK                         _______ _______ _______ _____ _____    ______ ____
ROOT
ATOM      1  C   UNL     1       4.674  -5.518  -0.043  0.00  0.00    +0.000 A 
ATOM      2  C   UNL     1       4.217  -6.433  -0.998  0.00  0.00    +0.000 A 
ATOM      3  C   UNL     1       4.811  -7.695  -1.097  0.00  0.00    +0.000 A 
ATOM      4  C   UNL     1       5.820  -8.073  -0.211  0.00  0.00    +0.000 A 
ATOM      5  N   UNL     1       6.338  -9.367  -0.276  0.00  0.00    +0.000 NA
ATOM      6  C   UNL     1       7.153  -9.732   0.661  0.00  0.00    +0.000 A 
ATOM      7  N   UNL     1       7.601  -8.950   1.708  0.00  0.00    +0.000 N 
ATOM      8  C   UNL     1       7.233  -7.594   1.750  0.00  0.00    +0.000 A 
ATOM      9  O   UNL     1       7.666  -6.749   2.520  0.00  0.00    +0.000 OA
ATOM     10  C   UNL     1       6.255  -7.155   0.740  0.00  0.00    +0.000 A 
ATOM     11  C   UNL     1       5.727  -5.861   0.795  0.00  0.00    +0.000 A 
ENDROOT
BRANCH   7  12
ATOM     12  C   UNL     1       8.447  -9.513   2.734  0.00  0.00    +0.000 A 
ATOM     13  C   UNL     1       8.480  -8.968   4.032  0.00  0.00    +0.000 A 
ATOM     14  C   UNL     1       9.296  -9.517   5.023  0.00  0.00    +0.000 A 
ATOM     15  C   UNL     1      10.084 -10.626   4.764  0.00  0.00    +0.000 A 
ATOM     16  C   UNL     1      10.063 -11.189   3.494  0.00  0.00    +0.000 A 
ATOM     17  C   UNL     1       9.254 -10.639   2.490  0.00  0.00    +0.000 A 
BRANCH  14  18
ATOM     18  O   UNL     1       9.340  -8.984   6.279  0.00  0.00    +0.000 OA
ATOM     19  H   UNL     1       8.820  -8.162   6.284  0.00  0.00    +0.000 HD
ENDBRANCH  14  18
ENDBRANCH   7  12
BRANCH   1  22
ATOM     20  C   UNL     1       2.710  -4.084   0.199  0.00  0.00    +0.000 C 
ATOM     21  O   UNL     1       1.884  -4.992   0.155  0.00  0.00    +0.000 OA
ATOM     22  N   UNL     1       4.087  -4.251   0.123  0.00  0.00    +0.000 N 
ATOM     23  H   UNL     1       4.626  -3.549   0.620  0.00  0.00    +0.000 HD
BRANCH  20  24
ATOM     24  C   UNL     1       2.298  -2.622   0.326  0.00  0.00    +0.000 C 
BRANCH  24  25
ATOM     25  O   UNL     1       2.568  -2.109   1.615  0.00  0.00    +0.000 OA
BRANCH  25  32
ATOM     26  C   UNL     1       1.393   0.074  -0.375  0.00  0.00    +0.000 C 
ATOM     27  C   UNL     1       1.701   0.198   1.092  0.00  0.00    +0.000 A 
ATOM     28  C   UNL     1       1.449   1.468   1.661  0.00  0.00    +0.000 A 
ATOM     29  C   UNL     1       1.680   1.730   3.009  0.00  0.00    +0.000 A 
ATOM     30  C   UNL     1       2.165   0.722   3.826  0.00  0.00    +0.000 A 
ATOM     31  C   UNL     1       2.424  -0.538   3.284  0.00  0.00    +0.000 A 
ATOM     32  C   UNL     1       2.208  -0.821   1.921  0.00  0.00    +0.000 A 
ENDBRANCH  25  32
ENDBRANCH  24  25
ENDBRANCH  20  24
ENDBRANCH   1  22
TORSDOF 6
