REMARK  Name = 
REMARK  3 active torsions:
REMARK  status: ('A' for Active; 'I' for Inactive)
REMARK    1  A    between atoms: C_2  and  C_3
REMARK    2  A    between atoms: C_2  and  C_9
REMARK    3  A    between atoms: C_11  and  C_12
REMARK                            x       y       z     vdW  Elec       q    Type
REMARK                         _______ _______ _______ _____ _____    ______ ____
ROOT
ATOM      1  C   UNL     1       3.056  -1.188  -0.774  0.00  0.00    +0.000 A 
ATOM      2  C   UNL     1       2.782  -1.441  -2.134  0.00  0.00    +0.000 A 
ATOM      3  C   UNL     1       3.544  -2.367  -2.867  0.00  0.00    +0.000 A 
ATOM      4  C   UNL     1       4.589  -3.027  -2.187  0.00  0.00    +0.000 A 
ATOM      5  C   UNL     1       4.868  -2.780  -0.844  0.00  0.00    +0.000 A 
ATOM      6  C   UNL     1       4.106  -1.857  -0.146  0.00  0.00    +0.000 A 
ATOM      7  F   UNL     1       4.406  -1.644   1.143  0.00  0.00    +0.000 F 
ENDROOT
BRANCH   3   8
ATOM      8  C   UNL     1       3.338  -2.626  -4.311  0.00  0.00    +0.000 A 
ATOM      9  C   UNL     1       3.613  -3.908  -4.835  0.00  0.00    +0.000 A 
ATOM     10  C   UNL     1       3.663  -4.146  -6.206  0.00  0.00    +0.000 A 
ATOM     11  C   UNL     1       3.334  -3.122  -7.077  0.00  0.00    +0.000 A 
ATOM     12  O   UNL     1       3.395  -3.420  -8.440  0.00  0.00    +0.000 OA
ATOM     13  C   UNL     1       2.816  -2.546  -9.351  0.00  0.00    +0.000 A 
ATOM     14  O   UNL     1       2.729  -2.829 -10.541  0.00  0.00    +0.000 OA
ATOM     15  N   UNL     1       2.355  -1.350  -8.861  0.00  0.00    +0.000 N 
ATOM     16  C   UNL     1       2.435  -0.909  -7.572  0.00  0.00    +0.000 A 
ATOM     17  O   UNL     1       2.083   0.219  -7.237  0.00  0.00    +0.000 OA
ATOM     18  C   UNL     1       2.932  -1.885  -6.596  0.00  0.00    +0.000 A 
ATOM     19  C   UNL     1       2.958  -1.620  -5.220  0.00  0.00    +0.000 A 
ATOM     20  H   UNL     1       1.954  -0.728  -9.546  0.00  0.00    +0.000 HD
ENDBRANCH   3   8
BRANCH   1  22
ATOM     21  O   UNL     1       2.884   0.539   0.808  0.00  0.00    +0.000 OA
ATOM     22  C   UNL     1       2.301  -0.162  -0.014  0.00  0.00    +0.000 C 
BRANCH  22  23
ATOM     23  C   UNL     1       0.864   0.092  -0.283  0.00  0.00    +0.000 A 
ATOM     24  C   UNL     1       0.394   1.406  -0.168  0.00  0.00    +0.000 A 
ATOM     25  C   UNL     1      -0.932   1.702  -0.479  0.00  0.00    +0.000 A 
ATOM     26  C   UNL     1      -1.793   0.687  -0.896  0.00  0.00    +0.000 A 
ATOM     27  C   UNL     1      -1.338  -0.630  -0.976  0.00  0.00    +0.000 A 
ATOM     28  C   UNL     1      -0.014  -0.933  -0.656  0.00  0.00    +0.000 A 
ENDBRANCH  22  23
ENDBRANCH   1  22
TORSDOF 3
