REMARK  Name = 
REMARK  6 active torsions:
REMARK  status: ('A' for Active; 'I' for Inactive)
REMARK    1  A    between atoms: C_2  and  C_3
REMARK    2  A    between atoms: C_3  and  O_4
REMARK    3  A    between atoms: O_4  and  C_5
REMARK    4  A    between atoms: C_9  and  O_10
REMARK    5  A    between atoms: O_10  and  C_11
REMARK    6  A    between atoms: C_22  and  C_24
REMARK                            x       y       z     vdW  Elec       q    Type
REMARK                         _______ _______ _______ _____ _____    ______ ____
ROOT
ATOM      1  O   UNL     1       1.154  -0.246   0.035  0.00  0.00    +0.000 OA
ATOM      2  C   UNL     1       2.361   0.013   0.047  0.00  0.00    +0.000 C 
ATOM      3  N   UNL     1       3.104  -0.045   1.218  0.00  0.00    +0.000 N 
ATOM      4  C   UNL     1       2.495  -0.620   2.412  0.00  0.00    +0.000 C 
ATOM      5  C   UNL     1       2.583   0.331   3.605  0.00  0.00    +0.000 C 
ATOM      6  N   UNL     1       3.954   0.818   3.828  0.00  0.00    +0.000 N 
ATOM      7  C   UNL     1       4.641   0.904   5.047  0.00  0.00    +0.000 C 
ATOM      8  O   UNL     1       5.770   1.388   5.116  0.00  0.00    +0.000 OA
ATOM      9  C   UNL     1       4.589   1.379   2.620  0.00  0.00    +0.000 C 
ATOM     10  C   UNL     1       4.483   0.428   1.410  0.00  0.00    +0.000 C 
ENDROOT
BRANCH   7  11
ATOM     11  C   UNL     1       4.050   0.370   6.299  0.00  0.00    +0.000 A 
ATOM     12  C   UNL     1       2.720   0.613   6.655  0.00  0.00    +0.000 A 
ATOM     13  C   UNL     1       2.180  -0.011   7.776  0.00  0.00    +0.000 A 
ATOM     14  F   UNL     1       0.875   0.130   8.035  0.00  0.00    +0.000 F 
ATOM     15  C   UNL     1       2.965  -0.791   8.616  0.00  0.00    +0.000 A 
ATOM     16  C   UNL     1       4.319  -0.945   8.331  0.00  0.00    +0.000 A 
ATOM     17  C   UNL     1       4.853  -0.375   7.172  0.00  0.00    +0.000 A 
ATOM     18  F   UNL     1       6.151  -0.591   6.914  0.00  0.00    +0.000 F 
ENDBRANCH   7  11
BRANCH   2  19
ATOM     19  C   UNL     1       3.088   0.339  -1.256  0.00  0.00    +0.000 C 
BRANCH  19  20
ATOM     20  O   UNL     1       3.105   1.740  -1.504  0.00  0.00    +0.000 OA
BRANCH  20  21
ATOM     21  C   UNL     1       3.694   2.101  -2.688  0.00  0.00    +0.000 A 
ATOM     22  C   UNL     1       4.820   1.464  -3.224  0.00  0.00    +0.000 A 
ATOM     23  C   UNL     1       5.414   1.946  -4.390  0.00  0.00    +0.000 A 
ATOM     24  C   UNL     1       4.879   3.057  -5.034  0.00  0.00    +0.000 A 
ATOM     25  C   UNL     1       3.717   3.665  -4.547  0.00  0.00    +0.000 A 
ATOM     26  C   UNL     1       3.154   3.210  -3.350  0.00  0.00    +0.000 A 
BRANCH  25  27
ATOM     27  O   UNL     1       3.127   4.757  -5.151  0.00  0.00    +0.000 OA
BRANCH  27  28
ATOM     28  C   UNL     1       3.101   4.800  -6.545  0.00  0.00    +0.000 A 
ATOM     29  C   UNL     1       3.005   6.059  -7.125  0.00  0.00    +0.000 A 
ATOM     30  C   UNL     1       2.999   6.143  -8.515  0.00  0.00    +0.000 A 
ATOM     31  C   UNL     1       3.084   4.980  -9.272  0.00  0.00    +0.000 A 
ATOM     32  C   UNL     1       3.154   3.769  -8.605  0.00  0.00    +0.000 A 
ATOM     33  N   UNL     1       3.149   3.652  -7.261  0.00  0.00    +0.000 NA
ENDBRANCH  27  28
ENDBRANCH  25  27
ENDBRANCH  20  21
ENDBRANCH  19  20
ENDBRANCH   2  19
TORSDOF 6
