REMARK  Name = 
REMARK  6 active torsions:
REMARK  status: ('A' for Active; 'I' for Inactive)
REMARK    1  A    between atoms: C_2  and  C_4
REMARK    2  A    between atoms: C_9  and  O_10
REMARK    3  A    between atoms: O_10  and  C_11
REMARK    4  A    between atoms: C_14  and  N_15
REMARK    5  A    between atoms: C_16  and  C_18
REMARK    6  A    between atoms: N_22  and  C_23
REMARK                            x       y       z     vdW  Elec       q    Type
REMARK                         _______ _______ _______ _____ _____    ______ ____
ROOT
ATOM      1  C   UNL     1       3.813   0.590   2.189  0.00  0.00    +0.000 A 
ATOM      2  C   UNL     1       2.571   0.338   2.763  0.00  0.00    +0.000 A 
ATOM      3  C   UNL     1       1.688   1.391   2.999  0.00  0.00    +0.000 A 
ATOM      4  C   UNL     1       2.053   2.715   2.734  0.00  0.00    +0.000 A 
ATOM      5  C   UNL     1       3.363   2.969   2.307  0.00  0.00    +0.000 A 
ATOM      6  C   UNL     1       4.240   1.908   2.029  0.00  0.00    +0.000 A 
ENDROOT
BRANCH   4   7
ATOM      7  N   UNL     1       1.155   3.805   2.863  0.00  0.00    +0.000 N 
ATOM      8  C   UNL     1      -0.213   3.698   3.061  0.00  0.00    +0.000 C 
ATOM      9  O   UNL     1      -0.813   2.631   3.119  0.00  0.00    +0.000 OA
ATOM     10  H   UNL     1       1.536   4.729   2.713  0.00  0.00    +0.000 HD
BRANCH   8  11
ATOM     11  C   UNL     1      -0.941   4.942   3.161  0.00  0.00    +0.000 A 
ATOM     12  C   UNL     1      -0.729   6.165   2.552  0.00  0.00    +0.000 A 
ATOM     13  C   UNL     1      -1.924   6.876   2.746  0.00  0.00    +0.000 A 
ATOM     14  N   UNL     1      -2.821   6.186   3.446  0.00  0.00    +0.000 NA
ATOM     15  N   UNL     1      -2.166   5.051   3.810  0.00  0.00    +0.000 N 
BRANCH  15  16
ATOM     16  C   UNL     1      -2.742   4.189   4.782  0.00  0.00    +0.000 A 
ATOM     17  C   UNL     1      -4.129   4.053   4.843  0.00  0.00    +0.000 A 
ATOM     18  C   UNL     1      -4.650   3.171   5.775  0.00  0.00    +0.000 A 
ATOM     19  N   UNL     1      -3.901   2.471   6.655  0.00  0.00    +0.000 NA
ATOM     20  C   UNL     1      -2.564   2.649   6.594  0.00  0.00    +0.000 A 
ATOM     21  C   UNL     1      -1.940   3.485   5.684  0.00  0.00    +0.000 A 
ENDBRANCH  15  16
ENDBRANCH   8  11
ENDBRANCH   4   7
BRANCH   1  22
ATOM     22  O   UNL     1       4.642  -0.423   1.753  0.00  0.00    +0.000 OA
BRANCH  22  28
ATOM     23  C   UNL     1       4.655  -2.767   1.152  0.00  0.00    +0.000 A 
ATOM     24  C   UNL     1       4.044  -3.839   0.471  0.00  0.00    +0.000 A 
ATOM     25  C   UNL     1       2.865  -3.661  -0.256  0.00  0.00    +0.000 A 
ATOM     26  C   UNL     1       2.303  -2.397  -0.355  0.00  0.00    +0.000 A 
ATOM     27  C   UNL     1       2.922  -1.314   0.268  0.00  0.00    +0.000 A 
ATOM     28  C   UNL     1       4.069  -1.490   1.071  0.00  0.00    +0.000 A 
BRANCH  23  30
ATOM     29  N   UNL     1       6.474  -2.139   2.689  0.00  0.00    +0.000 N 
ATOM     30  C   UNL     1       5.885  -3.105   1.931  0.00  0.00    +0.000 C 
ATOM     31  O   UNL     1       6.366  -4.234   1.910  0.00  0.00    +0.000 OA
ATOM     32  H   UNL     1       7.288  -2.397   3.230  0.00  0.00    +0.000 HD
ATOM     33  H   UNL     1       6.113  -1.198   2.754  0.00  0.00    +0.000 HD
ENDBRANCH  23  30
ENDBRANCH  22  28
ENDBRANCH   1  22
TORSDOF 6
