REMARK  Name = 
REMARK  5 active torsions:
REMARK  status: ('A' for Active; 'I' for Inactive)
REMARK    1  A    between atoms: C_1  and  N_2
REMARK    2  A    between atoms: N_2  and  C_20
REMARK    3  A    between atoms: C_3  and  C_5
REMARK    4  A    between atoms: N_9  and  C_10
REMARK    5  A    between atoms: C_10  and  C_11
REMARK                            x       y       z     vdW  Elec       q    Type
REMARK                         _______ _______ _______ _____ _____    ______ ____
ROOT
ATOM      1  C   UNL     1       2.246  -2.518   0.717  0.00  0.00    +0.000 A 
ATOM      2  C   UNL     1       2.256  -3.350   1.777  0.00  0.00    +0.000 A 
ATOM      3  C   UNL     1       1.643  -4.649   1.731  0.00  0.00    +0.000 A 
ATOM      4  C   UNL     1       0.895  -4.993   0.687  0.00  0.00    +0.000 A 
ATOM      5  N   UNL     1       0.687  -4.114  -0.362  0.00  0.00    +0.000 N 
ATOM      6  C   UNL     1       1.331  -2.863  -0.430  0.00  0.00    +0.000 A 
ATOM      7  O   UNL     1       1.164  -2.091  -1.377  0.00  0.00    +0.000 OA
ENDROOT
BRANCH   1  10
ATOM      8  C   UNL     1       5.105  -2.413   1.708  0.00  0.00    +0.000 C 
ATOM      9  N   UNL     1       4.238  -1.230   1.478  0.00  0.00    +0.000 N 
ATOM     10  C   UNL     1       3.030  -1.229   0.764  0.00  0.00    +0.000 C 
ATOM     11  O   UNL     1       2.583  -0.207   0.249  0.00  0.00    +0.000 OA
BRANCH   9  12
ATOM     12  C   UNL     1       5.016  -0.017   1.594  0.00  0.00    +0.000 A 
ATOM     13  C   UNL     1       5.770   0.334   0.474  0.00  0.00    +0.000 A 
ATOM     14  N   UNL     1       7.091   0.622   0.532  0.00  0.00    +0.000 NA
ATOM     15  C   UNL     1       7.654   0.635   1.762  0.00  0.00    +0.000 A 
ATOM     16  C   UNL     1       6.944   0.534   2.960  0.00  0.00    +0.000 A 
ATOM     17  C   UNL     1       7.547   0.648   4.226  0.00  0.00    +0.000 A 
ATOM     18  C   UNL     1       6.773   0.574   5.386  0.00  0.00    +0.000 A 
ATOM     19  C   UNL     1       5.407   0.363   5.302  0.00  0.00    +0.000 A 
ATOM     20  C   UNL     1       4.806   0.182   4.053  0.00  0.00    +0.000 A 
ATOM     21  C   UNL     1       5.568   0.253   2.867  0.00  0.00    +0.000 A 
ENDBRANCH   9  12
ENDBRANCH   1  10
BRANCH   5  22
ATOM     22  C   UNL     1      -0.174  -4.535  -1.468  0.00  0.00    +0.000 C 
BRANCH  22  23
ATOM     23  C   UNL     1       0.610  -5.278  -2.527  0.00  0.00    +0.000 A 
ATOM     24  C   UNL     1       0.771  -6.670  -2.463  0.00  0.00    +0.000 A 
ATOM     25  C   UNL     1       1.609  -7.312  -3.370  0.00  0.00    +0.000 A 
ATOM     26  F   UNL     1       1.788  -8.636  -3.276  0.00  0.00    +0.000 F 
ATOM     27  C   UNL     1       2.281  -6.598  -4.355  0.00  0.00    +0.000 A 
ATOM     28  C   UNL     1       2.099  -5.224  -4.452  0.00  0.00    +0.000 A 
ATOM     29  C   UNL     1       1.264  -4.566  -3.543  0.00  0.00    +0.000 A 
ENDBRANCH  22  23
ENDBRANCH   5  22
TORSDOF 4
