REMARK  Name = 
REMARK  4 active torsions:
REMARK  status: ('A' for Active; 'I' for Inactive)
REMARK    1  A    between atoms: C_2  and  C_17
REMARK    2  A    between atoms: N_3  and  C_4
REMARK    3  A    between atoms: C_6  and  C_7
REMARK    4  A    between atoms: C_20  and  N_21
REMARK                            x       y       z     vdW  Elec       q    Type
REMARK                         _______ _______ _______ _____ _____    ______ ____
ROOT
ATOM      1  O   UNL     1       1.054   0.297   0.164  0.00  0.00    +0.000 OA
ATOM      2  C   UNL     1       2.251   0.051   0.063  0.00  0.00    +0.000 C 
ATOM      3  N   UNL     1       2.882  -0.486  -1.042  0.00  0.00    +0.000 N 
ATOM      4  H   UNL     1       3.810  -0.887  -0.934  0.00  0.00    +0.000 HD
ENDROOT
BRANCH   3   5
ATOM      5  C   UNL     1       2.267  -0.774  -2.248  0.00  0.00    +0.000 A 
ATOM      6  C   UNL     1       1.107  -0.254  -2.675  0.00  0.00    +0.000 A 
ATOM      7  C   UNL     1       0.508  -0.619  -3.946  0.00  0.00    +0.000 A 
ATOM      8  C   UNL     1       1.130  -1.526  -4.715  0.00  0.00    +0.000 A 
ATOM      9  N   UNL     1       2.322  -2.083  -4.319  0.00  0.00    +0.000 N 
ATOM     10  C   UNL     1       2.968  -1.762  -3.146  0.00  0.00    +0.000 A 
ATOM     11  O   UNL     1       4.043  -2.259  -2.821  0.00  0.00    +0.000 OA
ATOM     12  H   UNL     1       2.783  -2.766  -4.908  0.00  0.00    +0.000 HD
BRANCH   7  13
ATOM     13  C   UNL     1      -0.747  -0.009  -4.414  0.00  0.00    +0.000 A 
ATOM     14  C   UNL     1      -1.976  -0.619  -4.163  0.00  0.00    +0.000 A 
ATOM     15  C   UNL     1      -3.125   0.027  -4.590  0.00  0.00    +0.000 A 
ATOM     16  N   UNL     1      -3.124   1.214  -5.234  0.00  0.00    +0.000 NA
ATOM     17  C   UNL     1      -1.922   1.789  -5.451  0.00  0.00    +0.000 A 
ATOM     18  C   UNL     1      -0.720   1.225  -5.064  0.00  0.00    +0.000 A 
ENDBRANCH   7  13
ENDBRANCH   3   5
BRANCH   2  19
ATOM     19  C   UNL     1       3.093   0.276   1.256  0.00  0.00    +0.000 A 
ATOM     20  C   UNL     1       2.574  -0.104   2.499  0.00  0.00    +0.000 A 
ATOM     21  C   UNL     1       3.292   0.147   3.669  0.00  0.00    +0.000 A 
ATOM     22  C   UNL     1       4.518   0.821   3.602  0.00  0.00    +0.000 A 
ATOM     23  C   UNL     1       5.014   1.218   2.352  0.00  0.00    +0.000 A 
ATOM     24  F   UNL     1       6.194   1.842   2.237  0.00  0.00    +0.000 F 
ATOM     25  C   UNL     1       4.320   0.933   1.176  0.00  0.00    +0.000 A 
BRANCH  22  26
ATOM     26  N   UNL     1       5.232   1.097   4.793  0.00  0.00    +0.000 N 
ATOM     27  C   UNL     1       5.138   0.408   5.985  0.00  0.00    +0.000 A 
ATOM     28  C   UNL     1       6.032   1.008   6.840  0.00  0.00    +0.000 A 
ATOM     29  N   UNL     1       6.643   2.068   6.236  0.00  0.00    +0.000 NA
ATOM     30  C   UNL     1       6.149   2.100   5.017  0.00  0.00    +0.000 A 
ENDBRANCH  22  26
ENDBRANCH   2  19
TORSDOF 4
