REMARK  Name = 
REMARK  4 active torsions:
REMARK  status: ('A' for Active; 'I' for Inactive)
REMARK    1  A    between atoms: C_2  and  C_11
REMARK    2  A    between atoms: N_3  and  C_4
REMARK    3  A    between atoms: N_16  and  C_17
REMARK    4  A    between atoms: C_17  and  C_18
REMARK                            x       y       z     vdW  Elec       q    Type
REMARK                         _______ _______ _______ _____ _____    ______ ____
ROOT
ATOM      1  C   UNL     1       3.157  -1.169   0.559  0.00  0.00    +0.000 A 
ATOM      2  C   UNL     1       2.664  -2.466   0.459  0.00  0.00    +0.000 A 
ATOM      3  C   UNL     1       3.395  -3.489   1.033  0.00  0.00    +0.000 A 
ATOM      4  C   UNL     1       4.576  -3.172   1.692  0.00  0.00    +0.000 A 
ATOM      5  C   UNL     1       5.034  -1.853   1.713  0.00  0.00    +0.000 A 
ATOM      6  N   UNL     1       6.256  -1.625   2.354  0.00  0.00    +0.000 N 
ATOM      7  N   UNL     1       4.347  -0.841   1.143  0.00  0.00    +0.000 NA
ATOM      8  H   UNL     1       6.167  -1.793   3.355  0.00  0.00    +0.000 HD
ENDROOT
BRANCH   1  10
ATOM      9  O   UNL     1       1.189  -0.317  -0.392  0.00  0.00    +0.000 OA
ATOM     10  C   UNL     1       2.307  -0.053   0.034  0.00  0.00    +0.000 C 
ATOM     11  N   UNL     1       2.901   1.200   0.057  0.00  0.00    +0.000 N 
ATOM     12  H   UNL     1       3.882   1.206   0.314  0.00  0.00    +0.000 HD
BRANCH  11  13
ATOM     13  C   UNL     1       2.299   2.397  -0.380  0.00  0.00    +0.000 A 
ATOM     14  C   UNL     1       0.919   2.534  -0.568  0.00  0.00    +0.000 A 
ATOM     15  C   UNL     1       0.376   3.724  -1.058  0.00  0.00    +0.000 A 
ATOM     16  C   UNL     1       1.217   4.784  -1.358  0.00  0.00    +0.000 A 
ATOM     17  F   UNL     1       0.702   5.915  -1.855  0.00  0.00    +0.000 F 
ATOM     18  C   UNL     1       2.588   4.685  -1.146  0.00  0.00    +0.000 A 
ATOM     19  C   UNL     1       3.130   3.496  -0.641  0.00  0.00    +0.000 A 
ENDBRANCH  11  13
ENDBRANCH   1  10
BRANCH   6  20
ATOM     20  C   UNL     1       6.945  -0.392   2.027  0.00  0.00    +0.000 C 
BRANCH  20  21
ATOM     21  C   UNL     1       8.335  -0.415   2.628  0.00  0.00    +0.000 A 
ATOM     22  C   UNL     1       8.738   0.593   3.422  0.00  0.00    +0.000 A 
ATOM     23  N   UNL     1       9.979   0.632   3.996  0.00  0.00    +0.000 N 
ATOM     24  C   UNL     1      10.927  -0.353   3.868  0.00  0.00    +0.000 A 
ATOM     25  O   UNL     1      12.029  -0.258   4.396  0.00  0.00    +0.000 OA
ATOM     26  C   UNL     1      10.538  -1.528   3.053  0.00  0.00    +0.000 A 
ATOM     27  C   UNL     1      11.419  -2.616   2.971  0.00  0.00    +0.000 A 
ATOM     28  C   UNL     1      11.085  -3.720   2.195  0.00  0.00    +0.000 A 
ATOM     29  C   UNL     1       9.900  -3.712   1.465  0.00  0.00    +0.000 A 
ATOM     30  C   UNL     1       9.022  -2.622   1.548  0.00  0.00    +0.000 A 
ATOM     31  C   UNL     1       9.297  -1.528   2.384  0.00  0.00    +0.000 A 
ATOM     32  H   UNL     1      10.254   1.422   4.568  0.00  0.00    +0.000 HD
ENDBRANCH  20  21
ENDBRANCH   6  20
TORSDOF 4
