REMARK  Name = 
REMARK  6 active torsions:
REMARK  status: ('A' for Active; 'I' for Inactive)
REMARK    1  A    between atoms: C_2  and  C_17
REMARK    2  A    between atoms: N_3  and  C_4
REMARK    3  A    between atoms: C_4  and  C_5
REMARK    4  A    between atoms: C_9  and  C_10
REMARK    5  A    between atoms: C_18  and  C_19
REMARK    6  A    between atoms: N_22  and  C_23
REMARK                            x       y       z     vdW  Elec       q    Type
REMARK                         _______ _______ _______ _____ _____    ______ ____
ROOT
ATOM      1  O   UNL     1       0.942  -0.166   0.044  0.00  0.00    +0.000 OA
ATOM      2  C   UNL     1       2.160  -0.111  -0.081  0.00  0.00    +0.000 C 
ATOM      3  N   UNL     1       2.855  -0.838  -1.019  0.00  0.00    +0.000 N 
ATOM      4  H   UNL     1       3.857  -0.939  -0.927  0.00  0.00    +0.000 HD
ENDROOT
BRANCH   2   5
ATOM      5  C   UNL     1       2.995   0.686   0.796  0.00  0.00    +0.000 A 
ATOM      6  C   UNL     1       2.694   1.075   2.097  0.00  0.00    +0.000 A 
ATOM      7  N   UNL     1       3.807   1.753   2.582  0.00  0.00    +0.000 N 
ATOM      8  N   UNL     1       4.780   1.817   1.622  0.00  0.00    +0.000 NA
ATOM      9  C   UNL     1       4.265   1.225   0.554  0.00  0.00    +0.000 A 
BRANCH   7  10
ATOM     10  C   UNL     1       4.104   2.330   3.854  0.00  0.00    +0.000 A 
ATOM     11  C   UNL     1       5.450   2.541   4.192  0.00  0.00    +0.000 A 
ATOM     12  C   UNL     1       5.754   3.079   5.431  0.00  0.00    +0.000 A 
ATOM     13  N   UNL     1       4.824   3.437   6.337  0.00  0.00    +0.000 NA
ATOM     14  C   UNL     1       3.536   3.251   5.984  0.00  0.00    +0.000 A 
ATOM     15  C   UNL     1       3.128   2.707   4.775  0.00  0.00    +0.000 A 
ENDBRANCH   7  10
BRANCH   6  16
ATOM     16  C   UNL     1       1.494   0.739   2.892  0.00  0.00    +0.000 C 
ATOM     17  F   UNL     1       1.838   0.213   4.098  0.00  0.00    +0.000 F 
ATOM     18  F   UNL     1       0.743   1.843   3.142  0.00  0.00    +0.000 F 
ENDBRANCH   6  16
ENDBRANCH   2   5
BRANCH   3  19
ATOM     19  C   UNL     1       2.181  -1.766  -1.898  0.00  0.00    +0.000 C 
BRANCH  19  20
ATOM     20  C   UNL     1       2.934  -1.908  -3.194  0.00  0.00    +0.000 A 
ATOM     21  C   UNL     1       3.442  -3.142  -3.605  0.00  0.00    +0.000 A 
ATOM     22  C   UNL     1       4.112  -3.249  -4.821  0.00  0.00    +0.000 A 
ATOM     23  C   UNL     1       4.277  -2.126  -5.637  0.00  0.00    +0.000 A 
ATOM     24  C   UNL     1       3.771  -0.868  -5.265  0.00  0.00    +0.000 A 
ATOM     25  C   UNL     1       3.103  -0.786  -4.029  0.00  0.00    +0.000 A 
BRANCH  24  26
ATOM     26  C   UNL     1       3.904   0.315  -6.142  0.00  0.00    +0.000 A 
ATOM     27  C   UNL     1       4.083   1.611  -5.638  0.00  0.00    +0.000 A 
ATOM     28  C   UNL     1       4.175   2.706  -6.498  0.00  0.00    +0.000 A 
ATOM     29  C   UNL     1       4.097   2.479  -7.860  0.00  0.00    +0.000 A 
ATOM     30  N   UNL     1       3.932   1.258  -8.401  0.00  0.00    +0.000 NA
ATOM     31  C   UNL     1       3.835   0.217  -7.535  0.00  0.00    +0.000 A 
ENDBRANCH  24  26
ENDBRANCH  19  20
ENDBRANCH   3  19
TORSDOF 6
