REMARK  Name = 
REMARK  6 active torsions:
REMARK  status: ('A' for Active; 'I' for Inactive)
REMARK    1  A    between atoms: C_1  and  C_2
REMARK    2  A    between atoms: C_2  and  N_3
REMARK    3  A    between atoms: C_2  and  C_17
REMARK    4  A    between atoms: C_4  and  C_6
REMARK    5  A    between atoms: C_20  and  C_21
REMARK    6  A    between atoms: C_25  and  C_26
REMARK                            x       y       z     vdW  Elec       q    Type
REMARK                         _______ _______ _______ _____ _____    ______ ____
ROOT
ATOM      1  C   UNL     1       0.953  -0.139  -0.047  0.00  0.00    +0.000 C 
ATOM      2  C   UNL     1       2.485  -0.077  -0.119  0.00  0.00    +0.000 C 
ENDROOT
BRANCH   2   3
ATOM      3  C   UNL     1       2.995   1.354  -0.074  0.00  0.00    +0.000 A 
ATOM      4  C   UNL     1       3.832   1.783   0.964  0.00  0.00    +0.000 A 
ATOM      5  C   UNL     1       4.223   3.126   1.068  0.00  0.00    +0.000 A 
ATOM      6  C   UNL     1       3.791   4.088   0.140  0.00  0.00    +0.000 A 
ATOM      7  C   UNL     1       3.017   3.627  -0.939  0.00  0.00    +0.000 A 
ATOM      8  C   UNL     1       2.627   2.289  -1.047  0.00  0.00    +0.000 A 
BRANCH   6   9
ATOM      9  C   UNL     1       4.126   5.522   0.291  0.00  0.00    +0.000 A 
ATOM     10  C   UNL     1       4.284   6.360  -0.831  0.00  0.00    +0.000 A 
ATOM     11  C   UNL     1       4.601   7.711  -0.697  0.00  0.00    +0.000 A 
ATOM     12  C   UNL     1       4.788   8.262   0.566  0.00  0.00    +0.000 A 
ATOM     13  C   UNL     1       4.629   7.463   1.699  0.00  0.00    +0.000 A 
ATOM     14  C   UNL     1       4.287   6.112   1.562  0.00  0.00    +0.000 A 
BRANCH  13  15
ATOM     15  C   UNL     1       4.826   8.023   3.001  0.00  0.00    +0.000 C 
ATOM     16  N   UNL     1       4.995   8.477   4.060  0.00  0.00    +0.000 NA
ENDBRANCH  13  15
ENDBRANCH   6   9
ENDBRANCH   2   3
BRANCH   2  17
ATOM     17  N   UNL     1       2.978  -0.767  -1.301  0.00  0.00    +0.000 N 
ATOM     18  C   UNL     1       3.289  -2.110  -1.289  0.00  0.00    +0.000 C 
ATOM     19  O   UNL     1       3.187  -2.817  -0.291  0.00  0.00    +0.000 OA
ATOM     20  H   UNL     1       2.990  -0.296  -2.200  0.00  0.00    +0.000 HD
BRANCH  18  21
ATOM     21  C   UNL     1       3.749  -2.695  -2.593  0.00  0.00    +0.000 A 
ATOM     22  C   UNL     1       4.087  -4.048  -2.638  0.00  0.00    +0.000 A 
ATOM     23  C   UNL     1       4.387  -4.625  -3.868  0.00  0.00    +0.000 A 
ATOM     24  C   UNL     1       4.323  -3.837  -5.013  0.00  0.00    +0.000 A 
ATOM     25  C   UNL     1       4.496  -4.406  -6.348  0.00  0.00    +0.000 A 
ATOM     26  C   UNL     1       4.333  -3.625  -7.423  0.00  0.00    +0.000 A 
ATOM     27  C   UNL     1       4.045  -2.175  -7.282  0.00  0.00    +0.000 A 
ATOM     28  O   UNL     1       3.914  -1.468  -8.274  0.00  0.00    +0.000 OA
ATOM     29  N   UNL     1       3.928  -1.691  -6.011  0.00  0.00    +0.000 N 
ATOM     30  C   UNL     1       4.014  -2.478  -4.865  0.00  0.00    +0.000 A 
ATOM     31  N   UNL     1       3.738  -1.879  -3.685  0.00  0.00    +0.000 NA
ATOM     32  H   UNL     1       3.719  -0.712  -5.895  0.00  0.00    +0.000 HD
ENDBRANCH  18  21
ENDBRANCH   2  17
TORSDOF 5
