REMARK  Name = 
REMARK  7 active torsions:
REMARK  status: ('A' for Active; 'I' for Inactive)
REMARK    1  A    between atoms: C_2  and  C_20
REMARK    2  A    between atoms: N_3  and  C_4
REMARK    3  A    between atoms: C_4  and  C_5
REMARK    4  A    between atoms: C_4  and  C_14
REMARK    5  A    between atoms: C_5  and  C_7
REMARK    6  A    between atoms: C_7  and  C_8
REMARK    7  A    between atoms: C_25  and  O_26
REMARK                            x       y       z     vdW  Elec       q    Type
REMARK                         _______ _______ _______ _____ _____    ______ ____
ROOT
ATOM      1  O   UNL     1       3.083   0.584  -2.386  0.00  0.00    +0.000 OA
ATOM      2  C   UNL     1       3.488   0.510  -1.221  0.00  0.00    +0.000 C 
ATOM      3  N   UNL     1       3.254   1.505  -0.331  0.00  0.00    +0.000 N 
ATOM      4  H   UNL     1       3.404   1.398   0.667  0.00  0.00    +0.000 HD
ENDROOT
BRANCH   2   5
ATOM      5  C   UNL     1       4.162  -0.751  -0.862  0.00  0.00    +0.000 A 
ATOM      6  C   UNL     1       3.708  -1.800  -1.653  0.00  0.00    +0.000 A 
ATOM      7  C   UNL     1       4.411  -2.955  -1.775  0.00  0.00    +0.000 A 
ATOM      8  N   UNL     1       3.948  -3.779  -2.721  0.00  0.00    +0.000 NA
ATOM      9  C   UNL     1       4.678  -4.880  -2.920  0.00  0.00    +0.000 A 
ATOM     10  C   UNL     1       5.780  -5.168  -2.146  0.00  0.00    +0.000 A 
ATOM     11  N   UNL     1       6.248  -4.343  -1.176  0.00  0.00    +0.000 NA
ATOM     12  C   UNL     1       5.567  -3.181  -0.995  0.00  0.00    +0.000 A 
ATOM     13  C   UNL     1       5.953  -2.164  -0.100  0.00  0.00    +0.000 A 
ATOM     14  C   UNL     1       5.270  -0.924  -0.038  0.00  0.00    +0.000 A 
BRANCH  10  15
ATOM     15  O   UNL     1       6.453  -6.342  -2.322  0.00  0.00    +0.000 OA
ATOM     16  H   UNL     1       5.944  -6.881  -2.945  0.00  0.00    +0.000 HD
ENDBRANCH  10  15
ENDBRANCH   2   5
BRANCH   3  17
ATOM     17  C   UNL     1       2.370   2.583  -0.786  0.00  0.00    +0.000 C 
BRANCH  17  18
ATOM     18  C   UNL     1       3.158   3.662  -1.522  0.00  0.00    +0.000 A 
ATOM     19  C   UNL     1       3.464   3.502  -2.888  0.00  0.00    +0.000 A 
ATOM     20  C   UNL     1       4.156   4.482  -3.596  0.00  0.00    +0.000 A 
ATOM     21  C   UNL     1       4.546   5.648  -2.951  0.00  0.00    +0.000 A 
ATOM     22  C   UNL     1       4.281   5.807  -1.591  0.00  0.00    +0.000 A 
ATOM     23  C   UNL     1       3.616   4.813  -0.875  0.00  0.00    +0.000 A 
ENDBRANCH  17  18
BRANCH  17  24
ATOM     24  C   UNL     1       1.510   3.094   0.375  0.00  0.00    +0.000 C 
ATOM     25  O   UNL     1       1.691   2.702   1.534  0.00  0.00    +0.000 OA
BRANCH  24  26
ATOM     26  C   UNL     1       0.417   4.088   0.030  0.00  0.00    +0.000 C 
BRANCH  26  27
ATOM     27  C   UNL     1      -0.975   3.521  -0.106  0.00  0.00    +0.000 A 
ATOM     28  C   UNL     1      -1.546   2.736   0.904  0.00  0.00    +0.000 A 
ATOM     29  C   UNL     1      -2.894   2.372   0.842  0.00  0.00    +0.000 A 
ATOM     30  C   UNL     1      -3.685   2.789  -0.227  0.00  0.00    +0.000 A 
ATOM     31  C   UNL     1      -3.122   3.543  -1.252  0.00  0.00    +0.000 A 
ATOM     32  C   UNL     1      -1.774   3.903  -1.196  0.00  0.00    +0.000 A 
ENDBRANCH  26  27
ENDBRANCH  24  26
ENDBRANCH  17  24
ENDBRANCH   3  17
TORSDOF 7
