REMARK  Name = 
REMARK  5 active torsions:
REMARK  status: ('A' for Active; 'I' for Inactive)
REMARK    1  A    between atoms: C_2  and  C_20
REMARK    2  A    between atoms: N_3  and  C_4
REMARK    3  A    between atoms: C_4  and  C_5
REMARK    4  A    between atoms: C_4  and  C_13
REMARK    5  A    between atoms: C_5  and  C_6
REMARK                            x       y       z     vdW  Elec       q    Type
REMARK                         _______ _______ _______ _____ _____    ______ ____
ROOT
ATOM      1  O   UNL     1       3.541  -0.818  -2.223  0.00  0.00    +0.000 OA
ATOM      2  C   UNL     1       3.669  -0.256  -1.144  0.00  0.00    +0.000 C 
ATOM      3  N   UNL     1       3.187   1.011  -0.858  0.00  0.00    +0.000 N 
ATOM      4  H   UNL     1       3.290   1.389   0.070  0.00  0.00    +0.000 HD
ENDROOT
BRANCH   2   5
ATOM      5  C   UNL     1       4.228  -0.969   0.024  0.00  0.00    +0.000 A 
ATOM      6  C   UNL     1       4.989  -0.311   1.005  0.00  0.00    +0.000 A 
ATOM      7  C   UNL     1       5.271  -0.938   2.238  0.00  0.00    +0.000 A 
ATOM      8  C   UNL     1       4.809  -2.230   2.511  0.00  0.00    +0.000 A 
ATOM      9  C   UNL     1       4.115  -2.871   1.510  0.00  0.00    +0.000 A 
ATOM     10  C   UNL     1       3.847  -2.271   0.281  0.00  0.00    +0.000 A 
ATOM     11  N   UNL     1       3.108  -3.178  -0.479  0.00  0.00    +0.000 N 
ATOM     12  C   UNL     1       2.888  -4.336   0.279  0.00  0.00    +0.000 A 
ATOM     13  O   UNL     1       2.257  -5.322  -0.053  0.00  0.00    +0.000 OA
ATOM     14  N   UNL     1       3.521  -4.128   1.514  0.00  0.00    +0.000 N 
ATOM     15  H   UNL     1       2.791  -3.032  -1.428  0.00  0.00    +0.000 HD
ATOM     16  H   UNL     1       3.494  -4.790   2.272  0.00  0.00    +0.000 HD
ENDBRANCH   2   5
BRANCH   3  17
ATOM     17  C   UNL     1       2.399   1.782  -1.813  0.00  0.00    +0.000 C 
BRANCH  17  18
ATOM     18  C   UNL     1       3.352   2.661  -2.617  0.00  0.00    +0.000 A 
ATOM     19  C   UNL     1       3.820   2.207  -3.861  0.00  0.00    +0.000 A 
ATOM     20  C   UNL     1       4.713   2.973  -4.611  0.00  0.00    +0.000 A 
ATOM     21  C   UNL     1       5.150   4.194  -4.122  0.00  0.00    +0.000 A 
ATOM     22  F   UNL     1       6.002   4.932  -4.843  0.00  0.00    +0.000 F 
ATOM     23  C   UNL     1       4.720   4.663  -2.887  0.00  0.00    +0.000 A 
ATOM     24  C   UNL     1       3.834   3.893  -2.129  0.00  0.00    +0.000 A 
ENDBRANCH  17  18
BRANCH  17  25
ATOM     25  C   UNL     1       1.279   2.618  -1.127  0.00  0.00    +0.000 C 
BRANCH  25  26
ATOM     26  C   UNL     1       0.242   1.940  -0.249  0.00  0.00    +0.000 A 
ATOM     27  C   UNL     1       0.167   0.557  -0.049  0.00  0.00    +0.000 A 
ATOM     28  C   UNL     1      -0.688   0.030   0.924  0.00  0.00    +0.000 A 
ATOM     29  C   UNL     1      -1.497   0.879   1.669  0.00  0.00    +0.000 A 
ATOM     30  F   UNL     1      -2.267   0.376   2.642  0.00  0.00    +0.000 F 
ATOM     31  C   UNL     1      -1.508   2.245   1.425  0.00  0.00    +0.000 A 
ATOM     32  C   UNL     1      -0.646   2.772   0.464  0.00  0.00    +0.000 A 
ENDBRANCH  25  26
ENDBRANCH  17  25
ENDBRANCH   3  17
TORSDOF 5
