REMARK  Name = 
REMARK  6 active torsions:
REMARK  status: ('A' for Active; 'I' for Inactive)
REMARK    1  A    between atoms: C_2  and  C_3
REMARK    2  A    between atoms: C_3  and  N_4
REMARK    3  A    between atoms: N_9  and  C_10
REMARK    4  A    between atoms: C_12  and  C_13
REMARK    5  A    between atoms: C_13  and  N_14
REMARK    6  A    between atoms: C_15  and  C_17
REMARK                            x       y       z     vdW  Elec       q    Type
REMARK                         _______ _______ _______ _____ _____    ______ ____
ROOT
ATOM      1  C   UNL     1       4.528   0.629  -1.053  0.00  0.00    +0.000 A 
ATOM      2  C   UNL     1       5.206  -0.598  -1.001  0.00  0.00    +0.000 A 
ATOM      3  C   UNL     1       6.604  -0.666  -1.123  0.00  0.00    +0.000 A 
ATOM      4  C   UNL     1       7.320   0.516  -1.338  0.00  0.00    +0.000 A 
ATOM      5  C   UNL     1       6.652   1.739  -1.431  0.00  0.00    +0.000 A 
ATOM      6  C   UNL     1       5.261   1.800  -1.300  0.00  0.00    +0.000 A 
ENDROOT
BRANCH   1   9
ATOM      7  O   UNL     1       2.646  -1.284   0.153  0.00  0.00    +0.000 OA
ATOM      8  C   UNL     1       2.288  -0.207  -0.322  0.00  0.00    +0.000 C 
ATOM      9  N   UNL     1       3.131   0.753  -0.865  0.00  0.00    +0.000 N 
ATOM     10  H   UNL     1       2.744   1.681  -1.004  0.00  0.00    +0.000 HD
BRANCH   8  11
ATOM     11  C   UNL     1       0.816   0.150  -0.381  0.00  0.00    +0.000 C 
BRANCH  11  12
ATOM     12  N   UNL     1       0.316   0.781   0.828  0.00  0.00    +0.000 N 
ATOM     13  C   UNL     1      -0.326   1.994   0.872  0.00  0.00    +0.000 A 
ATOM     14  C   UNL     1      -0.763   2.201   2.163  0.00  0.00    +0.000 A 
ATOM     15  C   UNL     1      -0.381   1.072   2.923  0.00  0.00    +0.000 A 
ATOM     16  C   UNL     1       0.273   0.210   2.075  0.00  0.00    +0.000 A 
ENDBRANCH  11  12
ENDBRANCH   8  11
ENDBRANCH   1   9
BRANCH   3  17
ATOM     17  C   UNL     1       7.323  -1.986  -0.976  0.00  0.00    +0.000 C 
BRANCH  17  18
ATOM     18  N   UNL     1       7.437  -2.719  -2.222  0.00  0.00    +0.000 N 
ATOM     19  C   UNL     1       8.539  -2.590  -3.040  0.00  0.00    +0.000 C 
ATOM     20  O   UNL     1       9.465  -1.825  -2.784  0.00  0.00    +0.000 OA
ATOM     21  H   UNL     1       6.788  -3.479  -2.368  0.00  0.00    +0.000 HD
BRANCH  19  22
ATOM     22  C   UNL     1       8.646  -3.494  -4.234  0.00  0.00    +0.000 A 
ATOM     23  C   UNL     1       9.962  -3.880  -4.554  0.00  0.00    +0.000 A 
ATOM     24  C   UNL     1      10.209  -4.721  -5.629  0.00  0.00    +0.000 A 
ATOM     25  C   UNL     1       9.141  -5.202  -6.373  0.00  0.00    +0.000 A 
ATOM     26  F   UNL     1       9.420  -6.019  -7.402  0.00  0.00    +0.000 F 
ATOM     27  C   UNL     1       7.820  -4.856  -6.100  0.00  0.00    +0.000 A 
ATOM     28  N   UNL     1       6.847  -5.382  -6.875  0.00  0.00    +0.000 NA
ATOM     29  C   UNL     1       5.572  -5.020  -6.662  0.00  0.00    +0.000 A 
ATOM     30  C   UNL     1       5.200  -4.109  -5.702  0.00  0.00    +0.000 A 
ATOM     31  C   UNL     1       6.197  -3.562  -4.898  0.00  0.00    +0.000 A 
ATOM     32  C   UNL     1       7.553  -3.953  -5.036  0.00  0.00    +0.000 A 
ENDBRANCH  19  22
ENDBRANCH  17  18
ENDBRANCH   3  17
TORSDOF 6
