REMARK  Name = 
REMARK  4 active torsions:
REMARK  status: ('A' for Active; 'I' for Inactive)
REMARK    1  A    between atoms: C_2  and  C_3
REMARK    2  A    between atoms: N_5  and  C_6
REMARK    3  A    between atoms: C_9  and  N_10
REMARK    4  A    between atoms: C_11  and  C_13
REMARK                            x       y       z     vdW  Elec       q    Type
REMARK                         _______ _______ _______ _____ _____    ______ ____
ROOT
ATOM      1  N   UNL     1      10.693   3.854   0.976  0.00  0.00    +0.000 N 
ATOM      2  C   UNL     1      10.885   4.649   2.115  0.00  0.00    +0.000 C 
ATOM      3  O   UNL     1       9.981   4.903   2.920  0.00  0.00    +0.000 OA
ATOM      4  H   UNL     1      11.477   3.761   0.340  0.00  0.00    +0.000 HD
ENDROOT
BRANCH   2   5
ATOM      5  C   UNL     1      12.234   5.235   2.488  0.00  0.00    +0.000 A 
ATOM      6  N   UNL     1      13.270   5.361   1.609  0.00  0.00    +0.000 NA
ATOM      7  C   UNL     1      14.451   5.873   2.103  0.00  0.00    +0.000 A 
ATOM      8  C   UNL     1      15.629   5.888   1.354  0.00  0.00    +0.000 A 
ATOM      9  C   UNL     1      16.867   6.235   1.923  0.00  0.00    +0.000 A 
ATOM     10  F   UNL     1      17.986   6.091   1.200  0.00  0.00    +0.000 F 
ATOM     11  C   UNL     1      16.974   6.669   3.231  0.00  0.00    +0.000 A 
ATOM     12  C   UNL     1      15.812   6.775   3.964  0.00  0.00    +0.000 A 
ATOM     13  F   UNL     1      15.894   7.191   5.240  0.00  0.00    +0.000 F 
ATOM     14  C   UNL     1      14.581   6.351   3.434  0.00  0.00    +0.000 A 
ATOM     15  C   UNL     1      13.479   6.291   4.269  0.00  0.00    +0.000 A 
ATOM     16  C   UNL     1      12.336   5.656   3.818  0.00  0.00    +0.000 A 
ENDBRANCH   2   5
BRANCH   1  20
ATOM     17  C   UNL     1       7.102   1.561   0.128  0.00  0.00    +0.000 A 
ATOM     18  C   UNL     1       7.187   2.388   1.246  0.00  0.00    +0.000 A 
ATOM     19  C   UNL     1       8.350   3.140   1.511  0.00  0.00    +0.000 A 
ATOM     20  C   UNL     1       9.479   3.122   0.680  0.00  0.00    +0.000 A 
ATOM     21  C   UNL     1       9.380   2.310  -0.462  0.00  0.00    +0.000 A 
ATOM     22  C   UNL     1       8.210   1.534  -0.736  0.00  0.00    +0.000 A 
BRANCH  17  25
ATOM     23  C   UNL     1       3.945  -0.244   0.188  0.00  0.00    +0.000 A 
ATOM     24  C   UNL     1       4.752   0.764   0.664  0.00  0.00    +0.000 A 
ATOM     25  N   UNL     1       5.927   0.758  -0.083  0.00  0.00    +0.000 N 
ATOM     26  N   UNL     1       5.852  -0.180  -1.071  0.00  0.00    +0.000 NA
ATOM     27  C   UNL     1       4.671  -0.785  -0.881  0.00  0.00    +0.000 A 
BRANCH  23  29
ATOM     28  N   UNL     1       1.611  -0.936   1.097  0.00  0.00    +0.000 NA
ATOM     29  C   UNL     1       2.657  -0.625   0.685  0.00  0.00    +0.000 C 
ENDBRANCH  23  29
ENDBRANCH  17  25
ENDBRANCH   1  20
TORSDOF 4
