REMARK  Name = 
REMARK  6 active torsions:
REMARK  status: ('A' for Active; 'I' for Inactive)
REMARK    1  A    between atoms: C_1  and  C_2
REMARK    2  A    between atoms: C_5  and  C_6
REMARK    3  A    between atoms: N_8  and  C_9
REMARK    4  A    between atoms: C_9  and  C_10
REMARK    5  A    between atoms: C_13  and  C_14
REMARK    6  A    between atoms: N_16  and  C_17
REMARK                            x       y       z     vdW  Elec       q    Type
REMARK                         _______ _______ _______ _____ _____    ______ ____
ROOT
ATOM      1  C   UNL     1       7.538  -6.567  -0.034  0.00  0.00    +0.000 A 
ATOM      2  C   UNL     1       8.759  -5.887  -0.130  0.00  0.00    +0.000 A 
ATOM      3  C   UNL     1       9.956  -6.599  -0.255  0.00  0.00    +0.000 A 
ATOM      4  C   UNL     1       9.968  -8.002  -0.286  0.00  0.00    +0.000 A 
ATOM      5  C   UNL     1       8.765  -8.694  -0.133  0.00  0.00    +0.000 A 
ATOM      6  C   UNL     1       7.562  -7.975  -0.015  0.00  0.00    +0.000 A 
ENDROOT
BRANCH   4   7
ATOM      7  C   UNL     1      11.299  -8.646  -0.455  0.00  0.00    +0.000 C 
ATOM      8  O   UNL     1      12.264  -8.024  -0.017  0.00  0.00    +0.000 OA
ATOM      9  N   UNL     1      11.366  -9.831  -1.185  0.00  0.00    +0.000 N 
ATOM     10  H   UNL     1      10.551 -10.110  -1.709  0.00  0.00    +0.000 HD
BRANCH   9  11
ATOM     11  C   UNL     1      12.593 -10.469  -1.510  0.00  0.00    +0.000 A 
ATOM     12  C   UNL     1      13.783 -10.213  -0.816  0.00  0.00    +0.000 A 
ATOM     13  C   UNL     1      15.000 -10.742  -1.246  0.00  0.00    +0.000 A 
ATOM     14  C   UNL     1      15.024 -11.560  -2.362  0.00  0.00    +0.000 A 
ATOM     15  F   UNL     1      16.194 -12.035  -2.804  0.00  0.00    +0.000 F 
ATOM     16  C   UNL     1      13.848 -11.887  -3.029  0.00  0.00    +0.000 A 
ATOM     17  C   UNL     1      12.626 -11.352  -2.596  0.00  0.00    +0.000 A 
ENDBRANCH   9  11
ENDBRANCH   4   7
BRANCH   1  18
ATOM     18  C   UNL     1       6.216  -5.828   0.037  0.00  0.00    +0.000 C 
BRANCH  18  21
ATOM     19  C   UNL     1       4.412  -4.963  -1.426  0.00  0.00    +0.000 C 
ATOM     20  O   UNL     1       3.788  -4.547  -0.458  0.00  0.00    +0.000 OA
ATOM     21  N   UNL     1       5.625  -5.614  -1.268  0.00  0.00    +0.000 N 
ATOM     22  H   UNL     1       6.074  -6.031  -2.066  0.00  0.00    +0.000 HD
BRANCH  19  27
ATOM     23  C   UNL     1      -0.433  -2.370  -2.491  0.00  0.00    +0.000 C 
ATOM     24  C   UNL     1       0.713  -3.053  -3.172  0.00  0.00    +0.000 A 
ATOM     25  C   UNL     1       1.757  -3.595  -2.518  0.00  0.00    +0.000 A 
ATOM     26  N   UNL     1       2.790  -4.211  -3.228  0.00  0.00    +0.000 N 
ATOM     27  C   UNL     1       3.963  -4.827  -2.798  0.00  0.00    +0.000 A 
ATOM     28  C   UNL     1       4.569  -5.241  -3.975  0.00  0.00    +0.000 A 
ATOM     29  N   UNL     1       3.843  -4.917  -5.084  0.00  0.00    +0.000 NA
ATOM     30  C   UNL     1       2.788  -4.298  -4.623  0.00  0.00    +0.000 A 
ATOM     31  C   UNL     1       1.678  -3.720  -5.315  0.00  0.00    +0.000 A 
ATOM     32  C   UNL     1       0.691  -3.128  -4.633  0.00  0.00    +0.000 A 
ENDBRANCH  19  27
ENDBRANCH  18  21
ENDBRANCH   1  18
TORSDOF 5
