REMARK  Name = 
REMARK  5 active torsions:
REMARK  status: ('A' for Active; 'I' for Inactive)
REMARK    1  A    between atoms: C_1  and  N_2
REMARK    2  A    between atoms: N_2  and  C_22
REMARK    3  A    between atoms: C_3  and  C_5
REMARK    4  A    between atoms: C_8  and  N_9
REMARK    5  A    between atoms: C_26  and  C_27
REMARK                            x       y       z     vdW  Elec       q    Type
REMARK                         _______ _______ _______ _____ _____    ______ ____
ROOT
ATOM      1  C   UNL     1       2.454  -2.248   0.751  0.00  0.00    +0.000 A 
ATOM      2  C   UNL     1       1.319  -2.512  -0.003  0.00  0.00    +0.000 A 
ATOM      3  C   UNL     1       0.626  -3.700   0.141  0.00  0.00    +0.000 A 
ATOM      4  C   UNL     1       1.270  -4.786   0.742  0.00  0.00    +0.000 A 
ATOM      5  C   UNL     1       2.371  -4.531   1.575  0.00  0.00    +0.000 A 
ATOM      6  C   UNL     1       2.951  -3.254   1.592  0.00  0.00    +0.000 A 
ENDROOT
BRANCH   4   7
ATOM      7  N   UNL     1       1.016  -6.112   0.173  0.00  0.00    +0.000 N 
ATOM      8  C   UNL     1       2.094  -6.967   0.257  0.00  0.00    +0.000 A 
ATOM      9  N   UNL     1       3.031  -7.029  -0.640  0.00  0.00    +0.000 NA
ATOM     10  C   UNL     1       2.879  -6.133  -1.725  0.00  0.00    +0.000 A 
ATOM     11  C   UNL     1       3.988  -5.550  -2.330  0.00  0.00    +0.000 A 
ATOM     12  C   UNL     1       3.817  -4.540  -3.287  0.00  0.00    +0.000 A 
ATOM     13  C   UNL     1       2.535  -4.143  -3.683  0.00  0.00    +0.000 A 
ATOM     14  C   UNL     1       1.413  -4.732  -3.103  0.00  0.00    +0.000 A 
ATOM     15  C   UNL     1       1.607  -5.696  -2.109  0.00  0.00    +0.000 A 
ATOM     16  C   UNL     1       0.531  -6.044  -1.143  0.00  0.00    +0.000 A 
ATOM     17  O   UNL     1      -0.639  -6.124  -1.479  0.00  0.00    +0.000 OA
ENDBRANCH   4   7
BRANCH   1  20
ATOM     18  C   UNL     1       1.178   0.411   0.059  0.00  0.00    +0.000 C 
ATOM     19  N   UNL     1       2.632   0.227   0.191  0.00  0.00    +0.000 N 
ATOM     20  C   UNL     1       3.251  -0.991   0.575  0.00  0.00    +0.000 C 
ATOM     21  O   UNL     1       4.460  -1.127   0.742  0.00  0.00    +0.000 OA
BRANCH  19  22
ATOM     22  C   UNL     1       3.426   1.403  -0.079  0.00  0.00    +0.000 A 
ATOM     23  C   UNL     1       4.704   1.612   0.447  0.00  0.00    +0.000 A 
ATOM     24  N   UNL     1       5.454   2.730   0.246  0.00  0.00    +0.000 NA
ATOM     25  C   UNL     1       4.918   3.695  -0.530  0.00  0.00    +0.000 A 
ATOM     26  C   UNL     1       3.667   3.596  -1.112  0.00  0.00    +0.000 A 
ATOM     27  C   UNL     1       2.921   2.440  -0.882  0.00  0.00    +0.000 A 
BRANCH  26  28
ATOM     28  C   UNL     1       3.157   4.655  -1.924  0.00  0.00    +0.000 C 
ATOM     29  N   UNL     1       2.727   5.505  -2.581  0.00  0.00    +0.000 NA
ENDBRANCH  26  28
ENDBRANCH  19  22
ENDBRANCH   1  20
TORSDOF 4
