REMARK  Name = 
REMARK  9 active torsions:
REMARK  status: ('A' for Active; 'I' for Inactive)
REMARK    1  A    between atoms: C_1  and  O_2
REMARK    2  A    between atoms: O_2  and  C_3
REMARK    3  A    between atoms: C_3  and  C_5
REMARK    4  A    between atoms: C_5  and  N_6
REMARK    5  A    between atoms: C_5  and  C_24
REMARK    6  A    between atoms: C_7  and  C_9
REMARK    7  A    between atoms: C_13  and  O_14
REMARK    8  A    between atoms: O_14  and  C_15
REMARK    9  A    between atoms: C_15  and  C_16
REMARK                            x       y       z     vdW  Elec       q    Type
REMARK                         _______ _______ _______ _____ _____    ______ ____
ROOT
ATOM      1  N   UNL     1       3.498  -1.395  -0.183  0.00  0.00    +0.000 N 
ATOM      2  C   UNL     1       4.838  -1.473  -0.485  0.00  0.00    +0.000 C 
ATOM      3  O   UNL     1       5.631  -0.560  -0.289  0.00  0.00    +0.000 OA
ATOM      4  H   UNL     1       2.949  -2.247  -0.211  0.00  0.00    +0.000 HD
ENDROOT
BRANCH   2   5
ATOM      5  C   UNL     1       5.255  -2.792  -1.058  0.00  0.00    +0.000 A 
ATOM      6  C   UNL     1       6.531  -2.958  -1.436  0.00  0.00    +0.000 A 
ATOM      7  C   UNL     1       6.956  -4.267  -1.981  0.00  0.00    +0.000 A 
ATOM      8  O   UNL     1       8.125  -4.444  -2.306  0.00  0.00    +0.000 OA
ATOM      9  C   UNL     1       5.904  -5.323  -2.095  0.00  0.00    +0.000 A 
ATOM     10  C   UNL     1       4.677  -5.000  -1.671  0.00  0.00    +0.000 A 
ATOM     11  O   UNL     1       4.296  -3.785  -1.163  0.00  0.00    +0.000 OA
BRANCH   9  12
ATOM     12  O   UNL     1       6.128  -6.603  -2.560  0.00  0.00    +0.000 OA
BRANCH  12  13
ATOM     13  C   UNL     1       7.137  -6.763  -3.559  0.00  0.00    +0.000 C 
BRANCH  13  14
ATOM     14  C   UNL     1       6.774  -7.921  -4.467  0.00  0.00    +0.000 A 
ATOM     15  C   UNL     1       7.217  -7.919  -5.799  0.00  0.00    +0.000 A 
ATOM     16  C   UNL     1       6.939  -8.996  -6.644  0.00  0.00    +0.000 A 
ATOM     17  C   UNL     1       6.227 -10.093  -6.166  0.00  0.00    +0.000 A 
ATOM     18  C   UNL     1       5.782 -10.111  -4.846  0.00  0.00    +0.000 A 
ATOM     19  C   UNL     1       6.055  -9.033  -4.001  0.00  0.00    +0.000 A 
ENDBRANCH  13  14
ENDBRANCH  12  13
ENDBRANCH   9  12
ENDBRANCH   2   5
BRANCH   1  20
ATOM     20  C   UNL     1       2.960  -0.261   0.566  0.00  0.00    +0.000 C 
BRANCH  20  21
ATOM     21  C   UNL     1       1.509   0.039   0.207  0.00  0.00    +0.000 A 
ATOM     22  C   UNL     1       1.077   1.379   0.159  0.00  0.00    +0.000 A 
ATOM     23  C   UNL     1      -0.266   1.690  -0.066  0.00  0.00    +0.000 A 
ATOM     24  C   UNL     1      -1.185   0.667  -0.263  0.00  0.00    +0.000 A 
ATOM     25  F   UNL     1      -2.474   0.969  -0.460  0.00  0.00    +0.000 F 
ATOM     26  C   UNL     1      -0.784  -0.661  -0.245  0.00  0.00    +0.000 A 
ATOM     27  C   UNL     1       0.553  -0.965   0.002  0.00  0.00    +0.000 A 
ATOM     28  F   UNL     1       0.917  -2.256   0.046  0.00  0.00    +0.000 F 
ENDBRANCH  20  21
BRANCH  20  29
ATOM     29  C   UNL     1       3.120  -0.394   2.107  0.00  0.00    +0.000 C 
ATOM     30  O   UNL     1       2.756   0.455   2.910  0.00  0.00    +0.000 OA
BRANCH  29  32
ATOM     31  C   UNL     1       3.947  -1.736   3.854  0.00  0.00    +0.000 C 
ATOM     32  O   UNL     1       3.719  -1.573   2.454  0.00  0.00    +0.000 OA
ENDBRANCH  29  32
ENDBRANCH  20  29
ENDBRANCH   1  20
TORSDOF 8
