REMARK  Name = 
REMARK  9 active torsions:
REMARK  status: ('A' for Active; 'I' for Inactive)
REMARK    1  A    between atoms: C_1  and  O_2
REMARK    2  A    between atoms: O_2  and  C_3
REMARK    3  A    between atoms: C_8  and  O_9
REMARK    4  A    between atoms: O_9  and  C_10
REMARK    5  A    between atoms: C_10  and  C_11
REMARK    6  A    between atoms: N_13  and  C_14
REMARK    7  A    between atoms: C_18  and  N_19
REMARK    8  A    between atoms: C_20  and  C_22
REMARK    9  A    between atoms: C_28  and  C_29
REMARK                            x       y       z     vdW  Elec       q    Type
REMARK                         _______ _______ _______ _____ _____    ______ ____
ROOT
ATOM      1  C   UNL     1       3.917   5.988   0.771  0.00  0.00    +0.000 A 
ATOM      2  C   UNL     1       5.282   6.128   0.525  0.00  0.00    +0.000 A 
ATOM      3  C   UNL     1       5.839   7.399   0.524  0.00  0.00    +0.000 A 
ATOM      4  C   UNL     1       5.027   8.518   0.741  0.00  0.00    +0.000 A 
ATOM      5  C   UNL     1       3.645   8.390   0.924  0.00  0.00    +0.000 A 
ATOM      6  C   UNL     1       3.095   7.107   0.961  0.00  0.00    +0.000 A 
ENDROOT
BRANCH   1   9
ATOM      7  C   UNL     1       3.485   3.889   1.967  0.00  0.00    +0.000 C 
ATOM      8  O   UNL     1       3.114   2.716   1.884  0.00  0.00    +0.000 OA
ATOM      9  N   UNL     1       3.347   4.717   0.875  0.00  0.00    +0.000 N 
ATOM     10  H   UNL     1       3.078   4.240   0.022  0.00  0.00    +0.000 HD
BRANCH   7  11
ATOM     11  C   UNL     1       4.034   4.482   3.267  0.00  0.00    +0.000 C 
BRANCH  11  12
ATOM     12  O   UNL     1       5.432   4.264   3.375  0.00  0.00    +0.000 OA
BRANCH  12  18
ATOM     13  C   UNL     1       5.571   5.644   5.462  0.00  0.00    +0.000 A 
ATOM     14  C   UNL     1       6.443   6.181   6.423  0.00  0.00    +0.000 A 
ATOM     15  C   UNL     1       7.813   5.917   6.376  0.00  0.00    +0.000 A 
ATOM     16  C   UNL     1       8.331   5.112   5.369  0.00  0.00    +0.000 A 
ATOM     17  C   UNL     1       7.479   4.591   4.397  0.00  0.00    +0.000 A 
ATOM     18  C   UNL     1       6.099   4.850   4.425  0.00  0.00    +0.000 A 
BRANCH  13  20
ATOM     19  C   UNL     1       3.715   6.938   6.236  0.00  0.00    +0.000 C 
ATOM     20  O   UNL     1       4.213   5.803   5.542  0.00  0.00    +0.000 OA
ENDBRANCH  13  20
ENDBRANCH  12  18
ENDBRANCH  11  12
ENDBRANCH   7  11
ENDBRANCH   1   9
BRANCH   5  21
ATOM     21  N   UNL     1       2.778   9.505   1.070  0.00  0.00    +0.000 N 
ATOM     22  C   UNL     1       3.101  10.807   0.711  0.00  0.00    +0.000 C 
ATOM     23  O   UNL     1       4.186  11.128   0.233  0.00  0.00    +0.000 OA
ATOM     24  H   UNL     1       1.812   9.310   1.292  0.00  0.00    +0.000 HD
BRANCH  22  25
ATOM     25  C   UNL     1       2.062  11.791   0.875  0.00  0.00    +0.000 A 
ATOM     26  C   UNL     1       1.016  11.880   1.775  0.00  0.00    +0.000 A 
ATOM     27  N   UNL     1       0.313  13.049   1.624  0.00  0.00    +0.000 NA
ATOM     28  C   UNL     1       0.914  13.695   0.648  0.00  0.00    +0.000 A 
ATOM     29  C   UNL     1       0.655  14.968   0.062  0.00  0.00    +0.000 A 
ATOM     30  C   UNL     1       1.405  15.405  -0.966  0.00  0.00    +0.000 A 
ATOM     31  C   UNL     1       2.494  14.605  -1.514  0.00  0.00    +0.000 A 
ATOM     32  C   UNL     1       3.290  15.124  -2.671  0.00  0.00    +0.000 C 
ATOM     33  C   UNL     1       2.747  13.411  -0.949  0.00  0.00    +0.000 A 
ATOM     34  N   UNL     1       1.981  12.959   0.133  0.00  0.00    +0.000 N 
ENDBRANCH  22  25
ENDBRANCH   5  21
TORSDOF 7
