REMARK  Name = 
REMARK  6 active torsions:
REMARK  status: ('A' for Active; 'I' for Inactive)
REMARK    1  A    between atoms: C_2  and  C_18
REMARK    2  A    between atoms: N_3  and  C_4
REMARK    3  A    between atoms: C_6  and  N_7
REMARK    4  A    between atoms: C_8  and  C_10
REMARK    5  A    between atoms: C_22  and  C_23
REMARK    6  A    between atoms: C_23  and  C_24
REMARK                            x       y       z     vdW  Elec       q    Type
REMARK                         _______ _______ _______ _____ _____    ______ ____
ROOT
ATOM      1  O   UNL     1       0.967   0.315   0.117  0.00  0.00    +0.000 OA
ATOM      2  C   UNL     1       2.189   0.185   0.176  0.00  0.00    +0.000 C 
ATOM      3  N   UNL     1       2.879  -0.590   1.102  0.00  0.00    +0.000 N 
ATOM      4  H   UNL     1       3.866  -0.419   1.226  0.00  0.00    +0.000 HD
ENDROOT
BRANCH   3   5
ATOM      5  C   UNL     1       2.235  -1.438   2.042  0.00  0.00    +0.000 A 
ATOM      6  C   UNL     1       0.924  -1.882   1.843  0.00  0.00    +0.000 A 
ATOM      7  C   UNL     1       0.241  -2.670   2.769  0.00  0.00    +0.000 A 
ATOM      8  C   UNL     1       0.893  -2.999   3.959  0.00  0.00    +0.000 A 
ATOM      9  C   UNL     1       2.226  -2.609   4.158  0.00  0.00    +0.000 A 
ATOM     10  C   UNL     1       2.903  -1.848   3.194  0.00  0.00    +0.000 A 
BRANCH   7  11
ATOM     11  N   UNL     1      -1.079  -3.128   2.537  0.00  0.00    +0.000 N 
ATOM     12  C   UNL     1      -1.720  -3.130   1.307  0.00  0.00    +0.000 C 
ATOM     13  O   UNL     1      -1.212  -2.814   0.235  0.00  0.00    +0.000 OA
ATOM     14  H   UNL     1      -1.555  -3.557   3.317  0.00  0.00    +0.000 HD
BRANCH  12  15
ATOM     15  C   UNL     1      -3.081  -3.594   1.295  0.00  0.00    +0.000 A 
ATOM     16  C   UNL     1      -3.953  -4.098   2.232  0.00  0.00    +0.000 A 
ATOM     17  N   UNL     1      -5.160  -4.427   1.663  0.00  0.00    +0.000 NA
ATOM     18  C   UNL     1      -5.041  -4.121   0.393  0.00  0.00    +0.000 A 
ATOM     19  N   UNL     1      -3.813  -3.599   0.125  0.00  0.00    +0.000 N 
ATOM     20  H   UNL     1      -3.462  -3.276  -0.769  0.00  0.00    +0.000 HD
ENDBRANCH  12  15
ENDBRANCH   7  11
ENDBRANCH   3   5
BRANCH   2  21
ATOM     21  C   UNL     1       2.971   1.023  -0.762  0.00  0.00    +0.000 A 
ATOM     22  C   UNL     1       2.356   2.214  -1.183  0.00  0.00    +0.000 A 
ATOM     23  C   UNL     1       2.952   3.025  -2.138  0.00  0.00    +0.000 A 
ATOM     24  C   UNL     1       4.186   2.660  -2.671  0.00  0.00    +0.000 A 
ATOM     25  C   UNL     1       4.832   1.484  -2.250  0.00  0.00    +0.000 A 
ATOM     26  C   UNL     1       4.205   0.649  -1.303  0.00  0.00    +0.000 A 
BRANCH  25  27
ATOM     27  C   UNL     1       6.167   1.107  -2.857  0.00  0.00    +0.000 C 
BRANCH  27  28
ATOM     28  C   UNL     1       6.038   0.299  -4.125  0.00  0.00    +0.000 A 
ATOM     29  C   UNL     1       5.983   0.934  -5.366  0.00  0.00    +0.000 A 
ATOM     30  C   UNL     1       5.780   0.164  -6.508  0.00  0.00    +0.000 A 
ATOM     31  C   UNL     1       5.641  -1.212  -6.382  0.00  0.00    +0.000 A 
ATOM     32  C   UNL     1       5.731  -1.767  -5.117  0.00  0.00    +0.000 A 
ATOM     33  N   UNL     1       5.930  -1.046  -3.991  0.00  0.00    +0.000 NA
ENDBRANCH  27  28
ENDBRANCH  25  27
ENDBRANCH   2  21
TORSDOF 6
