REMARK  Name = 
REMARK  6 active torsions:
REMARK  status: ('A' for Active; 'I' for Inactive)
REMARK    1  A    between atoms: C_2  and  O_3
REMARK    2  A    between atoms: C_2  and  C_17
REMARK    3  A    between atoms: O_3  and  C_4
REMARK    4  A    between atoms: C_4  and  C_5
REMARK    5  A    between atoms: C_8  and  N_9
REMARK    6  A    between atoms: N_19  and  C_20
REMARK                            x       y       z     vdW  Elec       q    Type
REMARK                         _______ _______ _______ _____ _____    ______ ____
ROOT
ATOM      1  O   UNL     1       2.892  -1.127  -0.466  0.00  0.00    +0.000 OA
ATOM      2  C   UNL     1       2.438  -0.029  -0.173  0.00  0.00    +0.000 C 
ENDROOT
BRANCH   2   3
ATOM      3  C   UNL     1       1.176   0.135   0.573  0.00  0.00    +0.000 A 
ATOM      4  N   UNL     1       0.713   1.323   1.002  0.00  0.00    +0.000 NA
ATOM      5  N   UNL     1      -0.395   1.040   1.735  0.00  0.00    +0.000 N 
ATOM      6  C   UNL     1      -0.675  -0.306   1.715  0.00  0.00    +0.000 A 
ATOM      7  C   UNL     1       0.319  -0.913   0.988  0.00  0.00    +0.000 A 
BRANCH   5   8
ATOM      8  C   UNL     1      -1.097   2.069   2.425  0.00  0.00    +0.000 A 
ATOM      9  C   UNL     1      -2.181   1.770   3.259  0.00  0.00    +0.000 A 
ATOM     10  C   UNL     1      -2.829   2.802   3.936  0.00  0.00    +0.000 A 
ATOM     11  F   UNL     1      -3.858   2.508   4.742  0.00  0.00    +0.000 F 
ATOM     12  C   UNL     1      -2.428   4.125   3.796  0.00  0.00    +0.000 A 
ATOM     13  C   UNL     1      -1.353   4.429   2.965  0.00  0.00    +0.000 A 
ATOM     14  C   UNL     1      -0.686   3.406   2.283  0.00  0.00    +0.000 A 
ENDBRANCH   5   8
ENDBRANCH   2   3
BRANCH   2  15
ATOM     15  O   UNL     1       3.070   1.157  -0.417  0.00  0.00    +0.000 OA
BRANCH  15  16
ATOM     16  C   UNL     1       4.451   1.055  -0.760  0.00  0.00    +0.000 C 
BRANCH  16  17
ATOM     17  C   UNL     1       4.699   1.417  -2.201  0.00  0.00    +0.000 A 
ATOM     18  C   UNL     1       4.765   0.428  -3.194  0.00  0.00    +0.000 A 
ATOM     19  C   UNL     1       5.059   0.767  -4.521  0.00  0.00    +0.000 A 
ATOM     20  C   UNL     1       5.321   2.102  -4.863  0.00  0.00    +0.000 A 
ATOM     21  C   UNL     1       5.218   3.087  -3.881  0.00  0.00    +0.000 A 
ATOM     22  F   UNL     1       5.380   4.387  -4.167  0.00  0.00    +0.000 F 
ATOM     23  C   UNL     1       4.892   2.755  -2.567  0.00  0.00    +0.000 A 
BRANCH  20  24
ATOM     24  N   UNL     1       5.686   2.435  -6.189  0.00  0.00    +0.000 N 
ATOM     25  C   UNL     1       6.387   3.540  -6.624  0.00  0.00    +0.000 A 
ATOM     26  C   UNL     1       6.452   3.470  -7.993  0.00  0.00    +0.000 A 
ATOM     27  C   UNL     1       5.785   2.279  -8.312  0.00  0.00    +0.000 A 
ATOM     28  N   UNL     1       5.382   1.612  -7.229  0.00  0.00    +0.000 NA
ENDBRANCH  20  24
ENDBRANCH  16  17
ENDBRANCH  15  16
ENDBRANCH   2  15
TORSDOF 6
