REMARK  Name = 
REMARK  6 active torsions:
REMARK  status: ('A' for Active; 'I' for Inactive)
REMARK    1  A    between atoms: C_2  and  O_3
REMARK    2  A    between atoms: C_2  and  C_4
REMARK    3  A    between atoms: C_11  and  C_13
REMARK    4  A    between atoms: C_15  and  C_16
REMARK    5  A    between atoms: C_16  and  C_17
REMARK    6  A    between atoms: C_25  and  O_26
REMARK                            x       y       z     vdW  Elec       q    Type
REMARK                         _______ _______ _______ _____ _____    ______ ____
ROOT
ATOM      1  C   UNL     1       5.447   0.086   0.379  0.00  0.00    +0.000 A 
ATOM      2  C   UNL     1       6.602  -0.131   1.108  0.00  0.00    +0.000 A 
ATOM      3  N   UNL     1       7.073   0.723   2.052  0.00  0.00    +0.000 NA
ATOM      4  C   UNL     1       6.400   1.847   2.309  0.00  0.00    +0.000 A 
ATOM      5  N   UNL     1       6.864   2.659   3.259  0.00  0.00    +0.000 NA
ATOM      6  C   UNL     1       6.265   3.850   3.454  0.00  0.00    +0.000 A 
ATOM      7  N   UNL     1       6.856   4.663   4.421  0.00  0.00    +0.000 N 
ATOM      8  C   UNL     1       6.930   6.037   4.357  0.00  0.00    +0.000 C 
ATOM      9  O   UNL     1       6.509   6.707   3.419  0.00  0.00    +0.000 OA
ATOM     10  C   UNL     1       5.120   4.238   2.778  0.00  0.00    +0.000 A 
ATOM     11  C   UNL     1       4.575   3.365   1.849  0.00  0.00    +0.000 A 
ATOM     12  C   UNL     1       5.227   2.158   1.588  0.00  0.00    +0.000 A 
ATOM     13  C   UNL     1       4.737   1.254   0.632  0.00  0.00    +0.000 A 
ATOM     14  H   UNL     1       7.458   4.184   5.080  0.00  0.00    +0.000 HD
ENDROOT
BRANCH   8  15
ATOM     15  C   UNL     1       7.641   6.727   5.482  0.00  0.00    +0.000 A 
ATOM     16  C   UNL     1       7.969   8.082   5.293  0.00  0.00    +0.000 A 
ATOM     17  C   UNL     1       8.617   8.826   6.291  0.00  0.00    +0.000 A 
ATOM     18  C   UNL     1       8.901   8.208   7.513  0.00  0.00    +0.000 A 
ATOM     19  C   UNL     1       8.588   6.861   7.716  0.00  0.00    +0.000 A 
ATOM     20  C   UNL     1       7.978   6.120   6.700  0.00  0.00    +0.000 A 
BRANCH  20  21
ATOM     21  O   UNL     1       7.726   4.791   6.917  0.00  0.00    +0.000 OA
ATOM     22  H   UNL     1       8.011   4.553   7.816  0.00  0.00    +0.000 HD
ENDBRANCH  20  21
BRANCH  17  23
ATOM     23  C   UNL     1       9.005  10.266   6.041  0.00  0.00    +0.000 C 
BRANCH  23  24
ATOM     24  C   UNL     1       7.939  11.277   6.392  0.00  0.00    +0.000 A 
ATOM     25  C   UNL     1       7.896  11.851   7.673  0.00  0.00    +0.000 A 
ATOM     26  C   UNL     1       6.924  12.801   7.990  0.00  0.00    +0.000 A 
ATOM     27  C   UNL     1       5.981  13.183   7.038  0.00  0.00    +0.000 A 
ATOM     28  C   UNL     1       6.007  12.615   5.766  0.00  0.00    +0.000 A 
ATOM     29  C   UNL     1       6.975  11.661   5.446  0.00  0.00    +0.000 A 
ENDBRANCH  23  24
ENDBRANCH  17  23
ENDBRANCH   8  15
BRANCH   1  31
ATOM     30  O   UNL     1       5.240  -2.135  -0.397  0.00  0.00    +0.000 OA
ATOM     31  C   UNL     1       4.997  -0.954  -0.564  0.00  0.00    +0.000 C 
BRANCH  31  32
ATOM     32  O   UNL     1       4.314  -0.481  -1.626  0.00  0.00    +0.000 OA
ATOM     33  H   UNL     1       4.338   0.484  -1.760  0.00  0.00    +0.000 HD
ENDBRANCH  31  32
ENDBRANCH   1  31
TORSDOF 6
