REMARK  Name = 
REMARK  6 active torsions:
REMARK  status: ('A' for Active; 'I' for Inactive)
REMARK    1  A    between atoms: C_1  and  N_2
REMARK    2  A    between atoms: C_3  and  C_5
REMARK    3  A    between atoms: C_8  and  C_9
REMARK    4  A    between atoms: N_11  and  C_12
REMARK    5  A    between atoms: C_16  and  C_17
REMARK    6  A    between atoms: C_17  and  C_18
REMARK                            x       y       z     vdW  Elec       q    Type
REMARK                         _______ _______ _______ _____ _____    ______ ____
ROOT
ATOM      1  C   UNL     1      11.259  -0.773  -0.150  0.00  0.00    +0.000 A 
ATOM      2  C   UNL     1      11.942   0.441  -0.267  0.00  0.00    +0.000 A 
ATOM      3  C   UNL     1      13.315   0.518  -0.037  0.00  0.00    +0.000 A 
ATOM      4  C   UNL     1      14.024  -0.616   0.350  0.00  0.00    +0.000 A 
ATOM      5  C   UNL     1      13.367  -1.841   0.540  0.00  0.00    +0.000 A 
ATOM      6  C   UNL     1      11.980  -1.909   0.265  0.00  0.00    +0.000 A 
ENDROOT
BRANCH   1   9
ATOM      7  C   UNL     1       9.107   0.036  -1.125  0.00  0.00    +0.000 C 
ATOM      8  O   UNL     1       9.558   1.062  -1.637  0.00  0.00    +0.000 OA
ATOM      9  N   UNL     1       9.869  -0.899  -0.433  0.00  0.00    +0.000 N 
ATOM     10  H   UNL     1       9.455  -1.793  -0.193  0.00  0.00    +0.000 HD
BRANCH   7  14
ATOM     11  C   UNL     1       4.833  -0.411  -1.700  0.00  0.00    +0.000 A 
ATOM     12  C   UNL     1       5.547   0.642  -2.279  0.00  0.00    +0.000 A 
ATOM     13  C   UNL     1       6.929   0.743  -2.084  0.00  0.00    +0.000 A 
ATOM     14  C   UNL     1       7.637  -0.197  -1.308  0.00  0.00    +0.000 A 
ATOM     15  C   UNL     1       6.923  -1.255  -0.740  0.00  0.00    +0.000 A 
ATOM     16  C   UNL     1       5.538  -1.350  -0.941  0.00  0.00    +0.000 A 
ATOM     17  F   UNL     1       4.902  -2.380  -0.363  0.00  0.00    +0.000 F 
BRANCH  11  20
ATOM     18  C   UNL     1       1.234  -1.607  -1.452  0.00  0.00    +0.000 C 
ATOM     19  N   UNL     1       2.666  -1.497  -1.329  0.00  0.00    +0.000 N 
ATOM     20  C   UNL     1       3.357  -0.455  -1.908  0.00  0.00    +0.000 C 
ATOM     21  O   UNL     1       2.805   0.421  -2.564  0.00  0.00    +0.000 OA
ATOM     22  H   UNL     1       3.168  -2.218  -0.828  0.00  0.00    +0.000 HD
ENDBRANCH  11  20
ENDBRANCH   7  14
ENDBRANCH   1   9
BRANCH   5  23
ATOM     23  C   UNL     1      14.194  -3.053   0.961  0.00  0.00    +0.000 C 
BRANCH  23  24
ATOM     24  C   UNL     1      13.485  -4.029   1.850  0.00  0.00    +0.000 A 
ATOM     25  N   UNL     1      13.256  -5.314   1.641  0.00  0.00    +0.000 NA
ATOM     26  C   UNL     1      12.440  -5.720   2.678  0.00  0.00    +0.000 A 
ATOM     27  C   UNL     1      11.833  -6.960   2.938  0.00  0.00    +0.000 A 
ATOM     28  C   UNL     1      10.931  -7.053   4.010  0.00  0.00    +0.000 A 
ATOM     29  C   UNL     1      10.665  -5.950   4.824  0.00  0.00    +0.000 A 
ATOM     30  C   UNL     1      11.319  -4.731   4.626  0.00  0.00    +0.000 A 
ATOM     31  C   UNL     1      12.195  -4.661   3.543  0.00  0.00    +0.000 A 
ATOM     32  N   UNL     1      12.968  -3.640   3.061  0.00  0.00    +0.000 N 
ATOM     33  H   UNL     1      13.057  -2.721   3.465  0.00  0.00    +0.000 HD
ENDBRANCH  23  24
ENDBRANCH   5  23
TORSDOF 5
