REMARK  Name = 
REMARK  4 active torsions:
REMARK  status: ('A' for Active; 'I' for Inactive)
REMARK    1  A    between atoms: C_2  and  C_17
REMARK    2  A    between atoms: N_3  and  C_4
REMARK    3  A    between atoms: C_4  and  C_5
REMARK    4  A    between atoms: C_8  and  C_9
REMARK                            x       y       z     vdW  Elec       q    Type
REMARK                         _______ _______ _______ _____ _____    ______ ____
ROOT
ATOM      1  O   UNL     1       1.193   0.675  -0.667  0.00  0.00    +0.000 OA
ATOM      2  C   UNL     1       2.389   0.573  -0.395  0.00  0.00    +0.000 C 
ATOM      3  N   UNL     1       3.152  -0.459  -0.910  0.00  0.00    +0.000 N 
ATOM      4  H   UNL     1       4.065  -0.649  -0.524  0.00  0.00    +0.000 HD
ENDROOT
BRANCH   2   5
ATOM      5  C   UNL     1       3.040   1.635   0.433  0.00  0.00    +0.000 A 
ATOM      6  C   UNL     1       2.321   2.811   0.532  0.00  0.00    +0.000 A 
ATOM      7  C   UNL     1       2.919   3.921   1.106  0.00  0.00    +0.000 A 
ATOM      8  C   UNL     1       4.182   3.792   1.640  0.00  0.00    +0.000 A 
ATOM      9  C   UNL     1       4.749   4.915   2.254  0.00  0.00    +0.000 A 
ATOM     10  C   UNL     1       5.753   4.725   3.178  0.00  0.00    +0.000 A 
ATOM     11  F   UNL     1       6.112   5.750   3.960  0.00  0.00    +0.000 F 
ATOM     12  C   UNL     1       6.305   3.466   3.342  0.00  0.00    +0.000 A 
ATOM     13  F   UNL     1       7.214   3.263   4.306  0.00  0.00    +0.000 F 
ATOM     14  C   UNL     1       5.892   2.391   2.539  0.00  0.00    +0.000 A 
ATOM     15  C   UNL     1       4.788   2.508   1.691  0.00  0.00    +0.000 A 
ATOM     16  N   UNL     1       4.272   1.453   0.996  0.00  0.00    +0.000 NA
ENDBRANCH   2   5
BRANCH   3  17
ATOM     17  C   UNL     1       2.469  -1.425  -1.768  0.00  0.00    +0.000 C 
BRANCH  17  18
ATOM     18  C   UNL     1       3.374  -2.181  -2.688  0.00  0.00    +0.000 A 
ATOM     19  C   UNL     1       4.200  -1.537  -3.609  0.00  0.00    +0.000 A 
ATOM     20  C   UNL     1       4.993  -2.288  -4.478  0.00  0.00    +0.000 A 
ATOM     21  C   UNL     1       4.939  -3.680  -4.420  0.00  0.00    +0.000 A 
ATOM     22  N   UNL     1       4.111  -4.317  -3.555  0.00  0.00    +0.000 NA
ATOM     23  C   UNL     1       3.348  -3.566  -2.729  0.00  0.00    +0.000 A 
BRANCH  21  24
ATOM     24  C   UNL     1       5.800  -4.561  -5.236  0.00  0.00    +0.000 A 
ATOM     25  C   UNL     1       6.178  -5.826  -4.759  0.00  0.00    +0.000 A 
ATOM     26  C   UNL     1       7.033  -6.615  -5.510  0.00  0.00    +0.000 A 
ATOM     27  N   UNL     1       7.537  -6.247  -6.705  0.00  0.00    +0.000 NA
ATOM     28  C   UNL     1       7.150  -5.045  -7.171  0.00  0.00    +0.000 A 
ATOM     29  C   UNL     1       6.298  -4.185  -6.491  0.00  0.00    +0.000 A 
ENDBRANCH  21  24
ENDBRANCH  17  18
ENDBRANCH   3  17
TORSDOF 4
