REMARK  Name = 
REMARK  4 active torsions:
REMARK  status: ('A' for Active; 'I' for Inactive)
REMARK    1  A    between atoms: C_2  and  C_18
REMARK    2  A    between atoms: N_3  and  C_4
REMARK    3  A    between atoms: C_6  and  O_7
REMARK    4  A    between atoms: N_9  and  C_10
REMARK                            x       y       z     vdW  Elec       q    Type
REMARK                         _______ _______ _______ _____ _____    ______ ____
ROOT
ATOM      1  O   UNL     1       0.989  -0.227   0.257  0.00  0.00    +0.000 OA
ATOM      2  C   UNL     1       2.199  -0.161   0.129  0.00  0.00    +0.000 C 
ATOM      3  N   UNL     1       2.928   0.981   0.594  0.00  0.00    +0.000 N 
ATOM      4  H   UNL     1       3.894   1.093   0.305  0.00  0.00    +0.000 HD
ENDROOT
BRANCH   2   5
ATOM      5  C   UNL     1       2.992  -1.159  -0.613  0.00  0.00    +0.000 A 
ATOM      6  C   UNL     1       4.293  -1.447  -0.212  0.00  0.00    +0.000 A 
ATOM      7  F   UNL     1       4.830  -0.775   0.820  0.00  0.00    +0.000 F 
ATOM      8  C   UNL     1       5.054  -2.426  -0.863  0.00  0.00    +0.000 A 
ATOM      9  C   UNL     1       6.340  -2.782  -0.429  0.00  0.00    +0.000 A 
ATOM     10  C   UNL     1       7.035  -3.785  -1.090  0.00  0.00    +0.000 A 
ATOM     11  C   UNL     1       6.430  -4.380  -2.179  0.00  0.00    +0.000 A 
ATOM     12  N   UNL     1       5.199  -4.047  -2.633  0.00  0.00    +0.000 NA
ATOM     13  C   UNL     1       4.516  -3.097  -1.979  0.00  0.00    +0.000 A 
ATOM     14  C   UNL     1       3.230  -2.764  -2.396  0.00  0.00    +0.000 A 
ATOM     15  C   UNL     1       2.453  -1.816  -1.717  0.00  0.00    +0.000 A 
ENDBRANCH   2   5
BRANCH   3  16
ATOM     16  C   UNL     1       2.281   2.094   1.108  0.00  0.00    +0.000 A 
ATOM     17  C   UNL     1       1.441   2.111   2.200  0.00  0.00    +0.000 A 
ATOM     18  C   UNL     1       1.313   3.477   2.477  0.00  0.00    +0.000 A 
ATOM     19  N   UNL     1       1.984   4.269   1.649  0.00  0.00    +0.000 NA
ATOM     20  N   UNL     1       2.461   3.415   0.713  0.00  0.00    +0.000 N 
BRANCH  20  21
ATOM     21  C   UNL     1       3.033   3.890  -0.495  0.00  0.00    +0.000 A 
ATOM     22  C   UNL     1       3.562   5.185  -0.555  0.00  0.00    +0.000 A 
ATOM     23  C   UNL     1       4.133   5.647  -1.747  0.00  0.00    +0.000 A 
ATOM     24  C   UNL     1       4.140   4.834  -2.875  0.00  0.00    +0.000 A 
ATOM     25  F   UNL     1       4.679   5.282  -4.016  0.00  0.00    +0.000 F 
ATOM     26  C   UNL     1       3.589   3.563  -2.841  0.00  0.00    +0.000 A 
ATOM     27  C   UNL     1       3.040   3.099  -1.653  0.00  0.00    +0.000 A 
ATOM     28  F   UNL     1       2.461   1.893  -1.688  0.00  0.00    +0.000 F 
ENDBRANCH  20  21
BRANCH  18  29
ATOM     29  O   UNL     1       0.667   4.076   3.477  0.00  0.00    +0.000 OA
ATOM     30  H   UNL     1       0.201   3.425   4.024  0.00  0.00    +0.000 HD
ENDBRANCH  18  29
ENDBRANCH   3  16
TORSDOF 4
