REMARK  Name = 
REMARK  6 active torsions:
REMARK  status: ('A' for Active; 'I' for Inactive)
REMARK    1  A    between atoms: C_2  and  C_15
REMARK    2  A    between atoms: N_3  and  C_4
REMARK    3  A    between atoms: C_4  and  C_5
REMARK    4  A    between atoms: C_5  and  C_6
REMARK    5  A    between atoms: C_20  and  C_21
REMARK    6  A    between atoms: C_21  and  C_23
REMARK                            x       y       z     vdW  Elec       q    Type
REMARK                         _______ _______ _______ _____ _____    ______ ____
ROOT
ATOM      1  O   UNL     1       0.939   0.171   0.146  0.00  0.00    +0.000 OA
ATOM      2  C   UNL     1       2.161   0.160   0.196  0.00  0.00    +0.000 C 
ATOM      3  N   UNL     1       2.870  -0.068   1.363  0.00  0.00    +0.000 N 
ATOM      4  H   UNL     1       3.879  -0.037   1.364  0.00  0.00    +0.000 HD
ENDROOT
BRANCH   2   5
ATOM      5  C   UNL     1       2.971   0.409  -1.031  0.00  0.00    +0.000 A 
ATOM      6  C   UNL     1       4.170  -0.315  -1.193  0.00  0.00    +0.000 A 
ATOM      7  C   UNL     1       4.931  -0.197  -2.357  0.00  0.00    +0.000 A 
ATOM      8  C   UNL     1       4.491   0.620  -3.391  0.00  0.00    +0.000 A 
ATOM      9  C   UNL     1       3.307   1.343  -3.247  0.00  0.00    +0.000 A 
ATOM     10  C   UNL     1       2.547   1.269  -2.062  0.00  0.00    +0.000 A 
BRANCH  10  11
ATOM     11  C   UNL     1       1.342   2.145  -2.030  0.00  0.00    +0.000 C 
ATOM     12  O   UNL     1       0.702   2.296  -3.071  0.00  0.00    +0.000 OA
BRANCH  11  13
ATOM     13  C   UNL     1       0.941   2.937  -0.837  0.00  0.00    +0.000 A 
ATOM     14  C   UNL     1      -0.406   3.315  -0.714  0.00  0.00    +0.000 A 
ATOM     15  C   UNL     1      -0.831   4.047   0.397  0.00  0.00    +0.000 A 
ATOM     16  C   UNL     1       0.090   4.399   1.375  0.00  0.00    +0.000 A 
ATOM     17  F   UNL     1      -0.316   5.091   2.447  0.00  0.00    +0.000 F 
ATOM     18  C   UNL     1       1.432   4.053   1.255  0.00  0.00    +0.000 A 
ATOM     19  C   UNL     1       1.866   3.337   0.137  0.00  0.00    +0.000 A 
ENDBRANCH  11  13
ENDBRANCH  10  11
ENDBRANCH   2   5
BRANCH   3  20
ATOM     20  C   UNL     1       2.185  -0.318   2.623  0.00  0.00    +0.000 C 
BRANCH  20  21
ATOM     21  C   UNL     1       3.167  -0.584   3.767  0.00  0.00    +0.000 C 
BRANCH  21  22
ATOM     22  C   UNL     1       2.461  -0.793   5.091  0.00  0.00    +0.000 A 
ATOM     23  C   UNL     1       2.241   0.265   5.909  0.00  0.00    +0.000 A 
ATOM     24  C   UNL     1       1.560   0.145   7.189  0.00  0.00    +0.000 A 
ATOM     25  C   UNL     1       1.143  -1.064   7.594  0.00  0.00    +0.000 A 
ATOM     26  N   UNL     1       1.377  -2.163   6.775  0.00  0.00    +0.000 N 
ATOM     27  C   UNL     1       1.058  -3.482   6.978  0.00  0.00    +0.000 A 
ATOM     28  C   UNL     1       1.543  -4.147   5.877  0.00  0.00    +0.000 A 
ATOM     29  N   UNL     1       2.142  -3.281   4.996  0.00  0.00    +0.000 NA
ATOM     30  C   UNL     1       2.027  -2.089   5.548  0.00  0.00    +0.000 A 
ENDBRANCH  21  22
ENDBRANCH  20  21
ENDBRANCH   3  20
TORSDOF 6
