REMARK  Name = 
REMARK  6 active torsions:
REMARK  status: ('A' for Active; 'I' for Inactive)
REMARK    1  A    between atoms: C_2  and  C_3
REMARK    2  A    between atoms: C_8  and  C_9
REMARK    3  A    between atoms: C_12  and  C_13
REMARK    4  A    between atoms: N_15  and  C_16
REMARK    5  A    between atoms: C_16  and  C_17
REMARK    6  A    between atoms: C_22  and  C_23
REMARK                            x       y       z     vdW  Elec       q    Type
REMARK                         _______ _______ _______ _____ _____    ______ ____
ROOT
ATOM      1  C   UNL     1      -2.295   6.511  -0.030  0.00  0.00    +0.000 C 
ATOM      2  O   UNL     1      -2.171   7.210  -1.031  0.00  0.00    +0.000 OA
ATOM      3  N   UNL     1      -3.111   6.829   1.032  0.00  0.00    +0.000 N 
ATOM      4  H   UNL     1      -3.099   6.268   1.869  0.00  0.00    +0.000 HD
ENDROOT
BRANCH   1   8
ATOM      5  C   UNL     1       0.072   2.891   0.393  0.00  0.00    +0.000 A 
ATOM      6  C   UNL     1       0.492   3.979  -0.394  0.00  0.00    +0.000 A 
ATOM      7  C   UNL     1      -0.304   5.122  -0.568  0.00  0.00    +0.000 A 
ATOM      8  C   UNL     1      -1.520   5.242   0.103  0.00  0.00    +0.000 A 
ATOM      9  C   UNL     1      -1.969   4.174   0.882  0.00  0.00    +0.000 A 
ATOM     10  C   UNL     1      -1.187   3.018   1.015  0.00  0.00    +0.000 A 
BRANCH   5  16
ATOM     11  C   UNL     1       1.666   1.044  -0.433  0.00  0.00    +0.000 A 
ATOM     12  C   UNL     1       2.395  -0.134  -0.176  0.00  0.00    +0.000 A 
ATOM     13  C   UNL     1       2.353  -0.744   1.073  0.00  0.00    +0.000 A 
ATOM     14  C   UNL     1       1.599  -0.169   2.084  0.00  0.00    +0.000 A 
ATOM     15  C   UNL     1       0.894   1.017   1.846  0.00  0.00    +0.000 A 
ATOM     16  C   UNL     1       0.892   1.656   0.583  0.00  0.00    +0.000 A 
BRANCH  11  18
ATOM     17  N   UNL     1       1.847   1.957  -2.857  0.00  0.00    +0.000 NA
ATOM     18  C   UNL     1       1.743   1.554  -1.771  0.00  0.00    +0.000 C 
ENDBRANCH  11  18
ENDBRANCH   5  16
ENDBRANCH   1   8
BRANCH   3  19
ATOM     19  C   UNL     1      -3.967   8.006   1.056  0.00  0.00    +0.000 C 
BRANCH  19  20
ATOM     20  C   UNL     1      -5.371   7.757   0.539  0.00  0.00    +0.000 A 
ATOM     21  C   UNL     1      -5.723   6.501   0.005  0.00  0.00    +0.000 A 
ATOM     22  C   UNL     1      -6.996   6.293  -0.500  0.00  0.00    +0.000 A 
ATOM     23  N   UNL     1      -7.954   7.234  -0.509  0.00  0.00    +0.000 NA
ATOM     24  C   UNL     1      -7.609   8.439   0.006  0.00  0.00    +0.000 A 
ATOM     25  C   UNL     1      -6.356   8.769   0.539  0.00  0.00    +0.000 A 
BRANCH  25  26
ATOM     26  C   UNL     1      -6.155  10.132   1.048  0.00  0.00    +0.000 A 
ATOM     27  N   UNL     1      -5.308  10.415   2.051  0.00  0.00    +0.000 NA
ATOM     28  N   UNL     1      -5.415  11.741   2.231  0.00  0.00    +0.000 N 
ATOM     29  C   UNL     1      -6.304  12.335   1.392  0.00  0.00    +0.000 A 
ATOM     30  C   UNL     1      -6.813  11.322   0.617  0.00  0.00    +0.000 A 
ATOM     31  H   UNL     1      -4.848  12.177   2.951  0.00  0.00    +0.000 HD
ENDBRANCH  25  26
ENDBRANCH  19  20
ENDBRANCH   3  19
TORSDOF 6
