REMARK  Name = 
REMARK  7 active torsions:
REMARK  status: ('A' for Active; 'I' for Inactive)
REMARK    1  A    between atoms: C_2  and  C_20
REMARK    2  A    between atoms: N_3  and  C_4
REMARK    3  A    between atoms: C_4  and  C_5
REMARK    4  A    between atoms: C_4  and  C_8
REMARK    5  A    between atoms: C_5  and  C_6
REMARK    6  A    between atoms: C_6  and  O_7
REMARK    7  A    between atoms: C_11  and  C_12
REMARK                            x       y       z     vdW  Elec       q    Type
REMARK                         _______ _______ _______ _____ _____    ______ ____
ROOT
ATOM      1  C   UNL     1       2.186  -0.775   2.219  0.00  0.00    +0.000 C 
ENDROOT
BRANCH   1   2
ATOM      2  C   UNL     1       3.171  -1.022   3.360  0.00  0.00    +0.000 A 
ATOM      3  C   UNL     1       4.562  -0.946   3.216  0.00  0.00    +0.000 A 
ATOM      4  C   UNL     1       5.420  -1.167   4.307  0.00  0.00    +0.000 A 
ATOM      5  C   UNL     1       4.927  -1.458   5.590  0.00  0.00    +0.000 A 
ATOM      6  C   UNL     1       3.530  -1.517   5.725  0.00  0.00    +0.000 A 
ATOM      7  C   UNL     1       2.672  -1.306   4.640  0.00  0.00    +0.000 A 
BRANCH   5   8
ATOM      8  C   UNL     1       5.819  -1.666   6.760  0.00  0.00    +0.000 A 
ATOM      9  C   UNL     1       7.055  -1.006   6.883  0.00  0.00    +0.000 A 
ATOM     10  C   UNL     1       7.864  -1.168   8.015  0.00  0.00    +0.000 A 
ATOM     11  C   UNL     1       7.451  -1.990   9.059  0.00  0.00    +0.000 A 
ATOM     12  C   UNL     1       6.242  -2.667   8.961  0.00  0.00    +0.000 A 
ATOM     13  C   UNL     1       5.445  -2.515   7.822  0.00  0.00    +0.000 A 
ENDBRANCH   5   8
ENDBRANCH   1   2
BRANCH   1  16
ATOM     14  O   UNL     1       2.018   1.783   0.969  0.00  0.00    +0.000 OA
ATOM     15  C   UNL     1       2.739   0.916   0.485  0.00  0.00    +0.000 C 
ATOM     16  N   UNL     1       2.849  -0.359   0.994  0.00  0.00    +0.000 N 
ATOM     17  H   UNL     1       3.502  -0.980   0.525  0.00  0.00    +0.000 HD
BRANCH  15  18
ATOM     18  C   UNL     1       3.548   1.130  -0.709  0.00  0.00    +0.000 A 
ATOM     19  C   UNL     1       3.606   2.280  -1.462  0.00  0.00    +0.000 A 
ATOM     20  F   UNL     1       2.965   3.397  -1.248  0.00  0.00    +0.000 F 
ATOM     21  N   UNL     1       4.452   2.026  -2.503  0.00  0.00    +0.000 N 
ATOM     22  C   UNL     1       4.821   2.850  -3.566  0.00  0.00    +0.000 A 
ATOM     23  C   UNL     1       5.666   2.374  -4.496  0.00  0.00    +0.000 A 
ATOM     24  C   UNL     1       6.170   1.015  -4.356  0.00  0.00    +0.000 A 
ATOM     25  C   UNL     1       5.808   0.227  -3.323  0.00  0.00    +0.000 A 
ATOM     26  C   UNL     1       4.903   0.720  -2.339  0.00  0.00    +0.000 A 
ATOM     27  N   UNL     1       4.379   0.156  -1.265  0.00  0.00    +0.000 NA
ENDBRANCH  15  18
ENDBRANCH   1  16
BRANCH   1  28
ATOM     28  C   UNL     1       1.304  -2.012   1.959  0.00  0.00    +0.000 C 
BRANCH  28  29
ATOM     29  C   UNL     1       0.219  -1.762   0.918  0.00  0.00    +0.000 C 
BRANCH  29  30
ATOM     30  O   UNL     1      -0.593  -2.926   0.790  0.00  0.00    +0.000 OA
ATOM     31  H   UNL     1      -0.031  -3.638   0.439  0.00  0.00    +0.000 HD
ENDBRANCH  29  30
ENDBRANCH  28  29
ENDBRANCH   1  28
TORSDOF 7
