REMARK  Name = 
REMARK  4 active torsions:
REMARK  status: ('A' for Active; 'I' for Inactive)
REMARK    1  A    between atoms: C_2  and  C_19
REMARK    2  A    between atoms: N_3  and  C_4
REMARK    3  A    between atoms: C_8  and  N_9
REMARK    4  A    between atoms: C_10  and  C_12
REMARK                            x       y       z     vdW  Elec       q    Type
REMARK                         _______ _______ _______ _____ _____    ______ ____
ROOT
ATOM      1  C   UNL     1       2.508   0.600  -2.483  0.00  0.00    +0.000 A 
ATOM      2  C   UNL     1       1.348   1.361  -2.351  0.00  0.00    +0.000 A 
ATOM      3  C   UNL     1       0.550   1.634  -3.459  0.00  0.00    +0.000 A 
ATOM      4  C   UNL     1       0.918   1.175  -4.721  0.00  0.00    +0.000 A 
ATOM      5  C   UNL     1       2.089   0.437  -4.900  0.00  0.00    +0.000 A 
ATOM      6  C   UNL     1       2.859   0.116  -3.763  0.00  0.00    +0.000 A 
ENDROOT
BRANCH   1   9
ATOM      7  O   UNL     1       2.356   1.461   0.395  0.00  0.00    +0.000 OA
ATOM      8  C   UNL     1       3.252   0.772  -0.079  0.00  0.00    +0.000 C 
ATOM      9  N   UNL     1       3.365   0.322  -1.391  0.00  0.00    +0.000 N 
ATOM     10  H   UNL     1       4.207  -0.220  -1.571  0.00  0.00    +0.000 HD
BRANCH   8  11
ATOM     11  C   UNL     1       4.409   0.373   0.798  0.00  0.00    +0.000 A 
ATOM     12  C   UNL     1       4.445   0.754   2.141  0.00  0.00    +0.000 A 
ATOM     13  C   UNL     1       5.616   0.517   2.880  0.00  0.00    +0.000 A 
ATOM     14  C   UNL     1       5.763   0.917   4.225  0.00  0.00    +0.000 A 
ATOM     15  C   UNL     1       6.982   0.751   4.889  0.00  0.00    +0.000 A 
ATOM     16  C   UNL     1       8.051   0.166   4.223  0.00  0.00    +0.000 A 
ATOM     17  F   UNL     1       9.233   0.049   4.841  0.00  0.00    +0.000 F 
ATOM     18  C   UNL     1       7.918  -0.286   2.917  0.00  0.00    +0.000 A 
ATOM     19  C   UNL     1       6.702  -0.113   2.237  0.00  0.00    +0.000 A 
ATOM     20  C   UNL     1       6.528  -0.518   0.911  0.00  0.00    +0.000 A 
ATOM     21  N   UNL     1       5.417  -0.292   0.173  0.00  0.00    +0.000 NA
ENDBRANCH   8  11
ENDBRANCH   1   9
BRANCH   5  22
ATOM     22  N   UNL     1       2.535   0.019  -6.184  0.00  0.00    +0.000 N 
ATOM     23  C   UNL     1       2.087   0.529  -7.399  0.00  0.00    +0.000 C 
ATOM     24  O   UNL     1       1.248   1.415  -7.527  0.00  0.00    +0.000 OA
ATOM     25  H   UNL     1       3.322  -0.619  -6.215  0.00  0.00    +0.000 HD
BRANCH  23  26
ATOM     26  C   UNL     1       2.703  -0.013  -8.591  0.00  0.00    +0.000 A 
ATOM     27  C   UNL     1       3.647  -1.001  -8.753  0.00  0.00    +0.000 A 
ATOM     28  F   UNL     1       4.222  -1.690  -7.809  0.00  0.00    +0.000 F 
ATOM     29  N   UNL     1       3.877  -1.133 -10.090  0.00  0.00    +0.000 N 
ATOM     30  N   UNL     1       3.150  -0.286 -10.839  0.00  0.00    +0.000 NA
ATOM     31  C   UNL     1       2.439   0.390  -9.930  0.00  0.00    +0.000 A 
ATOM     32  H   UNL     1       4.510  -1.772 -10.559  0.00  0.00    +0.000 HD
ENDBRANCH  23  26
ENDBRANCH   5  22
TORSDOF 4
