REMARK  Name = 
REMARK  7 active torsions:
REMARK  status: ('A' for Active; 'I' for Inactive)
REMARK    1  A    between atoms: C_1  and  C_2
REMARK    2  A    between atoms: C_6  and  N_7
REMARK    3  A    between atoms: C_10  and  C_11
REMARK    4  A    between atoms: N_13  and  C_14
REMARK    5  A    between atoms: C_14  and  C_15
REMARK    6  A    between atoms: C_17  and  O_18
REMARK    7  A    between atoms: O_18  and  C_19
REMARK                            x       y       z     vdW  Elec       q    Type
REMARK                         _______ _______ _______ _____ _____    ______ ____
ROOT
ATOM      1  C   UNL     1      -2.633  -5.654   1.452  0.00  0.00    +0.000 C 
ATOM      2  O   UNL     1      -2.013  -5.776   2.502  0.00  0.00    +0.000 OA
ATOM      3  N   UNL     1      -3.562  -6.568   1.013  0.00  0.00    +0.000 N 
ATOM      4  H   UNL     1      -3.962  -6.422   0.090  0.00  0.00    +0.000 HD
ENDROOT
BRANCH   1   8
ATOM      5  N   UNL     1      -2.520  -3.197  -1.095  0.00  0.00    +0.000 N 
ATOM      6  N   UNL     1      -1.598  -2.604  -0.288  0.00  0.00    +0.000 NA
ATOM      7  C   UNL     1      -1.556  -3.437   0.752  0.00  0.00    +0.000 A 
ATOM      8  C   UNL     1      -2.431  -4.517   0.555  0.00  0.00    +0.000 A 
ATOM      9  N   UNL     1      -3.074  -4.351  -0.619  0.00  0.00    +0.000 NA
BRANCH   5  15
ATOM     10  C   UNL     1      -5.372  -3.300  -5.149  0.00  0.00    +0.000 C 
ATOM     11  C   UNL     1      -4.237  -2.701  -4.372  0.00  0.00    +0.000 A 
ATOM     12  C   UNL     1      -3.534  -1.595  -4.862  0.00  0.00    +0.000 A 
ATOM     13  C   UNL     1      -2.509  -1.016  -4.111  0.00  0.00    +0.000 A 
ATOM     14  C   UNL     1      -2.180  -1.535  -2.858  0.00  0.00    +0.000 A 
ATOM     15  C   UNL     1      -2.865  -2.654  -2.361  0.00  0.00    +0.000 A 
ATOM     16  C   UNL     1      -3.890  -3.236  -3.122  0.00  0.00    +0.000 A 
ENDBRANCH   5  15
ENDBRANCH   1   8
BRANCH   3  17
ATOM     17  C   UNL     1      -3.881  -7.772   1.748  0.00  0.00    +0.000 C 
BRANCH  17  18
ATOM     18  C   UNL     1      -3.001  -8.944   1.381  0.00  0.00    +0.000 A 
ATOM     19  C   UNL     1      -1.782  -9.131   2.029  0.00  0.00    +0.000 A 
ATOM     20  C   UNL     1      -0.968 -10.194   1.637  0.00  0.00    +0.000 A 
ATOM     21  C   UNL     1      -1.423 -11.085   0.675  0.00  0.00    +0.000 A 
ATOM     22  C   UNL     1      -2.653 -10.836   0.091  0.00  0.00    +0.000 A 
ATOM     23  N   UNL     1      -3.437  -9.782   0.406  0.00  0.00    +0.000 NA
BRANCH  20  24
ATOM     24  O   UNL     1       0.262 -10.469   2.193  0.00  0.00    +0.000 OA
BRANCH  24  25
ATOM     25  C   UNL     1       1.084  -9.428   2.567  0.00  0.00    +0.000 A 
ATOM     26  C   UNL     1       1.168  -8.211   1.880  0.00  0.00    +0.000 A 
ATOM     27  C   UNL     1       2.015  -7.199   2.341  0.00  0.00    +0.000 A 
ATOM     28  C   UNL     1       2.815  -7.423   3.459  0.00  0.00    +0.000 A 
ATOM     29  C   UNL     1       2.767  -8.657   4.101  0.00  0.00    +0.000 A 
ATOM     30  F   UNL     1       3.558  -8.877   5.159  0.00  0.00    +0.000 F 
ATOM     31  C   UNL     1       1.911  -9.662   3.666  0.00  0.00    +0.000 A 
ENDBRANCH  24  25
ENDBRANCH  20  24
ENDBRANCH  17  18
ENDBRANCH   3  17
TORSDOF 6
