REMARK  Name = 
REMARK  5 active torsions:
REMARK  status: ('A' for Active; 'I' for Inactive)
REMARK    1  A    between atoms: C_2  and  C_3
REMARK    2  A    between atoms: C_9  and  C_10
REMARK    3  A    between atoms: N_12  and  C_13
REMARK    4  A    between atoms: C_15  and  N_16
REMARK    5  A    between atoms: C_17  and  C_19
REMARK                            x       y       z     vdW  Elec       q    Type
REMARK                         _______ _______ _______ _____ _____    ______ ____
ROOT
ATOM      1  C   UNL     1       8.532   3.869  -0.090  0.00  0.00    +0.000 A 
ATOM      2  C   UNL     1       8.061   4.838   0.799  0.00  0.00    +0.000 A 
ATOM      3  C   UNL     1       8.709   6.073   0.922  0.00  0.00    +0.000 A 
ATOM      4  C   UNL     1       9.733   6.389   0.026  0.00  0.00    +0.000 A 
ATOM      5  C   UNL     1      10.181   5.436  -0.896  0.00  0.00    +0.000 A 
ATOM      6  C   UNL     1       9.607   4.162  -0.926  0.00  0.00    +0.000 A 
ENDROOT
BRANCH   1   9
ATOM      7  C   UNL     1       8.609   1.430   0.014  0.00  0.00    +0.000 C 
ATOM      8  O   UNL     1       9.828   1.328   0.091  0.00  0.00    +0.000 OA
ATOM      9  N   UNL     1       7.892   2.610  -0.094  0.00  0.00    +0.000 N 
ATOM     10  H   UNL     1       6.950   2.593   0.279  0.00  0.00    +0.000 HD
BRANCH   7  17
ATOM     11  C   UNL     1       7.524  -2.027   1.111  0.00  0.00    +0.000 A 
ATOM     12  C   UNL     1       6.404  -2.224   0.310  0.00  0.00    +0.000 A 
ATOM     13  F   UNL     1       5.724  -3.378   0.364  0.00  0.00    +0.000 F 
ATOM     14  C   UNL     1       5.981  -1.223  -0.562  0.00  0.00    +0.000 A 
ATOM     15  F   UNL     1       4.910  -1.425  -1.342  0.00  0.00    +0.000 F 
ATOM     16  C   UNL     1       6.662  -0.011  -0.654  0.00  0.00    +0.000 A 
ATOM     17  C   UNL     1       7.794   0.192   0.139  0.00  0.00    +0.000 A 
ATOM     18  C   UNL     1       8.226  -0.815   1.020  0.00  0.00    +0.000 A 
BRANCH  11  20
ATOM     19  N   UNL     1       8.331  -3.863   2.745  0.00  0.00    +0.000 NA
ATOM     20  C   UNL     1       7.959  -3.052   2.011  0.00  0.00    +0.000 C 
ENDBRANCH  11  20
ENDBRANCH   7  17
ENDBRANCH   1   9
BRANCH   3  21
ATOM     21  N   UNL     1       8.405   6.996   1.952  0.00  0.00    +0.000 N 
ATOM     22  C   UNL     1       7.767   6.668   3.138  0.00  0.00    +0.000 C 
ATOM     23  O   UNL     1       7.358   5.555   3.459  0.00  0.00    +0.000 OA
ATOM     24  H   UNL     1       8.901   7.879   1.928  0.00  0.00    +0.000 HD
BRANCH  22  25
ATOM     25  C   UNL     1       7.654   7.805   4.109  0.00  0.00    +0.000 A 
ATOM     26  C   UNL     1       7.620   7.522   5.421  0.00  0.00    +0.000 A 
ATOM     27  C   UNL     1       7.477   8.585   6.388  0.00  0.00    +0.000 A 
ATOM     28  C   UNL     1       7.342   9.855   5.986  0.00  0.00    +0.000 A 
ATOM     29  C   UNL     1       7.346  10.169   4.534  0.00  0.00    +0.000 A 
ATOM     30  O   UNL     1       7.180  11.314   4.131  0.00  0.00    +0.000 OA
ATOM     31  N   UNL     1       7.540   9.110   3.681  0.00  0.00    +0.000 N 
ATOM     32  H   UNL     1       7.474   9.326   2.696  0.00  0.00    +0.000 HD
ENDBRANCH  22  25
ENDBRANCH   3  21
TORSDOF 5
