REMARK  Name = 
REMARK  4 active torsions:
REMARK  status: ('A' for Active; 'I' for Inactive)
REMARK    1  A    between atoms: C_2  and  C_4
REMARK    2  A    between atoms: C_8  and  C_10
REMARK    3  A    between atoms: C_14  and  C_15
REMARK    4  A    between atoms: C_15  and  C_16
REMARK                            x       y       z     vdW  Elec       q    Type
REMARK                         _______ _______ _______ _____ _____    ______ ____
ROOT
ATOM      1  C   UNL     1       3.293  -0.535   1.105  0.00  0.00    +0.000 A 
ATOM      2  C   UNL     1       4.276   0.258   1.720  0.00  0.00    +0.000 A 
ATOM      3  C   UNL     1       4.947  -0.249   2.813  0.00  0.00    +0.000 A 
ATOM      4  N   UNL     1       5.942   0.538   3.414  0.00  0.00    +0.000 N 
ATOM      5  C   UNL     1       6.670   0.144   4.523  0.00  0.00    +0.000 C 
ATOM      6  O   UNL     1       6.576  -0.923   5.123  0.00  0.00    +0.000 OA
ATOM      7  N   UNL     1       4.669  -1.461   3.307  0.00  0.00    +0.000 NA
ATOM      8  C   UNL     1       3.737  -2.228   2.737  0.00  0.00    +0.000 A 
ATOM      9  C   UNL     1       3.515  -3.469   3.313  0.00  0.00    +0.000 A 
ATOM     10  C   UNL     1       2.583  -4.364   2.792  0.00  0.00    +0.000 A 
ATOM     11  C   UNL     1       1.859  -4.010   1.665  0.00  0.00    +0.000 A 
ATOM     12  C   UNL     1       2.064  -2.760   1.076  0.00  0.00    +0.000 A 
ATOM     13  C   UNL     1       3.002  -1.833   1.607  0.00  0.00    +0.000 A 
ATOM     14  H   UNL     1       6.162   1.416   2.973  0.00  0.00    +0.000 HD
ENDROOT
BRANCH   5  15
ATOM     15  C   UNL     1       7.684   1.113   5.027  0.00  0.00    +0.000 A 
ATOM     16  C   UNL     1       7.584   2.497   4.848  0.00  0.00    +0.000 A 
ATOM     17  C   UNL     1       8.546   3.341   5.409  0.00  0.00    +0.000 A 
ATOM     18  C   UNL     1       9.582   2.817   6.188  0.00  0.00    +0.000 A 
ATOM     19  C   UNL     1       9.674   1.438   6.408  0.00  0.00    +0.000 A 
ATOM     20  C   UNL     1       8.739   0.595   5.793  0.00  0.00    +0.000 A 
BRANCH  19  21
ATOM     21  C   UNL     1      10.681   0.866   7.386  0.00  0.00    +0.000 C 
BRANCH  21  22
ATOM     22  C   UNL     1      10.163   0.817   8.812  0.00  0.00    +0.000 A 
ATOM     23  C   UNL     1       9.052   0.036   9.142  0.00  0.00    +0.000 A 
ATOM     24  C   UNL     1       8.557   0.072  10.442  0.00  0.00    +0.000 A 
ATOM     25  C   UNL     1       9.196   0.859  11.389  0.00  0.00    +0.000 A 
ATOM     26  C   UNL     1      10.314   1.575  10.994  0.00  0.00    +0.000 A 
ATOM     27  N   UNL     1      10.807   1.576   9.734  0.00  0.00    +0.000 NA
ENDBRANCH  21  22
ENDBRANCH  19  21
ENDBRANCH   5  15
BRANCH   1  29
ATOM     28  N   UNL     1       3.202   0.938  -0.844  0.00  0.00    +0.000 N 
ATOM     29  C   UNL     1       2.538   0.051  -0.039  0.00  0.00    +0.000 C 
ATOM     30  O   UNL     1       1.367  -0.221  -0.274  0.00  0.00    +0.000 OA
ATOM     31  H   UNL     1       2.692   1.276  -1.651  0.00  0.00    +0.000 HD
ATOM     32  H   UNL     1       4.203   1.069  -0.833  0.00  0.00    +0.000 HD
ENDBRANCH   1  29
TORSDOF 4
