REMARK  Name = 
REMARK  7 active torsions:
REMARK  status: ('A' for Active; 'I' for Inactive)
REMARK    1  A    between atoms: C_1  and  C_2
REMARK    2  A    between atoms: C_2  and  O_3
REMARK    3  A    between atoms: C_2  and  C_25
REMARK    4  A    between atoms: O_3  and  C_4
REMARK    5  A    between atoms: C_7  and  C_8
REMARK    6  A    between atoms: N_10  and  C_11
REMARK    7  A    between atoms: C_11  and  C_12
REMARK                            x       y       z     vdW  Elec       q    Type
REMARK                         _______ _______ _______ _____ _____    ______ ____
ROOT
ATOM      1  C   UNL     1       1.428  -6.366   1.385  0.00  0.00    +0.000 C 
ATOM      2  O   UNL     1       0.282  -6.774   1.238  0.00  0.00    +0.000 OA
ATOM      3  N   UNL     1       2.403  -7.079   2.050  0.00  0.00    +0.000 N 
ATOM      4  H   UNL     1       3.318  -6.682   2.201  0.00  0.00    +0.000 HD
ENDROOT
BRANCH   1   8
ATOM      5  C   UNL     1       2.563  -2.465  -0.090  0.00  0.00    +0.000 A 
ATOM      6  C   UNL     1       1.234  -2.752   0.237  0.00  0.00    +0.000 A 
ATOM      7  C   UNL     1       0.866  -4.021   0.711  0.00  0.00    +0.000 A 
ATOM      8  C   UNL     1       1.832  -5.025   0.859  0.00  0.00    +0.000 A 
ATOM      9  C   UNL     1       3.153  -4.752   0.484  0.00  0.00    +0.000 A 
ATOM     10  C   UNL     1       3.514  -3.480   0.013  0.00  0.00    +0.000 A 
BRANCH   5  11
ATOM     11  O   UNL     1       2.808  -1.187  -0.526  0.00  0.00    +0.000 OA
BRANCH  11  13
ATOM     12  C   UNL     1       4.423  -0.394   1.123  0.00  0.00    +0.000 C 
ATOM     13  C   UNL     1       4.136  -0.656  -0.359  0.00  0.00    +0.000 C 
BRANCH  13  14
ATOM     14  C   UNL     1       4.300   0.657  -1.122  0.00  0.00    +0.000 A 
ATOM     15  C   UNL     1       5.575   1.018  -1.601  0.00  0.00    +0.000 A 
ATOM     16  C   UNL     1       5.787   2.250  -2.222  0.00  0.00    +0.000 A 
ATOM     17  C   UNL     1       4.729   3.140  -2.377  0.00  0.00    +0.000 A 
ATOM     18  C   UNL     1       3.458   2.795  -1.917  0.00  0.00    +0.000 A 
ATOM     19  C   UNL     1       3.244   1.563  -1.291  0.00  0.00    +0.000 A 
ENDBRANCH  13  14
ENDBRANCH  11  13
ENDBRANCH   5  11
ENDBRANCH   1   8
BRANCH   3  20
ATOM     20  C   UNL     1       2.184  -8.416   2.574  0.00  0.00    +0.000 C 
BRANCH  20  21
ATOM     21  C   UNL     1       2.543  -9.494   1.571  0.00  0.00    +0.000 A 
ATOM     22  C   UNL     1       1.562 -10.006   0.722  0.00  0.00    +0.000 A 
ATOM     23  C   UNL     1       1.915 -10.958  -0.233  0.00  0.00    +0.000 A 
ATOM     24  C   UNL     1       3.241 -11.367  -0.325  0.00  0.00    +0.000 A 
ATOM     25  C   UNL     1       3.696 -12.319  -1.338  0.00  0.00    +0.000 A 
ATOM     26  C   UNL     1       4.989 -12.666  -1.381  0.00  0.00    +0.000 A 
ATOM     27  C   UNL     1       5.966 -12.121  -0.403  0.00  0.00    +0.000 A 
ATOM     28  O   UNL     1       7.141 -12.462  -0.441  0.00  0.00    +0.000 OA
ATOM     29  N   UNL     1       5.485 -11.230   0.512  0.00  0.00    +0.000 N 
ATOM     30  C   UNL     1       4.157 -10.818   0.575  0.00  0.00    +0.000 A 
ATOM     31  N   UNL     1       3.842  -9.898   1.513  0.00  0.00    +0.000 NA
ATOM     32  H   UNL     1       6.125 -10.842   1.187  0.00  0.00    +0.000 HD
ENDBRANCH  20  21
ENDBRANCH   3  20
TORSDOF 6
