REMARK  Name = 
REMARK  7 active torsions:
REMARK  status: ('A' for Active; 'I' for Inactive)
REMARK    1  A    between atoms: C_1  and  O_2
REMARK    2  A    between atoms: O_2  and  C_3
REMARK    3  A    between atoms: C_3  and  C_5
REMARK    4  A    between atoms: C_10  and  N_11
REMARK    5  A    between atoms: N_11  and  C_12
REMARK    6  A    between atoms: C_13  and  C_15
REMARK    7  A    between atoms: N_19  and  C_20
REMARK                            x       y       z     vdW  Elec       q    Type
REMARK                         _______ _______ _______ _____ _____    ______ ____
ROOT
ATOM      1  N   UNL     1      11.050   1.089   1.942  0.00  0.00    +0.000 N 
ATOM      2  C   UNL     1      11.692   1.050   0.621  0.00  0.00    +0.000 C 
ATOM      3  C   UNL     1      11.827   1.171   3.128  0.00  0.00    +0.000 C 
ATOM      4  O   UNL     1      11.382   1.260   4.275  0.00  0.00    +0.000 OA
ENDROOT
BRANCH   1  10
ATOM      5  C   UNL     1       4.635   0.683   3.227  0.00  0.00    +0.000 A 
ATOM      6  C   UNL     1       5.362   0.334   4.368  0.00  0.00    +0.000 A 
ATOM      7  C   UNL     1       6.758   0.348   4.332  0.00  0.00    +0.000 A 
ATOM      8  C   UNL     1       7.453   0.722   3.168  0.00  0.00    +0.000 A 
ATOM      9  C   UNL     1       8.866   0.734   3.119  0.00  0.00    +0.000 A 
ATOM     10  C   UNL     1       9.592   1.103   1.972  0.00  0.00    +0.000 A 
ATOM     11  C   UNL     1       8.829   1.457   0.844  0.00  0.00    +0.000 A 
ATOM     12  C   UNL     1       7.423   1.457   0.871  0.00  0.00    +0.000 A 
ATOM     13  C   UNL     1       6.722   1.088   2.022  0.00  0.00    +0.000 A 
ATOM     14  C   UNL     1       5.315   1.064   2.061  0.00  0.00    +0.000 A 
BRANCH   5  15
ATOM     15  C   UNL     1       3.151   0.649   3.194  0.00  0.00    +0.000 C 
ATOM     16  O   UNL     1       2.495   0.920   2.199  0.00  0.00    +0.000 OA
BRANCH  15  18
ATOM     17  C   UNL     1       1.227   0.245   4.445  0.00  0.00    +0.000 C 
ATOM     18  O   UNL     1       2.653   0.268   4.394  0.00  0.00    +0.000 OA
ENDBRANCH  15  18
ENDBRANCH   5  15
ENDBRANCH   1  10
BRANCH   3  19
ATOM     19  C   UNL     1      13.326   1.117   3.000  0.00  0.00    +0.000 A 
ATOM     20  C   UNL     1      14.165   1.543   3.965  0.00  0.00    +0.000 A 
ATOM     21  C   UNL     1      15.479   1.021   3.541  0.00  0.00    +0.000 A 
ATOM     22  O   UNL     1      16.492   1.260   4.183  0.00  0.00    +0.000 OA
ATOM     23  N   UNL     1      15.297   0.293   2.389  0.00  0.00    +0.000 N 
ATOM     24  N   UNL     1      13.982   0.410   2.005  0.00  0.00    +0.000 N 
ATOM     25  H   UNL     1      13.528  -0.487   1.863  0.00  0.00    +0.000 HD
BRANCH  23  26
ATOM     26  C   UNL     1      16.232  -0.367   1.577  0.00  0.00    +0.000 A 
ATOM     27  C   UNL     1      17.518  -0.634   2.047  0.00  0.00    +0.000 A 
ATOM     28  C   UNL     1      18.434  -1.328   1.258  0.00  0.00    +0.000 A 
ATOM     29  C   UNL     1      18.081  -1.732  -0.025  0.00  0.00    +0.000 A 
ATOM     30  C   UNL     1      16.812  -1.446  -0.523  0.00  0.00    +0.000 A 
ATOM     31  C   UNL     1      15.885  -0.780   0.279  0.00  0.00    +0.000 A 
ENDBRANCH  23  26
ENDBRANCH   3  19
TORSDOF 5
