REMARK  Name = 
REMARK  6 active torsions:
REMARK  status: ('A' for Active; 'I' for Inactive)
REMARK    1  A    between atoms: C_2  and  C_10
REMARK    2  A    between atoms: N_3  and  C_4
REMARK    3  A    between atoms: C_13  and  C_14
REMARK    4  A    between atoms: C_14  and  N_15
REMARK    5  A    between atoms: C_16  and  C_18
REMARK    6  A    between atoms: C_25  and  O_26
REMARK                            x       y       z     vdW  Elec       q    Type
REMARK                         _______ _______ _______ _____ _____    ______ ____
ROOT
ATOM      1  C   UNL     1       5.318  -4.808  -1.301  0.00  0.00    +0.000 C 
ENDROOT
BRANCH   1   5
ATOM      2  C   UNL     1       3.150  -1.200  -0.343  0.00  0.00    +0.000 A 
ATOM      3  C   UNL     1       2.724  -2.037  -1.397  0.00  0.00    +0.000 A 
ATOM      4  C   UNL     1       3.444  -3.191  -1.720  0.00  0.00    +0.000 A 
ATOM      5  C   UNL     1       4.589  -3.534  -0.987  0.00  0.00    +0.000 A 
ATOM      6  C   UNL     1       5.033  -2.686   0.046  0.00  0.00    +0.000 A 
ATOM      7  C   UNL     1       4.313  -1.530   0.368  0.00  0.00    +0.000 A 
BRANCH   2   9
ATOM      8  O   UNL     1       1.073  -0.195  -0.099  0.00  0.00    +0.000 OA
ATOM      9  C   UNL     1       2.281  -0.043   0.010  0.00  0.00    +0.000 C 
ATOM     10  N   UNL     1       2.953   1.125   0.338  0.00  0.00    +0.000 N 
ATOM     11  H   UNL     1       3.952   1.127   0.205  0.00  0.00    +0.000 HD
BRANCH  10  12
ATOM     12  C   UNL     1       2.346   2.349   0.686  0.00  0.00    +0.000 A 
ATOM     13  C   UNL     1       0.993   2.500   0.967  0.00  0.00    +0.000 A 
ATOM     14  C   UNL     1       0.472   3.765   1.266  0.00  0.00    +0.000 A 
ATOM     15  C   UNL     1       1.334   4.846   1.270  0.00  0.00    +0.000 A 
ATOM     16  N   UNL     1       2.660   4.746   1.029  0.00  0.00    +0.000 NA
ATOM     17  C   UNL     1       3.129   3.504   0.747  0.00  0.00    +0.000 A 
ENDBRANCH  10  12
ENDBRANCH   2   9
ENDBRANCH   1   5
BRANCH   1  18
ATOM     18  N   UNL     1       6.378  -4.589  -2.253  0.00  0.00    +0.000 N 
ATOM     19  C   UNL     1       7.452  -5.455  -2.317  0.00  0.00    +0.000 C 
ATOM     20  O   UNL     1       7.584  -6.412  -1.565  0.00  0.00    +0.000 OA
ATOM     21  H   UNL     1       6.279  -3.900  -2.993  0.00  0.00    +0.000 HD
BRANCH  19  22
ATOM     22  C   UNL     1       8.483  -5.126  -3.344  0.00  0.00    +0.000 A 
ATOM     23  C   UNL     1       9.709  -5.759  -3.237  0.00  0.00    +0.000 A 
ATOM     24  C   UNL     1      10.729  -5.332  -4.068  0.00  0.00    +0.000 A 
ATOM     25  C   UNL     1      10.466  -4.373  -5.049  0.00  0.00    +0.000 A 
ATOM     26  C   UNL     1      11.491  -3.956  -5.901  0.00  0.00    +0.000 A 
ATOM     27  C   UNL     1      11.142  -3.364  -7.095  0.00  0.00    +0.000 A 
ATOM     28  N   UNL     1       9.902  -2.917  -7.346  0.00  0.00    +0.000 NA
ATOM     29  C   UNL     1       8.993  -3.115  -6.362  0.00  0.00    +0.000 A 
ATOM     30  C   UNL     1       9.152  -3.892  -5.205  0.00  0.00    +0.000 A 
ATOM     31  N   UNL     1       8.178  -4.199  -4.295  0.00  0.00    +0.000 NA
BRANCH  29  32
ATOM     32  O   UNL     1       7.851  -2.417  -6.607  0.00  0.00    +0.000 OA
ATOM     33  H   UNL     1       8.136  -1.941  -7.410  0.00  0.00    +0.000 HD
ENDBRANCH  29  32
ENDBRANCH  19  22
ENDBRANCH   1  18
TORSDOF 6
