REMARK  Name = 
REMARK  6 active torsions:
REMARK  status: ('A' for Active; 'I' for Inactive)
REMARK    1  A    between atoms: C_2  and  O_3
REMARK    2  A    between atoms: C_2  and  C_20
REMARK    3  A    between atoms: O_3  and  C_4
REMARK    4  A    between atoms: C_4  and  C_5
REMARK    5  A    between atoms: C_8  and  C_9
REMARK    6  A    between atoms: C_11  and  C_12
REMARK                            x       y       z     vdW  Elec       q    Type
REMARK                         _______ _______ _______ _____ _____    ______ ____
ROOT
ATOM      1  C   UNL     1       4.287  -1.052  -0.686  0.00  0.00    +0.000 C 
ENDROOT
BRANCH   1   2
ATOM      2  C   UNL     1       4.722  -2.297  -1.379  0.00  0.00    +0.000 A 
ATOM      3  C   UNL     1       4.098  -2.972  -2.402  0.00  0.00    +0.000 A 
ATOM      4  O   UNL     1       4.894  -4.004  -2.778  0.00  0.00    +0.000 OA
ATOM      5  C   UNL     1       5.972  -3.922  -1.936  0.00  0.00    +0.000 A 
ATOM      6  N   UNL     1       5.905  -2.935  -1.066  0.00  0.00    +0.000 NA
BRANCH   5   7
ATOM      7  C   UNL     1       7.015  -4.917  -2.130  0.00  0.00    +0.000 A 
ATOM      8  C   UNL     1       8.155  -4.910  -1.312  0.00  0.00    +0.000 A 
ATOM      9  C   UNL     1       9.165  -5.872  -1.477  0.00  0.00    +0.000 A 
ATOM     10  C   UNL     1       9.030  -6.830  -2.492  0.00  0.00    +0.000 A 
ATOM     11  C   UNL     1       7.907  -6.838  -3.317  0.00  0.00    +0.000 A 
ATOM     12  C   UNL     1       6.902  -5.889  -3.131  0.00  0.00    +0.000 A 
BRANCH   9  13
ATOM     13  C   UNL     1      10.367  -5.890  -0.566  0.00  0.00    +0.000 C 
ATOM     14  F   UNL     1      10.341  -4.903   0.372  0.00  0.00    +0.000 F 
ATOM     15  F   UNL     1      10.477  -7.058   0.127  0.00  0.00    +0.000 F 
ATOM     16  F   UNL     1      11.544  -5.740  -1.231  0.00  0.00    +0.000 F 
ENDBRANCH   9  13
ENDBRANCH   5   7
ENDBRANCH   1   2
BRANCH   1  17
ATOM     17  O   UNL     1       2.837  -0.910  -0.716  0.00  0.00    +0.000 OA
BRANCH  17  19
ATOM     18  O   UNL     1       2.714  -0.891   1.570  0.00  0.00    +0.000 OA
ATOM     19  C   UNL     1       2.185  -0.853   0.482  0.00  0.00    +0.000 C 
BRANCH  19  20
ATOM     20  C   UNL     1       0.703  -0.696   0.382  0.00  0.00    +0.000 A 
ATOM     21  C   UNL     1      -0.025  -0.575   1.566  0.00  0.00    +0.000 A 
ATOM     22  N   UNL     1      -1.370  -0.361   1.593  0.00  0.00    +0.000 NA
ATOM     23  C   UNL     1      -1.974  -0.344   0.371  0.00  0.00    +0.000 A 
ATOM     24  N   UNL     1      -3.373  -0.134   0.288  0.00  0.00    +0.000 N 
ATOM     25  C   UNL     1      -4.228   0.104   1.340  0.00  0.00    +0.000 A 
ATOM     26  C   UNL     1      -5.486   0.241   0.809  0.00  0.00    +0.000 A 
ATOM     27  C   UNL     1      -5.311   0.039  -0.569  0.00  0.00    +0.000 A 
ATOM     28  N   UNL     1      -4.030  -0.121  -0.903  0.00  0.00    +0.000 NA
ATOM     29  C   UNL     1      -1.256  -0.510  -0.809  0.00  0.00    +0.000 A 
ATOM     30  N   UNL     1       0.098  -0.662  -0.837  0.00  0.00    +0.000 NA
ENDBRANCH  19  20
ENDBRANCH  17  19
ENDBRANCH   1  17
TORSDOF 6
