REMARK  Name = 
REMARK  7 active torsions:
REMARK  status: ('A' for Active; 'I' for Inactive)
REMARK    1  A    between atoms: C_2  and  C_3
REMARK    2  A    between atoms: C_3  and  C_4
REMARK    3  A    between atoms: C_9  and  O_10
REMARK    4  A    between atoms: O_10  and  C_11
REMARK    5  A    between atoms: N_17  and  C_18
REMARK    6  A    between atoms: C_18  and  C_19
REMARK    7  A    between atoms: C_22  and  C_23
REMARK                            x       y       z     vdW  Elec       q    Type
REMARK                         _______ _______ _______ _____ _____    ______ ____
ROOT
ATOM      1  O   UNL     1       1.025  -0.591  -0.204  0.00  0.00    +0.000 OA
ATOM      2  C   UNL     1       2.242  -0.437  -0.126  0.00  0.00    +0.000 C 
ATOM      3  N   UNL     1       3.055  -1.162   0.718  0.00  0.00    +0.000 N 
ATOM      4  H   UNL     1       4.055  -1.044   0.665  0.00  0.00    +0.000 HD
ENDROOT
BRANCH   3   5
ATOM      5  C   UNL     1       2.532  -2.124   1.661  0.00  0.00    +0.000 C 
BRANCH   5   6
ATOM      6  C   UNL     1       2.948  -1.785   3.073  0.00  0.00    +0.000 A 
ATOM      7  C   UNL     1       2.551  -0.574   3.659  0.00  0.00    +0.000 A 
ATOM      8  C   UNL     1       2.878  -0.284   4.987  0.00  0.00    +0.000 A 
ATOM      9  C   UNL     1       3.616  -1.191   5.760  0.00  0.00    +0.000 A 
ATOM     10  C   UNL     1       4.020  -2.394   5.168  0.00  0.00    +0.000 A 
ATOM     11  C   UNL     1       3.690  -2.691   3.840  0.00  0.00    +0.000 A 
BRANCH   9  12
ATOM     12  C   UNL     1       3.912  -0.870   7.157  0.00  0.00    +0.000 A 
ATOM     13  N   UNL     1       3.180  -0.116   7.958  0.00  0.00    +0.000 NA
ATOM     14  C   UNL     1       3.828  -0.090   9.165  0.00  0.00    +0.000 A 
ATOM     15  C   UNL     1       4.993  -0.811   9.103  0.00  0.00    +0.000 A 
ATOM     16  N   UNL     1       5.035  -1.302   7.828  0.00  0.00    +0.000 N 
ATOM     17  H   UNL     1       5.772  -1.861   7.426  0.00  0.00    +0.000 HD
ENDBRANCH   9  12
ENDBRANCH   5   6
ENDBRANCH   3   5
BRANCH   2  18
ATOM     18  C   UNL     1       2.984   0.623  -0.927  0.00  0.00    +0.000 C 
BRANCH  18  19
ATOM     19  C   UNL     1       3.294   0.219  -2.348  0.00  0.00    +0.000 A 
ATOM     20  C   UNL     1       2.328   0.486  -3.341  0.00  0.00    +0.000 A 
ATOM     21  C   UNL     1       2.582   0.210  -4.684  0.00  0.00    +0.000 A 
ATOM     22  C   UNL     1       3.775  -0.396  -5.053  0.00  0.00    +0.000 A 
ATOM     23  C   UNL     1       4.710  -0.732  -4.074  0.00  0.00    +0.000 A 
ATOM     24  C   UNL     1       4.506  -0.383  -2.728  0.00  0.00    +0.000 A 
BRANCH  24  25
ATOM     25  O   UNL     1       5.457  -0.619  -1.748  0.00  0.00    +0.000 OA
BRANCH  25  26
ATOM     26  C   UNL     1       6.775  -0.710  -2.141  0.00  0.00    +0.000 A 
ATOM     27  C   UNL     1       7.377   0.238  -2.975  0.00  0.00    +0.000 A 
ATOM     28  C   UNL     1       8.663  -0.006  -3.420  0.00  0.00    +0.000 A 
ATOM     29  N   UNL     1       9.394  -1.072  -3.031  0.00  0.00    +0.000 NA
ATOM     30  C   UNL     1       8.818  -1.929  -2.164  0.00  0.00    +0.000 A 
ATOM     31  C   UNL     1       7.524  -1.792  -1.687  0.00  0.00    +0.000 A 
ENDBRANCH  25  26
ENDBRANCH  24  25
ENDBRANCH  18  19
ENDBRANCH   2  18
TORSDOF 7
