REMARK  Name = 
REMARK  5 active torsions:
REMARK  status: ('A' for Active; 'I' for Inactive)
REMARK    1  A    between atoms: N_3  and  C_4
REMARK    2  A    between atoms: C_4  and  C_5
REMARK    3  A    between atoms: C_5  and  N_6
REMARK    4  A    between atoms: C_16  and  C_17
REMARK    5  A    between atoms: C_23  and  C_24
REMARK                            x       y       z     vdW  Elec       q    Type
REMARK                         _______ _______ _______ _____ _____    ______ ____
ROOT
ATOM      1  O   UNL     1       1.089   0.251   0.182  0.00  0.00    +0.000 OA
ATOM      2  C   UNL     1       2.295   0.057   0.047  0.00  0.00    +0.000 C 
ATOM      3  N   UNL     1       2.888  -1.139   0.331  0.00  0.00    +0.000 N 
ATOM      4  N   UNL     1       3.120   1.084  -0.306  0.00  0.00    +0.000 N 
ATOM      5  C   UNL     1       4.466   0.969  -0.474  0.00  0.00    +0.000 A 
ATOM      6  N   UNL     1       5.173  -0.128  -0.636  0.00  0.00    +0.000 NA
ATOM      7  C   UNL     1       6.464   0.330  -0.763  0.00  0.00    +0.000 A 
ATOM      8  C   UNL     1       6.501   1.698  -0.541  0.00  0.00    +0.000 A 
ATOM      9  O   UNL     1       5.195   2.123  -0.440  0.00  0.00    +0.000 OA
ATOM     10  H   UNL     1       3.814  -1.280  -0.068  0.00  0.00    +0.000 HD
ATOM     11  H   UNL     1       2.710   2.003  -0.340  0.00  0.00    +0.000 HD
ENDROOT
BRANCH   7  12
ATOM     12  C   UNL     1       7.580  -0.553  -1.055  0.00  0.00    +0.000 A 
ATOM     13  C   UNL     1       8.670  -0.130  -1.830  0.00  0.00    +0.000 A 
ATOM     14  C   UNL     1       9.785  -0.953  -2.003  0.00  0.00    +0.000 A 
ATOM     15  C   UNL     1       9.788  -2.235  -1.466  0.00  0.00    +0.000 A 
ATOM     16  C   UNL     1       8.678  -2.697  -0.759  0.00  0.00    +0.000 A 
ATOM     17  C   UNL     1       7.578  -1.858  -0.552  0.00  0.00    +0.000 A 
ENDBRANCH   7  12
BRANCH   8  18
ATOM     18  C   UNL     1       7.549   2.707  -0.410  0.00  0.00    +0.000 A 
ATOM     19  C   UNL     1       7.362   4.022  -0.851  0.00  0.00    +0.000 A 
ATOM     20  C   UNL     1       8.440   4.914  -0.896  0.00  0.00    +0.000 A 
ATOM     21  C   UNL     1       9.713   4.502  -0.503  0.00  0.00    +0.000 A 
ATOM     22  C   UNL     1       9.899   3.223   0.005  0.00  0.00    +0.000 A 
ATOM     23  C   UNL     1       8.815   2.348   0.086  0.00  0.00    +0.000 A 
ENDBRANCH   8  18
BRANCH   3  24
ATOM     24  C   UNL     1       2.163  -2.273   0.875  0.00  0.00    +0.000 C 
BRANCH  24  25
ATOM     25  C   UNL     1       3.104  -3.427   1.244  0.00  0.00    +0.000 C 
BRANCH  25  26
ATOM     26  N   UNL     1       2.381  -4.562   1.847  0.00  0.00    +0.000 N 
ATOM     27  C   UNL     1       2.242  -4.673   3.225  0.00  0.00    +0.000 A 
ATOM     28  C   UNL     1       1.622  -5.689   3.842  0.00  0.00    +0.000 A 
ATOM     29  C   UNL     1       1.040  -6.762   3.000  0.00  0.00    +0.000 A 
ATOM     30  O   UNL     1       0.474  -7.727   3.502  0.00  0.00    +0.000 OA
ATOM     31  C   UNL     1       1.171  -6.625   1.530  0.00  0.00    +0.000 A 
ATOM     32  C   UNL     1       1.820  -5.556   1.053  0.00  0.00    +0.000 A 
ENDBRANCH  25  26
ENDBRANCH  24  25
ENDBRANCH   3  24
TORSDOF 5
