REMARK  Name = 
REMARK  4 active torsions:
REMARK  status: ('A' for Active; 'I' for Inactive)
REMARK    1  A    between atoms: C_1  and  C_2
REMARK    2  A    between atoms: C_3  and  C_4
REMARK    3  A    between atoms: N_9  and  C_10
REMARK    4  A    between atoms: C_20  and  C_21
REMARK                            x       y       z     vdW  Elec       q    Type
REMARK                         _______ _______ _______ _____ _____    ______ ____
ROOT
ATOM      1  C   UNL     1       0.373  -2.750  -0.353  0.00  0.00    +0.000 C 
ATOM      2  O   UNL     1      -0.474  -3.486  -0.844  0.00  0.00    +0.000 OA
ATOM      3  N   UNL     1       1.634  -3.131   0.046  0.00  0.00    +0.000 N 
ATOM      4  C   UNL     1       2.048  -4.437   0.027  0.00  0.00    +0.000 A 
ATOM      5  N   UNL     1       1.385  -5.465  -0.488  0.00  0.00    +0.000 NA
ATOM      6  N   UNL     1       2.112  -6.529  -0.110  0.00  0.00    +0.000 N 
ATOM      7  C   UNL     1       3.243  -6.086   0.530  0.00  0.00    +0.000 A 
ATOM      8  N   UNL     1       3.226  -4.772   0.627  0.00  0.00    +0.000 NA
ATOM      9  H   UNL     1       2.254  -2.501   0.527  0.00  0.00    +0.000 HD
ENDROOT
BRANCH   6  10
ATOM     10  C   UNL     1       1.641  -7.847  -0.340  0.00  0.00    +0.000 A 
ATOM     11  C   UNL     1       2.331  -8.967   0.147  0.00  0.00    +0.000 A 
ATOM     12  C   UNL     1       1.801 -10.249  -0.051  0.00  0.00    +0.000 A 
ATOM     13  C   UNL     1       0.599 -10.407  -0.736  0.00  0.00    +0.000 A 
ATOM     14  F   UNL     1       0.099 -11.638  -0.908  0.00  0.00    +0.000 F 
ATOM     15  C   UNL     1      -0.078  -9.302  -1.230  0.00  0.00    +0.000 A 
ATOM     16  F   UNL     1      -1.234  -9.459  -1.891  0.00  0.00    +0.000 F 
ATOM     17  C   UNL     1       0.431  -8.023  -1.038  0.00  0.00    +0.000 A 
ENDBRANCH   6  10
BRANCH   1  20
ATOM     18  C   UNL     1       2.113   0.071  -0.867  0.00  0.00    +0.000 C 
ATOM     19  C   UNL     1       0.778  -0.231  -0.318  0.00  0.00    +0.000 A 
ATOM     20  C   UNL     1       0.034  -1.367  -0.076  0.00  0.00    +0.000 A 
ATOM     21  C   UNL     1      -1.216  -0.870   0.427  0.00  0.00    +0.000 A 
ATOM     22  N   UNL     1      -1.204   0.472   0.451  0.00  0.00    +0.000 NA
ATOM     23  O   UNL     1       0.032   0.861  -0.009  0.00  0.00    +0.000 OA
BRANCH  21  24
ATOM     24  C   UNL     1      -2.393  -1.614   0.892  0.00  0.00    +0.000 A 
ATOM     25  C   UNL     1      -2.254  -2.824   1.592  0.00  0.00    +0.000 A 
ATOM     26  C   UNL     1      -3.376  -3.547   2.002  0.00  0.00    +0.000 A 
ATOM     27  C   UNL     1      -4.648  -3.051   1.732  0.00  0.00    +0.000 A 
ATOM     28  F   UNL     1      -5.721  -3.751   2.117  0.00  0.00    +0.000 F 
ATOM     29  C   UNL     1      -4.810  -1.843   1.068  0.00  0.00    +0.000 A 
ATOM     30  C   UNL     1      -3.687  -1.123   0.651  0.00  0.00    +0.000 A 
ENDBRANCH  21  24
ENDBRANCH   1  20
TORSDOF 3
