REMARK  Name = 
REMARK  10 active torsions:
REMARK  status: ('A' for Active; 'I' for Inactive)
REMARK    1  A    between atoms: N_3  and  C_4
REMARK    2  A    between atoms: C_4  and  C_5
REMARK    3  A    between atoms: C_8  and  C_9
REMARK    4  A    between atoms: C_9  and  O_10
REMARK    5  A    between atoms: O_10  and  C_11
REMARK    6  A    between atoms: N_19  and  C_20
REMARK    7  A    between atoms: C_20  and  C_21
REMARK    8  A    between atoms: N_25  and  C_26
REMARK    9  A    between atoms: C_26  and  C_27
REMARK   10  A    between atoms: C_27  and  C_28
REMARK                            x       y       z     vdW  Elec       q    Type
REMARK                         _______ _______ _______ _____ _____    ______ ____
ROOT
ATOM      1  O   UNL     1       2.980   0.136  -1.044  0.00  0.00    +0.000 OA
ATOM      2  C   UNL     1       2.415   0.033   0.035  0.00  0.00    +0.000 C 
ATOM      3  N   UNL     1       1.065  -0.155   0.173  0.00  0.00    +0.000 N 
ATOM      4  N   UNL     1       3.070   0.020   1.230  0.00  0.00    +0.000 N 
ATOM      5  H   UNL     1       0.642   0.083   1.056  0.00  0.00    +0.000 HD
ATOM      6  H   UNL     1       2.553   0.185   2.084  0.00  0.00    +0.000 HD
ENDROOT
BRANCH   3   7
ATOM      7  C   UNL     1       0.183  -0.209  -0.977  0.00  0.00    +0.000 C 
BRANCH   7   8
ATOM      8  C   UNL     1      -0.304   1.159  -1.311  0.00  0.00    +0.000 A 
ATOM      9  N   UNL     1      -1.444   1.635  -0.787  0.00  0.00    +0.000 NA
ATOM     10  O   UNL     1      -1.587   2.915  -1.301  0.00  0.00    +0.000 OA
ATOM     11  C   UNL     1      -0.533   3.198  -2.115  0.00  0.00    +0.000 A 
ATOM     12  C   UNL     1       0.304   2.110  -2.162  0.00  0.00    +0.000 A 
BRANCH  11  13
ATOM     13  C   UNL     1      -0.510   4.536  -2.748  0.00  0.00    +0.000 C 
BRANCH  13  14
ATOM     14  O   UNL     1      -1.205   4.392  -3.983  0.00  0.00    +0.000 OA
BRANCH  14  15
ATOM     15  C   UNL     1      -1.260   5.477  -4.813  0.00  0.00    +0.000 A 
ATOM     16  C   UNL     1      -1.980   5.251  -5.991  0.00  0.00    +0.000 A 
ATOM     17  C   UNL     1      -2.117   6.256  -6.951  0.00  0.00    +0.000 A 
ATOM     18  C   UNL     1      -1.531   7.503  -6.741  0.00  0.00    +0.000 A 
ATOM     19  C   UNL     1      -0.815   7.740  -5.568  0.00  0.00    +0.000 A 
ATOM     20  C   UNL     1      -0.684   6.732  -4.612  0.00  0.00    +0.000 A 
ATOM     21  F   UNL     1       0.011   7.013  -3.502  0.00  0.00    +0.000 F 
ENDBRANCH  14  15
ENDBRANCH  13  14
ENDBRANCH  11  13
ENDBRANCH   7   8
ENDBRANCH   3   7
BRANCH   4  22
ATOM     22  C   UNL     1       4.506   0.231   1.329  0.00  0.00    +0.000 C 
BRANCH  22  23
ATOM     23  C   UNL     1       4.870   0.223   2.786  0.00  0.00    +0.000 A 
ATOM     24  N   UNL     1       4.029   0.599   3.741  0.00  0.00    +0.000 NA
ATOM     25  C   UNL     1       4.724   0.528   4.912  0.00  0.00    +0.000 A 
ATOM     26  C   UNL     1       5.999   0.092   4.685  0.00  0.00    +0.000 A 
ATOM     27  N   UNL     1       6.093  -0.130   3.334  0.00  0.00    +0.000 N 
BRANCH  27  28
ATOM     28  C   UNL     1       7.293  -0.600   2.649  0.00  0.00    +0.000 C 
BRANCH  28  29
ATOM     29  C   UNL     1       8.197  -1.501   3.514  0.00  0.00    +0.000 C 
BRANCH  29  30
ATOM     30  C   UNL     1       9.445  -1.977   2.814  0.00  0.00    +0.000 A 
ATOM     31  C   UNL     1      10.651  -1.272   2.947  0.00  0.00    +0.000 A 
ATOM     32  C   UNL     1      11.815  -1.738   2.333  0.00  0.00    +0.000 A 
ATOM     33  C   UNL     1      11.784  -2.908   1.577  0.00  0.00    +0.000 A 
ATOM     34  C   UNL     1      10.591  -3.614   1.437  0.00  0.00    +0.000 A 
ATOM     35  C   UNL     1       9.426  -3.151   2.052  0.00  0.00    +0.000 A 
ENDBRANCH  29  30
ENDBRANCH  28  29
ENDBRANCH  27  28
ENDBRANCH  22  23
ENDBRANCH   4  22
TORSDOF 10
