REMARK  Name = 
REMARK  4 active torsions:
REMARK  status: ('A' for Active; 'I' for Inactive)
REMARK    1  A    between atoms: C_2  and  C_17
REMARK    2  A    between atoms: N_3  and  C_4
REMARK    3  A    between atoms: N_6  and  C_7
REMARK    4  A    between atoms: C_20  and  C_21
REMARK                            x       y       z     vdW  Elec       q    Type
REMARK                         _______ _______ _______ _____ _____    ______ ____
ROOT
ATOM      1  O   UNL     1       2.133  -1.088  -0.566  0.00  0.00    +0.000 OA
ATOM      2  C   UNL     1       3.122  -0.571  -0.056  0.00  0.00    +0.000 C 
ATOM      3  N   UNL     1       3.309  -0.460   1.305  0.00  0.00    +0.000 N 
ATOM      4  H   UNL     1       4.196  -0.028   1.562  0.00  0.00    +0.000 HD
ENDROOT
BRANCH   2   5
ATOM      5  C   UNL     1       4.231  -0.082  -0.917  0.00  0.00    +0.000 A 
ATOM      6  N   UNL     1       5.446   0.383  -0.526  0.00  0.00    +0.000 NA
ATOM      7  N   UNL     1       6.194   0.338  -1.690  0.00  0.00    +0.000 N 
ATOM      8  C   UNL     1       7.462   0.815  -2.045  0.00  0.00    +0.000 A 
ATOM      9  C   UNL     1       8.078   0.294  -3.131  0.00  0.00    +0.000 A 
ATOM     10  C   UNL     1       7.332  -0.754  -3.867  0.00  0.00    +0.000 A 
ATOM     11  N   UNL     1       6.072  -1.009  -3.710  0.00  0.00    +0.000 NA
ATOM     12  C   UNL     1       5.478  -0.370  -2.664  0.00  0.00    +0.000 A 
ATOM     13  C   UNL     1       4.168  -0.169  -2.327  0.00  0.00    +0.000 A 
BRANCH   8  14
ATOM     14  C   UNL     1       7.977   2.056  -1.427  0.00  0.00    +0.000 C 
ATOM     15  F   UNL     1       7.084   2.733  -0.670  0.00  0.00    +0.000 F 
ATOM     16  F   UNL     1       9.082   1.840  -0.671  0.00  0.00    +0.000 F 
ATOM     17  F   UNL     1       8.364   2.929  -2.406  0.00  0.00    +0.000 F 
ENDBRANCH   8  14
ENDBRANCH   2   5
BRANCH   3  18
ATOM     18  C   UNL     1       2.445  -0.839   2.339  0.00  0.00    +0.000 A 
ATOM     19  C   UNL     1       1.255  -1.480   2.200  0.00  0.00    +0.000 A 
ATOM     20  N   UNL     1       0.466  -1.835   3.304  0.00  0.00    +0.000 N 
ATOM     21  C   UNL     1       0.861  -1.511   4.616  0.00  0.00    +0.000 A 
ATOM     22  O   UNL     1       0.238  -1.719   5.656  0.00  0.00    +0.000 OA
ATOM     23  C   UNL     1       2.151  -0.783   4.742  0.00  0.00    +0.000 A 
ATOM     24  C   UNL     1       2.884  -0.499   3.661  0.00  0.00    +0.000 A 
BRANCH  20  25
ATOM     25  C   UNL     1      -0.811  -2.481   3.145  0.00  0.00    +0.000 A 
ATOM     26  C   UNL     1      -1.743  -1.998   2.216  0.00  0.00    +0.000 A 
ATOM     27  C   UNL     1      -3.030  -2.548   2.144  0.00  0.00    +0.000 A 
ATOM     28  C   UNL     1      -3.386  -3.616   2.966  0.00  0.00    +0.000 A 
ATOM     29  C   UNL     1      -2.460  -4.131   3.868  0.00  0.00    +0.000 A 
ATOM     30  C   UNL     1      -1.187  -3.560   3.966  0.00  0.00    +0.000 A 
ENDBRANCH  20  25
ENDBRANCH   3  18
TORSDOF 4
