REMARK  Name = 
REMARK  7 active torsions:
REMARK  status: ('A' for Active; 'I' for Inactive)
REMARK    1  A    between atoms: C_1  and  C_2
REMARK    2  A    between atoms: C_2  and  C_3
REMARK    3  A    between atoms: C_4  and  C_5
REMARK    4  A    between atoms: N_7  and  C_8
REMARK    5  A    between atoms: N_12  and  C_13
REMARK    6  A    between atoms: C_22  and  C_23
REMARK    7  A    between atoms: C_23  and  C_24
REMARK                            x       y       z     vdW  Elec       q    Type
REMARK                         _______ _______ _______ _____ _____    ______ ____
ROOT
ATOM      1  C   UNL     1       4.872  -0.436   2.179  0.00  0.00    +0.000 C 
ATOM      2  O   UNL     1       4.424   0.667   2.467  0.00  0.00    +0.000 OA
ATOM      3  N   UNL     1       6.181  -0.839   2.400  0.00  0.00    +0.000 N 
ATOM      4  H   UNL     1       6.486  -1.642   1.862  0.00  0.00    +0.000 HD
ENDROOT
BRANCH   3   5
ATOM      5  C   UNL     1       7.135  -0.116   3.081  0.00  0.00    +0.000 A 
ATOM      6  C   UNL     1       6.894   0.815   4.003  0.00  0.00    +0.000 A 
ATOM      7  C   UNL     1       7.978   1.573   4.657  0.00  0.00    +0.000 A 
ATOM      8  O   UNL     1       7.635   2.401   5.500  0.00  0.00    +0.000 OA
ATOM      9  N   UNL     1       9.277   1.303   4.210  0.00  0.00    +0.000 N 
ATOM     10  N   UNL     1       9.564   0.315   3.280  0.00  0.00    +0.000 NA
ATOM     11  C   UNL     1       8.566  -0.353   2.800  0.00  0.00    +0.000 A 
BRANCH   9  12
ATOM     12  C   UNL     1      10.421   2.038   4.669  0.00  0.00    +0.000 A 
ATOM     13  C   UNL     1      10.426   2.704   5.904  0.00  0.00    +0.000 A 
ATOM     14  C   UNL     1      11.517   3.474   6.313  0.00  0.00    +0.000 A 
ATOM     15  C   UNL     1      12.630   3.599   5.489  0.00  0.00    +0.000 A 
ATOM     16  C   UNL     1      12.661   2.928   4.269  0.00  0.00    +0.000 A 
ATOM     17  C   UNL     1      11.573   2.139   3.871  0.00  0.00    +0.000 A 
ENDBRANCH   9  12
ENDBRANCH   3   5
BRANCH   1  19
ATOM     18  C   UNL     1       3.058  -1.220   0.567  0.00  0.00    +0.000 A 
ATOM     19  C   UNL     1       4.068  -1.448   1.498  0.00  0.00    +0.000 A 
ATOM     20  C   UNL     1       4.128  -2.862   1.684  0.00  0.00    +0.000 A 
ATOM     21  C   UNL     1       3.171  -3.446   0.882  0.00  0.00    +0.000 A 
ATOM     22  N   UNL     1       2.552  -2.441   0.187  0.00  0.00    +0.000 N 
ATOM     23  H   UNL     1       1.816  -2.573  -0.495  0.00  0.00    +0.000 HD
BRANCH  18  25
ATOM     24  C   UNL     1       3.207   0.421  -1.324  0.00  0.00    +0.000 C 
ATOM     25  C   UNL     1       2.505   0.040  -0.029  0.00  0.00    +0.000 C 
ENDBRANCH  18  25
BRANCH  21  26
ATOM     26  C   UNL     1       2.784  -4.879   0.714  0.00  0.00    +0.000 C 
BRANCH  26  27
ATOM     27  C   UNL     1       3.599  -5.563  -0.354  0.00  0.00    +0.000 A 
ATOM     28  C   UNL     1       4.820  -6.172  -0.034  0.00  0.00    +0.000 A 
ATOM     29  C   UNL     1       5.605  -6.750  -1.032  0.00  0.00    +0.000 A 
ATOM     30  C   UNL     1       5.178  -6.721  -2.358  0.00  0.00    +0.000 A 
ATOM     31  C   UNL     1       3.961  -6.126  -2.687  0.00  0.00    +0.000 A 
ATOM     32  C   UNL     1       3.175  -5.546  -1.691  0.00  0.00    +0.000 A 
ENDBRANCH  26  27
ENDBRANCH  21  26
ENDBRANCH   1  19
TORSDOF 6
