REMARK  Name = 
REMARK  8 active torsions:
REMARK  status: ('A' for Active; 'I' for Inactive)
REMARK    1  A    between atoms: C_1  and  N_2
REMARK    2  A    between atoms: N_2  and  C_3
REMARK    3  A    between atoms: C_4  and  C_6
REMARK    4  A    between atoms: C_8  and  O_9
REMARK    5  A    between atoms: O_9  and  C_10
REMARK    6  A    between atoms: C_13  and  N_14
REMARK    7  A    between atoms: C_15  and  C_17
REMARK    8  A    between atoms: C_21  and  C_22
REMARK                            x       y       z     vdW  Elec       q    Type
REMARK                         _______ _______ _______ _____ _____    ______ ____
ROOT
ATOM      1  C   UNL     1       6.876   2.799   0.653  0.00  0.00    +0.000 A 
ATOM      2  C   UNL     1       6.117   3.130   1.770  0.00  0.00    +0.000 A 
ATOM      3  C   UNL     1       5.437   4.352   1.817  0.00  0.00    +0.000 A 
ATOM      4  C   UNL     1       5.506   5.259   0.753  0.00  0.00    +0.000 A 
ATOM      5  C   UNL     1       6.330   4.947  -0.333  0.00  0.00    +0.000 A 
ATOM      6  C   UNL     1       7.032   3.738  -0.368  0.00  0.00    +0.000 A 
ENDROOT
BRANCH   4   7
ATOM      7  N   UNL     1       4.785   6.479   0.704  0.00  0.00    +0.000 N 
ATOM      8  C   UNL     1       3.909   6.935   1.671  0.00  0.00    +0.000 C 
ATOM      9  O   UNL     1       3.639   6.366   2.725  0.00  0.00    +0.000 OA
ATOM     10  H   UNL     1       4.953   7.057  -0.108  0.00  0.00    +0.000 HD
BRANCH   8  11
ATOM     11  C   UNL     1       3.242   8.242   1.435  0.00  0.00    +0.000 A 
ATOM     12  C   UNL     1       2.926   8.734   0.173  0.00  0.00    +0.000 A 
ATOM     13  C   UNL     1       2.229   9.930   0.110  0.00  0.00    +0.000 A 
ATOM     14  N   UNL     1       1.855  10.650   1.191  0.00  0.00    +0.000 NA
ATOM     15  C   UNL     1       2.174  10.153   2.413  0.00  0.00    +0.000 A 
ATOM     16  C   UNL     1       2.856   8.961   2.570  0.00  0.00    +0.000 A 
BRANCH  15  17
ATOM     17  C   UNL     1       1.770  10.942   3.586  0.00  0.00    +0.000 A 
ATOM     18  N   UNL     1       2.023  10.544   4.848  0.00  0.00    +0.000 NA
ATOM     19  N   UNL     1       1.514  11.515   5.621  0.00  0.00    +0.000 N 
ATOM     20  C   UNL     1       0.949  12.533   4.915  0.00  0.00    +0.000 A 
ATOM     21  C   UNL     1       1.089  12.189   3.592  0.00  0.00    +0.000 A 
ATOM     22  H   UNL     1       1.595  11.417   6.628  0.00  0.00    +0.000 HD
ENDBRANCH  15  17
ENDBRANCH   8  11
ENDBRANCH   4   7
BRANCH   1  23
ATOM     23  O   UNL     1       7.450   1.546   0.655  0.00  0.00    +0.000 OA
BRANCH  23  26
ATOM     24  C   UNL     1       7.105   0.371  -2.808  0.00  0.00    +0.000 A 
ATOM     25  C   UNL     1       6.752   0.987  -1.619  0.00  0.00    +0.000 A 
ATOM     26  C   UNL     1       7.637   0.901  -0.547  0.00  0.00    +0.000 A 
ATOM     27  C   UNL     1       8.776   0.112  -0.655  0.00  0.00    +0.000 A 
ATOM     28  C   UNL     1       9.031  -0.496  -1.870  0.00  0.00    +0.000 A 
ATOM     29  N   UNL     1       8.238  -0.367  -2.955  0.00  0.00    +0.000 NA
BRANCH  24  33
ATOM     30  C   UNL     1       5.358  -0.040  -6.188  0.00  0.00    +0.000 C 
ATOM     31  N   UNL     1       6.145  -0.362  -5.013  0.00  0.00    +0.000 N 
ATOM     32  C   UNL     1       6.699  -1.701  -4.900  0.00  0.00    +0.000 C 
ATOM     33  C   UNL     1       6.244   0.609  -4.012  0.00  0.00    +0.000 C 
ATOM     34  O   UNL     1       5.627   1.677  -4.083  0.00  0.00    +0.000 OA
ENDBRANCH  24  33
ENDBRANCH  23  26
ENDBRANCH   1  23
TORSDOF 6
