REMARK  Name = 
REMARK  6 active torsions:
REMARK  status: ('A' for Active; 'I' for Inactive)
REMARK    1  A    between atoms: C_1  and  C_2
REMARK    2  A    between atoms: N_6  and  C_7
REMARK    3  A    between atoms: C_7  and  C_8
REMARK    4  A    between atoms: C_14  and  N_15
REMARK    5  A    between atoms: C_16  and  C_18
REMARK    6  A    between atoms: C_20  and  N_21
REMARK                            x       y       z     vdW  Elec       q    Type
REMARK                         _______ _______ _______ _____ _____    ______ ____
ROOT
ATOM      1  N   UNL     1       5.401  -4.106   1.714  0.00  0.00    +0.000 N 
ATOM      2  C   UNL     1       5.566  -4.861   2.882  0.00  0.00    +0.000 C 
ATOM      3  O   UNL     1       5.048  -5.943   3.118  0.00  0.00    +0.000 OA
ATOM      4  H   UNL     1       5.963  -3.255   1.695  0.00  0.00    +0.000 HD
ENDROOT
BRANCH   2   5
ATOM      5  C   UNL     1       6.473  -4.226   3.904  0.00  0.00    +0.000 A 
ATOM      6  N   UNL     1       6.631  -2.877   3.734  0.00  0.00    +0.000 NA
ATOM      7  C   UNL     1       7.442  -2.252   4.589  0.00  0.00    +0.000 A 
ATOM      8  C   UNL     1       8.094  -2.891   5.629  0.00  0.00    +0.000 A 
ATOM      9  C   UNL     1       8.086  -4.279   5.667  0.00  0.00    +0.000 A 
ATOM     10  C   UNL     1       9.049  -4.943   6.434  0.00  0.00    +0.000 A 
ATOM     11  C   UNL     1       9.116  -6.334   6.439  0.00  0.00    +0.000 A 
ATOM     12  C   UNL     1       8.131  -7.068   5.795  0.00  0.00    +0.000 A 
ATOM     13  C   UNL     1       7.164  -6.412   5.030  0.00  0.00    +0.000 A 
ATOM     14  C   UNL     1       7.191  -5.002   4.855  0.00  0.00    +0.000 A 
BRANCH   7  15
ATOM     15  N   UNL     1       7.718  -0.903   4.356  0.00  0.00    +0.000 N 
ATOM     16  H   UNL     1       8.726  -0.775   4.298  0.00  0.00    +0.000 HD
ATOM     17  H   UNL     1       7.280  -0.663   3.470  0.00  0.00    +0.000 HD
ENDBRANCH   7  15
ENDBRANCH   2   5
BRANCH   1  24
ATOM     18  C   UNL     1       4.487  -3.546  -0.514  0.00  0.00    +0.000 A 
ATOM     19  C   UNL     1       3.575  -3.882  -1.542  0.00  0.00    +0.000 A 
ATOM     20  F   UNL     1       3.408  -3.041  -2.582  0.00  0.00    +0.000 F 
ATOM     21  C   UNL     1       2.795  -5.018  -1.502  0.00  0.00    +0.000 A 
ATOM     22  C   UNL     1       2.886  -5.877  -0.426  0.00  0.00    +0.000 A 
ATOM     23  C   UNL     1       3.767  -5.568   0.612  0.00  0.00    +0.000 A 
ATOM     24  C   UNL     1       4.570  -4.411   0.598  0.00  0.00    +0.000 A 
BRANCH  18  25
ATOM     25  C   UNL     1       5.221  -2.231  -0.659  0.00  0.00    +0.000 C 
BRANCH  25  31
ATOM     26  C   UNL     1      10.178  -1.722  -1.028  0.00  0.00    +0.000 C 
ATOM     27  C   UNL     1       8.863  -1.906  -1.718  0.00  0.00    +0.000 A 
ATOM     28  C   UNL     1       8.697  -1.734  -3.041  0.00  0.00    +0.000 A 
ATOM     29  C   UNL     1       7.394  -1.864  -3.636  0.00  0.00    +0.000 A 
ATOM     30  C   UNL     1       6.325  -2.082  -2.869  0.00  0.00    +0.000 A 
ATOM     31  N   UNL     1       6.432  -2.234  -1.494  0.00  0.00    +0.000 N 
ATOM     32  C   UNL     1       7.671  -2.216  -0.852  0.00  0.00    +0.000 A 
ATOM     33  O   UNL     1       7.809  -2.374   0.362  0.00  0.00    +0.000 OA
ENDBRANCH  25  31
ENDBRANCH  18  25
ENDBRANCH   1  24
TORSDOF 5
