REMARK  Name = 
REMARK  4 active torsions:
REMARK  status: ('A' for Active; 'I' for Inactive)
REMARK    1  A    between atoms: C_2  and  C_16
REMARK    2  A    between atoms: N_3  and  C_4
REMARK    3  A    between atoms: C_9  and  C_10
REMARK    4  A    between atoms: N_18  and  C_19
REMARK                            x       y       z     vdW  Elec       q    Type
REMARK                         _______ _______ _______ _____ _____    ______ ____
ROOT
ATOM      1  O   UNL     1       0.992  -0.132   0.017  0.00  0.00    +0.000 OA
ATOM      2  C   UNL     1       2.207   0.022   0.029  0.00  0.00    +0.000 C 
ATOM      3  N   UNL     1       2.918   1.016   0.689  0.00  0.00    +0.000 N 
ATOM      4  H   UNL     1       3.923   1.046   0.538  0.00  0.00    +0.000 HD
ENDROOT
BRANCH   3   5
ATOM      5  C   UNL     1       2.333   2.018   1.505  0.00  0.00    +0.000 A 
ATOM      6  C   UNL     1       0.955   2.095   1.734  0.00  0.00    +0.000 A 
ATOM      7  C   UNL     1       0.405   3.101   2.523  0.00  0.00    +0.000 A 
ATOM      8  C   UNL     1       1.230   4.055   3.091  0.00  0.00    +0.000 A 
ATOM      9  F   UNL     1       0.647   5.018   3.819  0.00  0.00    +0.000 F 
ATOM     10  C   UNL     1       2.613   4.012   2.892  0.00  0.00    +0.000 A 
ATOM     11  C   UNL     1       3.161   2.977   2.101  0.00  0.00    +0.000 A 
BRANCH  10  12
ATOM     12  C   UNL     1       3.466   5.041   3.469  0.00  0.00    +0.000 A 
ATOM     13  N   UNL     1       4.800   5.087   3.301  0.00  0.00    +0.000 NA
ATOM     14  N   UNL     1       5.122   6.214   3.948  0.00  0.00    +0.000 N 
ATOM     15  C   UNL     1       4.033   6.799   4.499  0.00  0.00    +0.000 A 
ATOM     16  N   UNL     1       2.973   6.088   4.212  0.00  0.00    +0.000 NA
ATOM     17  H   UNL     1       6.087   6.522   3.963  0.00  0.00    +0.000 HD
ENDBRANCH  10  12
ENDBRANCH   3   5
BRANCH   2  18
ATOM     18  C   UNL     1       3.004  -0.946  -0.811  0.00  0.00    +0.000 A 
ATOM     19  N   UNL     1       4.109  -0.522  -1.372  0.00  0.00    +0.000 NA
ATOM     20  N   UNL     1       4.727  -1.387  -2.253  0.00  0.00    +0.000 N 
ATOM     21  C   UNL     1       4.130  -2.565  -2.679  0.00  0.00    +0.000 A 
ATOM     22  C   UNL     1       3.036  -3.109  -2.152  0.00  0.00    +0.000 A 
ATOM     23  C   UNL     1       2.461  -2.345  -1.046  0.00  0.00    +0.000 A 
ATOM     24  O   UNL     1       1.591  -2.838  -0.347  0.00  0.00    +0.000 OA
BRANCH  20  25
ATOM     25  C   UNL     1       5.960  -0.950  -2.827  0.00  0.00    +0.000 A 
ATOM     26  C   UNL     1       6.274   0.417  -2.925  0.00  0.00    +0.000 A 
ATOM     27  C   UNL     1       7.448   0.838  -3.561  0.00  0.00    +0.000 A 
ATOM     28  C   UNL     1       8.337  -0.097  -4.092  0.00  0.00    +0.000 A 
ATOM     29  C   UNL     1       8.064  -1.452  -3.980  0.00  0.00    +0.000 A 
ATOM     30  C   UNL     1       6.896  -1.866  -3.353  0.00  0.00    +0.000 A 
ATOM     31  F   UNL     1       6.698  -3.190  -3.261  0.00  0.00    +0.000 F 
ENDBRANCH  20  25
ENDBRANCH   2  18
TORSDOF 4
