REMARK  Name = 
REMARK  7 active torsions:
REMARK  status: ('A' for Active; 'I' for Inactive)
REMARK    1  A    between atoms: C_2  and  C_3
REMARK    2  A    between atoms: C_3  and  C_4
REMARK    3  A    between atoms: C_7  and  O_8
REMARK    4  A    between atoms: O_8  and  C_9
REMARK    5  A    between atoms: C_9  and  C_10
REMARK    6  A    between atoms: C_12  and  N_13
REMARK    7  A    between atoms: C_14  and  C_16
REMARK                            x       y       z     vdW  Elec       q    Type
REMARK                         _______ _______ _______ _____ _____    ______ ____
ROOT
ATOM      1  C   UNL     1       5.369   4.669  -6.218  0.00  0.00    +0.000 A 
ATOM      2  C   UNL     1       5.089   6.022  -6.446  0.00  0.00    +0.000 A 
ATOM      3  C   UNL     1       5.485   6.670  -7.620  0.00  0.00    +0.000 A 
ATOM      4  C   UNL     1       6.101   5.914  -8.622  0.00  0.00    +0.000 A 
ATOM      5  C   UNL     1       6.355   4.551  -8.421  0.00  0.00    +0.000 A 
ATOM      6  C   UNL     1       5.996   3.930  -7.223  0.00  0.00    +0.000 A 
ENDROOT
BRANCH   3   7
ATOM      7  N   UNL     1       5.298   8.062  -7.819  0.00  0.00    +0.000 N 
ATOM      8  C   UNL     1       5.074   8.958  -6.791  0.00  0.00    +0.000 C 
ATOM      9  O   UNL     1       5.093   8.683  -5.591  0.00  0.00    +0.000 OA
ATOM     10  H   UNL     1       5.518   8.428  -8.734  0.00  0.00    +0.000 HD
BRANCH   8  11
ATOM     11  C   UNL     1       4.830  10.383  -7.196  0.00  0.00    +0.000 A 
ATOM     12  C   UNL     1       5.040  11.305  -6.240  0.00  0.00    +0.000 A 
ATOM     13  C   UNL     1       4.681  12.645  -6.488  0.00  0.00    +0.000 A 
ATOM     14  C   UNL     1       4.691  13.783  -5.713  0.00  0.00    +0.000 A 
ATOM     15  C   UNL     1       4.122  14.820  -6.486  0.00  0.00    +0.000 A 
ATOM     16  C   UNL     1       3.809  14.288  -7.720  0.00  0.00    +0.000 A 
ATOM     17  N   UNL     1       4.143  12.946  -7.729  0.00  0.00    +0.000 N 
ATOM     18  C   UNL     1       3.949  12.018  -8.774  0.00  0.00    +0.000 A 
ATOM     19  O   UNL     1       3.471  12.364  -9.847  0.00  0.00    +0.000 OA
ATOM     20  N   UNL     1       4.323  10.735  -8.428  0.00  0.00    +0.000 N 
ATOM     21  H   UNL     1       4.096  10.023  -9.109  0.00  0.00    +0.000 HD
ENDBRANCH   8  11
ENDBRANCH   3   7
BRANCH   1  22
ATOM     22  C   UNL     1       5.027   4.067  -4.879  0.00  0.00    +0.000 C 
BRANCH  22  23
ATOM     23  O   UNL     1       3.703   3.538  -4.894  0.00  0.00    +0.000 OA
BRANCH  23  27
ATOM     24  C   UNL     1       2.058   2.100  -1.322  0.00  0.00    +0.000 A 
ATOM     25  C   UNL     1       3.377   2.567  -1.321  0.00  0.00    +0.000 A 
ATOM     26  C   UNL     1       3.962   3.046  -2.495  0.00  0.00    +0.000 A 
ATOM     27  C   UNL     1       3.240   3.071  -3.690  0.00  0.00    +0.000 A 
ATOM     28  C   UNL     1       1.927   2.595  -3.697  0.00  0.00    +0.000 A 
ATOM     29  C   UNL     1       1.337   2.113  -2.524  0.00  0.00    +0.000 A 
BRANCH  24  30
ATOM     30  C   UNL     1       1.412   1.654  -0.032  0.00  0.00    +0.000 C 
BRANCH  30  32
ATOM     31  N   UNL     1       0.214   3.628   1.231  0.00  0.00    +0.000 NA
ATOM     32  C   UNL     1       0.743   2.763   0.666  0.00  0.00    +0.000 C 
ENDBRANCH  30  32
ENDBRANCH  24  30
ENDBRANCH  23  27
ENDBRANCH  22  23
ENDBRANCH   1  22
TORSDOF 7
