REMARK  Name = 
REMARK  6 active torsions:
REMARK  status: ('A' for Active; 'I' for Inactive)
REMARK    1  A    between atoms: C_2  and  C_14
REMARK    2  A    between atoms: N_3  and  C_4
REMARK    3  A    between atoms: C_4  and  C_5
REMARK    4  A    between atoms: C_9  and  O_10
REMARK    5  A    between atoms: C_17  and  N_18
REMARK    6  A    between atoms: C_19  and  C_21
REMARK                            x       y       z     vdW  Elec       q    Type
REMARK                         _______ _______ _______ _____ _____    ______ ____
ROOT
ATOM      1  C   UNL     1       2.995  -0.997  -0.533  0.00  0.00    +0.000 A 
ATOM      2  C   UNL     1       2.490  -1.476  -1.741  0.00  0.00    +0.000 A 
ATOM      3  C   UNL     1       3.145  -2.503  -2.422  0.00  0.00    +0.000 A 
ATOM      4  C   UNL     1       4.310  -3.084  -1.914  0.00  0.00    +0.000 A 
ATOM      5  C   UNL     1       4.807  -2.611  -0.690  0.00  0.00    +0.000 A 
ATOM      6  C   UNL     1       4.154  -1.573  -0.002  0.00  0.00    +0.000 A 
ENDROOT
BRANCH   1   8
ATOM      7  O   UNL     1       1.024   0.182  -0.018  0.00  0.00    +0.000 OA
ATOM      8  C   UNL     1       2.238   0.092   0.137  0.00  0.00    +0.000 C 
ATOM      9  N   UNL     1       2.970   1.001   0.869  0.00  0.00    +0.000 N 
ATOM     10  H   UNL     1       3.977   1.006   0.791  0.00  0.00    +0.000 HD
BRANCH   9  11
ATOM     11  C   UNL     1       2.301   2.162   1.415  0.00  0.00    +0.000 C 
BRANCH  11  12
ATOM     12  C   UNL     1       3.236   3.054   2.167  0.00  0.00    +0.000 A 
ATOM     13  C   UNL     1       3.853   4.144   1.551  0.00  0.00    +0.000 A 
ATOM     14  F   UNL     1       3.603   4.411   0.261  0.00  0.00    +0.000 F 
ATOM     15  C   UNL     1       4.733   4.975   2.242  0.00  0.00    +0.000 A 
ATOM     16  C   UNL     1       5.005   4.705   3.578  0.00  0.00    +0.000 A 
ATOM     17  C   UNL     1       4.409   3.627   4.218  0.00  0.00    +0.000 A 
ATOM     18  C   UNL     1       3.533   2.811   3.509  0.00  0.00    +0.000 A 
ATOM     19  F   UNL     1       2.969   1.770   4.138  0.00  0.00    +0.000 F 
BRANCH  16  20
ATOM     20  O   UNL     1       5.861   5.479   4.302  0.00  0.00    +0.000 OA
ATOM     21  H   UNL     1       6.200   6.197   3.742  0.00  0.00    +0.000 HD
ENDBRANCH  16  20
ENDBRANCH  11  12
ENDBRANCH   9  11
ENDBRANCH   1   8
BRANCH   4  22
ATOM     22  N   UNL     1       5.005  -4.131  -2.576  0.00  0.00    +0.000 N 
ATOM     23  C   UNL     1       4.651  -4.690  -3.795  0.00  0.00    +0.000 C 
ATOM     24  O   UNL     1       3.700  -4.347  -4.494  0.00  0.00    +0.000 OA
ATOM     25  H   UNL     1       5.855  -4.454  -2.132  0.00  0.00    +0.000 HD
BRANCH  23  26
ATOM     26  C   UNL     1       5.497  -5.793  -4.333  0.00  0.00    +0.000 A 
ATOM     27  C   UNL     1       6.245  -6.660  -3.531  0.00  0.00    +0.000 A 
ATOM     28  C   UNL     1       6.942  -7.723  -4.119  0.00  0.00    +0.000 A 
ATOM     29  C   UNL     1       6.891  -7.926  -5.500  0.00  0.00    +0.000 A 
ATOM     30  C   UNL     1       6.150  -7.066  -6.304  0.00  0.00    +0.000 A 
ATOM     31  C   UNL     1       5.458  -6.006  -5.723  0.00  0.00    +0.000 A 
ENDBRANCH  23  26
ENDBRANCH   4  22
TORSDOF 6
