REMARK  Name = 
REMARK  5 active torsions:
REMARK  status: ('A' for Active; 'I' for Inactive)
REMARK    1  A    between atoms: N_6  and  C_7
REMARK    2  A    between atoms: C_10  and  C_11
REMARK    3  A    between atoms: C_13  and  O_14
REMARK    4  A    between atoms: O_14  and  C_15
REMARK    5  A    between atoms: C_15  and  C_16
REMARK                            x       y       z     vdW  Elec       q    Type
REMARK                         _______ _______ _______ _____ _____    ______ ____
ROOT
ATOM      1  C   UNL     1       1.280  -6.412  -0.138  0.00  0.00    +0.000 A 
ATOM      2  C   UNL     1       0.518  -6.880   0.949  0.00  0.00    +0.000 A 
ATOM      3  C   UNL     1       0.087  -8.206   1.038  0.00  0.00    +0.000 A 
ATOM      4  C   UNL     1       0.371  -9.091   0.003  0.00  0.00    +0.000 A 
ATOM      5  C   UNL     1       1.126  -8.661  -1.086  0.00  0.00    +0.000 A 
ATOM      6  C   UNL     1       1.576  -7.341  -1.145  0.00  0.00    +0.000 A 
ATOM      7  F   UNL     1       2.298  -6.979  -2.216  0.00  0.00    +0.000 F 
ENDROOT
BRANCH   1  11
ATOM      8  C   UNL     1       2.641  -2.352  -0.205  0.00  0.00    +0.000 A 
ATOM      9  C   UNL     1       1.435  -2.660   0.415  0.00  0.00    +0.000 A 
ATOM     10  C   UNL     1       0.980  -3.979   0.420  0.00  0.00    +0.000 A 
ATOM     11  C   UNL     1       1.730  -5.006  -0.166  0.00  0.00    +0.000 A 
ATOM     12  C   UNL     1       2.931  -4.601  -0.738  0.00  0.00    +0.000 A 
ATOM     13  N   UNL     1       3.385  -3.323  -0.769  0.00  0.00    +0.000 NA
BRANCH   8  19
ATOM     14  O   UNL     1       5.107  -1.220  -1.585  0.00  0.00    +0.000 OA
ATOM     15  C   UNL     1       4.266  -0.604  -0.955  0.00  0.00    +0.000 A 
ATOM     16  N   UNL     1       4.295   0.797  -0.780  0.00  0.00    +0.000 N 
ATOM     17  C   UNL     1       3.220   1.198  -0.042  0.00  0.00    +0.000 A 
ATOM     18  C   UNL     1       2.492   0.122   0.273  0.00  0.00    +0.000 A 
ATOM     19  N   UNL     1       3.084  -1.014  -0.262  0.00  0.00    +0.000 N 
ATOM     20  H   UNL     1       5.021   1.374  -1.173  0.00  0.00    +0.000 HD
ENDBRANCH   8  19
ENDBRANCH   1  11
BRANCH   3  21
ATOM     21  O   UNL     1      -0.609  -8.716   2.100  0.00  0.00    +0.000 OA
BRANCH  21  22
ATOM     22  C   UNL     1      -0.480  -7.974   3.317  0.00  0.00    +0.000 C 
BRANCH  22  23
ATOM     23  C   UNL     1      -0.809  -8.857   4.489  0.00  0.00    +0.000 A 
ATOM     24  C   UNL     1      -0.107 -10.056   4.674  0.00  0.00    +0.000 A 
ATOM     25  C   UNL     1      -0.355 -10.853   5.789  0.00  0.00    +0.000 A 
ATOM     26  C   UNL     1      -1.303 -10.455   6.730  0.00  0.00    +0.000 A 
ATOM     27  C   UNL     1      -2.002  -9.261   6.558  0.00  0.00    +0.000 A 
ATOM     28  C   UNL     1      -1.756  -8.462   5.442  0.00  0.00    +0.000 A 
ENDBRANCH  22  23
ENDBRANCH  21  22
ENDBRANCH   3  21
TORSDOF 5
