REMARK  Name = 
REMARK  7 active torsions:
REMARK  status: ('A' for Active; 'I' for Inactive)
REMARK    1  A    between atoms: C_1  and  N_2
REMARK    2  A    between atoms: N_2  and  C_3
REMARK    3  A    between atoms: C_3  and  C_4
REMARK    4  A    between atoms: C_7  and  C_8
REMARK    5  A    between atoms: C_15  and  C_17
REMARK    6  A    between atoms: C_22  and  O_23
REMARK    7  A    between atoms: O_23  and  C_24
REMARK                            x       y       z     vdW  Elec       q    Type
REMARK                         _______ _______ _______ _____ _____    ______ ____
ROOT
ATOM      1  C   UNL     1       1.011  -0.228   0.084  0.00  0.00    +0.000 C 
ATOM      2  N   UNL     1       2.458  -0.162   0.216  0.00  0.00    +0.000 N 
ATOM      3  C   UNL     1       3.191  -1.075  -0.571  0.00  0.00    +0.000 C 
ATOM      4  O   UNL     1       2.625  -1.930  -1.254  0.00  0.00    +0.000 OA
ENDROOT
BRANCH   3   5
ATOM      5  C   UNL     1       4.679  -1.061  -0.611  0.00  0.00    +0.000 A 
ATOM      6  C   UNL     1       5.363  -1.019   0.610  0.00  0.00    +0.000 A 
ATOM      7  C   UNL     1       6.745  -0.961   0.619  0.00  0.00    +0.000 A 
ATOM      8  N   UNL     1       7.496  -1.019  -0.493  0.00  0.00    +0.000 NA
ATOM      9  C   UNL     1       6.824  -1.181  -1.657  0.00  0.00    +0.000 A 
ATOM     10  C   UNL     1       5.434  -1.202  -1.788  0.00  0.00    +0.000 A 
BRANCH  10  11
ATOM     11  O   UNL     1       5.028  -1.541  -3.055  0.00  0.00    +0.000 OA
BRANCH  11  12
ATOM     12  C   UNL     1       3.977  -0.937  -3.691  0.00  0.00    +0.000 A 
ATOM     13  C   UNL     1       3.499   0.339  -3.414  0.00  0.00    +0.000 A 
ATOM     14  C   UNL     1       2.359   0.812  -4.068  0.00  0.00    +0.000 A 
ATOM     15  C   UNL     1       1.748   0.028  -5.040  0.00  0.00    +0.000 A 
ATOM     16  F   UNL     1       0.640   0.474  -5.647  0.00  0.00    +0.000 F 
ATOM     17  C   UNL     1       2.270  -1.210  -5.392  0.00  0.00    +0.000 A 
ATOM     18  C   UNL     1       3.391  -1.692  -4.715  0.00  0.00    +0.000 A 
ENDBRANCH  11  12
ENDBRANCH  10  11
ENDBRANCH   3   5
BRANCH   2  19
ATOM     19  C   UNL     1       2.961   0.862   1.157  0.00  0.00    +0.000 C 
BRANCH  19  20
ATOM     20  C   UNL     1       3.924   1.839   0.574  0.00  0.00    +0.000 A 
ATOM     21  N   UNL     1       5.010   2.255   1.242  0.00  0.00    +0.000 NA
ATOM     22  N   UNL     1       5.592   3.055   0.332  0.00  0.00    +0.000 N 
ATOM     23  C   UNL     1       4.877   3.100  -0.834  0.00  0.00    +0.000 A 
ATOM     24  N   UNL     1       3.780   2.385  -0.671  0.00  0.00    +0.000 NA
ATOM     25  H   UNL     1       6.459   3.525   0.562  0.00  0.00    +0.000 HD
BRANCH  23  26
ATOM     26  C   UNL     1       5.287   3.808  -2.040  0.00  0.00    +0.000 A 
ATOM     27  C   UNL     1       6.636   4.055  -2.332  0.00  0.00    +0.000 A 
ATOM     28  C   UNL     1       7.000   4.694  -3.522  0.00  0.00    +0.000 A 
ATOM     29  C   UNL     1       6.018   5.090  -4.426  0.00  0.00    +0.000 A 
ATOM     30  C   UNL     1       4.676   4.849  -4.149  0.00  0.00    +0.000 A 
ATOM     31  C   UNL     1       4.313   4.211  -2.964  0.00  0.00    +0.000 A 
ENDBRANCH  23  26
ENDBRANCH  19  20
ENDBRANCH   2  19
TORSDOF 6
