REMARK  Name = 
REMARK  7 active torsions:
REMARK  status: ('A' for Active; 'I' for Inactive)
REMARK    1  A    between atoms: C_2  and  O_3
REMARK    2  A    between atoms: C_2  and  C_4
REMARK    3  A    between atoms: C_8  and  C_9
REMARK    4  A    between atoms: C_14  and  C_15
REMARK    5  A    between atoms: C_15  and  N_16
REMARK    6  A    between atoms: C_17  and  C_19
REMARK    7  A    between atoms: C_22  and  C_23
REMARK                            x       y       z     vdW  Elec       q    Type
REMARK                         _______ _______ _______ _____ _____    ______ ____
ROOT
ATOM      1  C   UNL     1       4.966  -4.418  -1.192  0.00  0.00    +0.000 C 
ENDROOT
BRANCH   1   7
ATOM      2  C   UNL     1       6.105  -2.249  -2.043  0.00  0.00    +0.000 A 
ATOM      3  C   UNL     1       7.326  -1.613  -2.385  0.00  0.00    +0.000 A 
ATOM      4  C   UNL     1       8.572  -2.174  -2.106  0.00  0.00    +0.000 A 
ATOM      5  C   UNL     1       8.639  -3.403  -1.478  0.00  0.00    +0.000 A 
ATOM      6  C   UNL     1       7.466  -4.089  -1.176  0.00  0.00    +0.000 A 
ATOM      7  C   UNL     1       6.189  -3.561  -1.477  0.00  0.00    +0.000 A 
BRANCH   2  12
ATOM      8  C   UNL     1       2.454  -1.278  -2.744  0.00  0.00    +0.000 A 
ATOM      9  C   UNL     1       2.481   0.104  -2.554  0.00  0.00    +0.000 A 
ATOM     10  C   UNL     1       3.677   0.717  -2.208  0.00  0.00    +0.000 A 
ATOM     11  C   UNL     1       4.829  -0.060  -2.024  0.00  0.00    +0.000 A 
ATOM     12  C   UNL     1       4.845  -1.460  -2.240  0.00  0.00    +0.000 A 
ATOM     13  C   UNL     1       3.635  -2.031  -2.652  0.00  0.00    +0.000 A 
BRANCH   8  15
ATOM     14  O   UNL     1       0.323  -1.389  -3.784  0.00  0.00    +0.000 OA
ATOM     15  C   UNL     1       1.173  -1.930  -3.094  0.00  0.00    +0.000 C 
BRANCH  15  16
ATOM     16  O   UNL     1       1.019  -3.157  -2.551  0.00  0.00    +0.000 OA
ATOM     17  H   UNL     1       1.661  -3.402  -1.856  0.00  0.00    +0.000 HD
ENDBRANCH  15  16
ENDBRANCH   8  15
ENDBRANCH   2  12
ENDBRANCH   1   7
BRANCH   1  18
ATOM     18  N   UNL     1       5.206  -5.724  -0.616  0.00  0.00    +0.000 N 
ATOM     19  C   UNL     1       4.205  -6.388   0.058  0.00  0.00    +0.000 C 
ATOM     20  O   UNL     1       3.122  -5.873   0.324  0.00  0.00    +0.000 OA
ATOM     21  H   UNL     1       5.929  -6.329  -0.991  0.00  0.00    +0.000 HD
BRANCH  19  22
ATOM     22  C   UNL     1       4.542  -7.769   0.419  0.00  0.00    +0.000 A 
ATOM     23  C   UNL     1       3.762  -8.604   1.189  0.00  0.00    +0.000 A 
ATOM     24  N   UNL     1       4.460  -9.771   1.287  0.00  0.00    +0.000 N 
ATOM     25  C   UNL     1       5.659  -9.625   0.623  0.00  0.00    +0.000 A 
ATOM     26  N   UNL     1       5.710  -8.432   0.046  0.00  0.00    +0.000 NA
ATOM     27  H   UNL     1       4.159 -10.603   1.773  0.00  0.00    +0.000 HD
BRANCH  25  28
ATOM     28  C   UNL     1       6.686 -10.672   0.606  0.00  0.00    +0.000 A 
ATOM     29  C   UNL     1       7.532 -10.822  -0.493  0.00  0.00    +0.000 A 
ATOM     30  C   UNL     1       8.500 -11.814  -0.458  0.00  0.00    +0.000 A 
ATOM     31  N   UNL     1       8.674 -12.655   0.583  0.00  0.00    +0.000 NA
ATOM     32  C   UNL     1       7.858 -12.492   1.639  0.00  0.00    +0.000 A 
ATOM     33  C   UNL     1       6.858 -11.534   1.696  0.00  0.00    +0.000 A 
ENDBRANCH  25  28
ENDBRANCH  19  22
ENDBRANCH   1  18
TORSDOF 7
