REMARK  Name = 
REMARK  7 active torsions:
REMARK  status: ('A' for Active; 'I' for Inactive)
REMARK    1  A    between atoms: C_2  and  C_13
REMARK    2  A    between atoms: N_3  and  C_4
REMARK    3  A    between atoms: C_4  and  C_5
REMARK    4  A    between atoms: C_9  and  C_10
REMARK    5  A    between atoms: C_10  and  O_12
REMARK    6  A    between atoms: C_16  and  C_17
REMARK    7  A    between atoms: C_18  and  C_19
REMARK                            x       y       z     vdW  Elec       q    Type
REMARK                         _______ _______ _______ _____ _____    ______ ____
ROOT
ATOM      1  C   UNL     1       3.092   0.747   1.290  0.00  0.00    +0.000 A 
ATOM      2  C   UNL     1       2.482   0.608   2.545  0.00  0.00    +0.000 A 
ATOM      3  C   UNL     1       3.066   1.141   3.701  0.00  0.00    +0.000 A 
ATOM      4  C   UNL     1       4.284   1.825   3.638  0.00  0.00    +0.000 A 
ATOM      5  C   UNL     1       4.890   1.973   2.380  0.00  0.00    +0.000 A 
ATOM      6  C   UNL     1       4.306   1.437   1.216  0.00  0.00    +0.000 A 
ENDROOT
BRANCH   1   8
ATOM      7  O   UNL     1       1.229  -0.266   0.261  0.00  0.00    +0.000 OA
ATOM      8  C   UNL     1       2.368   0.171   0.111  0.00  0.00    +0.000 C 
ATOM      9  N   UNL     1       3.003   0.135  -1.111  0.00  0.00    +0.000 N 
ATOM     10  H   UNL     1       3.978   0.390  -1.215  0.00  0.00    +0.000 HD
BRANCH   9  11
ATOM     11  C   UNL     1       2.363  -0.455  -2.267  0.00  0.00    +0.000 C 
BRANCH  11  12
ATOM     12  C   UNL     1       2.652  -1.917  -2.313  0.00  0.00    +0.000 A 
ATOM     13  C   UNL     1       1.755  -2.962  -2.224  0.00  0.00    +0.000 A 
ATOM     14  N   UNL     1       2.479  -4.111  -2.312  0.00  0.00    +0.000 N 
ATOM     15  N   UNL     1       3.798  -3.902  -2.482  0.00  0.00    +0.000 NA
ATOM     16  C   UNL     1       3.916  -2.557  -2.465  0.00  0.00    +0.000 A 
ATOM     17  H   UNL     1       2.140  -5.067  -2.269  0.00  0.00    +0.000 HD
BRANCH  16  18
ATOM     18  C   UNL     1       5.239  -1.941  -2.584  0.00  0.00    +0.000 C 
ATOM     19  O   UNL     1       5.454  -0.736  -2.553  0.00  0.00    +0.000 OA
BRANCH  18  20
ATOM     20  O   UNL     1       6.229  -2.869  -2.718  0.00  0.00    +0.000 OA
ATOM     21  H   UNL     1       5.773  -3.746  -2.691  0.00  0.00    +0.000 HD
ENDBRANCH  18  20
ENDBRANCH  16  18
ENDBRANCH  11  12
ENDBRANCH   9  11
ENDBRANCH   1   8
BRANCH   4  22
ATOM     22  C   UNL     1       4.817   2.428   4.876  0.00  0.00    +0.000 C 
ATOM     23  C   UNL     1       6.122   2.592   5.151  0.00  0.00    +0.000 C 
BRANCH  23  24
ATOM     24  C   UNL     1       6.668   3.236   6.364  0.00  0.00    +0.000 A 
ATOM     25  C   UNL     1       8.042   3.425   6.461  0.00  0.00    +0.000 A 
ATOM     26  C   UNL     1       8.556   4.070   7.581  0.00  0.00    +0.000 A 
ATOM     27  C   UNL     1       7.698   4.455   8.612  0.00  0.00    +0.000 A 
ATOM     28  C   UNL     1       8.195   5.040   9.790  0.00  0.00    +0.000 A 
ATOM     29  C   UNL     1       7.336   5.336  10.843  0.00  0.00    +0.000 A 
ATOM     30  C   UNL     1       5.976   5.091  10.704  0.00  0.00    +0.000 A 
ATOM     31  C   UNL     1       5.480   4.548   9.508  0.00  0.00    +0.000 A 
ATOM     32  C   UNL     1       6.318   4.204   8.453  0.00  0.00    +0.000 A 
ATOM     33  N   UNL     1       5.811   3.628   7.338  0.00  0.00    +0.000 NA
ENDBRANCH  23  24
ENDBRANCH   4  22
TORSDOF 7
