REMARK  Name = 
REMARK  7 active torsions:
REMARK  status: ('A' for Active; 'I' for Inactive)
REMARK    1  A    between atoms: C_1  and  O_2
REMARK    2  A    between atoms: O_2  and  C_3
REMARK    3  A    between atoms: C_7  and  O_8
REMARK    4  A    between atoms: C_9  and  C_10
REMARK    5  A    between atoms: N_12  and  C_13
REMARK    6  A    between atoms: C_13  and  C_14
REMARK    7  A    between atoms: C_18  and  C_19
REMARK                            x       y       z     vdW  Elec       q    Type
REMARK                         _______ _______ _______ _____ _____    ______ ____
ROOT
ATOM      1  C   UNL     1       7.282   3.913   4.596  0.00  0.00    +0.000 C 
ATOM      2  O   UNL     1       7.026   3.655   5.768  0.00  0.00    +0.000 OA
ATOM      3  N   UNL     1       8.271   4.786   4.220  0.00  0.00    +0.000 N 
ATOM      4  H   UNL     1       8.425   4.938   3.228  0.00  0.00    +0.000 HD
ENDROOT
BRANCH   1  10
ATOM      5  C   UNL     1       4.277   1.315  -0.614  0.00  0.00    +0.000 A 
ATOM      6  C   UNL     1       5.285   2.132  -1.107  0.00  0.00    +0.000 A 
ATOM      7  C   UNL     1       6.091   2.849  -0.225  0.00  0.00    +0.000 A 
ATOM      8  C   UNL     1       5.920   2.752   1.177  0.00  0.00    +0.000 A 
ATOM      9  C   UNL     1       6.706   3.453   2.134  0.00  0.00    +0.000 A 
ATOM     10  C   UNL     1       6.503   3.262   3.502  0.00  0.00    +0.000 A 
ATOM     11  C   UNL     1       5.490   2.390   3.866  0.00  0.00    +0.000 A 
ATOM     12  N   UNL     1       4.699   1.721   2.986  0.00  0.00    +0.000 NA
ATOM     13  C   UNL     1       4.913   1.896   1.674  0.00  0.00    +0.000 A 
ATOM     14  C   UNL     1       4.111   1.205   0.772  0.00  0.00    +0.000 A 
BRANCH   9  15
ATOM     15  O   UNL     1       7.682   4.336   1.736  0.00  0.00    +0.000 OA
ATOM     16  H   UNL     1       7.675   4.455   0.775  0.00  0.00    +0.000 HD
ENDBRANCH   9  15
BRANCH   5  18
ATOM     17  C   UNL     1       3.546   0.691  -2.788  0.00  0.00    +0.000 C 
ATOM     18  O   UNL     1       3.406   0.585  -1.373  0.00  0.00    +0.000 OA
ENDBRANCH   5  18
ENDBRANCH   1  10
BRANCH   3  19
ATOM     19  C   UNL     1       9.108   5.492   5.155  0.00  0.00    +0.000 C 
BRANCH  19  20
ATOM     20  C   UNL     1      10.564   5.162   4.946  0.00  0.00    +0.000 A 
ATOM     21  C   UNL     1      11.131   4.046   5.570  0.00  0.00    +0.000 A 
ATOM     22  C   UNL     1      12.488   3.774   5.421  0.00  0.00    +0.000 A 
ATOM     23  C   UNL     1      13.293   4.620   4.653  0.00  0.00    +0.000 A 
ATOM     24  C   UNL     1      12.762   5.751   4.009  0.00  0.00    +0.000 A 
ATOM     25  C   UNL     1      11.377   5.979   4.143  0.00  0.00    +0.000 A 
BRANCH  24  26
ATOM     26  C   UNL     1      13.612   6.715   3.276  0.00  0.00    +0.000 A 
ATOM     27  C   UNL     1      14.932   6.982   3.650  0.00  0.00    +0.000 A 
ATOM     28  C   UNL     1      15.648   7.974   2.984  0.00  0.00    +0.000 A 
ATOM     29  C   UNL     1      15.037   8.677   1.956  0.00  0.00    +0.000 A 
ATOM     30  C   UNL     1      13.733   8.351   1.632  0.00  0.00    +0.000 A 
ATOM     31  N   UNL     1      13.013   7.396   2.264  0.00  0.00    +0.000 NA
ENDBRANCH  24  26
ENDBRANCH  19  20
ENDBRANCH   3  19
TORSDOF 6
