REMARK  Name = 
REMARK  6 active torsions:
REMARK  status: ('A' for Active; 'I' for Inactive)
REMARK    1  A    between atoms: C_2  and  C_3
REMARK    2  A    between atoms: C_6  and  C_7
REMARK    3  A    between atoms: C_9  and  C_10
REMARK    4  A    between atoms: N_12  and  C_13
REMARK    5  A    between atoms: C_20  and  C_21
REMARK    6  A    between atoms: C_21  and  O_23
REMARK                            x       y       z     vdW  Elec       q    Type
REMARK                         _______ _______ _______ _____ _____    ______ ____
ROOT
ATOM      1  C   UNL     1       7.967   0.040   0.042  0.00  0.00    +0.000 A 
ATOM      2  C   UNL     1       8.745  -0.374  -1.058  0.00  0.00    +0.000 A 
ATOM      3  C   UNL     1      10.150  -0.378  -1.015  0.00  0.00    +0.000 A 
ATOM      4  C   UNL     1      10.786   0.016   0.167  0.00  0.00    +0.000 A 
ATOM      5  C   UNL     1      10.044   0.459   1.257  0.00  0.00    +0.000 A 
ATOM      6  C   UNL     1       8.652   0.469   1.193  0.00  0.00    +0.000 A 
ENDROOT
BRANCH   1  10
ATOM      7  C   UNL     1       3.723  -0.115  -0.083  0.00  0.00    +0.000 A 
ATOM      8  N   UNL     1       4.425  -1.037  -0.790  0.00  0.00    +0.000 NA
ATOM      9  C   UNL     1       5.779  -0.947  -0.725  0.00  0.00    +0.000 A 
ATOM     10  C   UNL     1       6.490   0.018  -0.001  0.00  0.00    +0.000 A 
ATOM     11  C   UNL     1       5.711   0.951   0.702  0.00  0.00    +0.000 A 
ATOM     12  C   UNL     1       4.323   0.878   0.667  0.00  0.00    +0.000 A 
ATOM     13  F   UNL     1       3.601   1.767   1.364  0.00  0.00    +0.000 F 
BRANCH   7  15
ATOM     14  N   UNL     1       1.138  -0.305  -0.183  0.00  0.00    +0.000 NA
ATOM     15  C   UNL     1       2.295  -0.224  -0.143  0.00  0.00    +0.000 C 
ENDBRANCH   7  15
ENDBRANCH   1  10
BRANCH   3  16
ATOM     16  C   UNL     1      10.928  -0.807  -2.183  0.00  0.00    +0.000 A 
ATOM     17  N   UNL     1      10.467  -1.783  -2.984  0.00  0.00    +0.000 NA
ATOM     18  N   UNL     1      11.439  -2.002  -3.898  0.00  0.00    +0.000 N 
ATOM     19  C   UNL     1      12.504  -1.152  -3.706  0.00  0.00    +0.000 A 
ATOM     20  C   UNL     1      12.199  -0.339  -2.631  0.00  0.00    +0.000 A 
BRANCH  18  21
ATOM     21  C   UNL     1      11.312  -3.016  -4.887  0.00  0.00    +0.000 A 
ATOM     22  C   UNL     1      10.114  -3.728  -5.005  0.00  0.00    +0.000 A 
ATOM     23  C   UNL     1      10.040  -4.726  -5.963  0.00  0.00    +0.000 A 
ATOM     24  N   UNL     1      11.061  -5.058  -6.783  0.00  0.00    +0.000 NA
ATOM     25  C   UNL     1      12.203  -4.356  -6.651  0.00  0.00    +0.000 A 
ATOM     26  C   UNL     1      12.376  -3.329  -5.737  0.00  0.00    +0.000 A 
ENDBRANCH  18  21
BRANCH  20  27
ATOM     27  C   UNL     1      13.002   0.762  -2.129  0.00  0.00    +0.000 C 
ATOM     28  O   UNL     1      12.543   1.744  -1.566  0.00  0.00    +0.000 OA
BRANCH  27  29
ATOM     29  O   UNL     1      14.339   0.622  -2.320  0.00  0.00    +0.000 OA
ATOM     30  H   UNL     1      14.587  -0.244  -2.688  0.00  0.00    +0.000 HD
ENDBRANCH  27  29
ENDBRANCH  20  27
ENDBRANCH   3  16
TORSDOF 6
