REMARK  Name = 
REMARK  4 active torsions:
REMARK  status: ('A' for Active; 'I' for Inactive)
REMARK    1  A    between atoms: S_2  and  N_4
REMARK    2  A    between atoms: S_2  and  C_18
REMARK    3  A    between atoms: N_4  and  C_5
REMARK    4  A    between atoms: C_8  and  C_9
REMARK                            x       y       z     vdW  Elec       q    Type
REMARK                         _______ _______ _______ _____ _____    ______ ____
ROOT
ATOM      1  N   UNL     1       2.693   0.318   1.400  0.00  0.00    +0.000 N 
ATOM      2  H   UNL     1       3.676   0.091   1.457  0.00  0.00    +0.000 HD
ENDROOT
BRANCH   1   3
ATOM      3  C   UNL     1       2.414   1.689   1.649  0.00  0.00    +0.000 A 
ATOM      4  C   UNL     1       3.265   2.695   1.264  0.00  0.00    +0.000 A 
ATOM      5  C   UNL     1       2.879   4.021   1.468  0.00  0.00    +0.000 A 
ATOM      6  C   UNL     1       1.640   4.293   2.042  0.00  0.00    +0.000 A 
ATOM      7  N   UNL     1       0.835   3.273   2.410  0.00  0.00    +0.000 NA
ATOM      8  N   UNL     1       1.226   1.965   2.193  0.00  0.00    +0.000 NA
BRANCH   6   9
ATOM      9  C   UNL     1       1.143   5.668   2.305  0.00  0.00    +0.000 A 
ATOM     10  C   UNL     1       1.499   6.748   1.474  0.00  0.00    +0.000 A 
ATOM     11  C   UNL     1       1.074   8.051   1.756  0.00  0.00    +0.000 A 
ATOM     12  C   UNL     1       0.277   8.287   2.866  0.00  0.00    +0.000 A 
ATOM     13  F   UNL     1      -0.113   9.536   3.147  0.00  0.00    +0.000 F 
ATOM     14  C   UNL     1      -0.121   7.241   3.686  0.00  0.00    +0.000 A 
ATOM     15  C   UNL     1       0.304   5.938   3.401  0.00  0.00    +0.000 A 
ENDBRANCH   6   9
ENDBRANCH   1   3
BRANCH   1  17
ATOM     16  O   UNL     1       1.403   0.778  -0.815  0.00  0.00    +0.000 OA
ATOM     17  S   UNL     1       2.127  -0.235  -0.100  0.00  0.00    +0.000 S 
ATOM     18  O   UNL     1       3.304  -0.855  -0.681  0.00  0.00    +0.000 OA
BRANCH  17  19
ATOM     19  C   UNL     1       0.988  -1.571   0.304  0.00  0.00    +0.000 A 
ATOM     20  C   UNL     1       1.358  -2.867  -0.100  0.00  0.00    +0.000 A 
ATOM     21  C   UNL     1       0.582  -3.967   0.248  0.00  0.00    +0.000 A 
ATOM     22  C   UNL     1      -0.491  -3.786   1.110  0.00  0.00    +0.000 A 
ATOM     23  F   UNL     1      -1.212  -4.859   1.466  0.00  0.00    +0.000 F 
ATOM     24  C   UNL     1      -0.881  -2.511   1.519  0.00  0.00    +0.000 A 
ATOM     25  C   UNL     1      -1.958  -2.348   2.391  0.00  0.00    +0.000 A 
ATOM     26  N   UNL     1      -2.600  -1.183   2.583  0.00  0.00    +0.000 NA
ATOM     27  C   UNL     1      -2.116  -0.119   1.911  0.00  0.00    +0.000 A 
ATOM     28  C   UNL     1      -0.930  -0.142   1.189  0.00  0.00    +0.000 A 
ATOM     29  C   UNL     1      -0.240  -1.361   1.004  0.00  0.00    +0.000 A 
ENDBRANCH  17  19
ENDBRANCH   1  17
TORSDOF 4
