REMARK  Name = 
REMARK  7 active torsions:
REMARK  status: ('A' for Active; 'I' for Inactive)
REMARK    1  A    between atoms: C_1  and  O_2
REMARK    2  A    between atoms: O_2  and  C_3
REMARK    3  A    between atoms: C_10  and  C_11
REMARK    4  A    between atoms: N_13  and  C_14
REMARK    5  A    between atoms: C_14  and  C_15
REMARK    6  A    between atoms: C_20  and  C_21
REMARK    7  A    between atoms: C_27  and  C_28
REMARK                            x       y       z     vdW  Elec       q    Type
REMARK                         _______ _______ _______ _____ _____    ______ ____
ROOT
ATOM      1  C   UNL     1       5.925  -2.521  -2.865  0.00  0.00    +0.000 C 
ATOM      2  O   UNL     1       5.051  -3.297  -2.478  0.00  0.00    +0.000 OA
ATOM      3  N   UNL     1       7.100  -2.946  -3.405  0.00  0.00    +0.000 N 
ATOM      4  H   UNL     1       7.848  -2.308  -3.631  0.00  0.00    +0.000 HD
ENDROOT
BRANCH   1  12
ATOM      5  C   UNL     1       3.341   0.869  -0.489  0.00  0.00    +0.000 A 
ATOM      6  C   UNL     1       2.861   2.185  -0.372  0.00  0.00    +0.000 A 
ATOM      7  C   UNL     1       3.393   3.217  -1.146  0.00  0.00    +0.000 A 
ATOM      8  C   UNL     1       4.412   2.944  -2.047  0.00  0.00    +0.000 A 
ATOM      9  C   UNL     1       4.886   1.636  -2.179  0.00  0.00    +0.000 A 
ATOM     10  C   UNL     1       4.350   0.581  -1.431  0.00  0.00    +0.000 A 
ATOM     11  N   UNL     1       4.884  -0.709  -1.605  0.00  0.00    +0.000 N 
ATOM     12  C   UNL     1       5.741  -1.024  -2.658  0.00  0.00    +0.000 A 
ATOM     13  C   UNL     1       6.295  -0.081  -3.456  0.00  0.00    +0.000 A 
ATOM     14  C   UNL     1       7.164  -0.182  -4.674  0.00  0.00    +0.000 C 
ATOM     15  C   UNL     1       5.972   1.349  -3.136  0.00  0.00    +0.000 A 
ATOM     16  O   UNL     1       6.553   2.279  -3.686  0.00  0.00    +0.000 OA
ATOM     17  H   UNL     1       4.336  -1.490  -1.238  0.00  0.00    +0.000 HD
BRANCH   5  19
ATOM     18  C   UNL     1       1.908   0.126   1.260  0.00  0.00    +0.000 C 
ATOM     19  O   UNL     1       2.878  -0.187   0.262  0.00  0.00    +0.000 OA
ENDBRANCH   5  19
ENDBRANCH   1  12
BRANCH   3  20
ATOM     20  C   UNL     1       7.372  -4.338  -3.714  0.00  0.00    +0.000 C 
BRANCH  20  21
ATOM     21  C   UNL     1       8.661  -4.483  -4.508  0.00  0.00    +0.000 A 
ATOM     22  N   UNL     1       8.944  -3.422  -5.333  0.00  0.00    +0.000 NA
ATOM     23  C   UNL     1      10.111  -3.428  -6.006  0.00  0.00    +0.000 A 
ATOM     24  C   UNL     1      11.057  -4.416  -5.865  0.00  0.00    +0.000 A 
ATOM     25  C   UNL     1      10.749  -5.503  -5.052  0.00  0.00    +0.000 A 
ATOM     26  C   UNL     1       9.513  -5.598  -4.379  0.00  0.00    +0.000 A 
BRANCH  26  27
ATOM     27  C   UNL     1       9.181  -6.838  -3.633  0.00  0.00    +0.000 A 
ATOM     28  C   UNL     1      10.158  -7.538  -2.899  0.00  0.00    +0.000 A 
ATOM     29  C   UNL     1       9.873  -8.759  -2.278  0.00  0.00    +0.000 A 
ATOM     30  C   UNL     1       8.590  -9.292  -2.342  0.00  0.00    +0.000 A 
ATOM     31  C   UNL     1       7.598  -8.612  -3.037  0.00  0.00    +0.000 A 
ATOM     32  C   UNL     1       7.899  -7.416  -3.694  0.00  0.00    +0.000 A 
ENDBRANCH  26  27
ENDBRANCH  20  21
ENDBRANCH   3  20
TORSDOF 5
