REMARK  Name = 
REMARK  7 active torsions:
REMARK  status: ('A' for Active; 'I' for Inactive)
REMARK    1  A    between atoms: C_1  and  O_2
REMARK    2  A    between atoms: O_2  and  C_3
REMARK    3  A    between atoms: C_3  and  C_5
REMARK    4  A    between atoms: C_9  and  C_10
REMARK    5  A    between atoms: N_12  and  C_13
REMARK    6  A    between atoms: C_13  and  C_14
REMARK    7  A    between atoms: C_17  and  C_18
REMARK                            x       y       z     vdW  Elec       q    Type
REMARK                         _______ _______ _______ _____ _____    ______ ____
ROOT
ATOM      1  C   UNL     1       1.663  -4.879  -1.377  0.00  0.00    +0.000 A 
ATOM      2  C   UNL     1       1.008  -6.105  -1.397  0.00  0.00    +0.000 A 
ATOM      3  C   UNL     1      -0.379  -6.149  -1.339  0.00  0.00    +0.000 A 
ATOM      4  C   UNL     1      -1.175  -4.987  -1.212  0.00  0.00    +0.000 A 
ATOM      5  C   UNL     1      -0.508  -3.758  -1.276  0.00  0.00    +0.000 A 
ATOM      6  C   UNL     1       0.894  -3.705  -1.366  0.00  0.00    +0.000 A 
ENDROOT
BRANCH   4   7
ATOM      7  C   UNL     1      -2.636  -5.142  -0.986  0.00  0.00    +0.000 A 
ATOM      8  C   UNL     1      -3.080  -6.316  -0.348  0.00  0.00    +0.000 A 
ATOM      9  C   UNL     1      -4.414  -6.682  -0.335  0.00  0.00    +0.000 A 
ATOM     10  C   UNL     1      -5.379  -5.787  -0.777  0.00  0.00    +0.000 A 
ATOM     11  C   UNL     1      -6.715  -6.167  -0.766  0.00  0.00    +0.000 A 
ATOM     12  C   UNL     1      -7.693  -5.195  -0.653  0.00  0.00    +0.000 A 
ATOM     13  C   UNL     1      -7.351  -3.862  -0.851  0.00  0.00    +0.000 A 
ATOM     14  C   UNL     1      -6.040  -3.523  -1.218  0.00  0.00    +0.000 A 
ATOM     15  C   UNL     1      -5.004  -4.478  -1.136  0.00  0.00    +0.000 A 
ATOM     16  C   UNL     1      -3.624  -4.207  -1.349  0.00  0.00    +0.000 A 
ENDBRANCH   4   7
BRANCH   1  17
ATOM     17  C   UNL     1       3.167  -4.833  -1.369  0.00  0.00    +0.000 C 
BRANCH  17  20
ATOM     18  C   UNL     1       4.164  -3.782  -3.356  0.00  0.00    +0.000 C 
ATOM     19  O   UNL     1       4.132  -2.647  -2.876  0.00  0.00    +0.000 OA
ATOM     20  N   UNL     1       3.705  -4.887  -2.697  0.00  0.00    +0.000 N 
ATOM     21  H   UNL     1       3.639  -5.748  -3.252  0.00  0.00    +0.000 HD
BRANCH  18  26
ATOM     22  C   UNL     1       5.545  -3.273  -5.495  0.00  0.00    +0.000 A 
ATOM     23  C   UNL     1       5.637  -3.943  -6.701  0.00  0.00    +0.000 A 
ATOM     24  N   UNL     1       4.932  -5.096  -6.552  0.00  0.00    +0.000 N 
ATOM     25  N   UNL     1       4.370  -5.230  -5.340  0.00  0.00    +0.000 NA
ATOM     26  C   UNL     1       4.689  -4.082  -4.697  0.00  0.00    +0.000 A 
ATOM     27  H   UNL     1       4.807  -5.840  -7.232  0.00  0.00    +0.000 HD
BRANCH  22  28
ATOM     28  C   UNL     1       6.215  -2.025  -5.170  0.00  0.00    +0.000 C 
ATOM     29  O   UNL     1       6.527  -1.205  -6.037  0.00  0.00    +0.000 OA
BRANCH  28  31
ATOM     30  C   UNL     1       7.258  -0.738  -3.526  0.00  0.00    +0.000 C 
ATOM     31  O   UNL     1       6.547  -1.930  -3.865  0.00  0.00    +0.000 OA
ENDBRANCH  28  31
ENDBRANCH  22  28
ENDBRANCH  18  26
ENDBRANCH  17  20
ENDBRANCH   1  17
TORSDOF 6
