REMARK  Name = 
REMARK  3 active torsions:
REMARK  status: ('A' for Active; 'I' for Inactive)
REMARK    1  A    between atoms: N_3  and  C_4
REMARK    2  A    between atoms: N_6  and  C_7
REMARK    3  A    between atoms: C_22  and  C_23
REMARK                            x       y       z     vdW  Elec       q    Type
REMARK                         _______ _______ _______ _____ _____    ______ ____
ROOT
ATOM      1  O   UNL     1       1.104   0.294  -0.155  0.00  0.00    +0.000 OA
ATOM      2  C   UNL     1       2.300   0.026  -0.053  0.00  0.00    +0.000 C 
ATOM      3  N   UNL     1       2.883  -1.171  -0.392  0.00  0.00    +0.000 N 
ATOM      4  N   UNL     1       3.108   0.943   0.548  0.00  0.00    +0.000 N 
ATOM      5  C   UNL     1       4.480   0.931   0.681  0.00  0.00    +0.000 A 
ATOM      6  N   UNL     1       4.983   1.791   1.570  0.00  0.00    +0.000 NA
ATOM      7  C   UNL     1       6.314   1.760   1.738  0.00  0.00    +0.000 A 
ATOM      8  C   UNL     1       7.154   0.956   1.003  0.00  0.00    +0.000 A 
ATOM      9  C   UNL     1       6.555   0.139   0.066  0.00  0.00    +0.000 A 
ATOM     10  N   UNL     1       5.212   0.089  -0.064  0.00  0.00    +0.000 NA
ATOM     11  H   UNL     1       3.862  -1.288  -0.149  0.00  0.00    +0.000 HD
ATOM     12  H   UNL     1       2.636   1.715   0.989  0.00  0.00    +0.000 HD
ENDROOT
BRANCH   9  13
ATOM     13  C   UNL     1       7.312  -0.693  -0.890  0.00  0.00    +0.000 A 
ATOM     14  C   UNL     1       8.544  -1.275  -0.561  0.00  0.00    +0.000 A 
ATOM     15  C   UNL     1       9.218  -2.022  -1.516  0.00  0.00    +0.000 A 
ATOM     16  N   UNL     1       8.761  -2.232  -2.766  0.00  0.00    +0.000 NA
ATOM     17  C   UNL     1       7.571  -1.679  -3.076  0.00  0.00    +0.000 A 
ATOM     18  C   UNL     1       6.825  -0.919  -2.188  0.00  0.00    +0.000 A 
ENDBRANCH   9  13
BRANCH   3  19
ATOM     19  C   UNL     1       2.202  -2.278  -0.849  0.00  0.00    +0.000 A 
ATOM     20  C   UNL     1       0.940  -2.324  -1.374  0.00  0.00    +0.000 A 
ATOM     21  N   UNL     1       0.646  -3.640  -1.635  0.00  0.00    +0.000 N 
ATOM     22  N   UNL     1       1.676  -4.456  -1.289  0.00  0.00    +0.000 NA
ATOM     23  C   UNL     1       2.630  -3.619  -0.869  0.00  0.00    +0.000 A 
BRANCH  21  24
ATOM     24  C   UNL     1      -0.547  -4.134  -2.192  0.00  0.00    +0.000 A 
ATOM     25  C   UNL     1      -1.271  -3.354  -3.096  0.00  0.00    +0.000 A 
ATOM     26  F   UNL     1      -0.809  -2.172  -3.529  0.00  0.00    +0.000 F 
ATOM     27  C   UNL     1      -2.470  -3.812  -3.639  0.00  0.00    +0.000 A 
ATOM     28  C   UNL     1      -2.972  -5.055  -3.262  0.00  0.00    +0.000 A 
ATOM     29  C   UNL     1      -2.257  -5.840  -2.355  0.00  0.00    +0.000 A 
ATOM     30  C   UNL     1      -1.042  -5.386  -1.837  0.00  0.00    +0.000 A 
ATOM     31  F   UNL     1      -0.433  -6.154  -0.923  0.00  0.00    +0.000 F 
ENDBRANCH  21  24
ENDBRANCH   3  19
TORSDOF 3
