REMARK  Name = 
REMARK  6 active torsions:
REMARK  status: ('A' for Active; 'I' for Inactive)
REMARK    1  A    between atoms: C_1  and  O_2
REMARK    2  A    between atoms: O_2  and  C_3
REMARK    3  A    between atoms: C_11  and  C_12
REMARK    4  A    between atoms: N_14  and  C_15
REMARK    5  A    between atoms: C_16  and  C_17
REMARK    6  A    between atoms: N_21  and  C_22
REMARK                            x       y       z     vdW  Elec       q    Type
REMARK                         _______ _______ _______ _____ _____    ______ ____
ROOT
ATOM      1  C   UNL     1       7.202  -3.393  -2.055  0.00  0.00    +0.000 C 
ATOM      2  O   UNL     1       7.968  -4.002  -1.312  0.00  0.00    +0.000 OA
ATOM      3  N   UNL     1       7.168  -3.631  -3.432  0.00  0.00    +0.000 N 
ATOM      4  H   UNL     1       6.965  -2.804  -3.977  0.00  0.00    +0.000 HD
ENDROOT
BRANCH   1  13
ATOM      5  C   UNL     1       3.963   0.397  -1.250  0.00  0.00    +0.000 A 
ATOM      6  C   UNL     1       3.348   0.471  -2.505  0.00  0.00    +0.000 A 
ATOM      7  C   UNL     1       3.683  -0.417  -3.531  0.00  0.00    +0.000 A 
ATOM      8  C   UNL     1       4.663  -1.407  -3.350  0.00  0.00    +0.000 A 
ATOM      9  C   UNL     1       5.332  -1.492  -2.113  0.00  0.00    +0.000 A 
ATOM     10  C   UNL     1       4.946  -0.596  -1.112  0.00  0.00    +0.000 A 
ATOM     11  O   UNL     1       5.655  -0.837   0.025  0.00  0.00    +0.000 OA
ATOM     12  C   UNL     1       6.489  -1.867  -0.236  0.00  0.00    +0.000 A 
ATOM     13  C   UNL     1       6.373  -2.305  -1.545  0.00  0.00    +0.000 A 
BRANCH   5  15
ATOM     14  C   UNL     1       2.428   1.854  -0.178  0.00  0.00    +0.000 C 
ATOM     15  O   UNL     1       3.708   1.231  -0.196  0.00  0.00    +0.000 OA
ENDBRANCH   5  15
ENDBRANCH   1  13
BRANCH   3  16
ATOM     16  C   UNL     1       7.874  -4.663  -4.056  0.00  0.00    +0.000 A 
ATOM     17  C   UNL     1       7.914  -5.954  -3.650  0.00  0.00    +0.000 A 
ATOM     18  C   UNL     1       8.806  -6.945  -4.291  0.00  0.00    +0.000 A 
ATOM     19  O   UNL     1       8.769  -8.114  -3.908  0.00  0.00    +0.000 OA
ATOM     20  N   UNL     1       9.617  -6.458  -5.333  0.00  0.00    +0.000 N 
ATOM     21  C   UNL     1       9.485  -5.151  -5.792  0.00  0.00    +0.000 A 
ATOM     22  C   UNL     1       8.645  -4.279  -5.222  0.00  0.00    +0.000 A 
BRANCH  20  23
ATOM     23  C   UNL     1      10.532  -7.371  -5.936  0.00  0.00    +0.000 A 
ATOM     24  C   UNL     1      10.591  -7.499  -7.327  0.00  0.00    +0.000 A 
ATOM     25  C   UNL     1      11.397  -8.482  -7.906  0.00  0.00    +0.000 A 
ATOM     26  C   UNL     1      12.183  -9.308  -7.102  0.00  0.00    +0.000 A 
ATOM     27  C   UNL     1      12.169  -9.155  -5.720  0.00  0.00    +0.000 A 
ATOM     28  C   UNL     1      11.341  -8.196  -5.138  0.00  0.00    +0.000 A 
ENDBRANCH  20  23
BRANCH  17  29
ATOM     29  C   UNL     1       7.108  -6.410  -2.445  0.00  0.00    +0.000 C 
ATOM     30  N   UNL     1       6.439  -6.788  -1.445  0.00  0.00    +0.000 NA
ENDBRANCH  17  29
ENDBRANCH   3  16
TORSDOF 5
