REMARK  Name = 
REMARK  6 active torsions:
REMARK  status: ('A' for Active; 'I' for Inactive)
REMARK    1  A    between atoms: C_1  and  O_2
REMARK    2  A    between atoms: O_2  and  C_3
REMARK    3  A    between atoms: C_6  and  C_7
REMARK    4  A    between atoms: C_10  and  C_11
REMARK    5  A    between atoms: C_11  and  N_12
REMARK    6  A    between atoms: C_13  and  C_15
REMARK                            x       y       z     vdW  Elec       q    Type
REMARK                         _______ _______ _______ _____ _____    ______ ____
ROOT
ATOM      1  N   UNL     1       7.488   3.632   7.113  0.00  0.00    +0.000 N 
ATOM      2  C   UNL     1       6.381   3.262   7.847  0.00  0.00    +0.000 C 
ATOM      3  O   UNL     1       5.272   3.769   7.685  0.00  0.00    +0.000 OA
ATOM      4  H   UNL     1       8.374   3.207   7.365  0.00  0.00    +0.000 HD
ENDROOT
BRANCH   2   5
ATOM      5  C   UNL     1       6.573   2.160   8.848  0.00  0.00    +0.000 A 
ATOM      6  C   UNL     1       5.445   1.558   9.388  0.00  0.00    +0.000 A 
ATOM      7  C   UNL     1       5.619   0.548  10.324  0.00  0.00    +0.000 A 
ATOM      8  C   UNL     1       6.909   0.205  10.734  0.00  0.00    +0.000 A 
ATOM      9  C   UNL     1       7.105  -0.753  11.742  0.00  0.00    +0.000 A 
ATOM     10  C   UNL     1       8.390  -1.021  12.187  0.00  0.00    +0.000 A 
ATOM     11  F   UNL     1       8.571  -1.889  13.192  0.00  0.00    +0.000 F 
ATOM     12  C   UNL     1       9.471  -0.375  11.610  0.00  0.00    +0.000 A 
ATOM     13  F   UNL     1      10.712  -0.621  12.053  0.00  0.00    +0.000 F 
ATOM     14  C   UNL     1       9.283   0.549  10.582  0.00  0.00    +0.000 A 
ATOM     15  C   UNL     1       8.009   0.874  10.134  0.00  0.00    +0.000 A 
ATOM     16  N   UNL     1       7.849   1.820   9.184  0.00  0.00    +0.000 NA
ENDBRANCH   2   5
BRANCH   1  17
ATOM     17  C   UNL     1       7.475   4.729   6.154  0.00  0.00    +0.000 C 
BRANCH  17  21
ATOM     18  C   UNL     1       5.961   4.058   2.913  0.00  0.00    +0.000 A 
ATOM     19  C   UNL     1       4.875   3.889   3.747  0.00  0.00    +0.000 A 
ATOM     20  N   UNL     1       5.347   4.114   5.001  0.00  0.00    +0.000 N 
ATOM     21  C   UNL     1       6.690   4.392   4.921  0.00  0.00    +0.000 A 
ATOM     22  N   UNL     1       7.081   4.394   3.655  0.00  0.00    +0.000 NA
ATOM     23  H   UNL     1       4.825   4.068   5.873  0.00  0.00    +0.000 HD
BRANCH  18  27
ATOM     24  C   UNL     1       5.700   3.787  -1.355  0.00  0.00    +0.000 A 
ATOM     25  C   UNL     1       6.633   4.638  -0.761  0.00  0.00    +0.000 A 
ATOM     26  C   UNL     1       6.739   4.710   0.641  0.00  0.00    +0.000 A 
ATOM     27  C   UNL     1       5.909   3.940   1.462  0.00  0.00    +0.000 A 
ATOM     28  C   UNL     1       4.995   3.067   0.852  0.00  0.00    +0.000 A 
ATOM     29  C   UNL     1       4.893   2.994  -0.540  0.00  0.00    +0.000 A 
BRANCH  24  31
ATOM     30  C   UNL     1       6.201   4.460  -3.586  0.00  0.00    +0.000 C 
ATOM     31  O   UNL     1       5.467   3.635  -2.693  0.00  0.00    +0.000 OA
ENDBRANCH  24  31
ENDBRANCH  18  27
ENDBRANCH  17  21
ENDBRANCH   1  17
TORSDOF 5
