REMARK  Name = 
REMARK  5 active torsions:
REMARK  status: ('A' for Active; 'I' for Inactive)
REMARK    1  A    between atoms: C_1  and  N_2
REMARK    2  A    between atoms: C_6  and  C_7
REMARK    3  A    between atoms: C_11  and  N_12
REMARK    4  A    between atoms: C_13  and  C_15
REMARK    5  A    between atoms: C_18  and  C_19
REMARK                            x       y       z     vdW  Elec       q    Type
REMARK                         _______ _______ _______ _____ _____    ______ ____
ROOT
ATOM      1  N   UNL     1      -0.770  -5.849  -1.516  0.00  0.00    +0.000 N 
ATOM      2  C   UNL     1      -0.814  -7.224  -1.360  0.00  0.00    +0.000 C 
ATOM      3  O   UNL     1      -0.306  -7.864  -0.443  0.00  0.00    +0.000 OA
ATOM      4  H   UNL     1      -1.352  -5.490  -2.268  0.00  0.00    +0.000 HD
ENDROOT
BRANCH   1   9
ATOM      5  C   UNL     1       0.007  -2.609   0.104  0.00  0.00    +0.000 A 
ATOM      6  C   UNL     1       0.905  -3.025   1.099  0.00  0.00    +0.000 A 
ATOM      7  C   UNL     1       1.306  -4.355   1.193  0.00  0.00    +0.000 A 
ATOM      8  C   UNL     1       0.787  -5.301   0.312  0.00  0.00    +0.000 A 
ATOM      9  C   UNL     1      -0.149  -4.928  -0.653  0.00  0.00    +0.000 A 
ATOM     10  C   UNL     1      -0.516  -3.579  -0.765  0.00  0.00    +0.000 A 
BRANCH   5  16
ATOM     11  C   UNL     1      -0.705  -0.786  -2.426  0.00  0.00    +0.000 C 
ATOM     12  N   UNL     1      -0.694  -0.427  -1.032  0.00  0.00    +0.000 N 
ATOM     13  N   UNL     1      -0.961   0.849  -0.686  0.00  0.00    +0.000 NA
ATOM     14  C   UNL     1      -0.788   0.809   0.633  0.00  0.00    +0.000 A 
ATOM     15  N   UNL     1      -0.431  -0.406   1.132  0.00  0.00    +0.000 NA
ATOM     16  C   UNL     1      -0.381  -1.194   0.069  0.00  0.00    +0.000 A 
ENDBRANCH   5  16
ENDBRANCH   1   9
BRANCH   2  17
ATOM     17  C   UNL     1      -1.596  -7.905  -2.390  0.00  0.00    +0.000 A 
ATOM     18  N   UNL     1      -2.124  -7.257  -3.444  0.00  0.00    +0.000 NA
ATOM     19  O   UNL     1      -2.786  -8.225  -4.182  0.00  0.00    +0.000 OA
ATOM     20  C   UNL     1      -2.666  -9.440  -3.572  0.00  0.00    +0.000 A 
ATOM     21  C   UNL     1      -1.914  -9.284  -2.434  0.00  0.00    +0.000 A 
BRANCH  20  22
ATOM     22  C   UNL     1      -3.298 -10.570  -4.230  0.00  0.00    +0.000 A 
ATOM     23  C   UNL     1      -2.804 -11.871  -4.054  0.00  0.00    +0.000 A 
ATOM     24  F   UNL     1      -1.735 -12.091  -3.275  0.00  0.00    +0.000 F 
ATOM     25  C   UNL     1      -3.390 -12.968  -4.678  0.00  0.00    +0.000 A 
ATOM     26  C   UNL     1      -4.498 -12.770  -5.491  0.00  0.00    +0.000 A 
ATOM     27  F   UNL     1      -5.068 -13.817  -6.094  0.00  0.00    +0.000 F 
ATOM     28  C   UNL     1      -5.023 -11.500  -5.681  0.00  0.00    +0.000 A 
ATOM     29  C   UNL     1      -4.421 -10.414  -5.052  0.00  0.00    +0.000 A 
ATOM     30  F   UNL     1      -4.970  -9.203  -5.235  0.00  0.00    +0.000 F 
ENDBRANCH  20  22
ENDBRANCH   2  17
TORSDOF 4
