REMARK  Name = 
REMARK  7 active torsions:
REMARK  status: ('A' for Active; 'I' for Inactive)
REMARK    1  A    between atoms: C_1  and  C_2
REMARK    2  A    between atoms: C_6  and  C_7
REMARK    3  A    between atoms: C_7  and  O_8
REMARK    4  A    between atoms: O_8  and  C_9
REMARK    5  A    between atoms: C_14  and  C_15
REMARK    6  A    between atoms: N_17  and  C_18
REMARK    7  A    between atoms: C_18  and  C_19
REMARK                            x       y       z     vdW  Elec       q    Type
REMARK                         _______ _______ _______ _____ _____    ______ ____
ROOT
ATOM      1  C   UNL     1      -2.950  -4.488   2.269  0.00  0.00    +0.000 C 
ATOM      2  O   UNL     1      -2.663  -5.594   2.718  0.00  0.00    +0.000 OA
ATOM      3  N   UNL     1      -2.362  -3.336   2.742  0.00  0.00    +0.000 N 
ATOM      4  H   UNL     1      -2.762  -2.448   2.466  0.00  0.00    +0.000 HD
ENDROOT
BRANCH   1  10
ATOM      5  C   UNL     1      -4.040  -3.316   0.208  0.00  0.00    +0.000 A 
ATOM      6  C   UNL     1      -5.085  -3.312  -0.736  0.00  0.00    +0.000 A 
ATOM      7  C   UNL     1      -6.013  -4.347  -0.804  0.00  0.00    +0.000 A 
ATOM      8  C   UNL     1      -5.911  -5.407   0.084  0.00  0.00    +0.000 A 
ATOM      9  C   UNL     1      -4.902  -5.407   1.057  0.00  0.00    +0.000 A 
ATOM     10  C   UNL     1      -3.966  -4.356   1.159  0.00  0.00    +0.000 A 
BRANCH   5  11
ATOM     11  O   UNL     1      -3.216  -2.228   0.064  0.00  0.00    +0.000 OA
BRANCH  11  12
ATOM     12  C   UNL     1      -1.818  -2.468   0.183  0.00  0.00    +0.000 C 
BRANCH  12  18
ATOM     13  C   UNL     1       0.874   1.169  -1.920  0.00  0.00    +0.000 C 
ATOM     14  C   UNL     1       0.346  -0.230  -1.969  0.00  0.00    +0.000 A 
ATOM     15  C   UNL     1       0.753  -1.139  -2.953  0.00  0.00    +0.000 A 
ATOM     16  C   UNL     1       0.267  -2.448  -2.962  0.00  0.00    +0.000 A 
ATOM     17  C   UNL     1      -0.624  -2.865  -1.981  0.00  0.00    +0.000 A 
ATOM     18  C   UNL     1      -1.018  -1.974  -0.980  0.00  0.00    +0.000 A 
ATOM     19  C   UNL     1      -0.549  -0.656  -0.988  0.00  0.00    +0.000 A 
ENDBRANCH  12  18
ENDBRANCH  11  12
ENDBRANCH   5  11
ENDBRANCH   1  10
BRANCH   3  20
ATOM     20  C   UNL     1      -1.156  -3.307   3.568  0.00  0.00    +0.000 C 
BRANCH  20  21
ATOM     21  C   UNL     1       0.181  -3.338   2.814  0.00  0.00    +0.000 A 
ATOM     22  C   UNL     1       0.832  -4.555   2.599  0.00  0.00    +0.000 A 
ATOM     23  C   UNL     1       2.095  -4.569   1.994  0.00  0.00    +0.000 A 
ATOM     24  C   UNL     1       2.677  -3.375   1.583  0.00  0.00    +0.000 A 
ATOM     25  C   UNL     1       3.992  -3.316   0.950  0.00  0.00    +0.000 A 
ATOM     26  C   UNL     1       4.496  -2.132   0.571  0.00  0.00    +0.000 A 
ATOM     27  C   UNL     1       3.741  -0.873   0.800  0.00  0.00    +0.000 A 
ATOM     28  O   UNL     1       4.205   0.204   0.452  0.00  0.00    +0.000 OA
ATOM     29  N   UNL     1       2.526  -0.993   1.414  0.00  0.00    +0.000 N 
ATOM     30  C   UNL     1       1.958  -2.200   1.813  0.00  0.00    +0.000 A 
ATOM     31  N   UNL     1       0.737  -2.156   2.415  0.00  0.00    +0.000 NA
ATOM     32  H   UNL     1       1.995  -0.152   1.575  0.00  0.00    +0.000 HD
ENDBRANCH  20  21
ENDBRANCH   3  20
TORSDOF 6
