REMARK  Name = 
REMARK  5 active torsions:
REMARK  status: ('A' for Active; 'I' for Inactive)
REMARK    1  A    between atoms: C_2  and  C_3
REMARK    2  A    between atoms: C_3  and  O_4
REMARK    3  A    between atoms: O_4  and  C_5
REMARK    4  A    between atoms: C_15  and  C_16
REMARK    5  A    between atoms: N_23  and  C_24
REMARK                            x       y       z     vdW  Elec       q    Type
REMARK                         _______ _______ _______ _____ _____    ______ ____
ROOT
ATOM      1  O   UNL     1       1.384  -0.923  -0.028  0.00  0.00    +0.000 OA
ATOM      2  C   UNL     1       2.616  -0.896  -0.100  0.00  0.00    +0.000 C 
ATOM      3  N   UNL     1       3.329  -0.747   1.056  0.00  0.00    +0.000 N 
ATOM      4  C   UNL     1       4.689  -0.611   1.099  0.00  0.00    +0.000 A 
ATOM      5  N   UNL     1       5.374   0.233   0.369  0.00  0.00    +0.000 NA
ATOM      6  C   UNL     1       6.644   0.182   0.901  0.00  0.00    +0.000 A 
ATOM      7  N   UNL     1       6.785  -0.749   1.859  0.00  0.00    +0.000 NA
ATOM      8  N   UNL     1       5.555  -1.319   1.927  0.00  0.00    +0.000 N 
ATOM      9  H   UNL     1       2.800  -0.794   1.917  0.00  0.00    +0.000 HD
ENDROOT
BRANCH   6  10
ATOM     10  C   UNL     1       7.701   1.095   0.434  0.00  0.00    +0.000 A 
ATOM     11  C   UNL     1       7.388   2.107  -0.476  0.00  0.00    +0.000 A 
ATOM     12  C   UNL     1       8.401   2.944  -0.936  0.00  0.00    +0.000 A 
ATOM     13  C   UNL     1       9.696   2.754  -0.474  0.00  0.00    +0.000 A 
ATOM     14  C   UNL     1       9.924   1.738   0.441  0.00  0.00    +0.000 A 
ATOM     15  N   UNL     1       8.962   0.910   0.905  0.00  0.00    +0.000 NA
ENDBRANCH   6  10
BRANCH   8  16
ATOM     16  C   UNL     1       5.345  -2.542   2.637  0.00  0.00    +0.000 A 
ATOM     17  C   UNL     1       6.427  -3.132   3.310  0.00  0.00    +0.000 A 
ATOM     18  C   UNL     1       6.272  -4.355   3.970  0.00  0.00    +0.000 A 
ATOM     19  C   UNL     1       5.038  -5.001   3.972  0.00  0.00    +0.000 A 
ATOM     20  C   UNL     1       3.962  -4.436   3.300  0.00  0.00    +0.000 A 
ATOM     21  C   UNL     1       4.114  -3.218   2.625  0.00  0.00    +0.000 A 
ENDBRANCH   8  16
BRANCH   2  22
ATOM     22  C   UNL     1       3.343  -1.211  -1.411  0.00  0.00    +0.000 C 
BRANCH  22  23
ATOM     23  O   UNL     1       3.541  -0.057  -2.207  0.00  0.00    +0.000 OA
BRANCH  23  24
ATOM     24  C   UNL     1       4.199  -0.275  -3.389  0.00  0.00    +0.000 A 
ATOM     25  C   UNL     1       4.220  -1.479  -4.096  0.00  0.00    +0.000 A 
ATOM     26  C   UNL     1       4.913  -1.554  -5.300  0.00  0.00    +0.000 A 
ATOM     27  F   UNL     1       4.925  -2.711  -5.978  0.00  0.00    +0.000 F 
ATOM     28  C   UNL     1       5.585  -0.453  -5.816  0.00  0.00    +0.000 A 
ATOM     29  C   UNL     1       5.557   0.754  -5.120  0.00  0.00    +0.000 A 
ATOM     30  C   UNL     1       4.858   0.841  -3.913  0.00  0.00    +0.000 A 
ENDBRANCH  23  24
ENDBRANCH  22  23
ENDBRANCH   2  22
TORSDOF 5
