REMARK  Name = 
REMARK  5 active torsions:
REMARK  status: ('A' for Active; 'I' for Inactive)
REMARK    1  A    between atoms: C_1  and  C_2
REMARK    2  A    between atoms: C_11  and  C_12
REMARK    3  A    between atoms: N_14  and  C_15
REMARK    4  A    between atoms: C_15  and  C_16
REMARK    5  A    between atoms: C_20  and  C_21
REMARK                            x       y       z     vdW  Elec       q    Type
REMARK                         _______ _______ _______ _____ _____    ______ ____
ROOT
ATOM      1  C   UNL     1       5.521  -4.912  -0.101  0.00  0.00    +0.000 C 
ATOM      2  O   UNL     1       6.746  -4.856  -0.043  0.00  0.00    +0.000 OA
ATOM      3  N   UNL     1       4.825  -6.094  -0.159  0.00  0.00    +0.000 N 
ATOM      4  H   UNL     1       3.810  -6.056  -0.062  0.00  0.00    +0.000 HD
ENDROOT
BRANCH   1  15
ATOM      5  C   UNL     1       3.274   1.327  -0.653  0.00  0.00    +0.000 C 
ATOM      6  C   UNL     1       2.582   0.058  -0.248  0.00  0.00    +0.000 A 
ATOM      7  C   UNL     1       1.226   0.099   0.113  0.00  0.00    +0.000 A 
ATOM      8  F   UNL     1       0.570   1.269   0.111  0.00  0.00    +0.000 F 
ATOM      9  C   UNL     1       0.527  -1.046   0.487  0.00  0.00    +0.000 A 
ATOM     10  C   UNL     1       1.175  -2.275   0.493  0.00  0.00    +0.000 A 
ATOM     11  C   UNL     1       2.526  -2.341   0.138  0.00  0.00    +0.000 A 
ATOM     12  C   UNL     1       3.247  -1.182  -0.228  0.00  0.00    +0.000 A 
ATOM     13  N   UNL     1       4.619  -1.297  -0.509  0.00  0.00    +0.000 N 
ATOM     14  C   UNL     1       5.263  -2.506  -0.428  0.00  0.00    +0.000 A 
ATOM     15  C   UNL     1       4.683  -3.680  -0.129  0.00  0.00    +0.000 A 
ATOM     16  C   UNL     1       3.221  -3.657   0.137  0.00  0.00    +0.000 A 
ATOM     17  O   UNL     1       2.592  -4.692   0.347  0.00  0.00    +0.000 OA
ATOM     18  H   UNL     1       5.134  -0.496  -0.852  0.00  0.00    +0.000 HD
ENDBRANCH   1  15
BRANCH   3  19
ATOM     19  C   UNL     1       5.475  -7.378  -0.033  0.00  0.00    +0.000 C 
BRANCH  19  20
ATOM     20  C   UNL     1       4.791  -8.433  -0.854  0.00  0.00    +0.000 A 
ATOM     21  C   UNL     1       4.299  -9.592  -0.270  0.00  0.00    +0.000 A 
ATOM     22  N   UNL     1       3.706 -10.589  -0.960  0.00  0.00    +0.000 NA
ATOM     23  C   UNL     1       3.595 -10.420  -2.301  0.00  0.00    +0.000 A 
ATOM     24  C   UNL     1       4.051  -9.310  -3.017  0.00  0.00    +0.000 A 
ATOM     25  C   UNL     1       4.665  -8.309  -2.247  0.00  0.00    +0.000 A 
BRANCH  24  26
ATOM     26  C   UNL     1       3.883  -9.199  -4.479  0.00  0.00    +0.000 A 
ATOM     27  C   UNL     1       3.925 -10.315  -5.329  0.00  0.00    +0.000 A 
ATOM     28  C   UNL     1       3.722 -10.177  -6.702  0.00  0.00    +0.000 A 
ATOM     29  C   UNL     1       3.492  -8.911  -7.208  0.00  0.00    +0.000 A 
ATOM     30  N   UNL     1       3.458  -7.802  -6.444  0.00  0.00    +0.000 NA
ATOM     31  C   UNL     1       3.649  -7.974  -5.111  0.00  0.00    +0.000 A 
ENDBRANCH  24  26
ENDBRANCH  19  20
ENDBRANCH   3  19
TORSDOF 4
