REMARK  Name = 
REMARK  4 active torsions:
REMARK  status: ('A' for Active; 'I' for Inactive)
REMARK    1  A    between atoms: C_2  and  C_15
REMARK    2  A    between atoms: N_3  and  C_4
REMARK    3  A    between atoms: C_15  and  N_18
REMARK    4  A    between atoms: C_20  and  C_21
REMARK                            x       y       z     vdW  Elec       q    Type
REMARK                         _______ _______ _______ _____ _____    ______ ____
ROOT
ATOM      1  O   UNL     1       0.984   0.187   0.146  0.00  0.00    +0.000 OA
ATOM      2  C   UNL     1       2.199  -0.007   0.053  0.00  0.00    +0.000 C 
ATOM      3  N   UNL     1       2.853  -0.555  -1.053  0.00  0.00    +0.000 N 
ATOM      4  H   UNL     1       3.838  -0.773  -0.966  0.00  0.00    +0.000 HD
ENDROOT
BRANCH   3   5
ATOM      5  C   UNL     1       2.212  -0.882  -2.258  0.00  0.00    +0.000 A 
ATOM      6  C   UNL     1       2.908  -1.643  -3.194  0.00  0.00    +0.000 A 
ATOM      7  C   UNL     1       2.276  -2.003  -4.400  0.00  0.00    +0.000 A 
ATOM      8  C   UNL     1       2.901  -2.808  -5.368  0.00  0.00    +0.000 A 
ATOM      9  C   UNL     1       2.238  -3.119  -6.554  0.00  0.00    +0.000 A 
ATOM     10  F   UNL     1       2.852  -3.881  -7.468  0.00  0.00    +0.000 F 
ATOM     11  C   UNL     1       0.954  -2.654  -6.805  0.00  0.00    +0.000 A 
ATOM     12  C   UNL     1       0.310  -1.874  -5.846  0.00  0.00    +0.000 A 
ATOM     13  C   UNL     1       0.963  -1.551  -4.642  0.00  0.00    +0.000 A 
ATOM     14  C   UNL     1       0.365  -0.787  -3.646  0.00  0.00    +0.000 A 
ATOM     15  N   UNL     1       0.960  -0.458  -2.479  0.00  0.00    +0.000 NA
ENDBRANCH   3   5
BRANCH   2  16
ATOM     16  C   UNL     1       3.128   0.255   1.248  0.00  0.00    +0.000 C 
ATOM     17  F   UNL     1       2.853  -0.622   2.270  0.00  0.00    +0.000 F 
ATOM     18  F   UNL     1       4.440  -0.005   0.922  0.00  0.00    +0.000 F 
BRANCH  16  19
ATOM     19  N   UNL     1       2.961   1.627   1.716  0.00  0.00    +0.000 N 
ATOM     20  C   UNL     1       2.067   2.082   2.646  0.00  0.00    +0.000 A 
ATOM     21  C   UNL     1       2.315   3.434   2.719  0.00  0.00    +0.000 A 
ATOM     22  N   UNL     1       3.325   3.752   1.847  0.00  0.00    +0.000 NA
ATOM     23  N   UNL     1       3.725   2.636   1.245  0.00  0.00    +0.000 NA
BRANCH  21  24
ATOM     24  C   UNL     1       1.583   4.384   3.533  0.00  0.00    +0.000 A 
ATOM     25  C   UNL     1       0.974   3.988   4.735  0.00  0.00    +0.000 A 
ATOM     26  C   UNL     1       0.198   4.886   5.470  0.00  0.00    +0.000 A 
ATOM     27  C   UNL     1       0.027   6.192   5.016  0.00  0.00    +0.000 A 
ATOM     28  C   UNL     1       0.654   6.607   3.842  0.00  0.00    +0.000 A 
ATOM     29  C   UNL     1       1.435   5.710   3.107  0.00  0.00    +0.000 A 
ENDBRANCH  21  24
ENDBRANCH  16  19
ENDBRANCH   2  16
TORSDOF 4
