REMARK  Name = 
REMARK  4 active torsions:
REMARK  status: ('A' for Active; 'I' for Inactive)
REMARK    1  A    between atoms: C_2  and  C_15
REMARK    2  A    between atoms: N_3  and  C_4
REMARK    3  A    between atoms: C_6  and  C_7
REMARK    4  A    between atoms: C_16  and  C_17
REMARK                            x       y       z     vdW  Elec       q    Type
REMARK                         _______ _______ _______ _____ _____    ______ ____
ROOT
ATOM      1  O   UNL     1       2.146  -0.209  -1.185  0.00  0.00    +0.000 OA
ATOM      2  C   UNL     1       2.079   0.106   0.002  0.00  0.00    +0.000 C 
ATOM      3  N   UNL     1       1.175  -0.445   0.888  0.00  0.00    +0.000 N 
ATOM      4  H   UNL     1       1.023   0.057   1.762  0.00  0.00    +0.000 HD
ENDROOT
BRANCH   3   5
ATOM      5  C   UNL     1       0.313  -1.489   0.608  0.00  0.00    +0.000 A 
ATOM      6  C   UNL     1       0.485  -2.382  -0.384  0.00  0.00    +0.000 A 
ATOM      7  C   UNL     1      -0.464  -3.450  -0.652  0.00  0.00    +0.000 A 
ATOM      8  C   UNL     1      -1.552  -3.547   0.127  0.00  0.00    +0.000 A 
ATOM      9  N   UNL     1      -1.763  -2.664   1.157  0.00  0.00    +0.000 N 
ATOM     10  C   UNL     1      -0.908  -1.633   1.479  0.00  0.00    +0.000 A 
ATOM     11  O   UNL     1      -1.131  -0.858   2.406  0.00  0.00    +0.000 OA
ATOM     12  H   UNL     1      -2.593  -2.741   1.733  0.00  0.00    +0.000 HD
BRANCH   7  13
ATOM     13  C   UNL     1      -0.193  -4.399  -1.787  0.00  0.00    +0.000 C 
ATOM     14  F   UNL     1       0.961  -4.138  -2.451  0.00  0.00    +0.000 F 
ATOM     15  F   UNL     1      -0.104  -5.681  -1.346  0.00  0.00    +0.000 F 
ATOM     16  F   UNL     1      -1.190  -4.374  -2.708  0.00  0.00    +0.000 F 
ENDBRANCH   7  13
ENDBRANCH   3   5
BRANCH   2  17
ATOM     17  C   UNL     1       2.893   1.171   0.565  0.00  0.00    +0.000 A 
ATOM     18  C   UNL     1       4.041   1.708   0.008  0.00  0.00    +0.000 A 
ATOM     19  O   UNL     1       4.433   2.754   0.808  0.00  0.00    +0.000 OA
ATOM     20  C   UNL     1       3.525   2.762   1.819  0.00  0.00    +0.000 A 
ATOM     21  N   UNL     1       2.592   1.840   1.747  0.00  0.00    +0.000 NA
BRANCH  18  22
ATOM     22  C   UNL     1       4.891   1.401  -1.130  0.00  0.00    +0.000 A 
ATOM     23  C   UNL     1       5.609   2.380  -1.798  0.00  0.00    +0.000 A 
ATOM     24  C   UNL     1       6.446   1.992  -2.840  0.00  0.00    +0.000 A 
ATOM     25  C   UNL     1       6.537   0.641  -3.194  0.00  0.00    +0.000 A 
ATOM     26  C   UNL     1       7.382   0.203  -4.229  0.00  0.00    +0.000 A 
ATOM     27  C   UNL     1       7.441  -1.148  -4.566  0.00  0.00    +0.000 A 
ATOM     28  C   UNL     1       6.646  -2.061  -3.882  0.00  0.00    +0.000 A 
ATOM     29  C   UNL     1       5.812  -1.621  -2.848  0.00  0.00    +0.000 A 
ATOM     30  C   UNL     1       5.752  -0.283  -2.476  0.00  0.00    +0.000 A 
ATOM     31  N   UNL     1       4.965   0.088  -1.450  0.00  0.00    +0.000 NA
ENDBRANCH  18  22
ENDBRANCH   2  17
TORSDOF 4
