REMARK  Name = 
REMARK  8 active torsions:
REMARK  status: ('A' for Active; 'I' for Inactive)
REMARK    1  A    between atoms: C_1  and  C_2
REMARK    2  A    between atoms: N_4  and  C_5
REMARK    3  A    between atoms: C_12  and  C_13
REMARK    4  A    between atoms: C_13  and  N_14
REMARK    5  A    between atoms: C_15  and  C_17
REMARK    6  A    between atoms: C_19  and  C_20
REMARK    7  A    between atoms: C_22  and  C_23
REMARK    8  A    between atoms: C_23  and  N_24
REMARK                            x       y       z     vdW  Elec       q    Type
REMARK                         _______ _______ _______ _____ _____    ______ ____
ROOT
ATOM      1  N   UNL     1       1.969   3.092  -0.046  0.00  0.00    +0.000 N 
ATOM      2  C   UNL     1       1.583   4.410  -0.125  0.00  0.00    +0.000 C 
ATOM      3  O   UNL     1       2.385   5.331  -0.280  0.00  0.00    +0.000 OA
ATOM      4  H   UNL     1       1.299   2.336   0.043  0.00  0.00    +0.000 HD
ENDROOT
BRANCH   2   5
ATOM      5  C   UNL     1       0.123   4.706  -0.036  0.00  0.00    +0.000 A 
ATOM      6  C   UNL     1      -0.746   3.927   0.746  0.00  0.00    +0.000 A 
ATOM      7  C   UNL     1      -2.115   4.252   0.872  0.00  0.00    +0.000 A 
ATOM      8  C   UNL     1      -2.582   5.372   0.158  0.00  0.00    +0.000 A 
ATOM      9  C   UNL     1      -1.726   6.149  -0.624  0.00  0.00    +0.000 A 
ATOM     10  C   UNL     1      -0.374   5.828  -0.707  0.00  0.00    +0.000 A 
BRANCH   7  11
ATOM     11  C   UNL     1      -3.024   3.466   1.742  0.00  0.00    +0.000 A 
ATOM     12  C   UNL     1      -4.386   3.293   1.423  0.00  0.00    +0.000 A 
ATOM     13  C   UNL     1      -5.264   2.564   2.247  0.00  0.00    +0.000 A 
ATOM     14  C   UNL     1      -4.762   1.981   3.414  0.00  0.00    +0.000 A 
ATOM     15  C   UNL     1      -3.420   2.133   3.754  0.00  0.00    +0.000 A 
ATOM     16  C   UNL     1      -2.567   2.873   2.932  0.00  0.00    +0.000 A 
BRANCH  13  17
ATOM     17  C   UNL     1      -6.707   2.375   1.849  0.00  0.00    +0.000 C 
BRANCH  17  18
ATOM     18  N   UNL     1      -7.420   3.642   1.738  0.00  0.00    +0.000 NA
ATOM     19  H   UNL     1      -7.439   4.091   2.652  0.00  0.00    +0.000 HD
ATOM     20  H   UNL     1      -8.391   3.452   1.494  0.00  0.00    +0.000 HD
ENDBRANCH  17  18
ENDBRANCH  13  17
ENDBRANCH   7  11
ENDBRANCH   2   5
BRANCH   1  21
ATOM     21  C   UNL     1       3.369   2.718  -0.034  0.00  0.00    +0.000 C 
BRANCH  21  27
ATOM     22  C   UNL     1       5.846   1.351  -1.753  0.00  0.00    +0.000 C 
ATOM     23  C   UNL     1       4.645   0.725  -1.156  0.00  0.00    +0.000 A 
ATOM     24  N   UNL     1       4.483  -0.596  -1.233  0.00  0.00    +0.000 NA
ATOM     25  N   UNL     1       3.283  -0.794  -0.634  0.00  0.00    +0.000 N 
ATOM     26  N   UNL     1       2.665   0.327  -0.158  0.00  0.00    +0.000 NA
ATOM     27  C   UNL     1       3.554   1.295  -0.455  0.00  0.00    +0.000 A 
BRANCH  25  28
ATOM     28  C   UNL     1       2.738  -2.100  -0.520  0.00  0.00    +0.000 A 
ATOM     29  C   UNL     1       3.514  -3.208  -0.900  0.00  0.00    +0.000 A 
ATOM     30  C   UNL     1       2.997  -4.499  -0.797  0.00  0.00    +0.000 A 
ATOM     31  C   UNL     1       1.698  -4.690  -0.331  0.00  0.00    +0.000 A 
ATOM     32  C   UNL     1       0.919  -3.591   0.043  0.00  0.00    +0.000 A 
ATOM     33  C   UNL     1       1.438  -2.296  -0.041  0.00  0.00    +0.000 A 
ENDBRANCH  25  28
ENDBRANCH  21  27
ENDBRANCH   1  21
TORSDOF 7
