REMARK  Name = 
REMARK  5 active torsions:
REMARK  status: ('A' for Active; 'I' for Inactive)
REMARK    1  A    between atoms: C_2  and  C_16
REMARK    2  A    between atoms: N_3  and  C_4
REMARK    3  A    between atoms: C_4  and  C_5
REMARK    4  A    between atoms: C_19  and  O_20
REMARK    5  A    between atoms: O_20  and  C_21
REMARK                            x       y       z     vdW  Elec       q    Type
REMARK                         _______ _______ _______ _____ _____    ______ ____
ROOT
ATOM      1  O   UNL     1       1.086   0.036   0.147  0.00  0.00    +0.000 OA
ATOM      2  C   UNL     1       2.307  -0.027   0.014  0.00  0.00    +0.000 C 
ATOM      3  N   UNL     1       3.069  -1.039   0.559  0.00  0.00    +0.000 N 
ATOM      4  H   UNL     1       4.071  -0.904   0.582  0.00  0.00    +0.000 HD
ENDROOT
BRANCH   2   5
ATOM      5  C   UNL     1       3.023   1.020  -0.780  0.00  0.00    +0.000 A 
ATOM      6  C   UNL     1       2.253   2.035  -1.347  0.00  0.00    +0.000 A 
ATOM      7  C   UNL     1       2.877   2.980  -2.153  0.00  0.00    +0.000 A 
ATOM      8  C   UNL     1       4.257   2.934  -2.324  0.00  0.00    +0.000 A 
ATOM      9  C   UNL     1       4.943   1.872  -1.730  0.00  0.00    +0.000 A 
ATOM     10  N   UNL     1       4.366   0.909  -0.956  0.00  0.00    +0.000 NA
BRANCH   8  11
ATOM     11  O   UNL     1       4.981   3.828  -3.079  0.00  0.00    +0.000 OA
BRANCH  11  12
ATOM     12  C   UNL     1       4.539   5.130  -3.205  0.00  0.00    +0.000 A 
ATOM     13  C   UNL     1       3.929   5.847  -2.167  0.00  0.00    +0.000 A 
ATOM     14  C   UNL     1       3.475   7.149  -2.385  0.00  0.00    +0.000 A 
ATOM     15  C   UNL     1       3.691   7.752  -3.618  0.00  0.00    +0.000 A 
ATOM     16  F   UNL     1       3.258   9.002  -3.823  0.00  0.00    +0.000 F 
ATOM     17  C   UNL     1       4.358   7.079  -4.635  0.00  0.00    +0.000 A 
ATOM     18  C   UNL     1       4.783   5.763  -4.429  0.00  0.00    +0.000 A 
ENDBRANCH  11  12
ENDBRANCH   8  11
ENDBRANCH   2   5
BRANCH   3  19
ATOM     19  C   UNL     1       2.433  -2.043   1.400  0.00  0.00    +0.000 C 
BRANCH  19  20
ATOM     20  C   UNL     1       3.122  -3.372   1.314  0.00  0.00    +0.000 A 
ATOM     21  C   UNL     1       3.877  -3.801   0.287  0.00  0.00    +0.000 A 
ATOM     22  C   UNL     1       4.476  -5.134   0.293  0.00  0.00    +0.000 A 
ATOM     23  C   UNL     1       5.261  -5.586  -0.771  0.00  0.00    +0.000 A 
ATOM     24  C   UNL     1       5.821  -6.864  -0.731  0.00  0.00    +0.000 A 
ATOM     25  C   UNL     1       5.596  -7.695   0.369  0.00  0.00    +0.000 A 
ATOM     26  C   UNL     1       4.807  -7.254   1.431  0.00  0.00    +0.000 A 
ATOM     27  C   UNL     1       4.251  -5.976   1.389  0.00  0.00    +0.000 A 
ATOM     28  N   UNL     1       3.454  -5.522   2.443  0.00  0.00    +0.000 N 
ATOM     29  C   UNL     1       2.873  -4.282   2.479  0.00  0.00    +0.000 A 
ATOM     30  O   UNL     1       2.177  -3.940   3.429  0.00  0.00    +0.000 OA
ATOM     31  H   UNL     1       3.270  -6.117   3.238  0.00  0.00    +0.000 HD
ENDBRANCH  19  20
ENDBRANCH   3  19
TORSDOF 5
