REMARK  Name = 
REMARK  7 active torsions:
REMARK  status: ('A' for Active; 'I' for Inactive)
REMARK    1  A    between atoms: C_1  and  N_2
REMARK    2  A    between atoms: C_6  and  C_7
REMARK    3  A    between atoms: C_12  and  C_13
REMARK    4  A    between atoms: N_15  and  C_16
REMARK    5  A    between atoms: C_19  and  O_20
REMARK    6  A    between atoms: O_20  and  C_21
REMARK    7  A    between atoms: C_26  and  C_27
REMARK                            x       y       z     vdW  Elec       q    Type
REMARK                         _______ _______ _______ _____ _____    ______ ____
ROOT
ATOM      1  C   UNL     1       1.358   2.067  -2.389  0.00  0.00    +0.000 C 
ATOM      2  O   UNL     1       0.891   0.934  -2.333  0.00  0.00    +0.000 OA
ATOM      3  N   UNL     1       2.261   2.477  -3.370  0.00  0.00    +0.000 N 
ATOM      4  H   UNL     1       2.993   3.115  -3.098  0.00  0.00    +0.000 HD
ENDROOT
BRANCH   1  10
ATOM      5  C   UNL     1      -0.155   3.035  -0.609  0.00  0.00    +0.000 A 
ATOM      6  N   UNL     1      -0.391   3.861   0.458  0.00  0.00    +0.000 NA
ATOM      7  C   UNL     1       0.603   4.674   0.869  0.00  0.00    +0.000 A 
ATOM      8  C   UNL     1       1.849   4.712   0.277  0.00  0.00    +0.000 A 
ATOM      9  C   UNL     1       2.088   3.870  -0.806  0.00  0.00    +0.000 A 
ATOM     10  C   UNL     1       1.075   3.021  -1.280  0.00  0.00    +0.000 A 
BRANCH   5  16
ATOM     11  C   UNL     1      -2.328   1.930   1.360  0.00  0.00    +0.000 C 
ATOM     12  N   UNL     1      -2.229   1.685  -0.055  0.00  0.00    +0.000 N 
ATOM     13  C   UNL     1      -3.062   0.879  -0.768  0.00  0.00    +0.000 A 
ATOM     14  N   UNL     1      -2.777   0.975  -2.043  0.00  0.00    +0.000 NA
ATOM     15  N   UNL     1      -1.704   1.829  -2.161  0.00  0.00    +0.000 NA
ATOM     16  C   UNL     1      -1.318   2.205  -0.951  0.00  0.00    +0.000 A 
ENDBRANCH   5  16
ENDBRANCH   1  10
BRANCH   3  17
ATOM     17  C   UNL     1       2.554   1.621  -4.449  0.00  0.00    +0.000 A 
ATOM     18  C   UNL     1       1.526   1.155  -5.272  0.00  0.00    +0.000 A 
ATOM     19  C   UNL     1       1.807   0.252  -6.298  0.00  0.00    +0.000 A 
ATOM     20  C   UNL     1       3.121  -0.172  -6.512  0.00  0.00    +0.000 A 
ATOM     21  C   UNL     1       4.144   0.291  -5.680  0.00  0.00    +0.000 A 
ATOM     22  C   UNL     1       3.869   1.216  -4.669  0.00  0.00    +0.000 A 
BRANCH  20  23
ATOM     23  O   UNL     1       3.495  -1.095  -7.464  0.00  0.00    +0.000 OA
BRANCH  23  24
ATOM     24  C   UNL     1       2.837  -1.144  -8.680  0.00  0.00    +0.000 A 
ATOM     25  C   UNL     1       2.364  -0.001  -9.326  0.00  0.00    +0.000 A 
ATOM     26  C   UNL     1       1.703  -0.114 -10.549  0.00  0.00    +0.000 A 
ATOM     27  C   UNL     1       1.560  -1.356 -11.158  0.00  0.00    +0.000 A 
ATOM     28  C   UNL     1       2.085  -2.492 -10.552  0.00  0.00    +0.000 A 
ATOM     29  C   UNL     1       2.725  -2.394  -9.306  0.00  0.00    +0.000 A 
BRANCH  29  30
ATOM     30  C   UNL     1       3.270  -3.577  -8.712  0.00  0.00    +0.000 C 
ATOM     31  N   UNL     1       3.711  -4.558  -8.276  0.00  0.00    +0.000 NA
ENDBRANCH  29  30
ENDBRANCH  23  24
ENDBRANCH  20  23
ENDBRANCH   3  17
TORSDOF 6
