REMARK  Name = 
REMARK  8 active torsions:
REMARK  status: ('A' for Active; 'I' for Inactive)
REMARK    1  A    between atoms: C_2  and  C_15
REMARK    2  A    between atoms: N_3  and  CA_4
REMARK    3  A    between atoms: CA_4  and  C_5
REMARK    4  A    between atoms: CA_4  and  C_7
REMARK    5  A    between atoms: C_5  and  O_6
REMARK    6  A    between atoms: C_17  and  O_18
REMARK    7  A    between atoms: O_18  and  C_19
REMARK    8  A    between atoms: C_27  and  O_28
REMARK                            x       y       z     vdW  Elec       q    Type
REMARK                         _______ _______ _______ _____ _____    ______ ____
ROOT
ATOM      1  O   UNL     1       1.164   0.562  -0.298  0.00  0.00    +0.000 OA
ATOM      2  C   UNL     1       2.189  -0.007   0.066  0.00  0.00    +0.000 C 
ATOM      3  N   UNL     1       2.662   0.090   1.353  0.00  0.00    +0.000 N 
ATOM      4  H   UNL     1       3.556  -0.351   1.560  0.00  0.00    +0.000 HD
ENDROOT
BRANCH   2   5
ATOM      5  C   UNL     1       2.992  -0.812  -0.910  0.00  0.00    +0.000 A 
ATOM      6  C   UNL     1       2.509  -0.854  -2.228  0.00  0.00    +0.000 A 
ATOM      7  C   UNL     1       3.259  -1.446  -3.248  0.00  0.00    +0.000 A 
ATOM      8  C   UNL     1       4.440  -2.115  -2.929  0.00  0.00    +0.000 A 
ATOM      9  C   UNL     1       4.905  -2.141  -1.613  0.00  0.00    +0.000 A 
ATOM     10  C   UNL     1       4.190  -1.477  -0.610  0.00  0.00    +0.000 A 
BRANCH  10  11
ATOM     11  O   UNL     1       4.689  -1.489   0.668  0.00  0.00    +0.000 OA
ATOM     12  H   UNL     1       5.426  -2.127   0.707  0.00  0.00    +0.000 HD
ENDBRANCH  10  11
BRANCH   7  13
ATOM     13  O   UNL     1       2.889  -1.470  -4.573  0.00  0.00    +0.000 OA
BRANCH  13  14
ATOM     14  C   UNL     1       2.190  -0.415  -5.121  0.00  0.00    +0.000 A 
ATOM     15  C   UNL     1       2.308   0.918  -4.716  0.00  0.00    +0.000 A 
ATOM     16  C   UNL     1       1.523   1.905  -5.315  0.00  0.00    +0.000 A 
ATOM     17  C   UNL     1       0.666   1.576  -6.363  0.00  0.00    +0.000 A 
ATOM     18  C   UNL     1       0.597   0.260  -6.817  0.00  0.00    +0.000 A 
ATOM     19  C   UNL     1       1.357  -0.734  -6.196  0.00  0.00    +0.000 A 
ENDBRANCH  13  14
ENDBRANCH   7  13
ENDBRANCH   2   5
BRANCH   3  20
ATOM     20  CA  UNL     1       2.059   0.983   2.341  0.00  0.00    +0.000 C 
BRANCH  20  21
ATOM     21  C   UNL     1       2.581   2.404   2.260  0.00  0.00    +0.000 A 
ATOM     22  C   UNL     1       3.885   2.719   1.842  0.00  0.00    +0.000 A 
ATOM     23  C   UNL     1       4.344   4.042   1.867  0.00  0.00    +0.000 A 
ATOM     24  C   UNL     1       3.508   5.066   2.312  0.00  0.00    +0.000 A 
ATOM     25  C   UNL     1       2.215   4.763   2.720  0.00  0.00    +0.000 A 
ATOM     26  F   UNL     1       1.419   5.747   3.162  0.00  0.00    +0.000 F 
ATOM     27  C   UNL     1       1.756   3.450   2.695  0.00  0.00    +0.000 A 
ATOM     28  F   UNL     1       0.516   3.180   3.131  0.00  0.00    +0.000 F 
ENDBRANCH  20  21
BRANCH  20  29
ATOM     29  C   UNL     1       2.280   0.423   3.763  0.00  0.00    +0.000 C 
BRANCH  29  30
ATOM     30  O   UNL     1       1.794  -0.915   3.894  0.00  0.00    +0.000 OA
ATOM     31  H   UNL     1       1.491  -1.202   3.013  0.00  0.00    +0.000 HD
ENDBRANCH  29  30
ENDBRANCH  20  29
ENDBRANCH   3  20
TORSDOF 8
