REMARK  Name = 
REMARK  7 active torsions:
REMARK  status: ('A' for Active; 'I' for Inactive)
REMARK    1  A    between atoms: C_2  and  C_18
REMARK    2  A    between atoms: N_3  and  C_4
REMARK    3  A    between atoms: C_4  and  C_5
REMARK    4  A    between atoms: C_4  and  C_12
REMARK    5  A    between atoms: C_5  and  C_6
REMARK    6  A    between atoms: C_22  and  O_23
REMARK    7  A    between atoms: O_23  and  C_24
REMARK                            x       y       z     vdW  Elec       q    Type
REMARK                         _______ _______ _______ _____ _____    ______ ____
ROOT
ATOM      1  O   UNL     1       3.282   1.762   1.354  0.00  0.00    +0.000 OA
ATOM      2  C   UNL     1       3.552   0.768   0.683  0.00  0.00    +0.000 C 
ATOM      3  N   UNL     1       3.073  -0.483   1.011  0.00  0.00    +0.000 N 
ATOM      4  H   UNL     1       3.519  -1.300   0.624  0.00  0.00    +0.000 HD
ENDROOT
BRANCH   2   5
ATOM      5  C   UNL     1       4.415   0.936  -0.535  0.00  0.00    +0.000 A 
ATOM      6  C   UNL     1       4.884   2.243  -0.774  0.00  0.00    +0.000 A 
ATOM      7  C   UNL     1       5.663   2.541  -1.885  0.00  0.00    +0.000 A 
ATOM      8  C   UNL     1       5.995   1.528  -2.772  0.00  0.00    +0.000 A 
ATOM      9  C   UNL     1       5.591   0.206  -2.529  0.00  0.00    +0.000 A 
ATOM     10  C   UNL     1       4.758  -0.086  -1.435  0.00  0.00    +0.000 A 
BRANCH   9  11
ATOM     11  O   UNL     1       5.949  -0.835  -3.370  0.00  0.00    +0.000 OA
BRANCH  11  12
ATOM     12  C   UNL     1       7.229  -0.796  -3.916  0.00  0.00    +0.000 A 
ATOM     13  C   UNL     1       7.470  -1.443  -5.118  0.00  0.00    +0.000 A 
ATOM     14  N   UNL     1       8.692  -1.439  -5.717  0.00  0.00    +0.000 NA
ATOM     15  C   UNL     1       9.657  -0.754  -5.058  0.00  0.00    +0.000 A 
ATOM     16  C   UNL     1       9.417  -0.101  -3.864  0.00  0.00    +0.000 A 
ATOM     17  N   UNL     1       8.213  -0.130  -3.260  0.00  0.00    +0.000 NA
ENDBRANCH  11  12
ENDBRANCH   9  11
ENDBRANCH   2   5
BRANCH   3  18
ATOM     18  C   UNL     1       2.373  -0.662   2.291  0.00  0.00    +0.000 C 
BRANCH  18  19
ATOM     19  C   UNL     1       3.349  -0.876   3.463  0.00  0.00    +0.000 A 
ATOM     20  C   UNL     1       2.869  -1.053   4.765  0.00  0.00    +0.000 A 
ATOM     21  C   UNL     1       3.763  -1.274   5.807  0.00  0.00    +0.000 A 
ATOM     22  C   UNL     1       5.135  -1.267   5.537  0.00  0.00    +0.000 A 
ATOM     23  C   UNL     1       5.531  -1.063   4.227  0.00  0.00    +0.000 A 
ATOM     24  N   UNL     1       4.682  -0.890   3.196  0.00  0.00    +0.000 NA
ENDBRANCH  18  19
BRANCH  18  25
ATOM     25  C   UNL     1       1.380  -1.838   2.227  0.00  0.00    +0.000 C 
BRANCH  25  26
ATOM     26  C   UNL     1       0.283  -1.731   1.200  0.00  0.00    +0.000 A 
ATOM     27  C   UNL     1      -0.622  -0.671   1.216  0.00  0.00    +0.000 A 
ATOM     28  C   UNL     1      -1.769  -0.754   0.431  0.00  0.00    +0.000 A 
ATOM     29  C   UNL     1      -1.989  -1.892  -0.333  0.00  0.00    +0.000 A 
ATOM     30  C   UNL     1      -1.014  -2.874  -0.337  0.00  0.00    +0.000 A 
ATOM     31  N   UNL     1       0.114  -2.814   0.402  0.00  0.00    +0.000 NA
ENDBRANCH  25  26
ENDBRANCH  18  25
ENDBRANCH   3  18
TORSDOF 7
