REMARK  Name = 
REMARK  6 active torsions:
REMARK  status: ('A' for Active; 'I' for Inactive)
REMARK    1  A    between atoms: C_2  and  O_3
REMARK    2  A    between atoms: C_2  and  C_18
REMARK    3  A    between atoms: O_3  and  C_4
REMARK    4  A    between atoms: C_4  and  C_5
REMARK    5  A    between atoms: C_4  and  C_12
REMARK    6  A    between atoms: N_22  and  C_23
REMARK                            x       y       z     vdW  Elec       q    Type
REMARK                         _______ _______ _______ _____ _____    ______ ____
ROOT
ATOM      1  O   UNL     1       2.920   0.997  -0.391  0.00  0.00    +0.000 OA
ATOM      2  C   UNL     1       2.424  -0.097  -0.173  0.00  0.00    +0.000 C 
ENDROOT
BRANCH   2   3
ATOM      3  C   UNL     1       0.960  -0.345  -0.193  0.00  0.00    +0.000 A 
ATOM      4  C   UNL     1       0.443  -1.552   0.033  0.00  0.00    +0.000 A 
ATOM      5  C   UNL     1      -1.011  -1.785   0.078  0.00  0.00    +0.000 A 
ATOM      6  O   UNL     1      -1.367  -2.949   0.248  0.00  0.00    +0.000 OA
ATOM      7  N   UNL     1      -1.826  -0.656  -0.082  0.00  0.00    +0.000 N 
ATOM      8  N   UNL     1      -1.311   0.591  -0.416  0.00  0.00    +0.000 NA
ATOM      9  C   UNL     1      -0.023   0.714  -0.461  0.00  0.00    +0.000 A 
BRANCH   7  10
ATOM     10  C   UNL     1      -3.258  -0.710   0.049  0.00  0.00    +0.000 A 
ATOM     11  C   UNL     1      -3.897  -1.751   0.743  0.00  0.00    +0.000 A 
ATOM     12  C   UNL     1      -5.291  -1.827   0.836  0.00  0.00    +0.000 A 
ATOM     13  C   UNL     1      -6.082  -0.855   0.237  0.00  0.00    +0.000 A 
ATOM     14  C   UNL     1      -5.475   0.207  -0.428  0.00  0.00    +0.000 A 
ATOM     15  C   UNL     1      -4.077   0.288  -0.508  0.00  0.00    +0.000 A 
ENDBRANCH   7  10
ENDBRANCH   2   3
BRANCH   2  16
ATOM     16  O   UNL     1       3.092  -1.225   0.152  0.00  0.00    +0.000 OA
BRANCH  16  17
ATOM     17  C   UNL     1       4.535  -1.180   0.242  0.00  0.00    +0.000 C 
BRANCH  17  18
ATOM     18  C   UNL     1       4.949  -1.660   1.632  0.00  0.00    +0.000 A 
ATOM     19  C   UNL     1       6.139  -1.192   2.213  0.00  0.00    +0.000 A 
ATOM     20  C   UNL     1       6.503  -1.597   3.495  0.00  0.00    +0.000 A 
ATOM     21  F   UNL     1       7.635  -1.127   4.035  0.00  0.00    +0.000 F 
ATOM     22  C   UNL     1       5.709  -2.472   4.224  0.00  0.00    +0.000 A 
ATOM     23  C   UNL     1       4.546  -2.977   3.650  0.00  0.00    +0.000 A 
ATOM     24  C   UNL     1       4.174  -2.582   2.361  0.00  0.00    +0.000 A 
ENDBRANCH  17  18
BRANCH  17  25
ATOM     25  C   UNL     1       5.150  -2.036  -0.868  0.00  0.00    +0.000 A 
ATOM     26  C   UNL     1       6.445  -1.761  -1.316  0.00  0.00    +0.000 A 
ATOM     27  C   UNL     1       7.021  -2.584  -2.282  0.00  0.00    +0.000 A 
ATOM     28  C   UNL     1       6.296  -3.657  -2.780  0.00  0.00    +0.000 A 
ATOM     29  C   UNL     1       5.017  -3.862  -2.295  0.00  0.00    +0.000 A 
ATOM     30  N   UNL     1       4.431  -3.083  -1.357  0.00  0.00    +0.000 NA
ENDBRANCH  17  25
ENDBRANCH  16  17
ENDBRANCH   2  16
TORSDOF 6
