REMARK  Name = 
REMARK  8 active torsions:
REMARK  status: ('A' for Active; 'I' for Inactive)
REMARK    1  A    between atoms: C_2  and  C_4
REMARK    2  A    between atoms: C_9  and  O_10
REMARK    3  A    between atoms: O_10  and  C_11
REMARK    4  A    between atoms: C_11  and  C_12
REMARK    5  A    between atoms: C_16  and  C_17
REMARK    6  A    between atoms: N_19  and  C_20
REMARK    7  A    between atoms: C_20  and  C_21
REMARK    8  A    between atoms: C_22  and  C_23
REMARK                            x       y       z     vdW  Elec       q    Type
REMARK                         _______ _______ _______ _____ _____    ______ ____
ROOT
ATOM      1  C   UNL     1       4.460  -3.561   0.429  0.00  0.00    +0.000 A 
ATOM      2  C   UNL     1       5.232  -3.651   1.598  0.00  0.00    +0.000 A 
ATOM      3  C   UNL     1       5.498  -4.895   2.181  0.00  0.00    +0.000 A 
ATOM      4  C   UNL     1       4.986  -6.059   1.609  0.00  0.00    +0.000 A 
ATOM      5  C   UNL     1       4.223  -5.974   0.442  0.00  0.00    +0.000 A 
ATOM      6  C   UNL     1       3.982  -4.736  -0.158  0.00  0.00    +0.000 A 
ENDROOT
BRANCH   5   7
ATOM      7  C   UNL     1       3.630  -7.168  -0.195  0.00  0.00    +0.000 C 
ATOM      8  O   UNL     1       3.553  -7.225  -1.417  0.00  0.00    +0.000 OA
ATOM      9  N   UNL     1       3.163  -8.140   0.656  0.00  0.00    +0.000 N 
ATOM     10  H   UNL     1       3.029  -7.944   1.640  0.00  0.00    +0.000 HD
BRANCH   9  11
ATOM     11  C   UNL     1       2.519  -9.310   0.124  0.00  0.00    +0.000 C 
BRANCH  11  12
ATOM     12  C   UNL     1       1.122  -9.452   0.614  0.00  0.00    +0.000 A 
ATOM     13  C   UNL     1       0.235 -10.471   0.303  0.00  0.00    +0.000 A 
ATOM     14  O   UNL     1      -0.921 -10.231   0.999  0.00  0.00    +0.000 OA
ATOM     15  C   UNL     1      -0.666  -9.080   1.687  0.00  0.00    +0.000 A 
ATOM     16  N   UNL     1       0.537  -8.579   1.515  0.00  0.00    +0.000 NA
BRANCH  13  17
ATOM     17  C   UNL     1       0.300 -11.684  -0.506  0.00  0.00    +0.000 A 
ATOM     18  C   UNL     1      -0.487 -12.800  -0.197  0.00  0.00    +0.000 A 
ATOM     19  C   UNL     1      -0.327 -14.001  -0.896  0.00  0.00    +0.000 A 
ATOM     20  C   UNL     1       0.619 -14.101  -1.915  0.00  0.00    +0.000 A 
ATOM     21  C   UNL     1       1.383 -12.994  -2.258  0.00  0.00    +0.000 A 
ATOM     22  C   UNL     1       1.210 -11.793  -1.569  0.00  0.00    +0.000 A 
ENDBRANCH  13  17
ENDBRANCH  11  12
ENDBRANCH   9  11
ENDBRANCH   5   7
BRANCH   1  23
ATOM     23  C   UNL     1       3.943  -2.231  -0.060  0.00  0.00    +0.000 C 
BRANCH  23  24
ATOM     24  O   UNL     1       4.969  -1.298  -0.419  0.00  0.00    +0.000 OA
BRANCH  24  30
ATOM     25  C   UNL     1       5.245   0.806  -1.586  0.00  0.00    +0.000 A 
ATOM     26  C   UNL     1       4.769   2.108  -1.855  0.00  0.00    +0.000 A 
ATOM     27  C   UNL     1       3.579   2.578  -1.304  0.00  0.00    +0.000 A 
ATOM     28  C   UNL     1       2.845   1.757  -0.466  0.00  0.00    +0.000 A 
ATOM     29  C   UNL     1       3.308   0.475  -0.175  0.00  0.00    +0.000 A 
ATOM     30  C   UNL     1       4.501  -0.031  -0.731  0.00  0.00    +0.000 A 
BRANCH  25  32
ATOM     31  N   UNL     1       7.025  -0.808  -2.116  0.00  0.00    +0.000 N 
ATOM     32  C   UNL     1       6.511   0.441  -2.292  0.00  0.00    +0.000 C 
ATOM     33  O   UNL     1       7.086   1.227  -3.040  0.00  0.00    +0.000 OA
ATOM     34  H   UNL     1       7.863  -1.054  -2.621  0.00  0.00    +0.000 HD
ATOM     35  H   UNL     1       6.588  -1.485  -1.508  0.00  0.00    +0.000 HD
ENDBRANCH  25  32
ENDBRANCH  24  30
ENDBRANCH  23  24
ENDBRANCH   1  23
TORSDOF 8
