REMARK  Name = 
REMARK  8 active torsions:
REMARK  status: ('A' for Active; 'I' for Inactive)
REMARK    1  A    between atoms: C_1  and  N_2
REMARK    2  A    between atoms: N_2  and  C_3
REMARK    3  A    between atoms: C_3  and  C_4
REMARK    4  A    between atoms: C_4  and  O_5
REMARK    5  A    between atoms: O_5  and  C_6
REMARK    6  A    between atoms: C_10  and  C_11
REMARK    7  A    between atoms: C_14  and  C_16
REMARK    8  A    between atoms: N_22  and  C_23
REMARK                            x       y       z     vdW  Elec       q    Type
REMARK                         _______ _______ _______ _____ _____    ______ ____
ROOT
ATOM      1  C   UNL     1       4.670  -1.133  -0.459  0.00  0.00    +0.000 A 
ATOM      2  C   UNL     1       5.378  -1.250   0.740  0.00  0.00    +0.000 A 
ATOM      3  C   UNL     1       6.771  -1.272   0.744  0.00  0.00    +0.000 A 
ATOM      4  C   UNL     1       7.464  -1.266  -0.466  0.00  0.00    +0.000 A 
ATOM      5  C   UNL     1       8.934  -1.314  -0.480  0.00  0.00    +0.000 A 
ATOM      6  O   UNL     1       9.506  -1.371   0.608  0.00  0.00    +0.000 OA
ATOM      7  N   UNL     1       9.552  -1.341  -1.734  0.00  0.00    +0.000 N 
ATOM      8  C   UNL     1       8.852  -1.383  -2.942  0.00  0.00    +0.000 A 
ATOM      9  O   UNL     1       9.355  -1.422  -4.066  0.00  0.00    +0.000 OA
ATOM     10  N   UNL     1       7.483  -1.330  -2.861  0.00  0.00    +0.000 N 
ATOM     11  C   UNL     1       6.774  -1.254  -1.667  0.00  0.00    +0.000 A 
ATOM     12  C   UNL     1       5.379  -1.178  -1.674  0.00  0.00    +0.000 A 
ATOM     13  H   UNL     1       7.000  -1.340  -3.752  0.00  0.00    +0.000 HD
ENDROOT
BRANCH   7  14
ATOM     14  C   UNL     1      10.979  -1.373  -1.760  0.00  0.00    +0.000 A 
ATOM     15  C   UNL     1      11.660  -2.363  -2.478  0.00  0.00    +0.000 A 
ATOM     16  C   UNL     1      13.054  -2.427  -2.438  0.00  0.00    +0.000 A 
ATOM     17  C   UNL     1      13.779  -1.481  -1.713  0.00  0.00    +0.000 A 
ATOM     18  C   UNL     1      13.112  -0.477  -1.016  0.00  0.00    +0.000 A 
ATOM     19  C   UNL     1      11.718  -0.432  -1.025  0.00  0.00    +0.000 A 
ENDBRANCH   7  14
BRANCH   1  22
ATOM     20  C   UNL     1       0.985  -0.394   0.228  0.00  0.00    +0.000 C 
ATOM     21  N   UNL     1       2.428  -0.362   0.443  0.00  0.00    +0.000 N 
ATOM     22  C   UNL     1       3.182  -1.052  -0.525  0.00  0.00    +0.000 C 
ATOM     23  O   UNL     1       2.644  -1.596  -1.492  0.00  0.00    +0.000 OA
BRANCH  21  24
ATOM     24  C   UNL     1       3.003   0.498   1.492  0.00  0.00    +0.000 C 
BRANCH  24  25
ATOM     25  C   UNL     1       2.063   1.386   2.304  0.00  0.00    +0.000 C 
BRANCH  25  26
ATOM     26  O   UNL     1       2.842   2.117   3.256  0.00  0.00    +0.000 OA
BRANCH  26  27
ATOM     27  C   UNL     1       2.132   2.884   4.142  0.00  0.00    +0.000 A 
ATOM     28  C   UNL     1       0.746   3.048   4.140  0.00  0.00    +0.000 A 
ATOM     29  C   UNL     1       0.132   3.864   5.085  0.00  0.00    +0.000 A 
ATOM     30  C   UNL     1       0.899   4.524   6.047  0.00  0.00    +0.000 A 
ATOM     31  C   UNL     1       2.292   4.365   6.061  0.00  0.00    +0.000 A 
ATOM     32  C   UNL     1       2.902   3.541   5.107  0.00  0.00    +0.000 A 
BRANCH  31  33
ATOM     33  C   UNL     1       3.083   5.042   7.043  0.00  0.00    +0.000 C 
ATOM     34  N   UNL     1       3.719   5.596   7.843  0.00  0.00    +0.000 NA
ENDBRANCH  31  33
ENDBRANCH  26  27
ENDBRANCH  25  26
ENDBRANCH  24  25
ENDBRANCH  21  24
ENDBRANCH   1  22
TORSDOF 7
