REMARK  Name = 
REMARK  6 active torsions:
REMARK  status: ('A' for Active; 'I' for Inactive)
REMARK    1  A    between atoms: C_2  and  O_3
REMARK    2  A    between atoms: C_2  and  C_18
REMARK    3  A    between atoms: O_3  and  C_4
REMARK    4  A    between atoms: C_4  and  C_5
REMARK    5  A    between atoms: C_4  and  C_12
REMARK    6  A    between atoms: C_22  and  C_23
REMARK                            x       y       z     vdW  Elec       q    Type
REMARK                         _______ _______ _______ _____ _____    ______ ____
ROOT
ATOM      1  O   UNL     1       2.987   1.306  -0.154  0.00  0.00    +0.000 OA
ATOM      2  C   UNL     1       2.395   0.243  -0.252  0.00  0.00    +0.000 C 
ENDROOT
BRANCH   2   3
ATOM      3  C   UNL     1       0.908   0.148  -0.369  0.00  0.00    +0.000 A 
ATOM      4  C   UNL     1       0.281  -1.064  -0.695  0.00  0.00    +0.000 A 
ATOM      5  C   UNL     1      -1.111  -1.156  -0.716  0.00  0.00    +0.000 A 
ATOM      6  C   UNL     1      -1.887  -0.046  -0.388  0.00  0.00    +0.000 A 
ATOM      7  C   UNL     1      -1.278   1.175  -0.066  0.00  0.00    +0.000 A 
ATOM      8  C   UNL     1       0.121   1.284  -0.090  0.00  0.00    +0.000 A 
BRANCH   7   9
ATOM      9  C   UNL     1      -2.145   2.256   0.483  0.00  0.00    +0.000 A 
ATOM     10  N   UNL     1      -3.051   1.927   1.355  0.00  0.00    +0.000 NA
ATOM     11  N   UNL     1      -3.799   2.933   1.891  0.00  0.00    +0.000 N 
ATOM     12  C   UNL     1      -3.669   4.268   1.607  0.00  0.00    +0.000 A 
ATOM     13  O   UNL     1      -4.330   5.143   2.149  0.00  0.00    +0.000 OA
ATOM     14  C   UNL     1      -2.669   4.599   0.570  0.00  0.00    +0.000 A 
ATOM     15  C   UNL     1      -1.922   3.645   0.012  0.00  0.00    +0.000 A 
ATOM     16  H   UNL     1      -4.468   2.666   2.607  0.00  0.00    +0.000 HD
ENDBRANCH   7   9
ENDBRANCH   2   3
BRANCH   2  17
ATOM     17  O   UNL     1       2.950  -0.991  -0.220  0.00  0.00    +0.000 OA
BRANCH  17  18
ATOM     18  C   UNL     1       4.395  -1.080  -0.172  0.00  0.00    +0.000 C 
BRANCH  18  19
ATOM     19  C   UNL     1       4.822  -1.991   0.982  0.00  0.00    +0.000 A 
ATOM     20  C   UNL     1       6.056  -1.778   1.622  0.00  0.00    +0.000 A 
ATOM     21  C   UNL     1       6.461  -2.603   2.669  0.00  0.00    +0.000 A 
ATOM     22  F   UNL     1       7.640  -2.377   3.264  0.00  0.00    +0.000 F 
ATOM     23  C   UNL     1       5.665  -3.652   3.103  0.00  0.00    +0.000 A 
ATOM     24  C   UNL     1       4.451  -3.896   2.464  0.00  0.00    +0.000 A 
ATOM     25  C   UNL     1       4.037  -3.078   1.406  0.00  0.00    +0.000 A 
ENDBRANCH  18  19
BRANCH  18  26
ATOM     26  C   UNL     1       4.934  -1.591  -1.511  0.00  0.00    +0.000 A 
ATOM     27  C   UNL     1       6.237  -1.262  -1.900  0.00  0.00    +0.000 A 
ATOM     28  C   UNL     1       6.754  -1.798  -3.077  0.00  0.00    +0.000 A 
ATOM     29  C   UNL     1       5.965  -2.644  -3.842  0.00  0.00    +0.000 A 
ATOM     30  C   UNL     1       4.682  -2.918  -3.399  0.00  0.00    +0.000 A 
ATOM     31  N   UNL     1       4.152  -2.417  -2.260  0.00  0.00    +0.000 NA
ENDBRANCH  18  26
ENDBRANCH  17  18
ENDBRANCH   2  17
TORSDOF 6
