REMARK  Name = 
REMARK  6 active torsions:
REMARK  status: ('A' for Active; 'I' for Inactive)
REMARK    1  A    between atoms: C_2  and  O_3
REMARK    2  A    between atoms: C_2  and  C_4
REMARK    3  A    between atoms: N_6  and  C_7
REMARK    4  A    between atoms: C_10  and  C_11
REMARK    5  A    between atoms: C_14  and  C_15
REMARK    6  A    between atoms: C_15  and  N_16
REMARK                            x       y       z     vdW  Elec       q    Type
REMARK                         _______ _______ _______ _____ _____    ______ ____
ROOT
ATOM      1  C   UNL     1       2.704  -0.942   4.778  0.00  0.00    +0.000 A 
ATOM      2  C   UNL     1       2.461  -2.316   4.865  0.00  0.00    +0.000 A 
ATOM      3  C   UNL     1       1.800  -2.876   5.967  0.00  0.00    +0.000 A 
ATOM      4  C   UNL     1       1.365  -2.094   7.048  0.00  0.00    +0.000 A 
ATOM      5  C   UNL     1       1.655  -0.724   6.983  0.00  0.00    +0.000 A 
ATOM      6  C   UNL     1       2.304  -0.159   5.872  0.00  0.00    +0.000 A 
ENDROOT
BRANCH   1   9
ATOM      7  C   UNL     1       4.685   1.423   2.687  0.00  0.00    +0.000 A 
ATOM      8  C   UNL     1       4.068   0.838   3.728  0.00  0.00    +0.000 A 
ATOM      9  N   UNL     1       3.343  -0.355   3.619  0.00  0.00    +0.000 N 
ATOM     10  C   UNL     1       3.220  -0.987   2.359  0.00  0.00    +0.000 A 
ATOM     11  O   UNL     1       2.564  -1.989   2.082  0.00  0.00    +0.000 OA
ATOM     12  C   UNL     1       3.945  -0.345   1.227  0.00  0.00    +0.000 A 
ATOM     13  C   UNL     1       4.633   0.790   1.391  0.00  0.00    +0.000 A 
BRANCH   7  15
ATOM     14  O   UNL     1       5.878   2.950   4.088  0.00  0.00    +0.000 OA
ATOM     15  C   UNL     1       5.457   2.662   2.978  0.00  0.00    +0.000 C 
BRANCH  15  16
ATOM     16  O   UNL     1       5.638   3.467   1.911  0.00  0.00    +0.000 OA
ATOM     17  H   UNL     1       5.124   3.236   1.117  0.00  0.00    +0.000 HD
ENDBRANCH  15  16
ENDBRANCH   7  15
ENDBRANCH   1   9
BRANCH   4  18
ATOM     18  C   UNL     1       0.591  -2.690   8.163  0.00  0.00    +0.000 A 
ATOM     19  C   UNL     1       0.778  -4.027   8.554  0.00  0.00    +0.000 A 
ATOM     20  C   UNL     1      -0.042  -4.633   9.510  0.00  0.00    +0.000 A 
ATOM     21  C   UNL     1      -1.073  -3.915  10.123  0.00  0.00    +0.000 A 
ATOM     22  C   UNL     1      -1.224  -2.562   9.807  0.00  0.00    +0.000 A 
ATOM     23  C   UNL     1      -0.411  -1.965   8.834  0.00  0.00    +0.000 A 
BRANCH  21  24
ATOM     24  C   UNL     1      -2.007  -4.600  11.095  0.00  0.00    +0.000 C 
BRANCH  24  25
ATOM     25  N   UNL     1      -1.493  -4.612  12.458  0.00  0.00    +0.000 N 
ATOM     26  C   UNL     1      -1.812  -3.571  13.315  0.00  0.00    +0.000 A 
ATOM     27  C   UNL     1      -1.332  -3.529  14.562  0.00  0.00    +0.000 A 
ATOM     28  C   UNL     1      -0.453  -4.569  15.030  0.00  0.00    +0.000 A 
ATOM     29  C   UNL     1      -0.135  -5.598  14.235  0.00  0.00    +0.000 A 
ATOM     30  C   UNL     1      -0.681  -5.675  12.849  0.00  0.00    +0.000 A 
ATOM     31  O   UNL     1      -0.396  -6.644  12.149  0.00  0.00    +0.000 OA
ENDBRANCH  24  25
ENDBRANCH  21  24
ENDBRANCH   4  18
TORSDOF 6
