REMARK  Name = 
REMARK  5 active torsions:
REMARK  status: ('A' for Active; 'I' for Inactive)
REMARK    1  A    between atoms: C_2  and  C_16
REMARK    2  A    between atoms: N_3  and  C_4
REMARK    3  A    between atoms: C_4  and  C_5
REMARK    4  A    between atoms: C_9  and  C_10
REMARK    5  A    between atoms: N_21  and  C_22
REMARK                            x       y       z     vdW  Elec       q    Type
REMARK                         _______ _______ _______ _____ _____    ______ ____
ROOT
ATOM      1  O   UNL     1       1.092  -0.242   0.165  0.00  0.00    +0.000 OA
ATOM      2  C   UNL     1       2.304  -0.061   0.083  0.00  0.00    +0.000 C 
ATOM      3  N   UNL     1       3.000   0.692   0.989  0.00  0.00    +0.000 N 
ATOM      4  H   UNL     1       3.996   0.858   0.835  0.00  0.00    +0.000 HD
ENDROOT
BRANCH   2   5
ATOM      5  C   UNL     1       3.099  -0.639  -1.040  0.00  0.00    +0.000 A 
ATOM      6  C   UNL     1       2.432  -1.322  -1.978  0.00  0.00    +0.000 A 
ATOM      7  N   UNL     1       3.055  -1.826  -3.079  0.00  0.00    +0.000 N 
ATOM      8  C   UNL     1       4.398  -1.702  -3.342  0.00  0.00    +0.000 A 
ATOM      9  O   UNL     1       4.836  -2.178  -4.387  0.00  0.00    +0.000 OA
ATOM     10  N   UNL     1       5.143  -1.068  -2.344  0.00  0.00    +0.000 N 
ATOM     11  C   UNL     1       4.570  -0.486  -1.209  0.00  0.00    +0.000 A 
ATOM     12  O   UNL     1       5.193   0.180  -0.378  0.00  0.00    +0.000 OA
ATOM     13  H   UNL     1       2.525  -2.330  -3.783  0.00  0.00    +0.000 HD
BRANCH  10  14
ATOM     14  C   UNL     1       6.556  -0.987  -2.497  0.00  0.00    +0.000 A 
ATOM     15  C   UNL     1       7.124  -0.429  -3.651  0.00  0.00    +0.000 A 
ATOM     16  C   UNL     1       8.512  -0.334  -3.775  0.00  0.00    +0.000 A 
ATOM     17  C   UNL     1       9.340  -0.829  -2.768  0.00  0.00    +0.000 A 
ATOM     18  C   UNL     1       8.785  -1.404  -1.628  0.00  0.00    +0.000 A 
ATOM     19  C   UNL     1       7.398  -1.465  -1.484  0.00  0.00    +0.000 A 
ENDBRANCH  10  14
ENDBRANCH   2   5
BRANCH   3  20
ATOM     20  C   UNL     1       2.354   1.408   2.064  0.00  0.00    +0.000 C 
BRANCH  20  21
ATOM     21  C   UNL     1       3.268   1.500   3.256  0.00  0.00    +0.000 A 
ATOM     22  C   UNL     1       3.222   0.519   4.253  0.00  0.00    +0.000 A 
ATOM     23  C   UNL     1       4.101   0.572   5.332  0.00  0.00    +0.000 A 
ATOM     24  C   UNL     1       5.059   1.585   5.403  0.00  0.00    +0.000 A 
ATOM     25  C   UNL     1       5.159   2.557   4.396  0.00  0.00    +0.000 A 
ATOM     26  C   UNL     1       4.235   2.516   3.340  0.00  0.00    +0.000 A 
BRANCH  25  27
ATOM     27  C   UNL     1       6.252   3.527   4.414  0.00  0.00    +0.000 A 
ATOM     28  C   UNL     1       7.371   3.700   5.208  0.00  0.00    +0.000 A 
ATOM     29  C   UNL     1       8.117   4.761   4.641  0.00  0.00    +0.000 A 
ATOM     30  C   UNL     1       7.397   5.193   3.554  0.00  0.00    +0.000 A 
ATOM     31  O   UNL     1       6.264   4.459   3.413  0.00  0.00    +0.000 OA
ENDBRANCH  25  27
ENDBRANCH  20  21
ENDBRANCH   3  20
TORSDOF 5
