REMARK  Name = 
REMARK  10 active torsions:
REMARK  status: ('A' for Active; 'I' for Inactive)
REMARK    1  A    between atoms: C_2  and  C_4
REMARK    2  A    between atoms: C_4  and  N_5
REMARK    3  A    between atoms: N_5  and  C_6
REMARK    4  A    between atoms: N_5  and  C_21
REMARK    5  A    between atoms: C_6  and  C_7
REMARK    6  A    between atoms: N_9  and  C_10
REMARK    7  A    between atoms: C_10  and  C_11
REMARK    8  A    between atoms: C_16  and  C_17
REMARK    9  A    between atoms: C_21  and  C_22
REMARK   10  A    between atoms: C_25  and  C_26
REMARK                            x       y       z     vdW  Elec       q    Type
REMARK                         _______ _______ _______ _____ _____    ______ ____
ROOT
ATOM      1  N   UNL     1       4.444  -0.675   0.837  0.00  0.00    +0.000 NA
ENDROOT
BRANCH   1   2
ATOM      2  C   UNL     1       4.720   0.792   0.920  0.00  0.00    +0.000 C 
BRANCH   2   3
ATOM      3  C   UNL     1       6.160   1.204   0.515  0.00  0.00    +0.000 C 
ATOM      4  O   UNL     1       6.789   2.038   1.166  0.00  0.00    +0.000 OA
ATOM      5  N   UNL     1       6.728   0.709  -0.638  0.00  0.00    +0.000 N 
ATOM      6  H   UNL     1       7.696   0.986  -0.745  0.00  0.00    +0.000 HD
BRANCH   5   7
ATOM      7  C   UNL     1       6.309  -0.524  -1.224  0.00  0.00    +0.000 C 
BRANCH   7   8
ATOM      8  C   UNL     1       6.786  -0.825  -2.609  0.00  0.00    +0.000 A 
ATOM      9  C   UNL     1       7.808  -1.782  -2.743  0.00  0.00    +0.000 A 
ATOM     10  C   UNL     1       8.126  -2.307  -3.991  0.00  0.00    +0.000 A 
ATOM     11  C   UNL     1       7.427  -1.883  -5.112  0.00  0.00    +0.000 A 
ATOM     12  C   UNL     1       6.440  -0.902  -4.998  0.00  0.00    +0.000 A 
ATOM     13  C   UNL     1       6.114  -0.338  -3.751  0.00  0.00    +0.000 A 
BRANCH  13  14
ATOM     14  C   UNL     1       5.022   0.716  -3.723  0.00  0.00    +0.000 C 
ATOM     15  F   UNL     1       4.712   1.215  -2.496  0.00  0.00    +0.000 F 
ATOM     16  F   UNL     1       5.329   1.796  -4.491  0.00  0.00    +0.000 F 
ATOM     17  F   UNL     1       3.842   0.232  -4.213  0.00  0.00    +0.000 F 
ENDBRANCH  13  14
ENDBRANCH   7   8
ENDBRANCH   5   7
ENDBRANCH   2   3
ENDBRANCH   1   2
BRANCH   1  18
ATOM     18  C   UNL     1       5.247  -1.416   1.835  0.00  0.00    +0.000 C 
BRANCH  18  19
ATOM     19  C   UNL     1       5.137  -2.926   1.721  0.00  0.00    +0.000 A 
ATOM     20  C   UNL     1       5.394  -3.623   0.531  0.00  0.00    +0.000 A 
ATOM     21  C   UNL     1       5.262  -5.018   0.461  0.00  0.00    +0.000 A 
ATOM     22  C   UNL     1       4.880  -5.775   1.579  0.00  0.00    +0.000 A 
ATOM     23  C   UNL     1       4.661  -5.071   2.773  0.00  0.00    +0.000 A 
ATOM     24  C   UNL     1       4.785  -3.678   2.846  0.00  0.00    +0.000 A 
BRANCH  22  25
ATOM     25  C   UNL     1       4.700  -7.246   1.500  0.00  0.00    +0.000 A 
ATOM     26  C   UNL     1       5.490  -8.043   0.650  0.00  0.00    +0.000 A 
ATOM     27  C   UNL     1       5.305  -9.430   0.572  0.00  0.00    +0.000 A 
ATOM     28  C   UNL     1       4.334 -10.052   1.342  0.00  0.00    +0.000 A 
ATOM     29  C   UNL     1       3.537  -9.290   2.191  0.00  0.00    +0.000 A 
ATOM     30  C   UNL     1       3.716  -7.903   2.261  0.00  0.00    +0.000 A 
ENDBRANCH  22  25
ENDBRANCH  18  19
ENDBRANCH   1  18
BRANCH   1  31
ATOM     31  C   UNL     1       2.997  -0.956   1.020  0.00  0.00    +0.000 C 
BRANCH  31  33
ATOM     32  N   UNL     1       2.339  -0.572  -1.324  0.00  0.00    +0.000 N 
ATOM     33  C   UNL     1       2.121  -0.249  -0.020  0.00  0.00    +0.000 C 
ATOM     34  O   UNL     1       1.237   0.549   0.285  0.00  0.00    +0.000 OA
ATOM     35  H   UNL     1       1.831  -0.039  -2.024  0.00  0.00    +0.000 HD
ATOM     36  H   UNL     1       3.204  -1.013  -1.607  0.00  0.00    +0.000 HD
ENDBRANCH  31  33
ENDBRANCH   1  31
TORSDOF 10
