REMARK  Name = 
REMARK  6 active torsions:
REMARK  status: ('A' for Active; 'I' for Inactive)
REMARK    1  A    between atoms: S_2  and  N_4
REMARK    2  A    between atoms: S_2  and  C_21
REMARK    3  A    between atoms: N_4  and  C_5
REMARK    4  A    between atoms: C_5  and  C_6
REMARK    5  A    between atoms: C_8  and  O_9
REMARK    6  A    between atoms: O_9  and  C_10
REMARK                            x       y       z     vdW  Elec       q    Type
REMARK                         _______ _______ _______ _____ _____    ______ ____
ROOT
ATOM      1  C   UNL     1       2.610  -2.904  -0.492  0.00  0.00    +0.000 C 
ENDROOT
BRANCH   1   2
ATOM      2  C   UNL     1       3.066  -3.937  -1.498  0.00  0.00    +0.000 A 
ATOM      3  C   UNL     1       2.710  -3.864  -2.841  0.00  0.00    +0.000 A 
ATOM      4  C   UNL     1       3.046  -4.935  -3.677  0.00  0.00    +0.000 A 
ATOM      5  C   UNL     1       3.851  -5.961  -3.193  0.00  0.00    +0.000 A 
ATOM      6  C   UNL     1       4.210  -5.923  -1.862  0.00  0.00    +0.000 A 
ATOM      7  N   UNL     1       3.784  -4.975  -1.004  0.00  0.00    +0.000 NA
BRANCH   4   8
ATOM      8  O   UNL     1       2.679  -5.028  -4.999  0.00  0.00    +0.000 OA
BRANCH   8   9
ATOM      9  C   UNL     1       1.398  -4.691  -5.381  0.00  0.00    +0.000 A 
ATOM     10  C   UNL     1       1.250  -4.300  -6.719  0.00  0.00    +0.000 A 
ATOM     11  C   UNL     1       0.003  -3.899  -7.206  0.00  0.00    +0.000 A 
ATOM     12  C   UNL     1      -1.094  -3.900  -6.353  0.00  0.00    +0.000 A 
ATOM     13  F   UNL     1      -2.282  -3.479  -6.807  0.00  0.00    +0.000 F 
ATOM     14  C   UNL     1      -0.961  -4.337  -5.040  0.00  0.00    +0.000 A 
ATOM     15  F   UNL     1      -2.023  -4.346  -4.223  0.00  0.00    +0.000 F 
ATOM     16  C   UNL     1       0.274  -4.758  -4.554  0.00  0.00    +0.000 A 
ENDBRANCH   8   9
ENDBRANCH   4   8
ENDBRANCH   1   2
BRANCH   1  17
ATOM     17  N   UNL     1       3.366  -1.650  -0.409  0.00  0.00    +0.000 NA
ATOM     18  H   UNL     1       3.240  -0.983  -1.167  0.00  0.00    +0.000 HD
BRANCH  17  20
ATOM     19  O   UNL     1       5.609  -2.894  -0.242  0.00  0.00    +0.000 OA
ATOM     20  S   UNL     1       4.962  -1.656   0.083  0.00  0.00    +0.000 S 
ATOM     21  O   UNL     1       5.470  -0.401  -0.449  0.00  0.00    +0.000 OA
BRANCH  20  22
ATOM     22  C   UNL     1       4.942  -1.478   1.947  0.00  0.00    +0.000 A 
ATOM     23  C   UNL     1       5.672  -0.327   2.261  0.00  0.00    +0.000 A 
ATOM     24  C   UNL     1       6.977  -0.477   2.723  0.00  0.00    +0.000 A 
ATOM     25  C   UNL     1       7.456  -1.744   3.053  0.00  0.00    +0.000 A 
ATOM     26  C   UNL     1       6.573  -2.824   3.122  0.00  0.00    +0.000 A 
ATOM     27  C   UNL     1       6.926  -4.044   3.712  0.00  0.00    +0.000 A 
ATOM     28  N   UNL     1       6.051  -5.029   4.003  0.00  0.00    +0.000 NA
ATOM     29  C   UNL     1       4.766  -4.814   3.656  0.00  0.00    +0.000 A 
ATOM     30  C   UNL     1       4.332  -3.692   2.954  0.00  0.00    +0.000 A 
ATOM     31  C   UNL     1       5.254  -2.680   2.638  0.00  0.00    +0.000 A 
ENDBRANCH  20  22
ENDBRANCH  17  20
ENDBRANCH   1  17
TORSDOF 6
