REMARK  Name = 
REMARK  3 active torsions:
REMARK  status: ('A' for Active; 'I' for Inactive)
REMARK    1  A    between atoms: C_2  and  C_17
REMARK    2  A    between atoms: N_6  and  C_7
REMARK    3  A    between atoms: N_19  and  C_20
REMARK                            x       y       z     vdW  Elec       q    Type
REMARK                         _______ _______ _______ _____ _____    ______ ____
ROOT
ATOM      1  O   UNL     1       0.980   0.308  -0.078  0.00  0.00    +0.000 OA
ATOM      2  C   UNL     1       2.195   0.113  -0.042  0.00  0.00    +0.000 C 
ATOM      3  N   UNL     1       2.851  -1.021  -0.447  0.00  0.00    +0.000 N 
ATOM      4  C   UNL     1       2.208  -2.084  -1.005  0.00  0.00    +0.000 A 
ATOM      5  N   UNL     1       0.953  -2.092  -1.441  0.00  0.00    +0.000 NA
ATOM      6  N   UNL     1       0.727  -3.389  -1.694  0.00  0.00    +0.000 N 
ATOM      7  C   UNL     1       1.897  -4.086  -1.526  0.00  0.00    +0.000 A 
ATOM      8  N   UNL     1       2.853  -3.280  -1.116  0.00  0.00    +0.000 NA
ATOM      9  H   UNL     1       3.819  -1.147  -0.184  0.00  0.00    +0.000 HD
ENDROOT
BRANCH   6  10
ATOM     10  C   UNL     1      -0.569  -3.853  -2.025  0.00  0.00    +0.000 A 
ATOM     11  C   UNL     1      -0.820  -5.221  -2.204  0.00  0.00    +0.000 A 
ATOM     12  C   UNL     1      -2.115  -5.656  -2.495  0.00  0.00    +0.000 A 
ATOM     13  C   UNL     1      -3.147  -4.729  -2.619  0.00  0.00    +0.000 A 
ATOM     14  F   UNL     1      -4.383  -5.161  -2.901  0.00  0.00    +0.000 F 
ATOM     15  C   UNL     1      -2.900  -3.372  -2.451  0.00  0.00    +0.000 A 
ATOM     16  F   UNL     1      -3.895  -2.486  -2.583  0.00  0.00    +0.000 F 
ATOM     17  C   UNL     1      -1.619  -2.925  -2.145  0.00  0.00    +0.000 A 
ENDBRANCH   6  10
BRANCH   2  18
ATOM     18  C   UNL     1       3.075   1.121   0.559  0.00  0.00    +0.000 A 
ATOM     19  N   UNL     1       4.418   1.016   0.594  0.00  0.00    +0.000 NA
ATOM     20  N   UNL     1       4.827   2.083   1.344  0.00  0.00    +0.000 N 
ATOM     21  C   UNL     1       3.761   2.865   1.721  0.00  0.00    +0.000 A 
ATOM     22  C   UNL     1       2.631   2.291   1.209  0.00  0.00    +0.000 A 
BRANCH  20  23
ATOM     23  C   UNL     1       6.194   2.252   1.683  0.00  0.00    +0.000 A 
ATOM     24  C   UNL     1       7.159   1.371   1.165  0.00  0.00    +0.000 A 
ATOM     25  C   UNL     1       8.504   1.522   1.518  0.00  0.00    +0.000 A 
ATOM     26  C   UNL     1       8.875   2.545   2.385  0.00  0.00    +0.000 A 
ATOM     27  F   UNL     1      10.163   2.686   2.730  0.00  0.00    +0.000 F 
ATOM     28  C   UNL     1       7.938   3.417   2.910  0.00  0.00    +0.000 A 
ATOM     29  C   UNL     1       6.603   3.272   2.551  0.00  0.00    +0.000 A 
ATOM     30  F   UNL     1       5.745   4.141   3.099  0.00  0.00    +0.000 F 
ENDBRANCH  20  23
ENDBRANCH   2  18
TORSDOF 3
