REMARK  Name = 
REMARK  5 active torsions:
REMARK  status: ('A' for Active; 'I' for Inactive)
REMARK    1  A    between atoms: C_2  and  C_4
REMARK    2  A    between atoms: C_4  and  N_5
REMARK    3  A    between atoms: C_4  and  C_20
REMARK    4  A    between atoms: C_6  and  C_8
REMARK    5  A    between atoms: C_11  and  C_12
REMARK                            x       y       z     vdW  Elec       q    Type
REMARK                         _______ _______ _______ _____ _____    ______ ____
ROOT
ATOM      1  N   UNL     1       2.782  -2.477   0.379  0.00  0.00    +0.000 N 
ATOM      2  C   UNL     1       1.626  -3.050   0.856  0.00  0.00    +0.000 C 
ATOM      3  O   UNL     1       0.878  -2.479   1.644  0.00  0.00    +0.000 OA
ATOM      4  H   UNL     1       3.138  -2.827  -0.500  0.00  0.00    +0.000 HD
ENDROOT
BRANCH   2   5
ATOM      5  C   UNL     1       1.355  -4.373   0.332  0.00  0.00    +0.000 A 
ATOM      6  C   UNL     1       2.195  -5.292  -0.267  0.00  0.00    +0.000 A 
ATOM      7  C   UNL     1       1.430  -6.437  -0.588  0.00  0.00    +0.000 A 
ATOM      8  C   UNL     1       0.122  -6.221  -0.186  0.00  0.00    +0.000 A 
ATOM      9  N   UNL     1       0.111  -4.967   0.398  0.00  0.00    +0.000 N 
ATOM     10  H   UNL     1      -0.704  -4.526   0.805  0.00  0.00    +0.000 HD
BRANCH   8  11
ATOM     11  C   UNL     1      -1.070  -7.084  -0.293  0.00  0.00    +0.000 A 
ATOM     12  C   UNL     1      -0.970  -8.363  -0.870  0.00  0.00    +0.000 A 
ATOM     13  C   UNL     1      -2.086  -9.202  -0.978  0.00  0.00    +0.000 A 
ATOM     14  C   UNL     1      -3.327  -8.780  -0.512  0.00  0.00    +0.000 A 
ATOM     15  C   UNL     1      -3.452  -7.516   0.057  0.00  0.00    +0.000 A 
ATOM     16  C   UNL     1      -2.335  -6.684   0.162  0.00  0.00    +0.000 A 
ATOM     17  F   UNL     1      -2.508  -5.472   0.718  0.00  0.00    +0.000 F 
ENDBRANCH   8  11
ENDBRANCH   2   5
BRANCH   1  18
ATOM     18  C   UNL     1       3.126  -1.110   0.721  0.00  0.00    +0.000 C 
BRANCH  18  19
ATOM     19  C   UNL     1       4.635  -0.908   0.645  0.00  0.00    +0.000 A 
ATOM     20  C   UNL     1       5.280  -0.442  -0.509  0.00  0.00    +0.000 A 
ATOM     21  C   UNL     1       6.658  -0.199  -0.509  0.00  0.00    +0.000 A 
ATOM     22  C   UNL     1       7.431  -0.431   0.637  0.00  0.00    +0.000 A 
ATOM     23  C   UNL     1       8.806  -0.146   0.668  0.00  0.00    +0.000 A 
ATOM     24  C   UNL     1       9.558  -0.378   1.821  0.00  0.00    +0.000 A 
ATOM     25  C   UNL     1       8.948  -0.914   2.951  0.00  0.00    +0.000 A 
ATOM     26  C   UNL     1       7.583  -1.207   2.934  0.00  0.00    +0.000 A 
ATOM     27  C   UNL     1       6.807  -0.958   1.790  0.00  0.00    +0.000 A 
ATOM     28  C   UNL     1       5.422  -1.201   1.773  0.00  0.00    +0.000 A 
ENDBRANCH  18  19
BRANCH  18  30
ATOM     29  N   UNL     1       2.095   1.109   0.339  0.00  0.00    +0.000 N 
ATOM     30  C   UNL     1       2.348  -0.127  -0.193  0.00  0.00    +0.000 C 
ATOM     31  O   UNL     1       2.026  -0.377  -1.353  0.00  0.00    +0.000 OA
ATOM     32  H   UNL     1       1.546   1.748  -0.221  0.00  0.00    +0.000 HD
ATOM     33  H   UNL     1       2.174   1.293   1.330  0.00  0.00    +0.000 HD
ENDBRANCH  18  30
ENDBRANCH   1  18
TORSDOF 5
