REMARK  Name = 
REMARK  5 active torsions:
REMARK  status: ('A' for Active; 'I' for Inactive)
REMARK    1  A    between atoms: C_2  and  C_3
REMARK    2  A    between atoms: C_5  and  C_6
REMARK    3  A    between atoms: N_8  and  C_9
REMARK    4  A    between atoms: C_14  and  C_15
REMARK    5  A    between atoms: C_25  and  N_26
REMARK                            x       y       z     vdW  Elec       q    Type
REMARK                         _______ _______ _______ _____ _____    ______ ____
ROOT
ATOM      1  C   UNL     1       5.454   2.897  -1.356  0.00  0.00    +0.000 C 
ATOM      2  O   UNL     1       5.312   3.297  -2.506  0.00  0.00    +0.000 OA
ATOM      3  N   UNL     1       6.137   3.586  -0.389  0.00  0.00    +0.000 N 
ATOM      4  H   UNL     1       5.972   3.349   0.588  0.00  0.00    +0.000 HD
ENDROOT
BRANCH   1   7
ATOM      5  C   UNL     1       3.787   0.181   0.814  0.00  0.00    +0.000 A 
ATOM      6  C   UNL     1       4.396   1.321   0.459  0.00  0.00    +0.000 A 
ATOM      7  C   UNL     1       4.791   1.604  -0.924  0.00  0.00    +0.000 A 
ATOM      8  C   UNL     1       4.489   0.682  -1.891  0.00  0.00    +0.000 A 
ATOM      9  N   UNL     1       3.879  -0.488  -1.510  0.00  0.00    +0.000 N 
ATOM     10  C   UNL     1       3.498  -0.821  -0.237  0.00  0.00    +0.000 A 
ATOM     11  O   UNL     1       2.957  -1.899  -0.000  0.00  0.00    +0.000 OA
ATOM     12  H   UNL     1       3.700  -1.181  -2.230  0.00  0.00    +0.000 HD
BRANCH   8  13
ATOM     13  N   UNL     1       4.761   0.822  -3.236  0.00  0.00    +0.000 N 
ATOM     14  H   UNL     1       4.984   1.787  -3.479  0.00  0.00    +0.000 HD
ATOM     15  H   UNL     1       4.006   0.479  -3.829  0.00  0.00    +0.000 HD
ENDBRANCH   8  13
BRANCH   5  17
ATOM     16  N   UNL     1       3.074  -0.215   3.260  0.00  0.00    +0.000 NA
ATOM     17  C   UNL     1       3.379  -0.059   2.145  0.00  0.00    +0.000 C 
ENDBRANCH   5  17
ENDBRANCH   1   7
BRANCH   3  18
ATOM     18  C   UNL     1       6.655   4.899  -0.595  0.00  0.00    +0.000 A 
ATOM     19  C   UNL     1       7.526   5.098  -1.673  0.00  0.00    +0.000 A 
ATOM     20  C   UNL     1       8.180   6.316  -1.836  0.00  0.00    +0.000 A 
ATOM     21  C   UNL     1       7.931   7.358  -0.953  0.00  0.00    +0.000 A 
ATOM     22  C   UNL     1       7.020   7.186   0.094  0.00  0.00    +0.000 A 
ATOM     23  C   UNL     1       6.370   5.956   0.317  0.00  0.00    +0.000 A 
BRANCH  23  24
ATOM     24  C   UNL     1       5.381   5.825   1.426  0.00  0.00    +0.000 A 
ATOM     25  C   UNL     1       4.238   5.022   1.273  0.00  0.00    +0.000 A 
ATOM     26  C   UNL     1       3.426   4.696   2.350  0.00  0.00    +0.000 A 
ATOM     27  C   UNL     1       3.582   5.371   3.557  0.00  0.00    +0.000 A 
ATOM     28  C   UNL     1       2.718   5.117   4.619  0.00  0.00    +0.000 A 
ATOM     29  C   UNL     1       2.445   6.143   5.514  0.00  0.00    +0.000 A 
ATOM     30  C   UNL     1       3.282   7.252   5.558  0.00  0.00    +0.000 A 
ATOM     31  C   UNL     1       4.406   7.304   4.725  0.00  0.00    +0.000 A 
ATOM     32  C   UNL     1       4.527   6.406   3.653  0.00  0.00    +0.000 A 
ATOM     33  C   UNL     1       5.500   6.526   2.641  0.00  0.00    +0.000 A 
ENDBRANCH  23  24
ENDBRANCH   3  18
TORSDOF 5
