REMARK  Name = 
REMARK  5 active torsions:
REMARK  status: ('A' for Active; 'I' for Inactive)
REMARK    1  A    between atoms: C_2  and  C_3
REMARK    2  A    between atoms: N_5  and  C_6
REMARK    3  A    between atoms: C_9  and  N_10
REMARK    4  A    between atoms: C_11  and  C_13
REMARK    5  A    between atoms: C_15  and  C_16
REMARK                            x       y       z     vdW  Elec       q    Type
REMARK                         _______ _______ _______ _____ _____    ______ ____
ROOT
ATOM      1  N   UNL     1      10.625   3.562   0.396  0.00  0.00    +0.000 N 
ATOM      2  C   UNL     1      10.976   4.484   1.375  0.00  0.00    +0.000 C 
ATOM      3  O   UNL     1      10.283   4.795   2.338  0.00  0.00    +0.000 OA
ATOM      4  H   UNL     1      11.296   3.423  -0.351  0.00  0.00    +0.000 HD
ENDROOT
BRANCH   1   8
ATOM      5  C   UNL     1       7.057   1.307   0.077  0.00  0.00    +0.000 A 
ATOM      6  C   UNL     1       7.253   2.151   1.172  0.00  0.00    +0.000 A 
ATOM      7  C   UNL     1       8.430   2.889   1.293  0.00  0.00    +0.000 A 
ATOM      8  C   UNL     1       9.429   2.817   0.324  0.00  0.00    +0.000 A 
ATOM      9  C   UNL     1       9.238   1.965  -0.772  0.00  0.00    +0.000 A 
ATOM     10  C   UNL     1       8.060   1.209  -0.897  0.00  0.00    +0.000 A 
BRANCH   5  13
ATOM     11  C   UNL     1       3.888  -0.376   0.373  0.00  0.00    +0.000 A 
ATOM     12  C   UNL     1       4.763   0.589   0.806  0.00  0.00    +0.000 A 
ATOM     13  N   UNL     1       5.862   0.544  -0.029  0.00  0.00    +0.000 N 
ATOM     14  N   UNL     1       5.689  -0.378  -1.015  0.00  0.00    +0.000 NA
ATOM     15  C   UNL     1       4.508  -0.943  -0.745  0.00  0.00    +0.000 A 
BRANCH  11  17
ATOM     16  N   UNL     1       1.616  -0.963   1.451  0.00  0.00    +0.000 NA
ATOM     17  C   UNL     1       2.635  -0.704   0.959  0.00  0.00    +0.000 C 
ENDBRANCH  11  17
ENDBRANCH   5  13
ENDBRANCH   1   8
BRANCH   2  18
ATOM     18  C   UNL     1      12.277   5.078   1.186  0.00  0.00    +0.000 A 
ATOM     19  C   UNL     1      12.963   6.008   1.930  0.00  0.00    +0.000 A 
ATOM     20  C   UNL     1      14.223   6.134   1.294  0.00  0.00    +0.000 A 
ATOM     21  N   UNL     1      14.265   5.351   0.201  0.00  0.00    +0.000 NA
ATOM     22  O   UNL     1      13.052   4.700   0.135  0.00  0.00    +0.000 OA
BRANCH  20  23
ATOM     23  C   UNL     1      15.378   6.920   1.712  0.00  0.00    +0.000 A 
ATOM     24  C   UNL     1      16.674   6.489   1.378  0.00  0.00    +0.000 A 
ATOM     25  C   UNL     1      17.793   7.207   1.804  0.00  0.00    +0.000 A 
ATOM     26  C   UNL     1      17.621   8.362   2.557  0.00  0.00    +0.000 A 
ATOM     27  F   UNL     1      18.697   9.046   2.966  0.00  0.00    +0.000 F 
ATOM     28  C   UNL     1      16.353   8.814   2.894  0.00  0.00    +0.000 A 
ATOM     29  C   UNL     1      15.239   8.090   2.473  0.00  0.00    +0.000 A 
ATOM     30  F   UNL     1      14.027   8.550   2.813  0.00  0.00    +0.000 F 
ENDBRANCH  20  23
ENDBRANCH   2  18
TORSDOF 5
