REMARK  Name = 
REMARK  4 active torsions:
REMARK  status: ('A' for Active; 'I' for Inactive)
REMARK    1  A    between atoms: C_2  and  C_17
REMARK    2  A    between atoms: N_3  and  C_4
REMARK    3  A    between atoms: N_8  and  C_9
REMARK    4  A    between atoms: C_23  and  C_24
REMARK                            x       y       z     vdW  Elec       q    Type
REMARK                         _______ _______ _______ _____ _____    ______ ____
ROOT
ATOM      1  O   UNL     1       2.732  -1.303  -1.197  0.00  0.00    +0.000 OA
ATOM      2  C   UNL     1       3.446  -0.885  -0.299  0.00  0.00    +0.000 C 
ATOM      3  N   UNL     1       3.425  -1.250   1.040  0.00  0.00    +0.000 N 
ATOM      4  H   UNL     1       4.152  -0.777   1.581  0.00  0.00    +0.000 HD
ENDROOT
BRANCH   2   5
ATOM      5  C   UNL     1       4.397   0.213  -0.479  0.00  0.00    +0.000 A 
ATOM      6  C   UNL     1       4.648   1.014  -1.579  0.00  0.00    +0.000 A 
ATOM      7  N   UNL     1       5.227   2.154  -1.059  0.00  0.00    +0.000 N 
ATOM      8  C   UNL     1       5.554   3.362  -1.665  0.00  0.00    +0.000 A 
ATOM      9  C   UNL     1       5.868   4.411  -0.882  0.00  0.00    +0.000 A 
ATOM     10  C   UNL     1       5.773   4.266   0.569  0.00  0.00    +0.000 A 
ATOM     11  C   UNL     1       5.514   3.076   1.165  0.00  0.00    +0.000 A 
ATOM     12  C   UNL     1       5.319   1.953   0.311  0.00  0.00    +0.000 A 
ATOM     13  N   UNL     1       5.029   0.721   0.635  0.00  0.00    +0.000 NA
BRANCH  11  14
ATOM     14  C   UNL     1       5.249   2.973   2.645  0.00  0.00    +0.000 C 
ATOM     15  F   UNL     1       4.874   1.732   3.058  0.00  0.00    +0.000 F 
ATOM     16  F   UNL     1       6.334   3.313   3.385  0.00  0.00    +0.000 F 
ATOM     17  F   UNL     1       4.242   3.809   3.018  0.00  0.00    +0.000 F 
ENDBRANCH  11  14
ENDBRANCH   2   5
BRANCH   3  18
ATOM     18  C   UNL     1       2.501  -1.980   1.741  0.00  0.00    +0.000 A 
ATOM     19  C   UNL     1       1.371  -2.470   1.221  0.00  0.00    +0.000 A 
ATOM     20  C   UNL     1       0.386  -3.196   2.074  0.00  0.00    +0.000 A 
ATOM     21  O   UNL     1      -0.654  -3.537   1.502  0.00  0.00    +0.000 OA
ATOM     22  N   UNL     1       0.707  -3.369   3.438  0.00  0.00    +0.000 N 
ATOM     23  C   UNL     1       1.901  -2.839   3.926  0.00  0.00    +0.000 A 
ATOM     24  C   UNL     1       2.764  -2.174   3.146  0.00  0.00    +0.000 A 
BRANCH  22  25
ATOM     25  C   UNL     1      -0.227  -4.053   4.318  0.00  0.00    +0.000 A 
ATOM     26  C   UNL     1      -1.171  -4.975   3.834  0.00  0.00    +0.000 A 
ATOM     27  C   UNL     1      -2.092  -5.604   4.679  0.00  0.00    +0.000 A 
ATOM     28  C   UNL     1      -2.086  -5.338   6.042  0.00  0.00    +0.000 A 
ATOM     29  C   UNL     1      -1.150  -4.449   6.558  0.00  0.00    +0.000 A 
ATOM     30  C   UNL     1      -0.233  -3.817   5.708  0.00  0.00    +0.000 A 
ENDBRANCH  22  25
ENDBRANCH   3  18
TORSDOF 4
