REMARK  Name = 
REMARK  9 active torsions:
REMARK  status: ('A' for Active; 'I' for Inactive)
REMARK    1  A    between atoms: C_2  and  O_3
REMARK    2  A    between atoms: C_2  and  C_11
REMARK    3  A    between atoms: O_3  and  C_4
REMARK    4  A    between atoms: C_4  and  C_5
REMARK    5  A    between atoms: C_14  and  C_15
REMARK    6  A    between atoms: C_15  and  N_16
REMARK    7  A    between atoms: C_17  and  C_19
REMARK    8  A    between atoms: N_21  and  C_22
REMARK    9  A    between atoms: C_22  and  C_23
REMARK                            x       y       z     vdW  Elec       q    Type
REMARK                         _______ _______ _______ _____ _____    ______ ____
ROOT
ATOM      1  C   UNL     1       5.554  -3.259   3.492  0.00  0.00    +0.000 C 
ENDROOT
BRANCH   1   5
ATOM      2  C   UNL     1       3.124  -0.660   0.994  0.00  0.00    +0.000 A 
ATOM      3  C   UNL     1       2.753  -1.998   1.201  0.00  0.00    +0.000 A 
ATOM      4  C   UNL     1       3.530  -2.847   2.005  0.00  0.00    +0.000 A 
ATOM      5  C   UNL     1       4.700  -2.373   2.616  0.00  0.00    +0.000 A 
ATOM      6  C   UNL     1       5.062  -1.032   2.410  0.00  0.00    +0.000 A 
ATOM      7  C   UNL     1       4.276  -0.177   1.623  0.00  0.00    +0.000 A 
BRANCH   2   9
ATOM      8  O   UNL     1       1.292  -0.265  -0.480  0.00  0.00    +0.000 OA
ATOM      9  C   UNL     1       2.287   0.172   0.076  0.00  0.00    +0.000 C 
BRANCH   9  10
ATOM     10  O   UNL     1       2.806   1.415  -0.088  0.00  0.00    +0.000 OA
BRANCH  10  11
ATOM     11  C   UNL     1       2.148   2.257  -1.054  0.00  0.00    +0.000 C 
BRANCH  11  12
ATOM     12  C   UNL     1       1.680   3.540  -0.407  0.00  0.00    +0.000 A 
ATOM     13  C   UNL     1       2.596   4.366   0.260  0.00  0.00    +0.000 A 
ATOM     14  C   UNL     1       2.184   5.580   0.816  0.00  0.00    +0.000 A 
ATOM     15  C   UNL     1       0.857   5.982   0.711  0.00  0.00    +0.000 A 
ATOM     16  C   UNL     1      -0.066   5.170   0.051  0.00  0.00    +0.000 A 
ATOM     17  C   UNL     1       0.346   3.956  -0.505  0.00  0.00    +0.000 A 
ENDBRANCH  11  12
ENDBRANCH  10  11
ENDBRANCH   9  10
ENDBRANCH   2   9
ENDBRANCH   1   5
BRANCH   1  18
ATOM     18  N   UNL     1       6.590  -3.948   2.756  0.00  0.00    +0.000 N 
ATOM     19  C   UNL     1       7.799  -4.268   3.339  0.00  0.00    +0.000 C 
ATOM     20  O   UNL     1       8.106  -3.934   4.481  0.00  0.00    +0.000 OA
ATOM     21  H   UNL     1       6.370  -4.387   1.868  0.00  0.00    +0.000 HD
BRANCH  19  22
ATOM     22  C   UNL     1       8.695  -5.049   2.491  0.00  0.00    +0.000 A 
ATOM     23  C   UNL     1       9.957  -5.521   2.808  0.00  0.00    +0.000 A 
ATOM     24  N   UNL     1      10.349  -6.200   1.693  0.00  0.00    +0.000 N 
ATOM     25  N   UNL     1       9.398  -6.162   0.737  0.00  0.00    +0.000 NA
ATOM     26  N   UNL     1       8.384  -5.450   1.213  0.00  0.00    +0.000 NA
BRANCH  24  27
ATOM     27  C   UNL     1      11.550  -6.997   1.501  0.00  0.00    +0.000 C 
BRANCH  27  28
ATOM     28  C   UNL     1      12.681  -6.172   0.959  0.00  0.00    +0.000 A 
ATOM     29  C   UNL     1      13.601  -5.537   1.800  0.00  0.00    +0.000 A 
ATOM     30  C   UNL     1      14.583  -4.715   1.256  0.00  0.00    +0.000 A 
ATOM     31  C   UNL     1      14.627  -4.566  -0.120  0.00  0.00    +0.000 A 
ATOM     32  N   UNL     1      13.780  -5.190  -0.966  0.00  0.00    +0.000 NA
ATOM     33  C   UNL     1      12.825  -5.970  -0.411  0.00  0.00    +0.000 A 
ENDBRANCH  27  28
ENDBRANCH  24  27
ENDBRANCH  19  22
ENDBRANCH   1  18
TORSDOF 9
