REMARK  Name = 
REMARK  5 active torsions:
REMARK  status: ('A' for Active; 'I' for Inactive)
REMARK    1  A    between atoms: C_2  and  C_16
REMARK    2  A    between atoms: N_3  and  C_4
REMARK    3  A    between atoms: C_7  and  C_8
REMARK    4  A    between atoms: C_21  and  O_22
REMARK    5  A    between atoms: O_22  and  C_23
REMARK                            x       y       z     vdW  Elec       q    Type
REMARK                         _______ _______ _______ _____ _____    ______ ____
ROOT
ATOM      1  O   UNL     1       1.078  -0.164  -0.145  0.00  0.00    +0.000 OA
ATOM      2  C   UNL     1       2.277   0.094  -0.229  0.00  0.00    +0.000 C 
ATOM      3  N   UNL     1       2.853   1.282   0.186  0.00  0.00    +0.000 N 
ATOM      4  H   UNL     1       3.857   1.377   0.089  0.00  0.00    +0.000 HD
ENDROOT
BRANCH   3   5
ATOM      5  C   UNL     1       2.163   2.377   0.775  0.00  0.00    +0.000 A 
ATOM      6  C   UNL     1       0.779   2.410   0.970  0.00  0.00    +0.000 A 
ATOM      7  C   UNL     1       0.157   3.509   1.583  0.00  0.00    +0.000 A 
ATOM      8  C   UNL     1       0.902   4.606   2.021  0.00  0.00    +0.000 A 
ATOM      9  C   UNL     1       2.287   4.585   1.806  0.00  0.00    +0.000 A 
ATOM     10  C   UNL     1       2.910   3.483   1.192  0.00  0.00    +0.000 A 
BRANCH   8  11
ATOM     11  C   UNL     1       0.236   5.758   2.638  0.00  0.00    +0.000 A 
ATOM     12  C   UNL     1      -0.875   5.718   3.395  0.00  0.00    +0.000 A 
ATOM     13  C   UNL     1      -1.214   7.131   3.649  0.00  0.00    +0.000 A 
ATOM     14  O   UNL     1      -2.110   7.522   4.373  0.00  0.00    +0.000 OA
ATOM     15  N   UNL     1      -0.321   7.893   2.916  0.00  0.00    +0.000 N 
ATOM     16  N   UNL     1       0.684   7.056   2.415  0.00  0.00    +0.000 N 
ATOM     17  H   UNL     1      -0.141   8.863   3.140  0.00  0.00    +0.000 HD
ATOM     18  H   UNL     1       0.906   7.207   1.428  0.00  0.00    +0.000 HD
ENDBRANCH   8  11
ENDBRANCH   3   5
BRANCH   2  19
ATOM     19  C   UNL     1       3.144  -0.964  -0.842  0.00  0.00    +0.000 A 
ATOM     20  C   UNL     1       2.446  -2.100  -1.299  0.00  0.00    +0.000 A 
ATOM     21  C   UNL     1       3.130  -3.134  -1.906  0.00  0.00    +0.000 A 
ATOM     22  N   UNL     1       4.450  -3.098  -2.138  0.00  0.00    +0.000 NA
ATOM     23  C   UNL     1       5.110  -2.000  -1.704  0.00  0.00    +0.000 A 
ATOM     24  C   UNL     1       4.534  -0.938  -0.994  0.00  0.00    +0.000 A 
BRANCH  24  25
ATOM     25  O   UNL     1       5.304   0.083  -0.469  0.00  0.00    +0.000 OA
BRANCH  25  26
ATOM     26  C   UNL     1       6.577  -0.251  -0.032  0.00  0.00    +0.000 A 
ATOM     27  C   UNL     1       7.633   0.604  -0.368  0.00  0.00    +0.000 A 
ATOM     28  C   UNL     1       8.945   0.251  -0.032  0.00  0.00    +0.000 A 
ATOM     29  C   UNL     1       9.191  -0.947   0.633  0.00  0.00    +0.000 A 
ATOM     30  F   UNL     1      10.451  -1.304   0.911  0.00  0.00    +0.000 F 
ATOM     31  C   UNL     1       8.146  -1.781   1.009  0.00  0.00    +0.000 A 
ATOM     32  C   UNL     1       6.834  -1.416   0.709  0.00  0.00    +0.000 A 
ENDBRANCH  25  26
ENDBRANCH  24  25
ENDBRANCH   2  19
TORSDOF 5
