REMARK  Name = 
REMARK  6 active torsions:
REMARK  status: ('A' for Active; 'I' for Inactive)
REMARK    1  A    between atoms: C_2  and  C_4
REMARK    2  A    between atoms: C_7  and  C_8
REMARK    3  A    between atoms: C_8  and  O_9
REMARK    4  A    between atoms: O_9  and  C_10
REMARK    5  A    between atoms: C_13  and  C_14
REMARK    6  A    between atoms: C_18  and  N_19
REMARK                            x       y       z     vdW  Elec       q    Type
REMARK                         _______ _______ _______ _____ _____    ______ ____
ROOT
ATOM      1  C   UNL     1       6.643   2.033  -6.220  0.00  0.00    +0.000 A 
ATOM      2  C   UNL     1       7.162   3.328  -6.245  0.00  0.00    +0.000 A 
ATOM      3  C   UNL     1       7.940   3.752  -7.330  0.00  0.00    +0.000 A 
ATOM      4  C   UNL     1       8.209   2.894  -8.409  0.00  0.00    +0.000 A 
ATOM      5  C   UNL     1       7.706   1.584  -8.333  0.00  0.00    +0.000 A 
ATOM      6  C   UNL     1       6.954   1.149  -7.247  0.00  0.00    +0.000 A 
ENDROOT
BRANCH   4   7
ATOM      7  C   UNL     1       8.960   3.325  -9.610  0.00  0.00    +0.000 A 
ATOM      8  C   UNL     1       9.773   2.413 -10.310  0.00  0.00    +0.000 A 
ATOM      9  C   UNL     1      10.405   2.759 -11.502  0.00  0.00    +0.000 A 
ATOM     10  C   UNL     1      10.249   4.037 -12.027  0.00  0.00    +0.000 A 
ATOM     11  C   UNL     1       9.463   4.977 -11.350  0.00  0.00    +0.000 A 
ATOM     12  C   UNL     1       8.836   4.623 -10.140  0.00  0.00    +0.000 A 
BRANCH  11  13
ATOM     13  N   UNL     1       9.265   6.274 -11.888  0.00  0.00    +0.000 N 
ATOM     14  C   UNL     1       9.678   6.770 -13.102  0.00  0.00    +0.000 A 
ATOM     15  N   UNL     1       9.304   8.021 -13.243  0.00  0.00    +0.000 NA
ATOM     16  C   UNL     1       8.642   8.263 -12.078  0.00  0.00    +0.000 A 
ATOM     17  N   UNL     1       8.580   7.240 -11.226  0.00  0.00    +0.000 NA
ENDBRANCH  11  13
ENDBRANCH   4   7
BRANCH   1  18
ATOM     18  O   UNL     1       5.832   1.724  -5.164  0.00  0.00    +0.000 OA
BRANCH  18  19
ATOM     19  C   UNL     1       4.901   0.663  -5.422  0.00  0.00    +0.000 C 
BRANCH  19  23
ATOM     20  C   UNL     1       1.654   0.831  -2.609  0.00  0.00    +0.000 A 
ATOM     21  C   UNL     1       2.942   1.202  -2.202  0.00  0.00    +0.000 A 
ATOM     22  C   UNL     1       4.002   1.139  -3.103  0.00  0.00    +0.000 A 
ATOM     23  C   UNL     1       3.784   0.716  -4.420  0.00  0.00    +0.000 A 
ATOM     24  C   UNL     1       2.503   0.294  -4.791  0.00  0.00    +0.000 A 
ATOM     25  F   UNL     1       2.284  -0.160  -6.033  0.00  0.00    +0.000 F 
ATOM     26  C   UNL     1       1.439   0.346  -3.901  0.00  0.00    +0.000 A 
BRANCH  20  28
ATOM     27  N   UNL     1       0.556   1.919  -0.742  0.00  0.00    +0.000 N 
ATOM     28  C   UNL     1       0.499   0.936  -1.690  0.00  0.00    +0.000 C 
ATOM     29  O   UNL     1      -0.480   0.215  -1.802  0.00  0.00    +0.000 OA
ATOM     30  H   UNL     1      -0.286   2.066  -0.200  0.00  0.00    +0.000 HD
ATOM     31  H   UNL     1       1.215   2.684  -0.802  0.00  0.00    +0.000 HD
ENDBRANCH  20  28
ENDBRANCH  19  23
ENDBRANCH  18  19
ENDBRANCH   1  18
TORSDOF 6
