REMARK  Name = 
REMARK  7 active torsions:
REMARK  status: ('A' for Active; 'I' for Inactive)
REMARK    1  A    between atoms: N_4  and  C_5
REMARK    2  A    between atoms: C_5  and  C_6
REMARK    3  A    between atoms: C_13  and  C_14
REMARK    4  A    between atoms: N_16  and  C_17
REMARK    5  A    between atoms: C_17  and  C_18
REMARK    6  A    between atoms: C_20  and  C_21
REMARK    7  A    between atoms: C_23  and  O_24
REMARK                            x       y       z     vdW  Elec       q    Type
REMARK                         _______ _______ _______ _____ _____    ______ ____
ROOT
ATOM      1  C   UNL     1       2.639  -2.534   0.183  0.00  0.00    +0.000 C 
ATOM      2  O   UNL     1       1.446  -2.784   0.334  0.00  0.00    +0.000 OA
ATOM      3  N   UNL     1       3.589  -3.521   0.025  0.00  0.00    +0.000 N 
ATOM      4  H   UNL     1       4.564  -3.263   0.022  0.00  0.00    +0.000 HD
ENDROOT
BRANCH   1  10
ATOM      5  N   UNL     1       1.432  -0.028   1.479  0.00  0.00    +0.000 N 
ATOM      6  C   UNL     1       2.568  -0.025   0.776  0.00  0.00    +0.000 A 
ATOM      7  N   UNL     1       3.286   1.076   0.581  0.00  0.00    +0.000 NA
ATOM      8  N   UNL     1       4.337   0.660  -0.148  0.00  0.00    +0.000 N 
ATOM      9  C   UNL     1       4.312  -0.685  -0.407  0.00  0.00    +0.000 A 
ATOM     10  C   UNL     1       3.156  -1.173   0.183  0.00  0.00    +0.000 A 
ATOM     11  H   UNL     1       1.193   0.779   2.039  0.00  0.00    +0.000 HD
ATOM     12  H   UNL     1       0.951  -0.893   1.708  0.00  0.00    +0.000 HD
BRANCH   8  13
ATOM     13  C   UNL     1       5.298   1.638  -0.651  0.00  0.00    +0.000 C 
BRANCH  13  14
ATOM     14  C   UNL     1       6.479   1.817   0.272  0.00  0.00    +0.000 A 
ATOM     15  C   UNL     1       7.783   1.572  -0.182  0.00  0.00    +0.000 A 
ATOM     16  C   UNL     1       8.876   1.736   0.674  0.00  0.00    +0.000 A 
ATOM     17  C   UNL     1       8.679   2.158   1.987  0.00  0.00    +0.000 A 
ATOM     18  C   UNL     1       7.392   2.432   2.443  0.00  0.00    +0.000 A 
ATOM     19  C   UNL     1       6.299   2.269   1.590  0.00  0.00    +0.000 A 
ENDBRANCH  13  14
ENDBRANCH   8  13
ENDBRANCH   1  10
BRANCH   3  20
ATOM     20  C   UNL     1       3.239  -4.919   0.007  0.00  0.00    +0.000 C 
BRANCH  20  21
ATOM     21  C   UNL     1       3.219  -5.560   1.377  0.00  0.00    +0.000 A 
ATOM     22  C   UNL     1       2.021  -5.616   2.118  0.00  0.00    +0.000 A 
ATOM     23  C   UNL     1       1.922  -6.306   3.343  0.00  0.00    +0.000 A 
ATOM     24  C   UNL     1       3.092  -6.912   3.831  0.00  0.00    +0.000 A 
ATOM     25  C   UNL     1       4.302  -6.824   3.134  0.00  0.00    +0.000 A 
ATOM     26  C   UNL     1       4.364  -6.154   1.913  0.00  0.00    +0.000 A 
BRANCH  23  27
ATOM     27  C   UNL     1       0.631  -6.418   4.072  0.00  0.00    +0.000 A 
ATOM     28  C   UNL     1       0.573  -6.469   5.476  0.00  0.00    +0.000 A 
ATOM     29  C   UNL     1      -0.650  -6.578   6.141  0.00  0.00    +0.000 A 
ATOM     30  C   UNL     1      -1.844  -6.633   5.437  0.00  0.00    +0.000 A 
ATOM     31  C   UNL     1      -1.817  -6.590   4.048  0.00  0.00    +0.000 A 
ATOM     32  C   UNL     1      -0.594  -6.492   3.375  0.00  0.00    +0.000 A 
BRANCH  29  33
ATOM     33  O   UNL     1      -0.716  -6.634   7.503  0.00  0.00    +0.000 OA
ATOM     34  H   UNL     1       0.185  -6.577   7.860  0.00  0.00    +0.000 HD
ENDBRANCH  29  33
ENDBRANCH  23  27
ENDBRANCH  20  21
ENDBRANCH   3  20
TORSDOF 7
