REMARK  Name = 
REMARK  7 active torsions:
REMARK  status: ('A' for Active; 'I' for Inactive)
REMARK    1  A    between atoms: C_1  and  O_2
REMARK    2  A    between atoms: O_2  and  C_3
REMARK    3  A    between atoms: C_3  and  C_5
REMARK    4  A    between atoms: C_9  and  C_10
REMARK    5  A    between atoms: N_12  and  C_13
REMARK    6  A    between atoms: C_15  and  C_16
REMARK    7  A    between atoms: C_19  and  C_20
REMARK                            x       y       z     vdW  Elec       q    Type
REMARK                         _______ _______ _______ _____ _____    ______ ____
ROOT
ATOM      1  C   UNL     1      10.319   0.342  -3.011  0.00  0.00    +0.000 C 
ATOM      2  O   UNL     1      11.218  -0.189  -2.366  0.00  0.00    +0.000 OA
ATOM      3  N   UNL     1      10.471   1.024  -4.209  0.00  0.00    +0.000 N 
ATOM      4  H   UNL     1       9.641   1.521  -4.521  0.00  0.00    +0.000 HD
ENDROOT
BRANCH   1   9
ATOM      5  C   UNL     1       4.987   0.031  -0.351  0.00  0.00    +0.000 A 
ATOM      6  C   UNL     1       6.290  -0.286  -0.212  0.00  0.00    +0.000 A 
ATOM      7  N   UNL     1       7.185   0.037  -1.229  0.00  0.00    +0.000 N 
ATOM      8  C   UNL     1       8.531  -0.185  -1.301  0.00  0.00    +0.000 A 
ATOM      9  C   UNL     1       8.943   0.343  -2.511  0.00  0.00    +0.000 A 
ATOM     10  N   UNL     1       7.865   0.890  -3.190  0.00  0.00    +0.000 NA
ATOM     11  C   UNL     1       6.824   0.685  -2.406  0.00  0.00    +0.000 A 
ATOM     12  C   UNL     1       5.447   1.009  -2.562  0.00  0.00    +0.000 A 
ATOM     13  C   UNL     1       4.569   0.700  -1.584  0.00  0.00    +0.000 A 
BRANCH   5  14
ATOM     14  C   UNL     1       4.047  -0.313   0.756  0.00  0.00    +0.000 C 
ATOM     15  O   UNL     1       4.387  -0.829   1.811  0.00  0.00    +0.000 OA
BRANCH  14  17
ATOM     16  C   UNL     1       1.797  -0.258   1.415  0.00  0.00    +0.000 C 
ATOM     17  O   UNL     1       2.778   0.031   0.417  0.00  0.00    +0.000 OA
ENDBRANCH  14  17
ENDBRANCH   5  14
ENDBRANCH   1   9
BRANCH   3  18
ATOM     18  C   UNL     1      11.685   1.208  -4.908  0.00  0.00    +0.000 A 
ATOM     19  C   UNL     1      12.814   0.425  -4.660  0.00  0.00    +0.000 A 
ATOM     20  C   UNL     1      14.013   0.676  -5.326  0.00  0.00    +0.000 A 
ATOM     21  C   UNL     1      14.092   1.722  -6.248  0.00  0.00    +0.000 A 
ATOM     22  C   UNL     1      12.980   2.537  -6.526  0.00  0.00    +0.000 A 
ATOM     23  C   UNL     1      11.767   2.233  -5.866  0.00  0.00    +0.000 A 
BRANCH  22  24
ATOM     24  C   UNL     1      13.114   3.708  -7.428  0.00  0.00    +0.000 A 
ATOM     25  C   UNL     1      12.082   4.108  -8.292  0.00  0.00    +0.000 A 
ATOM     26  C   UNL     1      12.209   5.243  -9.103  0.00  0.00    +0.000 A 
ATOM     27  C   UNL     1      13.379   5.997  -9.078  0.00  0.00    +0.000 A 
ATOM     28  C   UNL     1      14.424   5.616  -8.245  0.00  0.00    +0.000 A 
ATOM     29  C   UNL     1      14.289   4.489  -7.428  0.00  0.00    +0.000 A 
ENDBRANCH  22  24
BRANCH  20  30
ATOM     30  C   UNL     1      15.170  -0.121  -5.042  0.00  0.00    +0.000 C 
ATOM     31  N   UNL     1      16.114  -0.757  -4.815  0.00  0.00    +0.000 NA
ENDBRANCH  20  30
ENDBRANCH   3  18
TORSDOF 6
