REMARK  Name = 
REMARK  10 active torsions:
REMARK  status: ('A' for Active; 'I' for Inactive)
REMARK    1  A    between atoms: C_1  and  O_2
REMARK    2  A    between atoms: O_2  and  C_3
REMARK    3  A    between atoms: C_7  and  C_8
REMARK    4  A    between atoms: C_8  and  N_9
REMARK    5  A    between atoms: C_8  and  C_24
REMARK    6  A    between atoms: C_10  and  C_12
REMARK    7  A    between atoms: N_14  and  C_15
REMARK    8  A    between atoms: C_15  and  C_16
REMARK    9  A    between atoms: C_30  and  O_31
REMARK   10  A    between atoms: O_31  and  C_32
REMARK                            x       y       z     vdW  Elec       q    Type
REMARK                         _______ _______ _______ _____ _____    ______ ____
ROOT
ATOM      1  C   UNL     1       6.242   1.943  -2.168  0.00  0.00    +0.000 C 
ENDROOT
BRANCH   1   2
ATOM      2  C   UNL     1       6.927   3.269  -2.545  0.00  0.00    +0.000 A 
ATOM      3  C   UNL     1       6.127   4.359  -2.971  0.00  0.00    +0.000 A 
ATOM      4  C   UNL     1       6.648   5.618  -3.239  0.00  0.00    +0.000 A 
ATOM      5  F   UNL     1       5.817   6.614  -3.573  0.00  0.00    +0.000 F 
ATOM      6  C   UNL     1       8.000   5.853  -3.135  0.00  0.00    +0.000 A 
ATOM      7  C   UNL     1       8.829   4.804  -2.744  0.00  0.00    +0.000 A 
ATOM      8  C   UNL     1       8.313   3.521  -2.446  0.00  0.00    +0.000 A 
BRANCH   8   9
ATOM      9  O   UNL     1       9.259   2.707  -1.882  0.00  0.00    +0.000 OA
ATOM     10  C   UNL     1       9.430   1.395  -2.393  0.00  0.00    +0.000 C 
ENDBRANCH   8   9
ENDBRANCH   1   2
BRANCH   1  15
ATOM     11  C   UNL     1       3.442   2.229   0.466  0.00  0.00    +0.000 A 
ATOM     12  C   UNL     1       2.379   2.696  -0.305  0.00  0.00    +0.000 A 
ATOM     13  C   UNL     1       2.509   2.775  -1.685  0.00  0.00    +0.000 A 
ATOM     14  C   UNL     1       3.709   2.414  -2.293  0.00  0.00    +0.000 A 
ATOM     15  C   UNL     1       4.844   2.071  -1.536  0.00  0.00    +0.000 A 
ATOM     16  C   UNL     1       4.675   1.950  -0.143  0.00  0.00    +0.000 A 
BRANCH  11  18
ATOM     17  C   UNL     1       2.087   1.840   2.358  0.00  0.00    +0.000 C 
ATOM     18  O   UNL     1       3.392   2.059   1.825  0.00  0.00    +0.000 OA
ENDBRANCH  11  18
ENDBRANCH   1  15
BRANCH   1  19
ATOM     19  N   UNL     1       6.292   0.924  -3.215  0.00  0.00    +0.000 N 
ATOM     20  C   UNL     1       5.875   1.058  -4.521  0.00  0.00    +0.000 C 
ATOM     21  O   UNL     1       5.354   2.055  -4.990  0.00  0.00    +0.000 OA
ATOM     22  H   UNL     1       6.623   0.004  -2.949  0.00  0.00    +0.000 HD
BRANCH  20  23
ATOM     23  C   UNL     1       6.118  -0.126  -5.340  0.00  0.00    +0.000 A 
ATOM     24  C   UNL     1       5.707  -0.335  -6.641  0.00  0.00    +0.000 A 
ATOM     25  N   UNL     1       6.252  -1.536  -6.978  0.00  0.00    +0.000 N 
ATOM     26  N   UNL     1       6.943  -2.063  -5.949  0.00  0.00    +0.000 NA
ATOM     27  N   UNL     1       6.860  -1.211  -4.932  0.00  0.00    +0.000 NA
BRANCH  25  28
ATOM     28  C   UNL     1       6.217  -2.196  -8.271  0.00  0.00    +0.000 C 
BRANCH  28  29
ATOM     29  C   UNL     1       5.027  -3.102  -8.385  0.00  0.00    +0.000 A 
ATOM     30  C   UNL     1       3.808  -2.654  -8.906  0.00  0.00    +0.000 A 
ATOM     31  C   UNL     1       2.713  -3.513  -8.932  0.00  0.00    +0.000 A 
ATOM     32  C   UNL     1       2.876  -4.798  -8.442  0.00  0.00    +0.000 A 
ATOM     33  N   UNL     1       4.041  -5.270  -7.951  0.00  0.00    +0.000 NA
ATOM     34  C   UNL     1       5.085  -4.413  -7.926  0.00  0.00    +0.000 A 
ENDBRANCH  28  29
ENDBRANCH  25  28
ENDBRANCH  20  23
ENDBRANCH   1  19
TORSDOF 8
