REMARK  Name = 
REMARK  6 active torsions:
REMARK  status: ('A' for Active; 'I' for Inactive)
REMARK    1  A    between atoms: N_7  and  C_8
REMARK    2  A    between atoms: C_11  and  N_12
REMARK    3  A    between atoms: N_12  and  C_13
REMARK    4  A    between atoms: C_13  and  C_14
REMARK    5  A    between atoms: N_16  and  C_17
REMARK    6  A    between atoms: C_17  and  C_18
REMARK                            x       y       z     vdW  Elec       q    Type
REMARK                         _______ _______ _______ _____ _____    ______ ____
ROOT
ATOM      1  N   UNL     1      -0.059  -5.919  -0.093  0.00  0.00    +0.000 N 
ATOM      2  H   UNL     1      -0.306  -6.087   0.881  0.00  0.00    +0.000 HD
ENDROOT
BRANCH   1   6
ATOM      3  C   UNL     1       2.571  -2.619  -0.407  0.00  0.00    +0.000 A 
ATOM      4  C   UNL     1       1.928  -3.114  -1.546  0.00  0.00    +0.000 A 
ATOM      5  C   UNL     1       1.031  -4.185  -1.452  0.00  0.00    +0.000 A 
ATOM      6  C   UNL     1       0.761  -4.791  -0.222  0.00  0.00    +0.000 A 
ATOM      7  C   UNL     1       1.466  -4.315   0.897  0.00  0.00    +0.000 A 
ATOM      8  F   UNL     1       1.286  -4.909   2.088  0.00  0.00    +0.000 F 
ATOM      9  C   UNL     1       2.330  -3.224   0.825  0.00  0.00    +0.000 A 
BRANCH   3  16
ATOM     10  O   UNL     1       4.700  -2.433  -2.266  0.00  0.00    +0.000 OA
ATOM     11  C   UNL     1       4.466  -1.519  -1.476  0.00  0.00    +0.000 A 
ATOM     12  C   UNL     1       5.363  -0.330  -1.506  0.00  0.00    +0.000 A 
ATOM     13  C   UNL     1       5.175   0.689  -0.659  0.00  0.00    +0.000 A 
ATOM     14  C   UNL     1       4.097   0.655   0.291  0.00  0.00    +0.000 A 
ATOM     15  C   UNL     1       3.297  -0.415   0.356  0.00  0.00    +0.000 A 
ATOM     16  N   UNL     1       3.451  -1.500  -0.501  0.00  0.00    +0.000 N 
ENDBRANCH   3  16
ENDBRANCH   1   6
BRANCH   1  17
ATOM     17  C   UNL     1      -1.186  -6.103  -1.000  0.00  0.00    +0.000 C 
BRANCH  17  18
ATOM     18  C   UNL     1      -1.982  -7.332  -0.719  0.00  0.00    +0.000 A 
ATOM     19  C   UNL     1      -1.535  -8.635  -0.715  0.00  0.00    +0.000 A 
ATOM     20  N   UNL     1      -2.596  -9.409  -0.344  0.00  0.00    +0.000 N 
ATOM     21  N   UNL     1      -3.725  -8.695  -0.144  0.00  0.00    +0.000 NA
ATOM     22  C   UNL     1      -3.348  -7.435  -0.377  0.00  0.00    +0.000 A 
BRANCH  20  23
ATOM     23  C   UNL     1      -2.540 -10.812   0.032  0.00  0.00    +0.000 C 
BRANCH  23  24
ATOM     24  C   UNL     1      -2.839 -11.743  -1.109  0.00  0.00    +0.000 A 
ATOM     25  C   UNL     1      -4.154 -12.139  -1.391  0.00  0.00    +0.000 A 
ATOM     26  C   UNL     1      -4.406 -13.106  -2.368  0.00  0.00    +0.000 A 
ATOM     27  C   UNL     1      -3.352 -13.670  -3.087  0.00  0.00    +0.000 A 
ATOM     28  C   UNL     1      -2.046 -13.243  -2.851  0.00  0.00    +0.000 A 
ATOM     29  C   UNL     1      -1.802 -12.283  -1.873  0.00  0.00    +0.000 A 
ATOM     30  F   UNL     1      -0.537 -11.902  -1.643  0.00  0.00    +0.000 F 
ENDBRANCH  23  24
ENDBRANCH  20  23
ENDBRANCH  17  18
ENDBRANCH   1  17
TORSDOF 6
