REMARK  Name = 
REMARK  4 active torsions:
REMARK  status: ('A' for Active; 'I' for Inactive)
REMARK    1  A    between atoms: C_2  and  C_16
REMARK    2  A    between atoms: N_3  and  C_4
REMARK    3  A    between atoms: C_4  and  C_5
REMARK    4  A    between atoms: C_18  and  C_19
REMARK                            x       y       z     vdW  Elec       q    Type
REMARK                         _______ _______ _______ _____ _____    ______ ____
ROOT
ATOM      1  O   UNL     1       1.104  -0.069  -0.125  0.00  0.00    +0.000 OA
ATOM      2  C   UNL     1       2.335  -0.049  -0.011  0.00  0.00    +0.000 C 
ATOM      3  N   UNL     1       3.100   0.822  -0.763  0.00  0.00    +0.000 N 
ATOM      4  H   UNL     1       4.111   0.814  -0.672  0.00  0.00    +0.000 HD
ENDROOT
BRANCH   2   5
ATOM      5  C   UNL     1       2.999  -0.938   0.903  0.00  0.00    +0.000 A 
ATOM      6  C   UNL     1       2.467  -1.932   1.682  0.00  0.00    +0.000 A 
ATOM      7  C   UNL     1       3.546  -2.451   2.435  0.00  0.00    +0.000 A 
ATOM      8  N   UNL     1       4.681  -1.804   2.113  0.00  0.00    +0.000 NA
ATOM      9  O   UNL     1       4.338  -0.870   1.141  0.00  0.00    +0.000 OA
BRANCH   7  10
ATOM     10  C   UNL     1       3.471  -3.526   3.416  0.00  0.00    +0.000 A 
ATOM     11  C   UNL     1       2.533  -4.555   3.250  0.00  0.00    +0.000 A 
ATOM     12  F   UNL     1       1.741  -4.587   2.165  0.00  0.00    +0.000 F 
ATOM     13  C   UNL     1       2.372  -5.566   4.191  0.00  0.00    +0.000 A 
ATOM     14  C   UNL     1       3.161  -5.551   5.329  0.00  0.00    +0.000 A 
ATOM     15  F   UNL     1       2.997  -6.506   6.254  0.00  0.00    +0.000 F 
ATOM     16  C   UNL     1       4.104  -4.554   5.531  0.00  0.00    +0.000 A 
ATOM     17  C   UNL     1       4.256  -3.549   4.572  0.00  0.00    +0.000 A 
ATOM     18  F   UNL     1       5.146  -2.577   4.821  0.00  0.00    +0.000 F 
ENDBRANCH   7  10
ENDBRANCH   2   5
BRANCH   3  19
ATOM     19  C   UNL     1       2.465   1.678  -1.743  0.00  0.00    +0.000 C 
BRANCH  19  20
ATOM     20  C   UNL     1       2.072   2.988  -1.121  0.00  0.00    +0.000 A 
ATOM     21  C   UNL     1       0.865   3.241  -0.577  0.00  0.00    +0.000 A 
ATOM     22  C   UNL     1       0.572   4.533   0.048  0.00  0.00    +0.000 A 
ATOM     23  C   UNL     1      -0.657   4.792   0.662  0.00  0.00    +0.000 A 
ATOM     24  C   UNL     1      -0.891   6.031   1.269  0.00  0.00    +0.000 A 
ATOM     25  C   UNL     1       0.100   7.014   1.266  0.00  0.00    +0.000 A 
ATOM     26  C   UNL     1       1.331   6.762   0.659  0.00  0.00    +0.000 A 
ATOM     27  C   UNL     1       1.560   5.524   0.054  0.00  0.00    +0.000 A 
ATOM     28  N   UNL     1       2.794   5.258  -0.547  0.00  0.00    +0.000 N 
ATOM     29  C   UNL     1       3.110   4.062  -1.134  0.00  0.00    +0.000 A 
ATOM     30  O   UNL     1       4.219   3.879  -1.635  0.00  0.00    +0.000 OA
ATOM     31  H   UNL     1       3.525   5.954  -0.540  0.00  0.00    +0.000 HD
ENDBRANCH  19  20
ENDBRANCH   3  19
TORSDOF 4
