REMARK  Name = 
REMARK  4 active torsions:
REMARK  status: ('A' for Active; 'I' for Inactive)
REMARK    1  A    between atoms: C_2  and  C_19
REMARK    2  A    between atoms: N_3  and  C_4
REMARK    3  A    between atoms: N_6  and  C_7
REMARK    4  A    between atoms: C_7  and  C_8
REMARK                            x       y       z     vdW  Elec       q    Type
REMARK                         _______ _______ _______ _____ _____    ______ ____
ROOT
ATOM      1  O   UNL     1       4.362   0.136   2.527  0.00  0.00    +0.000 OA
ATOM      2  C   UNL     1       3.981  -0.065   1.385  0.00  0.00    +0.000 C 
ATOM      3  N   UNL     1       2.925  -0.885   0.991  0.00  0.00    +0.000 N 
ATOM      4  H   UNL     1       2.647  -0.849   0.017  0.00  0.00    +0.000 HD
ENDROOT
BRANCH   2   5
ATOM      5  C   UNL     1       4.744   0.571   0.283  0.00  0.00    +0.000 A 
ATOM      6  C   UNL     1       4.094   1.309  -0.716  0.00  0.00    +0.000 A 
ATOM      7  C   UNL     1       4.822   1.801  -1.807  0.00  0.00    +0.000 A 
ATOM      8  C   UNL     1       6.164   1.451  -1.966  0.00  0.00    +0.000 A 
ATOM      9  C   UNL     1       6.787   0.667  -0.992  0.00  0.00    +0.000 A 
ATOM     10  C   UNL     1       6.119   0.338   0.181  0.00  0.00    +0.000 A 
ATOM     11  C   UNL     1       6.935  -0.275   1.232  0.00  0.00    +0.000 A 
ATOM     12  N   UNL     1       8.048  -0.896   0.999  0.00  0.00    +0.000 NA
ATOM     13  N   UNL     1       8.494  -0.892  -0.290  0.00  0.00    +0.000 N 
ATOM     14  C   UNL     1       8.072  -0.007  -1.260  0.00  0.00    +0.000 A 
ATOM     15  O   UNL     1       8.660   0.145  -2.323  0.00  0.00    +0.000 OA
ATOM     16  H   UNL     1       9.333  -1.434  -0.474  0.00  0.00    +0.000 HD
ENDBRANCH   2   5
BRANCH   3  17
ATOM     17  C   UNL     1       2.211  -1.773   1.796  0.00  0.00    +0.000 A 
ATOM     18  C   UNL     1       1.100  -2.386   1.325  0.00  0.00    +0.000 A 
ATOM     19  N   UNL     1       0.348  -3.246   2.113  0.00  0.00    +0.000 N 
ATOM     20  C   UNL     1       0.698  -3.555   3.425  0.00  0.00    +0.000 A 
ATOM     21  O   UNL     1       0.049  -4.272   4.183  0.00  0.00    +0.000 OA
ATOM     22  C   UNL     1       1.954  -2.938   3.914  0.00  0.00    +0.000 A 
ATOM     23  C   UNL     1       2.647  -2.100   3.132  0.00  0.00    +0.000 A 
BRANCH  19  24
ATOM     24  C   UNL     1      -0.955  -3.718   1.634  0.00  0.00    +0.000 C 
BRANCH  24  25
ATOM     25  C   UNL     1      -0.950  -5.029   0.882  0.00  0.00    +0.000 A 
ATOM     26  C   UNL     1      -1.363  -5.071  -0.458  0.00  0.00    +0.000 A 
ATOM     27  C   UNL     1      -1.552  -6.295  -1.096  0.00  0.00    +0.000 A 
ATOM     28  F   UNL     1      -2.002  -6.313  -2.357  0.00  0.00    +0.000 F 
ATOM     29  C   UNL     1      -1.318  -7.493  -0.435  0.00  0.00    +0.000 A 
ATOM     30  C   UNL     1      -0.861  -7.468   0.880  0.00  0.00    +0.000 A 
ATOM     31  C   UNL     1      -0.675  -6.245   1.534  0.00  0.00    +0.000 A 
ENDBRANCH  24  25
ENDBRANCH  19  24
ENDBRANCH   3  17
TORSDOF 4
