REMARK  Name = 
REMARK  4 active torsions:
REMARK  status: ('A' for Active; 'I' for Inactive)
REMARK    1  A    between atoms: C_2  and  C_17
REMARK    2  A    between atoms: N_3  and  C_4
REMARK    3  A    between atoms: C_4  and  C_5
REMARK    4  A    between atoms: C_9  and  C_10
REMARK                            x       y       z     vdW  Elec       q    Type
REMARK                         _______ _______ _______ _____ _____    ______ ____
ROOT
ATOM      1  O   UNL     1       2.115  -1.688   1.247  0.00  0.00    +0.000 OA
ATOM      2  C   UNL     1       2.775  -0.839   0.664  0.00  0.00    +0.000 C 
ATOM      3  N   UNL     1       2.981  -0.817  -0.705  0.00  0.00    +0.000 N 
ATOM      4  H   UNL     1       3.578  -0.082  -1.083  0.00  0.00    +0.000 HD
ENDROOT
BRANCH   2   5
ATOM      5  C   UNL     1       3.450   0.268   1.407  0.00  0.00    +0.000 A 
ATOM      6  N   UNL     1       4.295   1.066   0.695  0.00  0.00    +0.000 NA
ATOM      7  C   UNL     1       4.800   2.138   1.329  0.00  0.00    +0.000 A 
ATOM      8  C   UNL     1       5.806   2.876   0.731  0.00  0.00    +0.000 A 
ATOM      9  C   UNL     1       6.340   3.991   1.370  0.00  0.00    +0.000 A 
ATOM     10  F   UNL     1       7.463   4.544   0.895  0.00  0.00    +0.000 F 
ATOM     11  C   UNL     1       5.774   4.497   2.526  0.00  0.00    +0.000 A 
ATOM     12  C   UNL     1       4.819   3.730   3.167  0.00  0.00    +0.000 A 
ATOM     13  F   UNL     1       4.336   4.152   4.345  0.00  0.00    +0.000 F 
ATOM     14  C   UNL     1       4.390   2.509   2.627  0.00  0.00    +0.000 A 
ATOM     15  C   UNL     1       3.590   1.616   3.350  0.00  0.00    +0.000 A 
ATOM     16  C   UNL     1       3.132   0.459   2.740  0.00  0.00    +0.000 A 
ENDBRANCH   2   5
BRANCH   3  17
ATOM     17  C   UNL     1       2.292  -1.730  -1.597  0.00  0.00    +0.000 C 
BRANCH  17  18
ATOM     18  C   UNL     1       3.244  -2.608  -2.350  0.00  0.00    +0.000 A 
ATOM     19  C   UNL     1       3.190  -2.687  -3.744  0.00  0.00    +0.000 A 
ATOM     20  N   UNL     1       3.986  -3.483  -4.487  0.00  0.00    +0.000 NA
ATOM     21  C   UNL     1       4.885  -4.238  -3.806  0.00  0.00    +0.000 A 
ATOM     22  C   UNL     1       5.059  -4.252  -2.419  0.00  0.00    +0.000 A 
ATOM     23  C   UNL     1       4.201  -3.403  -1.705  0.00  0.00    +0.000 A 
BRANCH  22  24
ATOM     24  C   UNL     1       6.068  -5.101  -1.758  0.00  0.00    +0.000 A 
ATOM     25  C   UNL     1       5.865  -5.665  -0.490  0.00  0.00    +0.000 A 
ATOM     26  C   UNL     1       6.846  -6.462   0.106  0.00  0.00    +0.000 A 
ATOM     27  C   UNL     1       8.018  -6.690  -0.590  0.00  0.00    +0.000 A 
ATOM     28  N   UNL     1       8.267  -6.178  -1.811  0.00  0.00    +0.000 NA
ATOM     29  C   UNL     1       7.297  -5.401  -2.355  0.00  0.00    +0.000 A 
ENDBRANCH  22  24
ENDBRANCH  17  18
ENDBRANCH   3  17
TORSDOF 4
