REMARK  Name = 
REMARK  6 active torsions:
REMARK  status: ('A' for Active; 'I' for Inactive)
REMARK    1  A    between atoms: C_1  and  N_2
REMARK    2  A    between atoms: N_2  and  C_20
REMARK    3  A    between atoms: C_3  and  C_5
REMARK    4  A    between atoms: N_9  and  C_10
REMARK    5  A    between atoms: C_10  and  C_11
REMARK    6  A    between atoms: N_24  and  C_25
REMARK                            x       y       z     vdW  Elec       q    Type
REMARK                         _______ _______ _______ _____ _____    ______ ____
ROOT
ATOM      1  C   UNL     1       0.987  -0.163   0.041  0.00  0.00    +0.000 C 
ATOM      2  N   UNL     1       2.439  -0.224  -0.172  0.00  0.00    +0.000 N 
ATOM      3  C   UNL     1       3.167   0.312  -1.335  0.00  0.00    +0.000 C 
ATOM      4  O   UNL     1       4.380   0.186  -1.375  0.00  0.00    +0.000 OA
ENDROOT
BRANCH   3   5
ATOM      5  C   UNL     1       2.394   0.949  -2.441  0.00  0.00    +0.000 A 
ATOM      6  C   UNL     1       1.412   1.844  -2.220  0.00  0.00    +0.000 A 
ATOM      7  C   UNL     1       0.629   2.384  -3.306  0.00  0.00    +0.000 A 
ATOM      8  C   UNL     1       0.958   2.120  -4.570  0.00  0.00    +0.000 A 
ATOM      9  N   UNL     1       2.049   1.319  -4.870  0.00  0.00    +0.000 N 
ATOM     10  C   UNL     1       2.803   0.688  -3.872  0.00  0.00    +0.000 A 
ATOM     11  O   UNL     1       3.747  -0.057  -4.123  0.00  0.00    +0.000 OA
BRANCH   9  12
ATOM     12  C   UNL     1       2.368   1.069  -6.280  0.00  0.00    +0.000 C 
BRANCH  12  13
ATOM     13  C   UNL     1       1.633  -0.139  -6.816  0.00  0.00    +0.000 A 
ATOM     14  C   UNL     1       0.349  -0.019  -7.364  0.00  0.00    +0.000 A 
ATOM     15  C   UNL     1      -0.360  -1.158  -7.730  0.00  0.00    +0.000 A 
ATOM     16  F   UNL     1      -1.602  -1.034  -8.216  0.00  0.00    +0.000 F 
ATOM     17  C   UNL     1       0.190  -2.427  -7.578  0.00  0.00    +0.000 A 
ATOM     18  C   UNL     1       1.480  -2.555  -7.072  0.00  0.00    +0.000 A 
ATOM     19  C   UNL     1       2.198  -1.418  -6.693  0.00  0.00    +0.000 A 
ENDBRANCH  12  13
ENDBRANCH   9  12
ENDBRANCH   3   5
BRANCH   2  20
ATOM     20  C   UNL     1       3.210  -0.975   0.748  0.00  0.00    +0.000 A 
ATOM     21  C   UNL     1       2.892  -2.249   1.175  0.00  0.00    +0.000 A 
ATOM     22  C   UNL     1       4.014  -2.682   1.892  0.00  0.00    +0.000 A 
ATOM     23  N   UNL     1       4.978  -1.766   1.948  0.00  0.00    +0.000 NA
ATOM     24  N   UNL     1       4.433  -0.665   1.355  0.00  0.00    +0.000 N 
BRANCH  24  25
ATOM     25  C   UNL     1       5.003   0.613   1.600  0.00  0.00    +0.000 A 
ATOM     26  C   UNL     1       6.377   0.709   1.860  0.00  0.00    +0.000 A 
ATOM     27  C   UNL     1       6.941   1.944   2.175  0.00  0.00    +0.000 A 
ATOM     28  C   UNL     1       6.134   3.076   2.268  0.00  0.00    +0.000 A 
ATOM     29  C   UNL     1       4.763   2.982   2.025  0.00  0.00    +0.000 A 
ATOM     30  C   UNL     1       4.195   1.753   1.674  0.00  0.00    +0.000 A 
ENDBRANCH  24  25
ENDBRANCH   2  20
TORSDOF 5
