REMARK  Name = 
REMARK  9 active torsions:
REMARK  status: ('A' for Active; 'I' for Inactive)
REMARK    1  A    between atoms: C_1  and  O_2
REMARK    2  A    between atoms: O_2  and  C_3
REMARK    3  A    between atoms: C_3  and  C_5
REMARK    4  A    between atoms: C_10  and  S_11
REMARK    5  A    between atoms: S_11  and  N_14
REMARK    6  A    between atoms: N_14  and  C_15
REMARK    7  A    between atoms: C_15  and  C_16
REMARK    8  A    between atoms: C_15  and  C_17
REMARK    9  A    between atoms: C_20  and  C_21
REMARK                            x       y       z     vdW  Elec       q    Type
REMARK                         _______ _______ _______ _____ _____    ______ ____
ROOT
ATOM      1  S   UNL     1       9.156   1.647   0.592  0.00  0.00    +0.000 S 
ATOM      2  O   UNL     1       7.847   1.946   1.132  0.00  0.00    +0.000 OA
ATOM      3  O   UNL     1      10.085   0.792   1.293  0.00  0.00    +0.000 OA
ENDROOT
BRANCH   1   9
ATOM      4  C   UNL     1       7.724  -2.389  -2.311  0.00  0.00    +0.000 A 
ATOM      5  N   UNL     1       7.432  -3.111  -1.190  0.00  0.00    +0.000 NA
ATOM      6  C   UNL     1       7.617  -2.510  -0.011  0.00  0.00    +0.000 A 
ATOM      7  C   UNL     1       8.076  -1.213   0.109  0.00  0.00    +0.000 A 
ATOM      8  C   UNL     1       8.397  -0.447  -1.039  0.00  0.00    +0.000 A 
ATOM      9  C   UNL     1       8.884   0.896  -0.993  0.00  0.00    +0.000 A 
ATOM     10  C   UNL     1       9.183   1.619  -2.151  0.00  0.00    +0.000 A 
ATOM     11  C   UNL     1       9.003   1.020  -3.387  0.00  0.00    +0.000 A 
ATOM     12  C   UNL     1       8.525  -0.289  -3.462  0.00  0.00    +0.000 A 
ATOM     13  C   UNL     1       8.216  -1.056  -2.305  0.00  0.00    +0.000 A 
BRANCH   4  14
ATOM     14  C   UNL     1       7.480  -3.137  -3.591  0.00  0.00    +0.000 C 
ATOM     15  O   UNL     1       8.096  -2.977  -4.633  0.00  0.00    +0.000 OA
BRANCH  14  17
ATOM     16  C   UNL     1       6.121  -4.771  -4.570  0.00  0.00    +0.000 C 
ATOM     17  O   UNL     1       6.448  -4.000  -3.414  0.00  0.00    +0.000 OA
ENDBRANCH  14  17
ENDBRANCH   4  14
ENDBRANCH   1   9
BRANCH   1  18
ATOM     18  N   UNL     1       9.857   3.156   0.324  0.00  0.00    +0.000 NA
ATOM     19  H   UNL     1       9.349   3.874   0.842  0.00  0.00    +0.000 HD
BRANCH  18  20
ATOM     20  C   UNL     1      11.324   3.295   0.278  0.00  0.00    +0.000 C 
ATOM     21  C   UNL     1      11.664   4.758  -0.022  0.00  0.00    +0.000 C 
BRANCH  20  22
ATOM     22  C   UNL     1      12.039   2.871   1.544  0.00  0.00    +0.000 A 
ATOM     23  C   UNL     1      13.291   2.255   1.451  0.00  0.00    +0.000 A 
ATOM     24  C   UNL     1      13.904   1.722   2.588  0.00  0.00    +0.000 A 
ATOM     25  C   UNL     1      13.292   1.788   3.852  0.00  0.00    +0.000 A 
ATOM     26  C   UNL     1      12.059   2.454   3.937  0.00  0.00    +0.000 A 
ATOM     27  C   UNL     1      11.450   3.005   2.808  0.00  0.00    +0.000 A 
BRANCH  25  28
ATOM     28  C   UNL     1      13.909   1.167   5.039  0.00  0.00    +0.000 A 
ATOM     29  C   UNL     1      15.298   1.132   5.224  0.00  0.00    +0.000 A 
ATOM     30  C   UNL     1      15.850   0.536   6.356  0.00  0.00    +0.000 A 
ATOM     31  C   UNL     1      14.994  -0.010   7.295  0.00  0.00    +0.000 A 
ATOM     32  N   UNL     1      13.653  -0.007   7.170  0.00  0.00    +0.000 NA
ATOM     33  C   UNL     1      13.150   0.570   6.050  0.00  0.00    +0.000 A 
ENDBRANCH  25  28
ENDBRANCH  20  22
ENDBRANCH  18  20
ENDBRANCH   1  18
TORSDOF 7
