REMARK  Name = 
REMARK  4 active torsions:
REMARK  status: ('A' for Active; 'I' for Inactive)
REMARK    1  A    between atoms: C_2  and  C_17
REMARK    2  A    between atoms: N_3  and  C_4
REMARK    3  A    between atoms: C_4  and  C_5
REMARK    4  A    between atoms: C_9  and  C_10
REMARK                            x       y       z     vdW  Elec       q    Type
REMARK                         _______ _______ _______ _____ _____    ______ ____
ROOT
ATOM      1  O   UNL     1       2.147   2.176  -0.796  0.00  0.00    +0.000 OA
ATOM      2  C   UNL     1       2.966   1.314  -0.497  0.00  0.00    +0.000 C 
ATOM      3  N   UNL     1       3.192   0.893   0.787  0.00  0.00    +0.000 N 
ATOM      4  H   UNL     1       3.900   0.194   0.969  0.00  0.00    +0.000 HD
ENDROOT
BRANCH   2   5
ATOM      5  C   UNL     1       3.768   0.588  -1.532  0.00  0.00    +0.000 A 
ATOM      6  C   UNL     1       3.523   0.902  -2.812  0.00  0.00    +0.000 A 
ATOM      7  C   UNL     1       4.186   0.140  -3.873  0.00  0.00    +0.000 A 
ATOM      8  O   UNL     1       4.054   0.441  -5.052  0.00  0.00    +0.000 OA
ATOM      9  C   UNL     1       4.984  -1.015  -3.446  0.00  0.00    +0.000 A 
ATOM     10  C   UNL     1       5.486  -1.915  -4.387  0.00  0.00    +0.000 A 
ATOM     11  C   UNL     1       6.234  -2.996  -3.943  0.00  0.00    +0.000 A 
ATOM     12  F   UNL     1       6.694  -3.888  -4.829  0.00  0.00    +0.000 F 
ATOM     13  C   UNL     1       6.509  -3.174  -2.588  0.00  0.00    +0.000 A 
ATOM     14  C   UNL     1       5.999  -2.271  -1.651  0.00  0.00    +0.000 A 
ATOM     15  C   UNL     1       5.212  -1.202  -2.081  0.00  0.00    +0.000 A 
ATOM     16  O   UNL     1       4.664  -0.389  -1.118  0.00  0.00    +0.000 OA
ENDBRANCH   2   5
BRANCH   3  17
ATOM     17  C   UNL     1       2.395   1.370   1.892  0.00  0.00    +0.000 C 
BRANCH  17  18
ATOM     18  C   UNL     1       3.230   2.116   2.895  0.00  0.00    +0.000 A 
ATOM     19  C   UNL     1       3.528   3.469   2.695  0.00  0.00    +0.000 A 
ATOM     20  C   UNL     1       4.268   4.170   3.642  0.00  0.00    +0.000 A 
ATOM     21  C   UNL     1       4.703   3.529   4.805  0.00  0.00    +0.000 A 
ATOM     22  C   UNL     1       4.408   2.175   5.050  0.00  0.00    +0.000 A 
ATOM     23  C   UNL     1       3.697   1.477   4.056  0.00  0.00    +0.000 A 
BRANCH  22  24
ATOM     24  C   UNL     1       4.764   1.514   6.323  0.00  0.00    +0.000 A 
ATOM     25  C   UNL     1       4.759   2.199   7.541  0.00  0.00    +0.000 A 
ATOM     26  C   UNL     1       5.030   1.508   8.720  0.00  0.00    +0.000 A 
ATOM     27  C   UNL     1       5.303   0.150   8.660  0.00  0.00    +0.000 A 
ATOM     28  C   UNL     1       5.294  -0.462   7.419  0.00  0.00    +0.000 A 
ATOM     29  N   UNL     1       5.028   0.183   6.260  0.00  0.00    +0.000 NA
ENDBRANCH  22  24
ENDBRANCH  17  18
ENDBRANCH   3  17
TORSDOF 4
