REMARK  Name = 
REMARK  6 active torsions:
REMARK  status: ('A' for Active; 'I' for Inactive)
REMARK    1  A    between atoms: N_1  and  C_2
REMARK    2  A    between atoms: C_2  and  C_3
REMARK    3  A    between atoms: C_10  and  C_11
REMARK    4  A    between atoms: N_13  and  C_14
REMARK    5  A    between atoms: C_14  and  C_15
REMARK    6  A    between atoms: C_18  and  C_19
REMARK                            x       y       z     vdW  Elec       q    Type
REMARK                         _______ _______ _______ _____ _____    ______ ____
ROOT
ATOM      1  C   UNL     1       0.458   4.125   2.154  0.00  0.00    +0.000 C 
ATOM      2  O   UNL     1       0.117   5.276   2.412  0.00  0.00    +0.000 OA
ATOM      3  N   UNL     1       0.104   3.040   2.931  0.00  0.00    +0.000 N 
ATOM      4  H   UNL     1       0.561   2.149   2.793  0.00  0.00    +0.000 HD
ENDROOT
BRANCH   1  12
ATOM      5  C   UNL     1       4.051   5.627  -0.965  0.00  0.00    +0.000 A 
ATOM      6  C   UNL     1       4.862   5.359  -2.084  0.00  0.00    +0.000 A 
ATOM      7  C   UNL     1       4.777   4.144  -2.754  0.00  0.00    +0.000 A 
ATOM      8  C   UNL     1       3.877   3.176  -2.317  0.00  0.00    +0.000 A 
ATOM      9  C   UNL     1       3.041   3.413  -1.215  0.00  0.00    +0.000 A 
ATOM     10  C   UNL     1       2.145   2.420  -0.786  0.00  0.00    +0.000 A 
ATOM     11  C   UNL     1       1.302   2.629   0.308  0.00  0.00    +0.000 A 
ATOM     12  C   UNL     1       1.337   3.846   0.983  0.00  0.00    +0.000 A 
ATOM     13  C   UNL     1       2.211   4.853   0.550  0.00  0.00    +0.000 A 
ATOM     14  C   UNL     1       3.102   4.657  -0.533  0.00  0.00    +0.000 A 
BRANCH   5  15
ATOM     15  C   UNL     1       4.233   6.959  -0.271  0.00  0.00    +0.000 C 
BRANCH  15  16
ATOM     16  N   UNL     1       3.378   7.986  -0.849  0.00  0.00    +0.000 NA
ATOM     17  H   UNL     1       3.440   8.829  -0.281  0.00  0.00    +0.000 HD
ATOM     18  H   UNL     1       2.407   7.679  -0.795  0.00  0.00    +0.000 HD
ENDBRANCH  15  16
ENDBRANCH   5  15
ENDBRANCH   1  12
BRANCH   3  19
ATOM     19  C   UNL     1      -0.680   3.226   4.128  0.00  0.00    +0.000 C 
BRANCH  19  20
ATOM     20  C   UNL     1      -0.908   1.929   4.861  0.00  0.00    +0.000 A 
ATOM     21  C   UNL     1      -0.017   1.504   5.858  0.00  0.00    +0.000 A 
ATOM     22  C   UNL     1      -0.256   0.324   6.572  0.00  0.00    +0.000 A 
ATOM     23  C   UNL     1      -1.386  -0.453   6.297  0.00  0.00    +0.000 A 
ATOM     24  C   UNL     1      -2.257  -0.053   5.278  0.00  0.00    +0.000 A 
ATOM     25  C   UNL     1      -2.016   1.125   4.561  0.00  0.00    +0.000 A 
BRANCH  23  26
ATOM     26  C   UNL     1      -1.653  -1.683   7.062  0.00  0.00    +0.000 A 
ATOM     27  C   UNL     1      -2.380  -1.601   8.192  0.00  0.00    +0.000 A 
ATOM     28  N   UNL     1      -2.657  -2.724   8.937  0.00  0.00    +0.000 N 
ATOM     29  C   UNL     1      -2.235  -3.991   8.611  0.00  0.00    +0.000 A 
ATOM     30  O   UNL     1      -2.491  -4.977   9.290  0.00  0.00    +0.000 OA
ATOM     31  C   UNL     1      -1.433  -4.095   7.365  0.00  0.00    +0.000 A 
ATOM     32  C   UNL     1      -1.170  -2.993   6.649  0.00  0.00    +0.000 A 
ATOM     33  H   UNL     1      -3.206  -2.650   9.786  0.00  0.00    +0.000 HD
ENDBRANCH  23  26
ENDBRANCH  19  20
ENDBRANCH   3  19
TORSDOF 6
