REMARK  Name = 
REMARK  5 active torsions:
REMARK  status: ('A' for Active; 'I' for Inactive)
REMARK    1  A    between atoms: C_1  and  O_2
REMARK    2  A    between atoms: O_2  and  C_3
REMARK    3  A    between atoms: C_3  and  C_5
REMARK    4  A    between atoms: C_9  and  C_10
REMARK    5  A    between atoms: C_13  and  C_14
REMARK                            x       y       z     vdW  Elec       q    Type
REMARK                         _______ _______ _______ _____ _____    ______ ____
ROOT
ATOM      1  C   UNL     1       8.946  -0.974  -0.843  0.00  0.00    +0.000 A 
ATOM      2  N   UNL     1       9.675  -0.047  -1.476  0.00  0.00    +0.000 NA
ATOM      3  O   UNL     1      10.983  -0.405  -1.206  0.00  0.00    +0.000 OA
ATOM      4  C   UNL     1      10.959  -1.548  -0.428  0.00  0.00    +0.000 A 
ATOM      5  N   UNL     1       9.709  -1.921  -0.205  0.00  0.00    +0.000 NA
ENDROOT
BRANCH   4   6
ATOM      6  C   UNL     1      12.151  -2.187   0.053  0.00  0.00    +0.000 A 
ATOM      7  C   UNL     1      13.185  -1.375   0.345  0.00  0.00    +0.000 A 
ATOM      8  C   UNL     1      14.462  -1.873   0.897  0.00  0.00    +0.000 A 
ATOM      9  O   UNL     1      15.380  -1.102   1.145  0.00  0.00    +0.000 OA
ATOM     10  N   UNL     1      14.554  -3.215   1.118  0.00  0.00    +0.000 N 
ATOM     11  C   UNL     1      13.535  -4.120   0.807  0.00  0.00    +0.000 A 
ATOM     12  C   UNL     1      13.755  -5.482   1.017  0.00  0.00    +0.000 A 
ATOM     13  C   UNL     1      12.764  -6.387   0.663  0.00  0.00    +0.000 A 
ATOM     14  F   UNL     1      12.975  -7.697   0.840  0.00  0.00    +0.000 F 
ATOM     15  C   UNL     1      11.564  -5.955   0.115  0.00  0.00    +0.000 A 
ATOM     16  C   UNL     1      11.342  -4.589  -0.079  0.00  0.00    +0.000 A 
ATOM     17  C   UNL     1      12.325  -3.647   0.267  0.00  0.00    +0.000 A 
ATOM     18  H   UNL     1      15.434  -3.538   1.499  0.00  0.00    +0.000 HD
ENDBRANCH   4   6
BRANCH   1  23
ATOM     19  C   UNL     1       4.676  -0.984  -0.755  0.00  0.00    +0.000 A 
ATOM     20  C   UNL     1       5.381  -2.190  -0.705  0.00  0.00    +0.000 A 
ATOM     21  C   UNL     1       6.778  -2.178  -0.730  0.00  0.00    +0.000 A 
ATOM     22  F   UNL     1       7.411  -3.360  -0.691  0.00  0.00    +0.000 F 
ATOM     23  C   UNL     1       7.497  -0.981  -0.814  0.00  0.00    +0.000 A 
ATOM     24  C   UNL     1       6.771   0.212  -0.854  0.00  0.00    +0.000 A 
ATOM     25  F   UNL     1       7.395   1.398  -0.905  0.00  0.00    +0.000 F 
ATOM     26  C   UNL     1       5.378   0.221  -0.821  0.00  0.00    +0.000 A 
BRANCH  19  27
ATOM     27  C   UNL     1       3.196  -0.925  -0.724  0.00  0.00    +0.000 C 
ATOM     28  O   UNL     1       2.574   0.067  -0.380  0.00  0.00    +0.000 OA
BRANCH  27  30
ATOM     29  C   UNL     1       1.244  -2.088  -1.234  0.00  0.00    +0.000 C 
ATOM     30  O   UNL     1       2.672  -2.088  -1.178  0.00  0.00    +0.000 OA
ENDBRANCH  27  30
ENDBRANCH  19  27
ENDBRANCH   1  23
TORSDOF 4
