REMARK  Name = 
REMARK  7 active torsions:
REMARK  status: ('A' for Active; 'I' for Inactive)
REMARK    1  A    between atoms: C_2  and  C_3
REMARK    2  A    between atoms: C_4  and  C_5
REMARK    3  A    between atoms: C_5  and  N_6
REMARK    4  A    between atoms: C_7  and  C_9
REMARK    5  A    between atoms: C_12  and  N_13
REMARK    6  A    between atoms: C_17  and  C_18
REMARK    7  A    between atoms: N_27  and  C_28
REMARK                            x       y       z     vdW  Elec       q    Type
REMARK                         _______ _______ _______ _____ _____    ______ ____
ROOT
ATOM      1  C   UNL     1       0.834  -6.307   2.847  0.00  0.00    +0.000 A 
ATOM      2  C   UNL     1       1.161  -6.191   4.205  0.00  0.00    +0.000 A 
ATOM      3  C   UNL     1       1.189  -7.328   5.026  0.00  0.00    +0.000 A 
ATOM      4  C   UNL     1       0.921  -8.590   4.484  0.00  0.00    +0.000 A 
ATOM      5  C   UNL     1       0.529  -8.700   3.142  0.00  0.00    +0.000 A 
ATOM      6  C   UNL     1       0.501  -7.564   2.327  0.00  0.00    +0.000 A 
ENDROOT
BRANCH   4   7
ATOM      7  N   UNL     1       1.105  -9.752   5.290  0.00  0.00    +0.000 N 
ATOM      8  N   UNL     1       0.863  -9.680   6.625  0.00  0.00    +0.000 NA
ATOM      9  C   UNL     1       0.919 -10.942   7.045  0.00  0.00    +0.000 A 
ATOM     10  C   UNL     1       1.337 -11.819   6.035  0.00  0.00    +0.000 A 
ATOM     11  C   UNL     1       1.561 -11.027   4.917  0.00  0.00    +0.000 A 
BRANCH  11  12
ATOM     12  C   UNL     1       2.209 -11.396   3.645  0.00  0.00    +0.000 A 
ATOM     13  C   UNL     1       2.092 -12.698   3.133  0.00  0.00    +0.000 A 
ATOM     14  C   UNL     1       2.669 -13.036   1.903  0.00  0.00    +0.000 A 
ATOM     15  C   UNL     1       3.344 -12.070   1.168  0.00  0.00    +0.000 A 
ATOM     16  F   UNL     1       3.857 -12.383  -0.028  0.00  0.00    +0.000 F 
ATOM     17  C   UNL     1       3.503 -10.787   1.664  0.00  0.00    +0.000 A 
ATOM     18  C   UNL     1       2.982 -10.471   2.918  0.00  0.00    +0.000 A 
ENDBRANCH  11  12
ENDBRANCH   4   7
BRANCH   1  20
ATOM     19  N   UNL     1       1.598  -4.071   2.231  0.00  0.00    +0.000 N 
ATOM     20  C   UNL     1       0.765  -5.126   1.939  0.00  0.00    +0.000 C 
ATOM     21  O   UNL     1       0.017  -5.142   0.961  0.00  0.00    +0.000 OA
ATOM     22  H   UNL     1       2.349  -4.195   2.895  0.00  0.00    +0.000 HD
BRANCH  19  23
ATOM     23  C   UNL     1       1.585  -2.855   1.443  0.00  0.00    +0.000 C 
BRANCH  23  25
ATOM     24  C   UNL     1       0.478  -1.285   3.236  0.00  0.00    +0.000 A 
ATOM     25  C   UNL     1       0.576  -1.903   1.995  0.00  0.00    +0.000 A 
ATOM     26  N   UNL     1      -0.486  -1.403   1.269  0.00  0.00    +0.000 N 
ATOM     27  C   UNL     1      -0.860  -1.628  -0.109  0.00  0.00    +0.000 C 
ATOM     28  N   UNL     1      -1.249  -0.532   1.960  0.00  0.00    +0.000 NA
ATOM     29  C   UNL     1      -0.669  -0.472   3.154  0.00  0.00    +0.000 A 
BRANCH  24  31
ATOM     30  C   UNL     1       1.272  -0.797   5.510  0.00  0.00    +0.000 C 
ATOM     31  C   UNL     1       1.367  -1.444   4.341  0.00  0.00    +0.000 C 
ENDBRANCH  24  31
ENDBRANCH  23  25
ENDBRANCH  19  23
ENDBRANCH   1  20
TORSDOF 6
