REMARK  Name = 
REMARK  5 active torsions:
REMARK  status: ('A' for Active; 'I' for Inactive)
REMARK    1  A    between atoms: C_2  and  C_15
REMARK    2  A    between atoms: N_3  and  C_4
REMARK    3  A    between atoms: C_19  and  O_20
REMARK    4  A    between atoms: O_20  and  C_21
REMARK    5  A    between atoms: C_21  and  C_22
REMARK                            x       y       z     vdW  Elec       q    Type
REMARK                         _______ _______ _______ _____ _____    ______ ____
ROOT
ATOM      1  O   UNL     1       1.025  -0.116   0.259  0.00  0.00    +0.000 OA
ATOM      2  C   UNL     1       2.152   0.185  -0.125  0.00  0.00    +0.000 C 
ATOM      3  N   UNL     1       2.726  -0.270  -1.290  0.00  0.00    +0.000 N 
ATOM      4  H   UNL     1       3.734  -0.349  -1.331  0.00  0.00    +0.000 HD
ENDROOT
BRANCH   3   5
ATOM      5  C   UNL     1       2.015  -1.123  -2.143  0.00  0.00    +0.000 A 
ATOM      6  C   UNL     1       0.685  -0.888  -2.473  0.00  0.00    +0.000 A 
ATOM      7  N   UNL     1      -0.047  -1.743  -3.218  0.00  0.00    +0.000 NA
ATOM      8  C   UNL     1       0.555  -2.900  -3.566  0.00  0.00    +0.000 A 
ATOM      9  C   UNL     1      -0.151  -3.909  -4.213  0.00  0.00    +0.000 A 
ATOM     10  F   UNL     1      -1.438  -3.718  -4.549  0.00  0.00    +0.000 F 
ATOM     11  C   UNL     1       0.418  -5.146  -4.503  0.00  0.00    +0.000 A 
ATOM     12  C   UNL     1       1.742  -5.380  -4.161  0.00  0.00    +0.000 A 
ATOM     13  C   UNL     1       2.482  -4.364  -3.552  0.00  0.00    +0.000 A 
ATOM     14  C   UNL     1       1.918  -3.131  -3.241  0.00  0.00    +0.000 A 
ATOM     15  N   UNL     1       2.666  -2.213  -2.591  0.00  0.00    +0.000 NA
ENDBRANCH   3   5
BRANCH   2  16
ATOM     16  C   UNL     1       3.023   1.075   0.702  0.00  0.00    +0.000 A 
ATOM     17  C   UNL     1       2.645   1.297   1.966  0.00  0.00    +0.000 A 
ATOM     18  C   UNL     1       3.373   2.292   2.776  0.00  0.00    +0.000 A 
ATOM     19  O   UNL     1       3.038   2.496   3.934  0.00  0.00    +0.000 OA
ATOM     20  C   UNL     1       4.475   3.032   2.087  0.00  0.00    +0.000 A 
ATOM     21  C   UNL     1       4.747   2.677   0.822  0.00  0.00    +0.000 A 
ATOM     22  O   UNL     1       4.104   1.695   0.108  0.00  0.00    +0.000 OA
BRANCH  20  23
ATOM     23  O   UNL     1       5.184   4.072   2.652  0.00  0.00    +0.000 OA
BRANCH  23  24
ATOM     24  C   UNL     1       5.291   4.085   4.078  0.00  0.00    +0.000 C 
BRANCH  24  25
ATOM     25  C   UNL     1       6.556   4.835   4.418  0.00  0.00    +0.000 A 
ATOM     26  C   UNL     1       6.698   6.191   4.091  0.00  0.00    +0.000 A 
ATOM     27  C   UNL     1       7.891   6.863   4.362  0.00  0.00    +0.000 A 
ATOM     28  C   UNL     1       8.951   6.188   4.964  0.00  0.00    +0.000 A 
ATOM     29  C   UNL     1       8.818   4.843   5.304  0.00  0.00    +0.000 A 
ATOM     30  C   UNL     1       7.626   4.170   5.034  0.00  0.00    +0.000 A 
ENDBRANCH  24  25
ENDBRANCH  23  24
ENDBRANCH  20  23
ENDBRANCH   2  16
TORSDOF 5
