REMARK  Name = 
REMARK  5 active torsions:
REMARK  status: ('A' for Active; 'I' for Inactive)
REMARK    1  A    between atoms: C_2  and  O_3
REMARK    2  A    between atoms: C_2  and  C_4
REMARK    3  A    between atoms: N_6  and  C_7
REMARK    4  A    between atoms: C_10  and  C_11
REMARK    5  A    between atoms: N_14  and  C_15
REMARK                            x       y       z     vdW  Elec       q    Type
REMARK                         _______ _______ _______ _____ _____    ______ ____
ROOT
ATOM      1  C   UNL     1       2.410   4.079  -2.701  0.00  0.00    +0.000 A 
ATOM      2  C   UNL     1       2.294   5.163  -1.821  0.00  0.00    +0.000 A 
ATOM      3  C   UNL     1       1.501   6.272  -2.128  0.00  0.00    +0.000 A 
ATOM      4  C   UNL     1       0.797   6.329  -3.331  0.00  0.00    +0.000 A 
ATOM      5  C   UNL     1       0.940   5.276  -4.240  0.00  0.00    +0.000 A 
ATOM      6  C   UNL     1       1.743   4.169  -3.933  0.00  0.00    +0.000 A 
ENDROOT
BRANCH   1   9
ATOM      7  C   UNL     1       4.635   1.119  -3.055  0.00  0.00    +0.000 A 
ATOM      8  C   UNL     1       3.860   2.182  -3.337  0.00  0.00    +0.000 A 
ATOM      9  N   UNL     1       3.196   2.921  -2.352  0.00  0.00    +0.000 N 
ATOM     10  C   UNL     1       3.296   2.541  -0.994  0.00  0.00    +0.000 A 
ATOM     11  O   UNL     1       2.724   3.051  -0.032  0.00  0.00    +0.000 OA
ATOM     12  C   UNL     1       4.165   1.369  -0.702  0.00  0.00    +0.000 A 
ATOM     13  C   UNL     1       4.793   0.708  -1.679  0.00  0.00    +0.000 A 
BRANCH   7  15
ATOM     14  O   UNL     1       5.599   1.088  -5.242  0.00  0.00    +0.000 OA
ATOM     15  C   UNL     1       5.358   0.500  -4.199  0.00  0.00    +0.000 C 
BRANCH  15  16
ATOM     16  O   UNL     1       5.724  -0.782  -3.998  0.00  0.00    +0.000 OA
ATOM     17  H   UNL     1       5.345  -1.210  -3.211  0.00  0.00    +0.000 HD
ENDBRANCH  15  16
ENDBRANCH   7  15
ENDBRANCH   1   9
BRANCH   4  18
ATOM     18  C   UNL     1      -0.078   7.455  -3.589  0.00  0.00    +0.000 A 
ATOM     19  C   UNL     1      -0.384   7.982  -4.819  0.00  0.00    +0.000 A 
ATOM     20  F   UNL     1       0.085   7.550  -5.961  0.00  0.00    +0.000 F 
ATOM     21  N   UNL     1      -1.233   9.051  -4.627  0.00  0.00    +0.000 N 
ATOM     22  N   UNL     1      -1.486   9.241  -3.300  0.00  0.00    +0.000 NA
ATOM     23  C   UNL     1      -0.797   8.275  -2.692  0.00  0.00    +0.000 A 
BRANCH  21  24
ATOM     24  C   UNL     1      -1.810   9.902  -5.609  0.00  0.00    +0.000 A 
ATOM     25  C   UNL     1      -1.617   9.662  -6.975  0.00  0.00    +0.000 A 
ATOM     26  C   UNL     1      -2.186  10.518  -7.920  0.00  0.00    +0.000 A 
ATOM     27  C   UNL     1      -2.948  11.610  -7.510  0.00  0.00    +0.000 A 
ATOM     28  C   UNL     1      -3.146  11.850  -6.152  0.00  0.00    +0.000 A 
ATOM     29  C   UNL     1      -2.586  10.996  -5.200  0.00  0.00    +0.000 A 
ENDBRANCH  21  24
ENDBRANCH   4  18
TORSDOF 5
