REMARK  Name = 
REMARK  8 active torsions:
REMARK  status: ('A' for Active; 'I' for Inactive)
REMARK    1  A    between atoms: C_1  and  C_2
REMARK    2  A    between atoms: C_6  and  O_7
REMARK    3  A    between atoms: C_8  and  C_9
REMARK    4  A    between atoms: N_11  and  C_12
REMARK    5  A    between atoms: C_12  and  C_13
REMARK    6  A    between atoms: C_13  and  C_14
REMARK    7  A    between atoms: C_18  and  O_19
REMARK    8  A    between atoms: O_19  and  C_20
REMARK                            x       y       z     vdW  Elec       q    Type
REMARK                         _______ _______ _______ _____ _____    ______ ____
ROOT
ATOM      1  C   UNL     1       8.843  -2.279  -0.995  0.00  0.00    +0.000 C 
ATOM      2  O   UNL     1       9.378  -2.317  -2.098  0.00  0.00    +0.000 OA
ATOM      3  N   UNL     1       9.555  -2.253   0.180  0.00  0.00    +0.000 N 
ATOM      4  H   UNL     1       9.032  -2.299   1.051  0.00  0.00    +0.000 HD
ENDROOT
BRANCH   1  11
ATOM      5  C   UNL     1       0.992  -1.976  -0.134  0.00  0.00    +0.000 C 
ATOM      6  C   UNL     1       2.478  -2.022   0.059  0.00  0.00    +0.000 A 
ATOM      7  C   UNL     1       3.018  -2.070   1.329  0.00  0.00    +0.000 A 
ATOM      8  C   UNL     1       4.396  -2.154   1.448  0.00  0.00    +0.000 A 
ATOM      9  C   UNL     1       5.215  -2.183   0.295  0.00  0.00    +0.000 A 
ATOM     10  C   UNL     1       6.631  -2.260   0.314  0.00  0.00    +0.000 A 
ATOM     11  C   UNL     1       7.355  -2.248  -0.883  0.00  0.00    +0.000 A 
ATOM     12  C   UNL     1       6.619  -2.182  -2.046  0.00  0.00    +0.000 A 
ATOM     13  N   UNL     1       5.267  -2.125  -2.093  0.00  0.00    +0.000 NA
ATOM     14  C   UNL     1       4.571  -2.119  -0.959  0.00  0.00    +0.000 A 
ATOM     15  N   UNL     1       3.241  -2.049  -1.056  0.00  0.00    +0.000 NA
BRANCH  10  16
ATOM     16  O   UNL     1       7.327  -2.350   1.501  0.00  0.00    +0.000 OA
ATOM     17  H   UNL     1       6.719  -2.363   2.256  0.00  0.00    +0.000 HD
ENDBRANCH  10  16
ENDBRANCH   1  11
BRANCH   3  18
ATOM     18  C   UNL     1      10.999  -2.273   0.228  0.00  0.00    +0.000 C 
BRANCH  18  19
ATOM     19  C   UNL     1      11.546  -3.697   0.167  0.00  0.00    +0.000 C 
BRANCH  19  20
ATOM     20  C   UNL     1      13.051  -3.710   0.172  0.00  0.00    +0.000 A 
ATOM     21  C   UNL     1      13.755  -3.598  -1.030  0.00  0.00    +0.000 A 
ATOM     22  C   UNL     1      15.137  -3.602  -0.992  0.00  0.00    +0.000 A 
ATOM     23  N   UNL     1      15.849  -3.705   0.146  0.00  0.00    +0.000 NA
ATOM     24  C   UNL     1      15.156  -3.771   1.306  0.00  0.00    +0.000 A 
ATOM     25  C   UNL     1      13.771  -3.789   1.369  0.00  0.00    +0.000 A 
BRANCH  24  26
ATOM     26  O   UNL     1      15.838  -3.826   2.520  0.00  0.00    +0.000 OA
BRANCH  26  27
ATOM     27  C   UNL     1      17.140  -3.375   2.524  0.00  0.00    +0.000 A 
ATOM     28  C   UNL     1      17.515  -2.167   1.929  0.00  0.00    +0.000 A 
ATOM     29  C   UNL     1      18.855  -1.786   1.905  0.00  0.00    +0.000 A 
ATOM     30  C   UNL     1      19.815  -2.587   2.521  0.00  0.00    +0.000 A 
ATOM     31  C   UNL     1      19.432  -3.759   3.177  0.00  0.00    +0.000 A 
ATOM     32  C   UNL     1      18.092  -4.152   3.185  0.00  0.00    +0.000 A 
ENDBRANCH  26  27
ENDBRANCH  24  26
ENDBRANCH  19  20
ENDBRANCH  18  19
ENDBRANCH   3  18
TORSDOF 7
