REMARK  Name = 
REMARK  6 active torsions:
REMARK  status: ('A' for Active; 'I' for Inactive)
REMARK    1  A    between atoms: C_2  and  C_3
REMARK    2  A    between atoms: C_3  and  C_4
REMARK    3  A    between atoms: C_7  and  O_8
REMARK    4  A    between atoms: O_8  and  C_9
REMARK    5  A    between atoms: C_9  and  C_10
REMARK    6  A    between atoms: N_18  and  C_19
REMARK                            x       y       z     vdW  Elec       q    Type
REMARK                         _______ _______ _______ _____ _____    ______ ____
ROOT
ATOM      1  O   UNL     1       5.487  -0.327  -0.352  0.00  0.00    +0.000 OA
ATOM      2  C   UNL     1       4.575  -0.694  -1.107  0.00  0.00    +0.000 C 
ATOM      3  N   UNL     1       4.938  -0.886  -2.401  0.00  0.00    +0.000 N 
ATOM      4  H   UNL     1       5.941  -0.816  -2.514  0.00  0.00    +0.000 HD
ENDROOT
BRANCH   3   5
ATOM      5  C   UNL     1       4.189  -1.146  -3.543  0.00  0.00    +0.000 A 
ATOM      6  C   UNL     1       4.844  -1.637  -4.668  0.00  0.00    +0.000 A 
ATOM      7  N   UNL     1       4.201  -2.020  -5.794  0.00  0.00    +0.000 NA
ATOM      8  C   UNL     1       2.852  -1.887  -5.795  0.00  0.00    +0.000 A 
ATOM      9  C   UNL     1       2.059  -2.304  -6.868  0.00  0.00    +0.000 A 
ATOM     10  F   UNL     1       2.634  -2.871  -7.944  0.00  0.00    +0.000 F 
ATOM     11  C   UNL     1       0.671  -2.167  -6.873  0.00  0.00    +0.000 A 
ATOM     12  C   UNL     1       0.045  -1.578  -5.789  0.00  0.00    +0.000 A 
ATOM     13  C   UNL     1       0.819  -1.143  -4.716  0.00  0.00    +0.000 A 
ATOM     14  C   UNL     1       2.200  -1.312  -4.681  0.00  0.00    +0.000 A 
ATOM     15  N   UNL     1       2.869  -0.928  -3.575  0.00  0.00    +0.000 NA
ENDBRANCH   3   5
BRANCH   2  16
ATOM     16  C   UNL     1       3.174  -0.845  -0.533  0.00  0.00    +0.000 C 
BRANCH  16  17
ATOM     17  C   UNL     1       2.279  -1.996  -0.941  0.00  0.00    +0.000 A 
ATOM     18  C   UNL     1       2.684  -3.336  -0.931  0.00  0.00    +0.000 A 
ATOM     19  C   UNL     1       1.810  -4.356  -1.360  0.00  0.00    +0.000 A 
ATOM     20  C   UNL     1       0.520  -4.047  -1.797  0.00  0.00    +0.000 A 
ATOM     21  C   UNL     1       0.097  -2.722  -1.754  0.00  0.00    +0.000 A 
ATOM     22  C   UNL     1       0.953  -1.714  -1.303  0.00  0.00    +0.000 A 
BRANCH  20  23
ATOM     23  O   UNL     1      -0.383  -4.914  -2.351  0.00  0.00    +0.000 OA
BRANCH  23  24
ATOM     24  C   UNL     1      -0.346  -6.268  -1.891  0.00  0.00    +0.000 C 
BRANCH  24  25
ATOM     25  C   UNL     1      -1.427  -7.115  -2.546  0.00  0.00    +0.000 A 
ATOM     26  C   UNL     1      -2.622  -6.565  -3.009  0.00  0.00    +0.000 A 
ATOM     27  C   UNL     1      -3.595  -7.404  -3.556  0.00  0.00    +0.000 A 
ATOM     28  C   UNL     1      -3.360  -8.773  -3.622  0.00  0.00    +0.000 A 
ATOM     29  C   UNL     1      -2.155  -9.243  -3.133  0.00  0.00    +0.000 A 
ATOM     30  N   UNL     1      -1.195  -8.456  -2.598  0.00  0.00    +0.000 NA
ENDBRANCH  24  25
ENDBRANCH  23  24
ENDBRANCH  20  23
ENDBRANCH  16  17
ENDBRANCH   2  16
TORSDOF 6
