REMARK  Name = 
REMARK  6 active torsions:
REMARK  status: ('A' for Active; 'I' for Inactive)
REMARK    1  A    between atoms: C_2  and  C_18
REMARK    2  A    between atoms: N_3  and  C_4
REMARK    3  A    between atoms: C_4  and  C_5
REMARK    4  A    between atoms: C_10  and  O_11
REMARK    5  A    between atoms: O_11  and  C_12
REMARK    6  A    between atoms: C_21  and  C_22
REMARK                            x       y       z     vdW  Elec       q    Type
REMARK                         _______ _______ _______ _____ _____    ______ ____
ROOT
ATOM      1  O   UNL     1       1.284   1.601   1.057  0.00  0.00    +0.000 OA
ATOM      2  C   UNL     1       2.382   1.108   0.813  0.00  0.00    +0.000 C 
ATOM      3  N   UNL     1       3.020   1.283  -0.403  0.00  0.00    +0.000 N 
ATOM      4  H   UNL     1       3.833   0.689  -0.557  0.00  0.00    +0.000 HD
ENDROOT
BRANCH   2   5
ATOM      5  C   UNL     1       3.138   0.275   1.759  0.00  0.00    +0.000 A 
ATOM      6  N   UNL     1       2.699  -0.005   2.995  0.00  0.00    +0.000 NA
ATOM      7  O   UNL     1       3.705  -0.811   3.528  0.00  0.00    +0.000 OA
ATOM      8  C   UNL     1       4.655  -0.953   2.552  0.00  0.00    +0.000 A 
ATOM      9  N   UNL     1       4.351  -0.316   1.445  0.00  0.00    +0.000 NA
BRANCH   8  10
ATOM     10  C   UNL     1       5.824  -1.760   2.883  0.00  0.00    +0.000 A 
ATOM     11  C   UNL     1       6.765  -2.073   1.891  0.00  0.00    +0.000 A 
ATOM     12  C   UNL     1       7.895  -2.815   2.215  0.00  0.00    +0.000 A 
ATOM     13  F   UNL     1       8.790  -3.110   1.261  0.00  0.00    +0.000 F 
ATOM     14  C   UNL     1       8.119  -3.262   3.513  0.00  0.00    +0.000 A 
ATOM     15  C   UNL     1       7.191  -2.963   4.508  0.00  0.00    +0.000 A 
ATOM     16  C   UNL     1       6.047  -2.228   4.191  0.00  0.00    +0.000 A 
ENDBRANCH   8  10
ENDBRANCH   2   5
BRANCH   3  17
ATOM     17  C   UNL     1       2.325   1.868  -1.526  0.00  0.00    +0.000 C 
BRANCH  17  18
ATOM     18  C   UNL     1       3.209   2.337  -2.659  0.00  0.00    +0.000 A 
ATOM     19  C   UNL     1       2.830   3.560  -3.260  0.00  0.00    +0.000 A 
ATOM     20  C   UNL     1       3.611   4.175  -4.239  0.00  0.00    +0.000 A 
ATOM     21  C   UNL     1       4.795   3.580  -4.646  0.00  0.00    +0.000 A 
ATOM     22  C   UNL     1       5.150   2.339  -4.124  0.00  0.00    +0.000 A 
ATOM     23  C   UNL     1       4.343   1.684  -3.176  0.00  0.00    +0.000 A 
BRANCH  23  24
ATOM     24  O   UNL     1       4.871   0.469  -2.801  0.00  0.00    +0.000 OA
BRANCH  24  25
ATOM     25  C   UNL     1       4.077  -0.611  -2.525  0.00  0.00    +0.000 A 
ATOM     26  C   UNL     1       2.841  -0.851  -3.106  0.00  0.00    +0.000 A 
ATOM     27  C   UNL     1       2.032  -1.840  -2.546  0.00  0.00    +0.000 A 
ATOM     28  C   UNL     1       2.514  -2.605  -1.489  0.00  0.00    +0.000 A 
ATOM     29  C   UNL     1       3.801  -2.367  -1.049  0.00  0.00    +0.000 A 
ATOM     30  N   UNL     1       4.582  -1.381  -1.535  0.00  0.00    +0.000 NA
ENDBRANCH  24  25
ENDBRANCH  23  24
ENDBRANCH  17  18
ENDBRANCH   3  17
TORSDOF 6
