REMARK  Name = 
REMARK  5 active torsions:
REMARK  status: ('A' for Active; 'I' for Inactive)
REMARK    1  A    between atoms: C_2  and  C_17
REMARK    2  A    between atoms: N_6  and  C_7
REMARK    3  A    between atoms: C_20  and  C_21
REMARK    4  A    between atoms: C_21  and  O_22
REMARK    5  A    between atoms: O_22  and  C_23
REMARK                            x       y       z     vdW  Elec       q    Type
REMARK                         _______ _______ _______ _____ _____    ______ ____
ROOT
ATOM      1  O   UNL     1       1.040  -0.295   0.256  0.00  0.00    +0.000 OA
ATOM      2  C   UNL     1       2.206   0.014   0.016  0.00  0.00    +0.000 C 
ATOM      3  N   UNL     1       2.875  -0.318  -1.143  0.00  0.00    +0.000 N 
ATOM      4  C   UNL     1       2.279  -1.047  -2.141  0.00  0.00    +0.000 A 
ATOM      5  N   UNL     1       0.978  -1.295  -2.258  0.00  0.00    +0.000 NA
ATOM      6  N   UNL     1       0.908  -2.154  -3.286  0.00  0.00    +0.000 N 
ATOM      7  C   UNL     1       2.168  -2.320  -3.806  0.00  0.00    +0.000 A 
ATOM      8  N   UNL     1       3.044  -1.615  -3.121  0.00  0.00    +0.000 NA
ATOM      9  H   UNL     1       3.867  -0.161  -1.224  0.00  0.00    +0.000 HD
ENDROOT
BRANCH   6  10
ATOM     10  C   UNL     1      -0.323  -2.756  -3.652  0.00  0.00    +0.000 A 
ATOM     11  C   UNL     1      -1.502  -2.366  -2.993  0.00  0.00    +0.000 A 
ATOM     12  C   UNL     1      -2.717  -2.955  -3.335  0.00  0.00    +0.000 A 
ATOM     13  F   UNL     1      -3.837  -2.572  -2.708  0.00  0.00    +0.000 F 
ATOM     14  C   UNL     1      -2.787  -3.933  -4.315  0.00  0.00    +0.000 A 
ATOM     15  C   UNL     1      -1.617  -4.319  -4.955  0.00  0.00    +0.000 A 
ATOM     16  F   UNL     1      -1.669  -5.274  -5.894  0.00  0.00    +0.000 F 
ATOM     17  C   UNL     1      -0.386  -3.743  -4.643  0.00  0.00    +0.000 A 
ENDBRANCH   6  10
BRANCH   2  18
ATOM     18  C   UNL     1       2.980   0.711   1.027  0.00  0.00    +0.000 A 
ATOM     19  C   UNL     1       2.634   0.920   2.349  0.00  0.00    +0.000 A 
ATOM     20  C   UNL     1       3.652   1.697   2.926  0.00  0.00    +0.000 A 
ATOM     21  C   UNL     1       4.583   1.918   1.933  0.00  0.00    +0.000 A 
ATOM     22  O   UNL     1       4.196   1.294   0.770  0.00  0.00    +0.000 OA
BRANCH  21  23
ATOM     23  C   UNL     1       5.886   2.636   1.958  0.00  0.00    +0.000 C 
BRANCH  23  24
ATOM     24  O   UNL     1       5.633   4.018   1.695  0.00  0.00    +0.000 OA
BRANCH  24  25
ATOM     25  C   UNL     1       6.727   4.846   1.733  0.00  0.00    +0.000 A 
ATOM     26  C   UNL     1       8.020   4.471   2.109  0.00  0.00    +0.000 A 
ATOM     27  C   UNL     1       9.062   5.404   2.092  0.00  0.00    +0.000 A 
ATOM     28  C   UNL     1       8.819   6.718   1.702  0.00  0.00    +0.000 A 
ATOM     29  C   UNL     1       7.531   7.105   1.340  0.00  0.00    +0.000 A 
ATOM     30  C   UNL     1       6.489   6.172   1.360  0.00  0.00    +0.000 A 
ENDBRANCH  24  25
ENDBRANCH  23  24
ENDBRANCH  21  23
ENDBRANCH   2  18
TORSDOF 5
