REMARK  Name = 
REMARK  7 active torsions:
REMARK  status: ('A' for Active; 'I' for Inactive)
REMARK    1  A    between atoms: C_1  and  O_2
REMARK    2  A    between atoms: O_2  and  C_3
REMARK    3  A    between atoms: C_7  and  C_8
REMARK    4  A    between atoms: C_8  and  C_9
REMARK    5  A    between atoms: C_9  and  N_10
REMARK    6  A    between atoms: C_9  and  C_24
REMARK    7  A    between atoms: C_11  and  C_13
REMARK                            x       y       z     vdW  Elec       q    Type
REMARK                         _______ _______ _______ _____ _____    ______ ____
ROOT
ATOM      1  C   UNL     1       6.854   2.436  -3.473  0.00  0.00    +0.000 C 
ENDROOT
BRANCH   1   2
ATOM      2  C   UNL     1       8.156   2.071  -4.200  0.00  0.00    +0.000 A 
ATOM      3  C   UNL     1       8.558   2.807  -5.331  0.00  0.00    +0.000 A 
ATOM      4  C   UNL     1       9.788   2.568  -5.958  0.00  0.00    +0.000 A 
ATOM      5  C   UNL     1      10.643   1.588  -5.464  0.00  0.00    +0.000 A 
ATOM      6  C   UNL     1      10.257   0.835  -4.359  0.00  0.00    +0.000 A 
ATOM      7  C   UNL     1       9.027   1.073  -3.733  0.00  0.00    +0.000 A 
ENDBRANCH   1   2
BRANCH   1   8
ATOM      8  N   UNL     1       7.107   3.506  -2.511  0.00  0.00    +0.000 N 
ATOM      9  C   UNL     1       7.782   3.293  -1.327  0.00  0.00    +0.000 C 
ATOM     10  O   UNL     1       8.046   2.204  -0.840  0.00  0.00    +0.000 OA
ATOM     11  H   UNL     1       7.114   4.462  -2.853  0.00  0.00    +0.000 HD
BRANCH   9  12
ATOM     12  C   UNL     1       8.422   4.543  -0.727  0.00  0.00    +0.000 A 
ATOM     13  N   UNL     1       8.534   5.583  -1.517  0.00  0.00    +0.000 NA
ATOM     14  C   UNL     1       9.800   5.536  -2.160  0.00  0.00    +0.000 A 
ATOM     15  C   UNL     1       9.898   6.035  -3.451  0.00  0.00    +0.000 A 
ATOM     16  C   UNL     1      10.970   5.646  -4.249  0.00  0.00    +0.000 A 
ATOM     17  C   UNL     1      11.954   4.788  -3.745  0.00  0.00    +0.000 A 
ATOM     18  C   UNL     1      11.934   4.385  -2.409  0.00  0.00    +0.000 A 
ATOM     19  C   UNL     1      10.864   4.764  -1.619  0.00  0.00    +0.000 A 
ATOM     20  N   UNL     1      10.755   4.305  -0.292  0.00  0.00    +0.000 N 
ATOM     21  C   UNL     1       9.514   4.316   0.308  0.00  0.00    +0.000 A 
ATOM     22  O   UNL     1       9.269   4.099   1.480  0.00  0.00    +0.000 OA
ATOM     23  H   UNL     1      11.530   3.895   0.206  0.00  0.00    +0.000 HD
ENDBRANCH   9  12
ENDBRANCH   1   8
BRANCH   1  24
ATOM     24  C   UNL     1       6.059   1.249  -2.866  0.00  0.00    +0.000 C 
BRANCH  24  29
ATOM     25  C   UNL     1       2.333   2.107  -2.715  0.00  0.00    +0.000 A 
ATOM     26  C   UNL     1       2.188   2.457  -1.371  0.00  0.00    +0.000 A 
ATOM     27  C   UNL     1       3.278   2.401  -0.504  0.00  0.00    +0.000 A 
ATOM     28  C   UNL     1       4.524   2.006  -0.981  0.00  0.00    +0.000 A 
ATOM     29  C   UNL     1       4.694   1.655  -2.331  0.00  0.00    +0.000 A 
ATOM     30  C   UNL     1       3.586   1.713  -3.192  0.00  0.00    +0.000 A 
BRANCH  25  32
ATOM     31  C   UNL     1       1.089   1.413  -4.614  0.00  0.00    +0.000 C 
ATOM     32  O   UNL     1       1.207   2.257  -3.476  0.00  0.00    +0.000 OA
ENDBRANCH  25  32
ENDBRANCH  24  29
ENDBRANCH   1  24
TORSDOF 6
