REMARK  Name = 
REMARK  7 active torsions:
REMARK  status: ('A' for Active; 'I' for Inactive)
REMARK    1  A    between atoms: C_2  and  C_3
REMARK    2  A    between atoms: C_8  and  N_9
REMARK    3  A    between atoms: N_9  and  C_10
REMARK    4  A    between atoms: C_10  and  C_11
REMARK    5  A    between atoms: C_17  and  C_19
REMARK    6  A    between atoms: C_19  and  C_20
REMARK    7  A    between atoms: N_22  and  C_23
REMARK                            x       y       z     vdW  Elec       q    Type
REMARK                         _______ _______ _______ _____ _____    ______ ____
ROOT
ATOM      1  N   UNL     1       0.614  -2.315  -0.047  0.00  0.00    +0.000 N 
ATOM      2  C   UNL     1       1.989  -2.456  -0.323  0.00  0.00    +0.000 C 
ATOM      3  O   UNL     1       2.765  -1.505  -0.214  0.00  0.00    +0.000 OA
ENDROOT
BRANCH   1   9
ATOM      4  C   UNL     1      -0.028   0.046  -0.575  0.00  0.00    +0.000 A 
ATOM      5  C   UNL     1      -0.853   1.131  -0.245  0.00  0.00    +0.000 A 
ATOM      6  C   UNL     1      -1.475   1.147   0.988  0.00  0.00    +0.000 A 
ATOM      7  N   UNL     1      -1.307   0.183   1.912  0.00  0.00    +0.000 NA
ATOM      8  C   UNL     1      -0.543  -0.876   1.553  0.00  0.00    +0.000 A 
ATOM      9  C   UNL     1       0.071  -1.035   0.311  0.00  0.00    +0.000 A 
BRANCH   4  11
ATOM     10  N   UNL     1       1.106   0.176  -2.900  0.00  0.00    +0.000 NA
ATOM     11  C   UNL     1       0.626   0.092  -1.849  0.00  0.00    +0.000 C 
ENDBRANCH   4  11
ENDBRANCH   1   9
BRANCH   1  12
ATOM     12  C   UNL     1      -0.338  -3.450  -0.006  0.00  0.00    +0.000 C 
BRANCH  12  13
ATOM     13  C   UNL     1      -0.719  -4.016  -1.364  0.00  0.00    +0.000 A 
ATOM     14  C   UNL     1      -0.391  -3.384  -2.572  0.00  0.00    +0.000 A 
ATOM     15  C   UNL     1      -0.581  -4.024  -3.796  0.00  0.00    +0.000 A 
ATOM     16  C   UNL     1      -1.142  -5.294  -3.835  0.00  0.00    +0.000 A 
ATOM     17  C   UNL     1      -1.554  -5.904  -2.652  0.00  0.00    +0.000 A 
ATOM     18  C   UNL     1      -1.354  -5.266  -1.425  0.00  0.00    +0.000 A 
ENDBRANCH  12  13
ENDBRANCH   1  12
BRANCH   2  19
ATOM     19  C   UNL     1       2.462  -3.872  -0.659  0.00  0.00    +0.000 C 
BRANCH  19  20
ATOM     20  C   UNL     1       3.871  -3.993  -1.133  0.00  0.00    +0.000 A 
ATOM     21  N   UNL     1       4.135  -4.158  -2.436  0.00  0.00    +0.000 NA
ATOM     22  N   UNL     1       5.469  -4.420  -2.502  0.00  0.00    +0.000 N 
ATOM     23  C   UNL     1       6.036  -4.396  -1.246  0.00  0.00    +0.000 A 
ATOM     24  C   UNL     1       5.032  -4.128  -0.348  0.00  0.00    +0.000 A 
BRANCH  22  25
ATOM     25  C   UNL     1       6.098  -4.737  -3.741  0.00  0.00    +0.000 A 
ATOM     26  C   UNL     1       5.368  -4.632  -4.938  0.00  0.00    +0.000 A 
ATOM     27  C   UNL     1       5.962  -4.961  -6.160  0.00  0.00    +0.000 A 
ATOM     28  C   UNL     1       7.283  -5.406  -6.195  0.00  0.00    +0.000 A 
ATOM     29  C   UNL     1       8.014  -5.516  -5.016  0.00  0.00    +0.000 A 
ATOM     30  C   UNL     1       7.428  -5.178  -3.790  0.00  0.00    +0.000 A 
ENDBRANCH  22  25
ENDBRANCH  19  20
ENDBRANCH   2  19
TORSDOF 7
