REMARK  Name = 
REMARK  4 active torsions:
REMARK  status: ('A' for Active; 'I' for Inactive)
REMARK    1  A    between atoms: C_2  and  N_3
REMARK    2  A    between atoms: C_2  and  C_18
REMARK    3  A    between atoms: S_4  and  C_6
REMARK    4  A    between atoms: S_4  and  C_12
REMARK                            x       y       z     vdW  Elec       q    Type
REMARK                         _______ _______ _______ _____ _____    ______ ____
ROOT
ATOM      1  N   UNL     1       3.018   0.193   1.442  0.00  0.00    +0.000 NA
ATOM      2  S   UNL     1       2.243   0.232   2.767  0.00  0.00    +0.000 S 
ATOM      3  O   UNL     1       1.397   1.329   3.210  0.00  0.00    +0.000 OA
ENDROOT
BRANCH   2   4
ATOM      4  C   UNL     1       1.260  -1.267   2.857  0.00  0.00    +0.000 A 
ATOM      5  C   UNL     1       1.886  -2.518   2.833  0.00  0.00    +0.000 A 
ATOM      6  C   UNL     1       1.125  -3.676   3.014  0.00  0.00    +0.000 A 
ATOM      7  C   UNL     1      -0.249  -3.581   3.231  0.00  0.00    +0.000 A 
ATOM      8  C   UNL     1      -0.874  -2.334   3.248  0.00  0.00    +0.000 A 
ATOM      9  C   UNL     1      -0.120  -1.170   3.059  0.00  0.00    +0.000 A 
ENDBRANCH   2   4
BRANCH   2  10
ATOM     10  C   UNL     1       3.444   0.060   4.069  0.00  0.00    +0.000 A 
ATOM     11  C   UNL     1       4.816   0.054   3.782  0.00  0.00    +0.000 A 
ATOM     12  C   UNL     1       5.688  -0.066   4.845  0.00  0.00    +0.000 A 
ATOM     13  N   UNL     1       5.291  -0.162   6.133  0.00  0.00    +0.000 NA
ATOM     14  C   UNL     1       3.963  -0.137   6.378  0.00  0.00    +0.000 A 
ATOM     15  C   UNL     1       3.009  -0.025   5.379  0.00  0.00    +0.000 A 
ENDBRANCH   2  10
BRANCH   1  17
ATOM     16  O   UNL     1       1.315   0.987   0.088  0.00  0.00    +0.000 OA
ATOM     17  C   UNL     1       2.401   0.416   0.211  0.00  0.00    +0.000 C 
BRANCH  17  18
ATOM     18  C   UNL     1       3.064  -0.183  -1.010  0.00  0.00    +0.000 A 
ATOM     19  C   UNL     1       2.170  -0.721  -1.848  0.00  0.00    +0.000 A 
ATOM     20  O   UNL     1       2.259  -2.063  -2.279  0.00  0.00    +0.000 OA
ATOM     21  C   UNL     1       3.034  -2.887  -1.490  0.00  0.00    +0.000 A 
ATOM     22  O   UNL     1       2.769  -4.055  -1.268  0.00  0.00    +0.000 OA
ATOM     23  C   UNL     1       4.299  -2.266  -1.038  0.00  0.00    +0.000 A 
ATOM     24  C   UNL     1       5.435  -3.047  -0.829  0.00  0.00    +0.000 A 
ATOM     25  C   UNL     1       6.671  -2.419  -0.683  0.00  0.00    +0.000 A 
ATOM     26  C   UNL     1       6.758  -1.025  -0.752  0.00  0.00    +0.000 A 
ATOM     27  C   UNL     1       5.598  -0.248  -0.863  0.00  0.00    +0.000 A 
ATOM     28  C   UNL     1       4.351  -0.879  -0.958  0.00  0.00    +0.000 A 
ENDBRANCH  17  18
ENDBRANCH   1  17
TORSDOF 4
