REMARK  Name = 
REMARK  5 active torsions:
REMARK  status: ('A' for Active; 'I' for Inactive)
REMARK    1  A    between atoms: C_2  and  C_18
REMARK    2  A    between atoms: N_3  and  C_4
REMARK    3  A    between atoms: C_4  and  C_5
REMARK    4  A    between atoms: C_4  and  C_12
REMARK    5  A    between atoms: C_5  and  C_6
REMARK                            x       y       z     vdW  Elec       q    Type
REMARK                         _______ _______ _______ _____ _____    ______ ____
ROOT
ATOM      1  O   UNL     1       0.613   0.855  -0.077  0.00  0.00    +0.000 OA
ATOM      2  C   UNL     1       1.810   0.926  -0.006  0.00  0.00    +0.000 C 
ATOM      3  N   UNL     1       2.671   1.026   1.090  0.00  0.00    +0.000 N 
ATOM      4  H   UNL     1       3.374   0.312   1.088  0.00  0.00    +0.000 HD
ENDROOT
BRANCH   2   5
ATOM      5  C   UNL     1       2.676   0.981  -1.196  0.00  0.00    +0.000 A 
ATOM      6  C   UNL     1       1.917   1.390  -2.269  0.00  0.00    +0.000 A 
ATOM      7  N   UNL     1       2.441   0.616  -3.285  0.00  0.00    +0.000 N 
ATOM      8  C   UNL     1       2.301  -0.784  -2.993  0.00  0.00    +0.000 A 
ATOM      9  C   UNL     1       1.165  -1.441  -3.381  0.00  0.00    +0.000 A 
ATOM     10  C   UNL     1       0.901  -2.765  -3.168  0.00  0.00    +0.000 A 
ATOM     11  C   UNL     1       1.877  -3.465  -2.501  0.00  0.00    +0.000 A 
ATOM     12  F   UNL     1       1.761  -4.796  -2.442  0.00  0.00    +0.000 F 
ATOM     13  C   UNL     1       2.972  -2.807  -1.917  0.00  0.00    +0.000 A 
ATOM     14  C   UNL     1       3.055  -1.408  -2.026  0.00  0.00    +0.000 A 
ATOM     15  C   UNL     1       3.723  -0.349  -1.274  0.00  0.00    +0.000 A 
ATOM     16  O   UNL     1       4.847  -0.510  -0.820  0.00  0.00    +0.000 OA
ATOM     17  H   UNL     1       3.391   1.008  -3.199  0.00  0.00    +0.000 HD
ENDBRANCH   2   5
BRANCH   3  18
ATOM     18  C   UNL     1       2.064   1.055   2.424  0.00  0.00    +0.000 C 
BRANCH  18  19
ATOM     19  C   UNL     1       3.051   1.360   3.526  0.00  0.00    +0.000 A 
ATOM     20  C   UNL     1       4.422   1.603   3.361  0.00  0.00    +0.000 A 
ATOM     21  C   UNL     1       5.218   1.987   4.440  0.00  0.00    +0.000 A 
ATOM     22  N   UNL     1       4.734   2.006   5.691  0.00  0.00    +0.000 NA
ATOM     23  C   UNL     1       3.471   1.679   5.857  0.00  0.00    +0.000 A 
ATOM     24  C   UNL     1       2.506   1.415   4.835  0.00  0.00    +0.000 A 
ENDBRANCH  18  19
BRANCH  18  25
ATOM     25  C   UNL     1       1.202  -0.137   2.901  0.00  0.00    +0.000 C 
BRANCH  25  26
ATOM     26  C   UNL     1       1.903  -1.456   2.957  0.00  0.00    +0.000 A 
ATOM     27  C   UNL     1       2.569  -1.872   4.127  0.00  0.00    +0.000 A 
ATOM     28  C   UNL     1       3.304  -3.042   4.128  0.00  0.00    +0.000 A 
ATOM     29  C   UNL     1       3.406  -3.806   2.979  0.00  0.00    +0.000 A 
ATOM     30  C   UNL     1       2.730  -3.418   1.825  0.00  0.00    +0.000 A 
ATOM     31  C   UNL     1       2.042  -2.213   1.790  0.00  0.00    +0.000 A 
ENDBRANCH  25  26
ENDBRANCH  18  25
ENDBRANCH   3  18
TORSDOF 5
