REMARK  Name = 
REMARK  5 active torsions:
REMARK  status: ('A' for Active; 'I' for Inactive)
REMARK    1  A    between atoms: C_2  and  C_17
REMARK    2  A    between atoms: N_3  and  C_4
REMARK    3  A    between atoms: C_4  and  C_5
REMARK    4  A    between atoms: C_10  and  C_11
REMARK    5  A    between atoms: N_19  and  C_20
REMARK                            x       y       z     vdW  Elec       q    Type
REMARK                         _______ _______ _______ _____ _____    ______ ____
ROOT
ATOM      1  O   UNL     1       1.151   0.110  -0.035  0.00  0.00    +0.000 OA
ATOM      2  C   UNL     1       2.356   0.082   0.141  0.00  0.00    +0.000 C 
ATOM      3  N   UNL     1       3.111  -1.072   0.165  0.00  0.00    +0.000 N 
ATOM      4  H   UNL     1       4.108  -1.026  -0.021  0.00  0.00    +0.000 HD
ENDROOT
BRANCH   2   5
ATOM      5  C   UNL     1       3.133   1.373   0.345  0.00  0.00    +0.000 A 
ATOM      6  N   UNL     1       4.366   1.418  -0.075  0.00  0.00    +0.000 NA
ATOM      7  N   UNL     1       5.115   2.567   0.178  0.00  0.00    +0.000 N 
ATOM      8  C   UNL     1       4.611   3.677   0.872  0.00  0.00    +0.000 A 
ATOM      9  O   UNL     1       5.179   4.740   1.104  0.00  0.00    +0.000 OA
ATOM     10  N   UNL     1       3.328   3.564   1.325  0.00  0.00    +0.000 N 
ATOM     11  C   UNL     1       2.491   2.536   1.050  0.00  0.00    +0.000 A 
ATOM     12  O   UNL     1       1.311   2.554   1.354  0.00  0.00    +0.000 OA
ATOM     13  H   UNL     1       2.942   4.377   1.780  0.00  0.00    +0.000 HD
BRANCH   7  14
ATOM     14  C   UNL     1       6.493   2.468  -0.226  0.00  0.00    +0.000 A 
ATOM     15  C   UNL     1       7.488   3.293   0.318  0.00  0.00    +0.000 A 
ATOM     16  C   UNL     1       8.835   3.123   0.010  0.00  0.00    +0.000 A 
ATOM     17  C   UNL     1       9.224   2.124  -0.876  0.00  0.00    +0.000 A 
ATOM     18  C   UNL     1       8.254   1.323  -1.472  0.00  0.00    +0.000 A 
ATOM     19  C   UNL     1       6.902   1.489  -1.148  0.00  0.00    +0.000 A 
ENDBRANCH   7  14
ENDBRANCH   2   5
BRANCH   3  20
ATOM     20  C   UNL     1       2.439  -2.312  -0.128  0.00  0.00    +0.000 C 
BRANCH  20  21
ATOM     21  C   UNL     1       3.313  -3.545  -0.203  0.00  0.00    +0.000 A 
ATOM     22  N   UNL     1       4.649  -3.314  -0.012  0.00  0.00    +0.000 NA
ATOM     23  C   UNL     1       5.478  -4.375  -0.019  0.00  0.00    +0.000 A 
ATOM     24  C   UNL     1       5.056  -5.670  -0.226  0.00  0.00    +0.000 A 
ATOM     25  C   UNL     1       3.699  -5.892  -0.452  0.00  0.00    +0.000 A 
ATOM     26  C   UNL     1       2.768  -4.833  -0.452  0.00  0.00    +0.000 A 
BRANCH  26  27
ATOM     27  C   UNL     1       1.312  -5.115  -0.650  0.00  0.00    +0.000 A 
ATOM     28  C   UNL     1       0.722  -6.313  -0.204  0.00  0.00    +0.000 A 
ATOM     29  C   UNL     1      -0.660  -6.529  -0.294  0.00  0.00    +0.000 A 
ATOM     30  C   UNL     1      -1.499  -5.536  -0.790  0.00  0.00    +0.000 A 
ATOM     31  C   UNL     1      -0.946  -4.366  -1.277  0.00  0.00    +0.000 A 
ATOM     32  C   UNL     1       0.438  -4.203  -1.267  0.00  0.00    +0.000 A 
ENDBRANCH  26  27
ENDBRANCH  20  21
ENDBRANCH   3  20
TORSDOF 5
