REMARK  Name = 
REMARK  4 active torsions:
REMARK  status: ('A' for Active; 'I' for Inactive)
REMARK    1  A    between atoms: C_2  and  O_3
REMARK    2  A    between atoms: C_2  and  C_4
REMARK    3  A    between atoms: C_11  and  C_13
REMARK    4  A    between atoms: C_15  and  C_16
REMARK                            x       y       z     vdW  Elec       q    Type
REMARK                         _______ _______ _______ _____ _____    ______ ____
ROOT
ATOM      1  C   UNL     1       3.064  -1.602   0.489  0.00  0.00    +0.000 A 
ATOM      2  C   UNL     1       2.381  -2.774   0.230  0.00  0.00    +0.000 A 
ATOM      3  N   UNL     1       2.918  -3.828  -0.434  0.00  0.00    +0.000 NA
ATOM      4  C   UNL     1       4.197  -3.777  -0.812  0.00  0.00    +0.000 A 
ATOM      5  N   UNL     1       4.701  -4.839  -1.437  0.00  0.00    +0.000 NA
ATOM      6  C   UNL     1       6.025  -4.879  -1.678  0.00  0.00    +0.000 A 
ATOM      7  N   UNL     1       6.481  -6.078  -2.233  0.00  0.00    +0.000 N 
ATOM      8  C   UNL     1       7.682  -6.660  -1.891  0.00  0.00    +0.000 C 
ATOM      9  O   UNL     1       8.464  -6.201  -1.062  0.00  0.00    +0.000 OA
ATOM     10  C   UNL     1       6.873  -3.810  -1.432  0.00  0.00    +0.000 A 
ATOM     11  C   UNL     1       6.338  -2.658  -0.876  0.00  0.00    +0.000 A 
ATOM     12  C   UNL     1       4.984  -2.640  -0.533  0.00  0.00    +0.000 A 
ATOM     13  C   UNL     1       4.400  -1.533   0.108  0.00  0.00    +0.000 A 
ATOM     14  H   UNL     1       5.743  -6.633  -2.639  0.00  0.00    +0.000 HD
ENDROOT
BRANCH   8  15
ATOM     15  C   UNL     1       8.048  -7.933  -2.579  0.00  0.00    +0.000 A 
ATOM     16  C   UNL     1       7.128  -8.786  -3.216  0.00  0.00    +0.000 A 
ATOM     17  C   UNL     1       7.557  -9.942  -3.908  0.00  0.00    +0.000 A 
ATOM     18  C   UNL     1       8.937 -10.204  -3.943  0.00  0.00    +0.000 A 
ATOM     19  C   UNL     1       9.837  -9.377  -3.285  0.00  0.00    +0.000 A 
ATOM     20  F   UNL     1      11.145  -9.662  -3.334  0.00  0.00    +0.000 F 
ATOM     21  C   UNL     1       9.408  -8.257  -2.598  0.00  0.00    +0.000 A 
BRANCH  17  22
ATOM     22  C   UNL     1       6.593 -10.831  -4.595  0.00  0.00    +0.000 A 
ATOM     23  C   UNL     1       6.824 -12.198  -4.775  0.00  0.00    +0.000 A 
ATOM     24  C   UNL     1       5.900 -12.970  -5.474  0.00  0.00    +0.000 A 
ATOM     25  C   UNL     1       4.760 -12.360  -5.974  0.00  0.00    +0.000 A 
ATOM     26  C   UNL     1       4.581 -11.011  -5.735  0.00  0.00    +0.000 A 
ATOM     27  N   UNL     1       5.465 -10.238  -5.060  0.00  0.00    +0.000 NA
ENDBRANCH  17  22
ENDBRANCH   8  15
BRANCH   1  29
ATOM     28  O   UNL     1       1.518  -0.720   2.045  0.00  0.00    +0.000 OA
ATOM     29  C   UNL     1       2.368  -0.517   1.199  0.00  0.00    +0.000 C 
BRANCH  29  30
ATOM     30  O   UNL     1       2.731   0.716   0.789  0.00  0.00    +0.000 OA
ATOM     31  H   UNL     1       3.275   0.757  -0.018  0.00  0.00    +0.000 HD
ENDBRANCH  29  30
ENDBRANCH   1  29
TORSDOF 4
