REMARK  Name = 
REMARK  10 active torsions:
REMARK  status: ('A' for Active; 'I' for Inactive)
REMARK    1  A    between atoms: C_1  and  O_2
REMARK    2  A    between atoms: O_2  and  C_3
REMARK    3  A    between atoms: C_3  and  C_5
REMARK    4  A    between atoms: C_5  and  N_6
REMARK    5  A    between atoms: C_5  and  C_25
REMARK    6  A    between atoms: C_7  and  C_9
REMARK    7  A    between atoms: N_11  and  C_12
REMARK    8  A    between atoms: C_14  and  C_15
REMARK    9  A    between atoms: C_18  and  O_19
REMARK   10  A    between atoms: O_19  and  C_20
REMARK                            x       y       z     vdW  Elec       q    Type
REMARK                         _______ _______ _______ _____ _____    ______ ____
ROOT
ATOM      1  N   UNL     1       3.726  -1.774  -0.403  0.00  0.00    +0.000 N 
ATOM      2  C   UNL     1       4.887  -1.402  -1.042  0.00  0.00    +0.000 C 
ATOM      3  O   UNL     1       5.548  -0.428  -0.703  0.00  0.00    +0.000 OA
ATOM      4  H   UNL     1       3.406  -2.728  -0.508  0.00  0.00    +0.000 HD
ENDROOT
BRANCH   2   5
ATOM      5  C   UNL     1       5.295  -2.296  -2.185  0.00  0.00    +0.000 A 
ATOM      6  C   UNL     1       6.543  -2.193  -2.690  0.00  0.00    +0.000 A 
ATOM      7  N   UNL     1       6.956  -2.948  -3.792  0.00  0.00    +0.000 N 
ATOM      8  C   UNL     1       6.100  -3.886  -4.400  0.00  0.00    +0.000 A 
ATOM      9  O   UNL     1       6.387  -4.627  -5.337  0.00  0.00    +0.000 OA
ATOM     10  C   UNL     1       4.724  -3.957  -3.864  0.00  0.00    +0.000 A 
ATOM     11  C   UNL     1       4.353  -3.186  -2.838  0.00  0.00    +0.000 A 
BRANCH   7  12
ATOM     12  C   UNL     1       8.182  -2.676  -4.477  0.00  0.00    +0.000 A 
ATOM     13  C   UNL     1       8.065  -2.210  -5.804  0.00  0.00    +0.000 A 
ATOM     14  C   UNL     1       9.183  -1.921  -6.592  0.00  0.00    +0.000 A 
ATOM     15  C   UNL     1       9.014  -1.463  -8.010  0.00  0.00    +0.000 C 
ATOM     16  C   UNL     1      10.450  -2.099  -6.039  0.00  0.00    +0.000 A 
ATOM     17  C   UNL     1      10.585  -2.542  -4.718  0.00  0.00    +0.000 A 
ATOM     18  C   UNL     1       9.462  -2.839  -3.928  0.00  0.00    +0.000 A 
BRANCH  18  19
ATOM     19  O   UNL     1       9.768  -3.260  -2.661  0.00  0.00    +0.000 OA
ATOM     20  C   UNL     1       9.067  -4.413  -2.208  0.00  0.00    +0.000 C 
ENDBRANCH  18  19
ENDBRANCH   7  12
ENDBRANCH   2   5
BRANCH   1  21
ATOM     21  C   UNL     1       3.255  -1.095   0.801  0.00  0.00    +0.000 C 
BRANCH  21  22
ATOM     22  C   UNL     1       1.747  -1.208   0.980  0.00  0.00    +0.000 A 
ATOM     23  C   UNL     1       1.040  -0.162   1.601  0.00  0.00    +0.000 A 
ATOM     24  C   UNL     1      -0.313  -0.309   1.919  0.00  0.00    +0.000 A 
ATOM     25  C   UNL     1      -0.970  -1.495   1.609  0.00  0.00    +0.000 A 
ATOM     26  F   UNL     1      -2.257  -1.643   1.946  0.00  0.00    +0.000 F 
ATOM     27  C   UNL     1      -0.305  -2.531   0.972  0.00  0.00    +0.000 A 
ATOM     28  C   UNL     1       1.044  -2.382   0.668  0.00  0.00    +0.000 A 
ATOM     29  F   UNL     1       1.679  -3.405   0.076  0.00  0.00    +0.000 F 
ENDBRANCH  21  22
BRANCH  21  30
ATOM     30  C   UNL     1       3.954  -1.694   2.039  0.00  0.00    +0.000 C 
ATOM     31  O   UNL     1       4.344  -2.853   2.134  0.00  0.00    +0.000 OA
BRANCH  30  33
ATOM     32  C   UNL     1       4.519  -1.262   4.279  0.00  0.00    +0.000 C 
ATOM     33  O   UNL     1       3.985  -0.773   3.049  0.00  0.00    +0.000 OA
ENDBRANCH  30  33
ENDBRANCH  21  30
ENDBRANCH   1  21
TORSDOF 7
