REMARK  Name = 
REMARK  7 active torsions:
REMARK  status: ('A' for Active; 'I' for Inactive)
REMARK    1  A    between atoms: C_1  and  O_2
REMARK    2  A    between atoms: O_2  and  C_3
REMARK    3  A    between atoms: C_3  and  C_5
REMARK    4  A    between atoms: C_11  and  N_12
REMARK    5  A    between atoms: C_13  and  C_15
REMARK    6  A    between atoms: C_16  and  C_17
REMARK    7  A    between atoms: C_17  and  C_19
REMARK                            x       y       z     vdW  Elec       q    Type
REMARK                         _______ _______ _______ _____ _____    ______ ____
ROOT
ATOM      1  N   UNL     1       7.182  -1.003   4.113  0.00  0.00    +0.000 N 
ATOM      2  C   UNL     1       6.646  -1.074   5.392  0.00  0.00    +0.000 C 
ATOM      3  O   UNL     1       5.452  -1.059   5.653  0.00  0.00    +0.000 OA
ATOM      4  H   UNL     1       8.171  -1.180   4.021  0.00  0.00    +0.000 HD
ENDROOT
BRANCH   1  11
ATOM      5  C   UNL     1       4.331  -1.143  -0.791  0.00  0.00    +0.000 A 
ATOM      6  N   UNL     1       2.986  -0.905  -0.835  0.00  0.00    +0.000 NA
ATOM      7  C   UNL     1       2.376  -0.607   0.324  0.00  0.00    +0.000 A 
ATOM      8  C   UNL     1       3.034  -0.536   1.536  0.00  0.00    +0.000 A 
ATOM      9  C   UNL     1       4.411  -0.775   1.580  0.00  0.00    +0.000 A 
ATOM     10  C   UNL     1       5.091  -0.722   2.811  0.00  0.00    +0.000 A 
ATOM     11  C   UNL     1       6.462  -0.965   2.898  0.00  0.00    +0.000 A 
ATOM     12  C   UNL     1       7.174  -1.204   1.724  0.00  0.00    +0.000 A 
ATOM     13  C   UNL     1       6.512  -1.269   0.493  0.00  0.00    +0.000 A 
ATOM     14  C   UNL     1       5.110  -1.078   0.391  0.00  0.00    +0.000 A 
BRANCH   5  15
ATOM     15  C   UNL     1       4.948  -1.516  -2.108  0.00  0.00    +0.000 C 
ATOM     16  O   UNL     1       5.934  -2.223  -2.253  0.00  0.00    +0.000 OA
BRANCH  15  18
ATOM     17  C   UNL     1       4.769  -1.208  -4.421  0.00  0.00    +0.000 C 
ATOM     18  O   UNL     1       4.257  -0.924  -3.120  0.00  0.00    +0.000 OA
ENDBRANCH  15  18
ENDBRANCH   5  15
ENDBRANCH   1  11
BRANCH   2  19
ATOM     19  C   UNL     1       7.652  -1.146   6.428  0.00  0.00    +0.000 A 
ATOM     20  C   UNL     1       7.593  -1.744   7.686  0.00  0.00    +0.000 A 
ATOM     21  N   UNL     1       8.771  -1.490   8.377  0.00  0.00    +0.000 NA
ATOM     22  C   UNL     1       9.516  -0.771   7.578  0.00  0.00    +0.000 A 
ATOM     23  N   UNL     1       8.885  -0.533   6.396  0.00  0.00    +0.000 N 
ATOM     24  H   UNL     1       9.244   0.044   5.648  0.00  0.00    +0.000 HD
BRANCH  20  25
ATOM     25  C   UNL     1       6.518  -2.574   8.236  0.00  0.00    +0.000 C 
ATOM     26  O   UNL     1       5.828  -3.308   7.530  0.00  0.00    +0.000 OA
BRANCH  25  27
ATOM     27  C   UNL     1       6.324  -2.586   9.718  0.00  0.00    +0.000 A 
ATOM     28  C   UNL     1       5.774  -3.727  10.319  0.00  0.00    +0.000 A 
ATOM     29  C   UNL     1       5.624  -3.791  11.707  0.00  0.00    +0.000 A 
ATOM     30  C   UNL     1       6.006  -2.711  12.502  0.00  0.00    +0.000 A 
ATOM     31  C   UNL     1       6.520  -1.558  11.911  0.00  0.00    +0.000 A 
ATOM     32  C   UNL     1       6.670  -1.492  10.524  0.00  0.00    +0.000 A 
ENDBRANCH  25  27
ENDBRANCH  20  25
ENDBRANCH   2  19
TORSDOF 6
