REMARK  Name = 
REMARK  4 active torsions:
REMARK  status: ('A' for Active; 'I' for Inactive)
REMARK    1  A    between atoms: C_2  and  C_17
REMARK    2  A    between atoms: N_3  and  C_4
REMARK    3  A    between atoms: C_4  and  C_5
REMARK    4  A    between atoms: C_8  and  C_9
REMARK                            x       y       z     vdW  Elec       q    Type
REMARK                         _______ _______ _______ _____ _____    ______ ____
ROOT
ATOM      1  O   UNL     1       1.113  -0.283  -0.315  0.00  0.00    +0.000 OA
ATOM      2  C   UNL     1       2.330  -0.161  -0.243  0.00  0.00    +0.000 C 
ATOM      3  N   UNL     1       3.005   0.929  -0.738  0.00  0.00    +0.000 N 
ATOM      4  H   UNL     1       4.000   0.864  -0.919  0.00  0.00    +0.000 HD
ENDROOT
BRANCH   2   5
ATOM      5  C   UNL     1       3.209  -1.192   0.410  0.00  0.00    +0.000 A 
ATOM      6  C   UNL     1       2.699  -2.427   0.547  0.00  0.00    +0.000 A 
ATOM      7  C   UNL     1       3.497  -3.454   1.258  0.00  0.00    +0.000 A 
ATOM      8  O   UNL     1       3.108  -4.612   1.332  0.00  0.00    +0.000 OA
ATOM      9  C   UNL     1       4.761  -3.019   1.904  0.00  0.00    +0.000 A 
ATOM     10  C   UNL     1       5.503  -3.909   2.687  0.00  0.00    +0.000 A 
ATOM     11  C   UNL     1       6.666  -3.456   3.301  0.00  0.00    +0.000 A 
ATOM     12  F   UNL     1       7.385  -4.299   4.053  0.00  0.00    +0.000 F 
ATOM     13  C   UNL     1       7.097  -2.143   3.152  0.00  0.00    +0.000 A 
ATOM     14  C   UNL     1       6.351  -1.274   2.364  0.00  0.00    +0.000 A 
ATOM     15  F   UNL     1       6.763  -0.005   2.220  0.00  0.00    +0.000 F 
ATOM     16  C   UNL     1       5.173  -1.688   1.735  0.00  0.00    +0.000 A 
ATOM     17  N   UNL     1       4.457  -0.828   0.884  0.00  0.00    +0.000 N 
ATOM     18  H   UNL     1       4.649   0.167   0.977  0.00  0.00    +0.000 HD
ENDBRANCH   2   5
BRANCH   3  19
ATOM     19  C   UNL     1       2.270   1.984  -1.407  0.00  0.00    +0.000 C 
BRANCH  19  20
ATOM     20  C   UNL     1       3.189   3.074  -1.828  0.00  0.00    +0.000 A 
ATOM     21  N   UNL     1       2.780   4.344  -1.944  0.00  0.00    +0.000 NA
ATOM     22  O   UNL     1       3.939   5.020  -2.315  0.00  0.00    +0.000 OA
ATOM     23  C   UNL     1       4.937   4.087  -2.391  0.00  0.00    +0.000 A 
ATOM     24  N   UNL     1       4.526   2.869  -2.104  0.00  0.00    +0.000 NA
BRANCH  23  25
ATOM     25  C   UNL     1       6.255   4.574  -2.782  0.00  0.00    +0.000 A 
ATOM     26  C   UNL     1       6.488   5.942  -3.009  0.00  0.00    +0.000 A 
ATOM     27  C   UNL     1       7.739   6.394  -3.432  0.00  0.00    +0.000 A 
ATOM     28  C   UNL     1       8.766   5.481  -3.627  0.00  0.00    +0.000 A 
ATOM     29  F   UNL     1       9.958   5.912  -4.058  0.00  0.00    +0.000 F 
ATOM     30  C   UNL     1       8.571   4.126  -3.388  0.00  0.00    +0.000 A 
ATOM     31  C   UNL     1       7.319   3.673  -2.961  0.00  0.00    +0.000 A 
ENDBRANCH  23  25
ENDBRANCH  19  20
ENDBRANCH   3  19
TORSDOF 4
