REMARK  Name = 
REMARK  5 active torsions:
REMARK  status: ('A' for Active; 'I' for Inactive)
REMARK    1  A    between atoms: C_2  and  O_3
REMARK    2  A    between atoms: C_2  and  C_17
REMARK    3  A    between atoms: O_3  and  C_4
REMARK    4  A    between atoms: C_4  and  C_5
REMARK    5  A    between atoms: C_8  and  C_9
REMARK                            x       y       z     vdW  Elec       q    Type
REMARK                         _______ _______ _______ _____ _____    ______ ____
ROOT
ATOM      1  O   UNL     1       3.358   1.409  -1.994  0.00  0.00    +0.000 OA
ATOM      2  C   UNL     1       2.566   1.227  -1.085  0.00  0.00    +0.000 C 
ENDROOT
BRANCH   2   3
ATOM      3  C   UNL     1       1.122   0.948  -1.316  0.00  0.00    +0.000 A 
ATOM      4  C   UNL     1       0.230   0.719  -0.256  0.00  0.00    +0.000 A 
ATOM      5  C   UNL     1      -1.037   0.187  -0.515  0.00  0.00    +0.000 A 
ATOM      6  C   UNL     1      -1.420  -0.069  -1.837  0.00  0.00    +0.000 A 
ATOM      7  N   UNL     1      -2.601  -0.785  -2.085  0.00  0.00    +0.000 N 
ATOM      8  C   UNL     1      -3.362  -1.336  -1.090  0.00  0.00    +0.000 A 
ATOM      9  O   UNL     1      -4.286  -2.109  -1.315  0.00  0.00    +0.000 OA
ATOM     10  C   UNL     1      -3.020  -0.944   0.300  0.00  0.00    +0.000 A 
ATOM     11  C   UNL     1      -1.937  -0.202   0.570  0.00  0.00    +0.000 A 
ATOM     12  C   UNL     1      -0.581   0.286  -2.891  0.00  0.00    +0.000 A 
ATOM     13  F   UNL     1      -0.964   0.067  -4.157  0.00  0.00    +0.000 F 
ATOM     14  C   UNL     1       0.692   0.783  -2.641  0.00  0.00    +0.000 A 
ATOM     15  H   UNL     1      -2.831  -1.050  -3.036  0.00  0.00    +0.000 HD
ENDBRANCH   2   3
BRANCH   2  16
ATOM     16  O   UNL     1       2.866   1.123   0.230  0.00  0.00    +0.000 OA
BRANCH  16  17
ATOM     17  C   UNL     1       4.263   1.103   0.565  0.00  0.00    +0.000 C 
BRANCH  17  18
ATOM     18  C   UNL     1       4.600   2.283   1.428  0.00  0.00    +0.000 A 
ATOM     19  C   UNL     1       4.367   3.590   1.000  0.00  0.00    +0.000 A 
ATOM     20  C   UNL     1       4.709   4.657   1.827  0.00  0.00    +0.000 A 
ATOM     21  C   UNL     1       5.288   4.412   3.074  0.00  0.00    +0.000 A 
ATOM     22  N   UNL     1       5.544   3.139   3.492  0.00  0.00    +0.000 NA
ATOM     23  C   UNL     1       5.202   2.120   2.669  0.00  0.00    +0.000 A 
BRANCH  21  24
ATOM     24  C   UNL     1       5.619   5.505   4.018  0.00  0.00    +0.000 A 
ATOM     25  C   UNL     1       6.240   5.268   5.246  0.00  0.00    +0.000 A 
ATOM     26  C   UNL     1       6.485   6.332   6.110  0.00  0.00    +0.000 A 
ATOM     27  C   UNL     1       6.116   7.616   5.733  0.00  0.00    +0.000 A 
ATOM     28  C   UNL     1       5.520   7.782   4.497  0.00  0.00    +0.000 A 
ATOM     29  N   UNL     1       5.268   6.768   3.639  0.00  0.00    +0.000 NA
ENDBRANCH  21  24
ENDBRANCH  17  18
ENDBRANCH  16  17
ENDBRANCH   2  16
TORSDOF 5
