REMARK  Name = 
REMARK  3 active torsions:
REMARK  status: ('A' for Active; 'I' for Inactive)
REMARK    1  A    between atoms: C_2  and  C_17
REMARK    2  A    between atoms: N_3  and  C_4
REMARK    3  A    between atoms: N_8  and  C_9
REMARK                            x       y       z     vdW  Elec       q    Type
REMARK                         _______ _______ _______ _____ _____    ______ ____
ROOT
ATOM      1  O   UNL     1       1.459   0.600   0.107  0.00  0.00    +0.000 OA
ATOM      2  C   UNL     1       2.520  -0.003   0.065  0.00  0.00    +0.000 C 
ATOM      3  N   UNL     1       2.741  -1.235  -0.541  0.00  0.00    +0.000 N 
ATOM      4  H   UNL     1       3.620  -1.697  -0.349  0.00  0.00    +0.000 HD
ENDROOT
BRANCH   2   5
ATOM      5  C   UNL     1       3.787   0.676   0.503  0.00  0.00    +0.000 A 
ATOM      6  C   UNL     1       3.922   1.950  -0.077  0.00  0.00    +0.000 A 
ATOM      7  C   UNL     1       5.128   2.308  -0.640  0.00  0.00    +0.000 A 
ATOM      8  C   UNL     1       6.190   1.409  -0.590  0.00  0.00    +0.000 A 
ATOM      9  F   UNL     1       7.293   1.688  -1.302  0.00  0.00    +0.000 F 
ATOM     10  C   UNL     1       6.128   0.239   0.175  0.00  0.00    +0.000 A 
ATOM     11  C   UNL     1       7.193  -0.659   0.294  0.00  0.00    +0.000 A 
ATOM     12  N   UNL     1       7.179  -1.759   1.083  0.00  0.00    +0.000 NA
ATOM     13  C   UNL     1       6.059  -1.992   1.797  0.00  0.00    +0.000 A 
ATOM     14  C   UNL     1       4.914  -1.222   1.681  0.00  0.00    +0.000 A 
ATOM     15  C   UNL     1       4.926  -0.102   0.823  0.00  0.00    +0.000 A 
ENDBRANCH   2   5
BRANCH   3  16
ATOM     16  C   UNL     1       1.961  -1.878  -1.471  0.00  0.00    +0.000 A 
ATOM     17  C   UNL     1       0.944  -1.313  -2.136  0.00  0.00    +0.000 A 
ATOM     18  C   UNL     1       0.136  -2.106  -3.105  0.00  0.00    +0.000 A 
ATOM     19  O   UNL     1      -0.752  -1.523  -3.728  0.00  0.00    +0.000 OA
ATOM     20  N   UNL     1       0.419  -3.483  -3.150  0.00  0.00    +0.000 N 
ATOM     21  C   UNL     1       1.532  -4.008  -2.512  0.00  0.00    +0.000 A 
ATOM     22  C   UNL     1       2.328  -3.247  -1.754  0.00  0.00    +0.000 A 
BRANCH  20  23
ATOM     23  C   UNL     1      -0.512  -4.346  -3.792  0.00  0.00    +0.000 A 
ATOM     24  C   UNL     1      -0.935  -4.121  -5.104  0.00  0.00    +0.000 A 
ATOM     25  C   UNL     1      -1.893  -4.955  -5.683  0.00  0.00    +0.000 A 
ATOM     26  C   UNL     1      -2.455  -5.994  -4.944  0.00  0.00    +0.000 A 
ATOM     27  C   UNL     1      -2.046  -6.220  -3.631  0.00  0.00    +0.000 A 
ATOM     28  C   UNL     1      -1.060  -5.414  -3.063  0.00  0.00    +0.000 A 
ENDBRANCH  20  23
ENDBRANCH   3  16
TORSDOF 3
