REMARK  Name = 
REMARK  6 active torsions:
REMARK  status: ('A' for Active; 'I' for Inactive)
REMARK    1  A    between atoms: C_2  and  C_3
REMARK    2  A    between atoms: C_3  and  C_4
REMARK    3  A    between atoms: N_13  and  C_14
REMARK    4  A    between atoms: C_14  and  C_15
REMARK    5  A    between atoms: C_17  and  O_18
REMARK    6  A    between atoms: O_18  and  C_19
REMARK                            x       y       z     vdW  Elec       q    Type
REMARK                         _______ _______ _______ _____ _____    ______ ____
ROOT
ATOM      1  C   UNL     1       4.394   0.685  -1.078  0.00  0.00    +0.000 C 
ENDROOT
BRANCH   1   2
ATOM      2  C   UNL     1       4.919   1.566  -2.190  0.00  0.00    +0.000 A 
ATOM      3  C   UNL     1       5.093   1.036  -3.463  0.00  0.00    +0.000 A 
ATOM      4  C   UNL     1       5.471   1.883  -4.503  0.00  0.00    +0.000 A 
ATOM      5  C   UNL     1       5.779   3.208  -4.222  0.00  0.00    +0.000 A 
ATOM      6  C   UNL     1       5.613   3.649  -2.921  0.00  0.00    +0.000 A 
ATOM      7  N   UNL     1       5.166   2.870  -1.909  0.00  0.00    +0.000 NA
BRANCH   4   8
ATOM      8  O   UNL     1       5.594   1.487  -5.818  0.00  0.00    +0.000 OA
BRANCH   8   9
ATOM      9  C   UNL     1       4.781   0.477  -6.288  0.00  0.00    +0.000 A 
ATOM     10  C   UNL     1       3.444   0.314  -5.898  0.00  0.00    +0.000 A 
ATOM     11  C   UNL     1       2.715  -0.789  -6.341  0.00  0.00    +0.000 A 
ATOM     12  C   UNL     1       3.299  -1.682  -7.230  0.00  0.00    +0.000 A 
ATOM     13  F   UNL     1       2.598  -2.745  -7.647  0.00  0.00    +0.000 F 
ATOM     14  C   UNL     1       4.596  -1.474  -7.685  0.00  0.00    +0.000 A 
ATOM     15  F   UNL     1       5.142  -2.320  -8.569  0.00  0.00    +0.000 F 
ATOM     16  C   UNL     1       5.346  -0.397  -7.220  0.00  0.00    +0.000 A 
ENDBRANCH   8   9
ENDBRANCH   4   8
ENDBRANCH   1   2
BRANCH   1  19
ATOM     17  O   UNL     1       2.561  -0.964  -2.471  0.00  0.00    +0.000 OA
ATOM     18  C   UNL     1       2.131  -0.129  -1.675  0.00  0.00    +0.000 C 
ATOM     19  N   UNL     1       2.945   0.719  -0.962  0.00  0.00    +0.000 N 
ATOM     20  H   UNL     1       2.542   1.544  -0.530  0.00  0.00    +0.000 HD
BRANCH  18  21
ATOM     21  C   UNL     1       0.645   0.032  -1.391  0.00  0.00    +0.000 C 
BRANCH  21  22
ATOM     22  C   UNL     1      -0.044   1.011  -2.314  0.00  0.00    +0.000 A 
ATOM     23  C   UNL     1      -0.085   0.766  -3.700  0.00  0.00    +0.000 A 
ATOM     24  C   UNL     1      -0.721   1.641  -4.592  0.00  0.00    +0.000 A 
ATOM     25  C   UNL     1      -1.321   2.752  -4.017  0.00  0.00    +0.000 A 
ATOM     26  O   UNL     1      -2.005   3.748  -4.652  0.00  0.00    +0.000 OA
ATOM     27  C   UNL     1      -2.386   4.572  -3.633  0.00  0.00    +0.000 A 
ATOM     28  N   UNL     1      -2.012   4.199  -2.428  0.00  0.00    +0.000 NA
ATOM     29  C   UNL     1      -1.326   3.033  -2.661  0.00  0.00    +0.000 A 
ATOM     30  C   UNL     1      -0.680   2.151  -1.782  0.00  0.00    +0.000 A 
ENDBRANCH  21  22
ENDBRANCH  18  21
ENDBRANCH   1  19
TORSDOF 6
