REMARK  Name = 
REMARK  8 active torsions:
REMARK  status: ('A' for Active; 'I' for Inactive)
REMARK    1  A    between atoms: C_1  and  N_2
REMARK    2  A    between atoms: C_4  and  C_5
REMARK    3  A    between atoms: C_11  and  C_12
REMARK    4  A    between atoms: C_14  and  C_15
REMARK    5  A    between atoms: N_17  and  C_18
REMARK    6  A    between atoms: C_18  and  C_19
REMARK    7  A    between atoms: C_19  and  O_20
REMARK    8  A    between atoms: C_19  and  C_21
REMARK                            x       y       z     vdW  Elec       q    Type
REMARK                         _______ _______ _______ _____ _____    ______ ____
ROOT
ATOM      1  C   UNL     1       3.442   2.720   0.050  0.00  0.00    +0.000 C 
ATOM      2  O   UNL     1       4.440   3.429   0.150  0.00  0.00    +0.000 OA
ATOM      3  N   UNL     1       2.182   3.279  -0.014  0.00  0.00    +0.000 N 
ATOM      4  H   UNL     1       1.371   2.709   0.197  0.00  0.00    +0.000 HD
ENDROOT
BRANCH   1  10
ATOM      5  C   UNL     1       5.712   1.002   1.233  0.00  0.00    +0.000 C 
ATOM      6  N   UNL     1       4.541   0.525   0.529  0.00  0.00    +0.000 N 
ATOM      7  N   UNL     1       4.380  -0.810   0.385  0.00  0.00    +0.000 NA
ATOM      8  C   UNL     1       3.245  -0.957  -0.313  0.00  0.00    +0.000 A 
ATOM      9  C   UNL     1       2.668   0.321  -0.554  0.00  0.00    +0.000 A 
ATOM     10  C   UNL     1       3.506   1.272   0.017  0.00  0.00    +0.000 A 
BRANCH   8  11
ATOM     11  C   UNL     1       2.750  -2.296  -0.672  0.00  0.00    +0.000 A 
ATOM     12  C   UNL     1       2.973  -3.376   0.197  0.00  0.00    +0.000 A 
ATOM     13  C   UNL     1       2.459  -4.646  -0.086  0.00  0.00    +0.000 A 
ATOM     14  C   UNL     1       1.723  -4.856  -1.248  0.00  0.00    +0.000 A 
ATOM     15  C   UNL     1       1.520  -3.804  -2.138  0.00  0.00    +0.000 A 
ATOM     16  C   UNL     1       2.041  -2.534  -1.858  0.00  0.00    +0.000 A 
ENDBRANCH   8  11
BRANCH   9  17
ATOM     17  C   UNL     1       1.465   0.594  -1.249  0.00  0.00    +0.000 C 
ATOM     18  N   UNL     1       0.476   0.856  -1.807  0.00  0.00    +0.000 NA
ENDBRANCH   9  17
ENDBRANCH   1  10
BRANCH   3  19
ATOM     19  C   UNL     1       1.963   4.733  -0.004  0.00  0.00    +0.000 C 
BRANCH  19  20
ATOM     20  C   UNL     1       0.450   5.040  -0.019  0.00  0.00    +0.000 C 
BRANCH  20  21
ATOM     21  C   UNL     1      -0.053   6.464  -0.176  0.00  0.00    +0.000 A 
ATOM     22  C   UNL     1      -1.440   6.591  -0.375  0.00  0.00    +0.000 A 
ATOM     23  C   UNL     1      -2.005   7.805  -0.739  0.00  0.00    +0.000 A 
ATOM     24  C   UNL     1      -1.221   8.957  -0.768  0.00  0.00    +0.000 A 
ATOM     25  C   UNL     1      -1.773  10.169  -1.178  0.00  0.00    +0.000 A 
ATOM     26  C   UNL     1      -1.298  11.355  -0.652  0.00  0.00    +0.000 A 
ATOM     27  C   UNL     1      -0.032  11.354  -0.087  0.00  0.00    +0.000 A 
ATOM     28  C   UNL     1       0.720  10.165  -0.057  0.00  0.00    +0.000 A 
ATOM     29  C   UNL     1       0.109   8.918  -0.322  0.00  0.00    +0.000 A 
ATOM     30  C   UNL     1       0.719   7.642  -0.142  0.00  0.00    +0.000 A 
ENDBRANCH  20  21
BRANCH  20  31
ATOM     31  O   UNL     1      -0.111   4.477   1.179  0.00  0.00    +0.000 OA
ATOM     32  H   UNL     1      -0.114   5.181   1.852  0.00  0.00    +0.000 HD
ENDBRANCH  20  31
ENDBRANCH  19  20
ENDBRANCH   3  19
TORSDOF 7
