REMARK  Name = 
REMARK  7 active torsions:
REMARK  status: ('A' for Active; 'I' for Inactive)
REMARK    1  A    between atoms: C_1  and  O_2
REMARK    2  A    between atoms: O_2  and  C_3
REMARK    3  A    between atoms: C_8  and  N_9
REMARK    4  A    between atoms: N_9  and  C_10
REMARK    5  A    between atoms: C_13  and  C_14
REMARK    6  A    between atoms: N_16  and  C_17
REMARK    7  A    between atoms: C_17  and  C_18
REMARK                            x       y       z     vdW  Elec       q    Type
REMARK                         _______ _______ _______ _____ _____    ______ ____
ROOT
ATOM      1  C   UNL     1       1.058   2.960  -4.198  0.00  0.00    +0.000 C 
ATOM      2  O   UNL     1       1.537   3.392  -5.240  0.00  0.00    +0.000 OA
ATOM      3  N   UNL     1      -0.254   2.591  -4.071  0.00  0.00    +0.000 N 
ATOM      4  H   UNL     1      -0.586   2.124  -3.237  0.00  0.00    +0.000 HD
ENDROOT
BRANCH   1   8
ATOM      5  C   UNL     1       3.629   2.235  -0.828  0.00  0.00    +0.000 A 
ATOM      6  C   UNL     1       2.309   2.682  -0.640  0.00  0.00    +0.000 A 
ATOM      7  C   UNL     1       1.460   2.934  -1.718  0.00  0.00    +0.000 A 
ATOM      8  C   UNL     1       1.937   2.763  -3.016  0.00  0.00    +0.000 A 
ATOM      9  C   UNL     1       3.278   2.413  -3.223  0.00  0.00    +0.000 A 
ATOM     10  C   UNL     1       4.118   2.150  -2.135  0.00  0.00    +0.000 A 
BRANCH   5  11
ATOM     11  N   UNL     1       4.422   1.823   0.262  0.00  0.00    +0.000 N 
ATOM     12  H   UNL     1       5.308   2.312   0.361  0.00  0.00    +0.000 HD
BRANCH  11  18
ATOM     13  C   UNL     1       4.657   1.409   2.686  0.00  0.00    +0.000 A 
ATOM     14  C   UNL     1       4.164   0.805   3.853  0.00  0.00    +0.000 A 
ATOM     15  C   UNL     1       3.008   0.022   3.824  0.00  0.00    +0.000 A 
ATOM     16  C   UNL     1       2.333  -0.170   2.625  0.00  0.00    +0.000 A 
ATOM     17  C   UNL     1       2.823   0.409   1.460  0.00  0.00    +0.000 A 
ATOM     18  C   UNL     1       3.974   1.223   1.466  0.00  0.00    +0.000 A 
BRANCH  13  20
ATOM     19  C   UNL     1       6.634   2.121   3.785  0.00  0.00    +0.000 C 
ATOM     20  O   UNL     1       5.764   2.225   2.659  0.00  0.00    +0.000 OA
ENDBRANCH  13  20
ENDBRANCH  11  18
ENDBRANCH   5  11
ENDBRANCH   1   8
BRANCH   3  21
ATOM     21  C   UNL     1      -1.184   2.725  -5.178  0.00  0.00    +0.000 C 
BRANCH  21  22
ATOM     22  C   UNL     1      -1.808   4.102  -5.256  0.00  0.00    +0.000 A 
ATOM     23  C   UNL     1      -1.180   5.109  -5.992  0.00  0.00    +0.000 A 
ATOM     24  C   UNL     1      -1.782   6.362  -6.089  0.00  0.00    +0.000 A 
ATOM     25  C   UNL     1      -3.002   6.575  -5.460  0.00  0.00    +0.000 A 
ATOM     26  C   UNL     1      -3.727   7.838  -5.574  0.00  0.00    +0.000 A 
ATOM     27  C   UNL     1      -4.934   7.958  -5.006  0.00  0.00    +0.000 A 
ATOM     28  C   UNL     1      -5.532   6.843  -4.229  0.00  0.00    +0.000 A 
ATOM     29  O   UNL     1      -6.643   6.964  -3.724  0.00  0.00    +0.000 OA
ATOM     30  N   UNL     1      -4.790   5.704  -4.117  0.00  0.00    +0.000 N 
ATOM     31  C   UNL     1      -3.553   5.520  -4.729  0.00  0.00    +0.000 A 
ATOM     32  N   UNL     1      -2.983   4.302  -4.601  0.00  0.00    +0.000 NA
ATOM     33  H   UNL     1      -5.172   4.927  -3.601  0.00  0.00    +0.000 HD
ENDBRANCH  21  22
ENDBRANCH   3  21
TORSDOF 6
