REMARK  Name = 
REMARK  6 active torsions:
REMARK  status: ('A' for Active; 'I' for Inactive)
REMARK    1  A    between atoms: C_2  and  C_3
REMARK    2  A    between atoms: C_8  and  O_9
REMARK    3  A    between atoms: O_9  and  C_10
REMARK    4  A    between atoms: C_13  and  N_14
REMARK    5  A    between atoms: C_15  and  C_17
REMARK    6  A    between atoms: C_25  and  O_26
REMARK                            x       y       z     vdW  Elec       q    Type
REMARK                         _______ _______ _______ _____ _____    ______ ____
ROOT
ATOM      1  N   UNL     1       5.911  -2.797   0.739  0.00  0.00    +0.000 N 
ATOM      2  C   UNL     1       6.649  -2.149   1.719  0.00  0.00    +0.000 C 
ATOM      3  O   UNL     1       6.199  -1.442   2.615  0.00  0.00    +0.000 OA
ATOM      4  H   UNL     1       6.402  -3.299   0.011  0.00  0.00    +0.000 HD
ENDROOT
BRANCH   2   5
ATOM      5  C   UNL     1       8.131  -2.290   1.660  0.00  0.00    +0.000 A 
ATOM      6  C   UNL     1       8.893  -2.366   2.862  0.00  0.00    +0.000 A 
ATOM      7  C   UNL     1       8.358  -2.500   4.170  0.00  0.00    +0.000 A 
ATOM      8  C   UNL     1       9.203  -2.528   5.265  0.00  0.00    +0.000 A 
ATOM      9  N   UNL     1      10.537  -2.436   5.160  0.00  0.00    +0.000 NA
ATOM     10  C   UNL     1      11.032  -2.324   3.900  0.00  0.00    +0.000 A 
ATOM     11  C   UNL     1      10.292  -2.300   2.724  0.00  0.00    +0.000 A 
ATOM     12  N   UNL     1      10.911  -2.214   1.528  0.00  0.00    +0.000 NA
ATOM     13  C   UNL     1      10.137  -2.176   0.437  0.00  0.00    +0.000 A 
ATOM     14  C   UNL     1       8.768  -2.200   0.424  0.00  0.00    +0.000 A 
BRANCH  13  15
ATOM     15  O   UNL     1      10.828  -2.085  -0.726  0.00  0.00    +0.000 OA
ATOM     16  H   UNL     1      11.743  -2.062  -0.388  0.00  0.00    +0.000 HD
ENDBRANCH  13  15
ENDBRANCH   2   5
BRANCH   1  20
ATOM     17  C   UNL     1       1.713  -2.560   0.226  0.00  0.00    +0.000 A 
ATOM     18  C   UNL     1       2.294  -2.116   1.411  0.00  0.00    +0.000 A 
ATOM     19  C   UNL     1       3.673  -2.191   1.593  0.00  0.00    +0.000 A 
ATOM     20  C   UNL     1       4.496  -2.767   0.625  0.00  0.00    +0.000 A 
ATOM     21  C   UNL     1       3.895  -3.328  -0.511  0.00  0.00    +0.000 A 
ATOM     22  C   UNL     1       2.506  -3.221  -0.713  0.00  0.00    +0.000 A 
BRANCH  17  23
ATOM     23  O   UNL     1       0.370  -2.388  -0.044  0.00  0.00    +0.000 OA
BRANCH  23  29
ATOM     24  C   UNL     1      -1.541  -1.099   0.631  0.00  0.00    +0.000 A 
ATOM     25  C   UNL     1      -2.059   0.130   1.060  0.00  0.00    +0.000 A 
ATOM     26  C   UNL     1      -1.220   1.237   1.178  0.00  0.00    +0.000 A 
ATOM     27  C   UNL     1       0.106   1.087   0.825  0.00  0.00    +0.000 A 
ATOM     28  N   UNL     1       0.625  -0.071   0.370  0.00  0.00    +0.000 NA
ATOM     29  C   UNL     1      -0.189  -1.160   0.318  0.00  0.00    +0.000 A 
BRANCH  24  31
ATOM     30  N   UNL     1      -3.123  -3.145   0.533  0.00  0.00    +0.000 NA
ATOM     31  C   UNL     1      -2.392  -2.246   0.564  0.00  0.00    +0.000 C 
ENDBRANCH  24  31
ENDBRANCH  23  29
ENDBRANCH  17  23
ENDBRANCH   1  20
TORSDOF 6
