REMARK  Name = 
REMARK  7 active torsions:
REMARK  status: ('A' for Active; 'I' for Inactive)
REMARK    1  A    between atoms: C_2  and  C_20
REMARK    2  A    between atoms: N_3  and  C_4
REMARK    3  A    between atoms: C_7  and  C_8
REMARK    4  A    between atoms: C_8  and  C_9
REMARK    5  A    between atoms: C_9  and  C_10
REMARK    6  A    between atoms: C_10  and  O_11
REMARK    7  A    between atoms: C_10  and  C_12
REMARK                            x       y       z     vdW  Elec       q    Type
REMARK                         _______ _______ _______ _____ _____    ______ ____
ROOT
ATOM      1  C   UNL     1       2.172  -0.453   2.262  0.00  0.00    +0.000 A 
ATOM      2  C   UNL     1       1.108  -1.356   2.253  0.00  0.00    +0.000 A 
ATOM      3  C   UNL     1       0.563  -1.830   3.444  0.00  0.00    +0.000 A 
ATOM      4  C   UNL     1       1.087  -1.419   4.671  0.00  0.00    +0.000 A 
ATOM      5  C   UNL     1       2.209  -0.580   4.680  0.00  0.00    +0.000 A 
ATOM      6  C   UNL     1       2.761  -0.111   3.481  0.00  0.00    +0.000 A 
ENDROOT
BRANCH   1   9
ATOM      7  O   UNL     1       0.789  -0.120  -0.273  0.00  0.00    +0.000 OA
ATOM      8  C   UNL     1       1.950   0.231  -0.107  0.00  0.00    +0.000 C 
ATOM      9  N   UNL     1       2.666   0.138   1.078  0.00  0.00    +0.000 N 
ATOM     10  H   UNL     1       3.578   0.569   1.146  0.00  0.00    +0.000 HD
BRANCH   8  11
ATOM     11  C   UNL     1       2.692   0.758  -1.277  0.00  0.00    +0.000 A 
ATOM     12  C   UNL     1       3.678   1.746  -1.142  0.00  0.00    +0.000 A 
ATOM     13  C   UNL     1       4.537   2.028  -2.204  0.00  0.00    +0.000 A 
ATOM     14  C   UNL     1       4.503   1.229  -3.347  0.00  0.00    +0.000 A 
ATOM     15  C   UNL     1       3.534   0.228  -3.461  0.00  0.00    +0.000 A 
ATOM     16  C   UNL     1       2.544   0.117  -2.504  0.00  0.00    +0.000 A 
ATOM     17  C   UNL     1       1.403  -0.723  -2.874  0.00  0.00    +0.000 A 
ATOM     18  N   UNL     1       1.504  -1.726  -3.687  0.00  0.00    +0.000 NA
ATOM     19  N   UNL     1       2.723  -1.899  -4.275  0.00  0.00    +0.000 N 
ATOM     20  C   UNL     1       3.628  -0.866  -4.459  0.00  0.00    +0.000 A 
ATOM     21  O   UNL     1       4.521  -0.895  -5.286  0.00  0.00    +0.000 OA
ATOM     22  H   UNL     1       2.811  -2.715  -4.870  0.00  0.00    +0.000 HD
ENDBRANCH   8  11
ENDBRANCH   1   9
BRANCH   4  23
ATOM     23  C   UNL     1       0.421  -1.842   5.958  0.00  0.00    +0.000 C 
BRANCH  23  24
ATOM     24  C   UNL     1       0.352  -3.357   6.165  0.00  0.00    +0.000 C 
BRANCH  24  25
ATOM     25  C   UNL     1       1.733  -4.019   6.250  0.00  0.00    +0.000 C 
BRANCH  25  26
ATOM     26  C   UNL     1       1.600  -5.523   6.391  0.00  0.00    +0.000 A 
ATOM     27  C   UNL     1       1.554  -6.316   5.232  0.00  0.00    +0.000 A 
ATOM     28  C   UNL     1       1.421  -7.703   5.319  0.00  0.00    +0.000 A 
ATOM     29  C   UNL     1       1.325  -8.316   6.565  0.00  0.00    +0.000 A 
ATOM     30  C   UNL     1       1.348  -7.542   7.723  0.00  0.00    +0.000 A 
ATOM     31  C   UNL     1       1.478  -6.154   7.638  0.00  0.00    +0.000 A 
ENDBRANCH  25  26
BRANCH  25  32
ATOM     32  O   UNL     1       2.485  -3.465   7.330  0.00  0.00    +0.000 OA
ATOM     33  H   UNL     1       1.926  -3.496   8.122  0.00  0.00    +0.000 HD
ENDBRANCH  25  32
ENDBRANCH  24  25
ENDBRANCH  23  24
ENDBRANCH   4  23
TORSDOF 7
