REMARK  Name = 
REMARK  8 active torsions:
REMARK  status: ('A' for Active; 'I' for Inactive)
REMARK    1  A    between atoms: C_1  and  C_2
REMARK    2  A    between atoms: C_7  and  O_8
REMARK    3  A    between atoms: O_8  and  C_9
REMARK    4  A    between atoms: C_12  and  C_13
REMARK    5  A    between atoms: N_15  and  C_16
REMARK    6  A    between atoms: C_16  and  C_17
REMARK    7  A    between atoms: C_17  and  C_18
REMARK    8  A    between atoms: N_20  and  C_21
REMARK                            x       y       z     vdW  Elec       q    Type
REMARK                         _______ _______ _______ _____ _____    ______ ____
ROOT
ATOM      1  C   UNL     1       6.511  -2.920   0.211  0.00  0.00    +0.000 C 
ATOM      2  O   UNL     1       7.066  -3.468  -0.738  0.00  0.00    +0.000 OA
ATOM      3  N   UNL     1       7.197  -2.303   1.235  0.00  0.00    +0.000 N 
ATOM      4  H   UNL     1       6.694  -1.713   1.883  0.00  0.00    +0.000 HD
ENDROOT
BRANCH   1   8
ATOM      5  C   UNL     1       2.223  -2.570   0.282  0.00  0.00    +0.000 A 
ATOM      6  C   UNL     1       2.933  -2.712   1.483  0.00  0.00    +0.000 A 
ATOM      7  C   UNL     1       4.328  -2.824   1.480  0.00  0.00    +0.000 A 
ATOM      8  C   UNL     1       5.023  -2.852   0.270  0.00  0.00    +0.000 A 
ATOM      9  C   UNL     1       4.306  -2.825  -0.936  0.00  0.00    +0.000 A 
ATOM     10  C   UNL     1       2.909  -2.679  -0.929  0.00  0.00    +0.000 A 
BRANCH   5  11
ATOM     11  O   UNL     1       0.856  -2.351   0.248  0.00  0.00    +0.000 OA
BRANCH  11  18
ATOM     12  C   UNL     1      -1.971  -2.483   0.953  0.00  0.00    +0.000 C 
ATOM     13  C   UNL     1      -0.994  -1.520   1.552  0.00  0.00    +0.000 A 
ATOM     14  C   UNL     1      -1.436  -0.628   2.540  0.00  0.00    +0.000 A 
ATOM     15  C   UNL     1      -0.554   0.285   3.109  0.00  0.00    +0.000 A 
ATOM     16  C   UNL     1       0.739   0.318   2.635  0.00  0.00    +0.000 A 
ATOM     17  N   UNL     1       1.194  -0.495   1.664  0.00  0.00    +0.000 NA
ATOM     18  C   UNL     1       0.346  -1.429   1.165  0.00  0.00    +0.000 A 
ENDBRANCH  11  18
ENDBRANCH   5  11
ENDBRANCH   1   8
BRANCH   3  19
ATOM     19  C   UNL     1       8.654  -2.218   1.218  0.00  0.00    +0.000 C 
BRANCH  19  20
ATOM     20  C   UNL     1       9.267  -2.103   2.616  0.00  0.00    +0.000 C 
BRANCH  20  21
ATOM     21  C   UNL     1       8.909  -3.250   3.488  0.00  0.00    +0.000 A 
ATOM     22  C   UNL     1       9.167  -4.591   3.321  0.00  0.00    +0.000 A 
ATOM     23  N   UNL     1       8.561  -5.207   4.390  0.00  0.00    +0.000 N 
ATOM     24  N   UNL     1       7.969  -4.266   5.170  0.00  0.00    +0.000 NA
ATOM     25  N   UNL     1       8.182  -3.074   4.630  0.00  0.00    +0.000 NA
BRANCH  23  26
ATOM     26  C   UNL     1       8.518  -6.588   4.706  0.00  0.00    +0.000 A 
ATOM     27  C   UNL     1       9.180  -7.528   3.904  0.00  0.00    +0.000 A 
ATOM     28  C   UNL     1       9.144  -8.883   4.242  0.00  0.00    +0.000 A 
ATOM     29  C   UNL     1       8.446  -9.305   5.372  0.00  0.00    +0.000 A 
ATOM     30  C   UNL     1       7.779  -8.375   6.168  0.00  0.00    +0.000 A 
ATOM     31  C   UNL     1       7.814  -7.019   5.840  0.00  0.00    +0.000 A 
ENDBRANCH  23  26
ENDBRANCH  20  21
ENDBRANCH  19  20
ENDBRANCH   3  19
TORSDOF 7
