REMARK  Name = 
REMARK  9 active torsions:
REMARK  status: ('A' for Active; 'I' for Inactive)
REMARK    1  A    between atoms: C_2  and  C_3
REMARK    2  A    between atoms: C_2  and  O_18
REMARK    3  A    between atoms: C_3  and  O_4
REMARK    4  A    between atoms: O_4  and  C_5
REMARK    5  A    between atoms: C_9  and  O_10
REMARK    6  A    between atoms: O_10  and  C_11
REMARK    7  A    between atoms: O_18  and  C_19
REMARK    8  A    between atoms: C_19  and  C_20
REMARK    9  A    between atoms: N_24  and  C_25
REMARK                            x       y       z     vdW  Elec       q    Type
REMARK                         _______ _______ _______ _____ _____    ______ ____
ROOT
ATOM      1  O   UNL     1       2.190  -1.219   0.217  0.00  0.00    +0.000 OA
ATOM      2  C   UNL     1       2.298  -0.014   0.021  0.00  0.00    +0.000 C 
ENDROOT
BRANCH   2   3
ATOM      3  C   UNL     1       3.010   0.931   0.974  0.00  0.00    +0.000 C 
BRANCH   3   4
ATOM      4  O   UNL     1       2.118   1.638   1.817  0.00  0.00    +0.000 OA
BRANCH   4   5
ATOM      5  C   UNL     1       2.703   2.466   2.744  0.00  0.00    +0.000 A 
ATOM      6  C   UNL     1       4.079   2.664   2.904  0.00  0.00    +0.000 A 
ATOM      7  C   UNL     1       4.559   3.520   3.896  0.00  0.00    +0.000 A 
ATOM      8  C   UNL     1       3.669   4.193   4.727  0.00  0.00    +0.000 A 
ATOM      9  C   UNL     1       2.292   4.049   4.538  0.00  0.00    +0.000 A 
ATOM     10  C   UNL     1       1.814   3.157   3.573  0.00  0.00    +0.000 A 
BRANCH   9  11
ATOM     11  O   UNL     1       1.355   4.700   5.311  0.00  0.00    +0.000 OA
BRANCH  11  12
ATOM     12  C   UNL     1       1.599   6.026   5.655  0.00  0.00    +0.000 A 
ATOM     13  C   UNL     1       0.965   6.499   6.794  0.00  0.00    +0.000 A 
ATOM     14  C   UNL     1       1.209   7.813   7.186  0.00  0.00    +0.000 A 
ATOM     15  C   UNL     1       2.066   8.604   6.430  0.00  0.00    +0.000 A 
ATOM     16  C   UNL     1       2.632   8.054   5.292  0.00  0.00    +0.000 A 
ATOM     17  N   UNL     1       2.406   6.790   4.881  0.00  0.00    +0.000 NA
ENDBRANCH  11  12
ENDBRANCH   9  11
ENDBRANCH   4   5
ENDBRANCH   3   4
ENDBRANCH   2   3
BRANCH   2  18
ATOM     18  O   UNL     1       1.900   0.637  -1.107  0.00  0.00    +0.000 OA
BRANCH  18  19
ATOM     19  C   UNL     1       1.577  -0.212  -2.220  0.00  0.00    +0.000 C 
BRANCH  19  20
ATOM     20  C   UNL     1       0.153  -0.039  -2.578  0.00  0.00    +0.000 A 
ATOM     21  C   UNL     1      -0.871   0.644  -1.955  0.00  0.00    +0.000 A 
ATOM     22  N   UNL     1      -1.957   0.698  -2.771  0.00  0.00    +0.000 NA
ATOM     23  N   UNL     1      -1.648   0.079  -3.900  0.00  0.00    +0.000 NA
ATOM     24  N   UNL     1      -0.420  -0.482  -3.764  0.00  0.00    +0.000 N 
BRANCH  24  25
ATOM     25  C   UNL     1       0.082  -1.357  -4.765  0.00  0.00    +0.000 A 
ATOM     26  C   UNL     1      -0.367  -1.216  -6.087  0.00  0.00    +0.000 A 
ATOM     27  C   UNL     1       0.123  -2.057  -7.089  0.00  0.00    +0.000 A 
ATOM     28  C   UNL     1       1.036  -3.062  -6.776  0.00  0.00    +0.000 A 
ATOM     29  C   UNL     1       1.457  -3.233  -5.460  0.00  0.00    +0.000 A 
ATOM     30  C   UNL     1       0.982  -2.385  -4.455  0.00  0.00    +0.000 A 
ENDBRANCH  24  25
ENDBRANCH  19  20
ENDBRANCH  18  19
ENDBRANCH   2  18
TORSDOF 9
