REMARK  Name = 
REMARK  7 active torsions:
REMARK  status: ('A' for Active; 'I' for Inactive)
REMARK    1  A    between atoms: C_1  and  C_2
REMARK    2  A    between atoms: C_3  and  C_4
REMARK    3  A    between atoms: N_6  and  C_7
REMARK    4  A    between atoms: C_7  and  C_8
REMARK    5  A    between atoms: C_7  and  C_11
REMARK    6  A    between atoms: N_23  and  C_24
REMARK    7  A    between atoms: C_24  and  C_25
REMARK                            x       y       z     vdW  Elec       q    Type
REMARK                         _______ _______ _______ _____ _____    ______ ____
ROOT
ATOM      1  C   UNL     1       2.868   2.674  -0.198  0.00  0.00    +0.000 C 
ATOM      2  O   UNL     1       1.729   2.978  -0.542  0.00  0.00    +0.000 OA
ATOM      3  N   UNL     1       3.808   3.625   0.106  0.00  0.00    +0.000 N 
ATOM      4  H   UNL     1       4.631   3.338   0.614  0.00  0.00    +0.000 HD
ENDROOT
BRANCH   1   7
ATOM      5  C   UNL     1       0.986   0.232   0.425  0.00  0.00    +0.000 C 
ATOM      6  C   UNL     1       2.461   0.209   0.211  0.00  0.00    +0.000 A 
ATOM      7  C   UNL     1       3.311   1.290  -0.023  0.00  0.00    +0.000 A 
ATOM      8  C   UNL     1       4.633   0.758  -0.070  0.00  0.00    +0.000 A 
ATOM      9  C   UNL     1       4.547  -0.608   0.066  0.00  0.00    +0.000 A 
ATOM     10  N   UNL     1       3.221  -0.946   0.201  0.00  0.00    +0.000 N 
BRANCH  10  11
ATOM     11  C   UNL     1       2.733  -2.328   0.187  0.00  0.00    +0.000 C 
BRANCH  11  12
ATOM     12  C   UNL     1       2.702  -2.940   1.565  0.00  0.00    +0.000 A 
ATOM     13  C   UNL     1       1.522  -2.934   2.322  0.00  0.00    +0.000 A 
ATOM     14  C   UNL     1       1.510  -3.419   3.630  0.00  0.00    +0.000 A 
ATOM     15  C   UNL     1       2.671  -3.947   4.187  0.00  0.00    +0.000 A 
ATOM     16  C   UNL     1       3.839  -4.006   3.431  0.00  0.00    +0.000 A 
ATOM     17  C   UNL     1       3.857  -3.505   2.127  0.00  0.00    +0.000 A 
ENDBRANCH  11  12
ENDBRANCH  10  11
ENDBRANCH   1   7
BRANCH   3  18
ATOM     18  C   UNL     1       3.504   5.052   0.029  0.00  0.00    +0.000 C 
BRANCH  18  19
ATOM     19  C   UNL     1       4.750   5.821  -0.369  0.00  0.00    +0.000 A 
ATOM     20  C   UNL     1       4.773   6.546  -1.567  0.00  0.00    +0.000 A 
ATOM     21  C   UNL     1       5.924   7.232  -1.963  0.00  0.00    +0.000 A 
ATOM     22  C   UNL     1       7.084   7.199  -1.176  0.00  0.00    +0.000 A 
ATOM     23  C   UNL     1       8.257   7.866  -1.567  0.00  0.00    +0.000 A 
ATOM     24  C   UNL     1       9.405   7.813  -0.775  0.00  0.00    +0.000 A 
ATOM     25  C   UNL     1       9.393   7.101   0.420  0.00  0.00    +0.000 A 
ATOM     26  C   UNL     1       8.233   6.440   0.826  0.00  0.00    +0.000 A 
ATOM     27  C   UNL     1       7.072   6.476   0.039  0.00  0.00    +0.000 A 
ATOM     28  C   UNL     1       5.905   5.807   0.429  0.00  0.00    +0.000 A 
ENDBRANCH  18  19
BRANCH  18  29
ATOM     29  C   UNL     1       2.849   5.553   1.345  0.00  0.00    +0.000 C 
ATOM     30  N   UNL     1       1.726   4.871   1.740  0.00  0.00    +0.000 N 
ATOM     31  O   UNL     1       3.210   6.535   1.988  0.00  0.00    +0.000 OA
ATOM     32  H   UNL     1       1.270   4.211   1.114  0.00  0.00    +0.000 HD
ATOM     33  H   UNL     1       1.204   5.239   2.523  0.00  0.00    +0.000 HD
ENDBRANCH  18  29
ENDBRANCH   3  18
TORSDOF 6
