REMARK  Name = 
REMARK  3 active torsions:
REMARK  status: ('A' for Active; 'I' for Inactive)
REMARK    1  A    between atoms: C_1  and  C_2
REMARK    2  A    between atoms: C_6  and  C_8
REMARK    3  A    between atoms: N_10  and  C_11
REMARK                            x       y       z     vdW  Elec       q    Type
REMARK                         _______ _______ _______ _____ _____    ______ ____
ROOT
ATOM      1  C   UNL     1       1.148   0.002   0.019  0.00  0.00    +0.000 C 
ATOM      2  C   UNL     1       2.634  -0.005   0.228  0.00  0.00    +0.000 A 
ATOM      3  N   UNL     1       3.220  -1.206   0.074  0.00  0.00    +0.000 NA
ATOM      4  C   UNL     1       4.544  -1.294   0.205  0.00  0.00    +0.000 A 
ATOM      5  N   UNL     1       5.162  -2.527   0.040  0.00  0.00    +0.000 N 
ATOM      6  C   UNL     1       4.477  -3.723   0.059  0.00  0.00    +0.000 C 
ATOM      7  O   UNL     1       3.307  -3.913   0.360  0.00  0.00    +0.000 OA
ATOM      8  N   UNL     1       5.337  -0.246   0.449  0.00  0.00    +0.000 NA
ATOM      9  C   UNL     1       4.749   0.953   0.632  0.00  0.00    +0.000 A 
ATOM     10  C   UNL     1       5.537   2.065   0.925  0.00  0.00    +0.000 A 
ATOM     11  C   UNL     1       4.993   3.342   1.117  0.00  0.00    +0.000 A 
ATOM     12  C   UNL     1       3.621   3.524   1.027  0.00  0.00    +0.000 A 
ATOM     13  C   UNL     1       2.817   2.429   0.744  0.00  0.00    +0.000 A 
ATOM     14  F   UNL     1       1.492   2.629   0.674  0.00  0.00    +0.000 F 
ATOM     15  C   UNL     1       3.363   1.141   0.537  0.00  0.00    +0.000 A 
ATOM     16  H   UNL     1       6.170  -2.523   0.017  0.00  0.00    +0.000 HD
ENDROOT
BRANCH   6  17
ATOM     17  C   UNL     1       5.319  -4.945  -0.230  0.00  0.00    +0.000 A 
ATOM     18  N   UNL     1       6.556  -4.930   0.196  0.00  0.00    +0.000 NA
ATOM     19  N   UNL     1       7.321  -6.061  -0.005  0.00  0.00    +0.000 N 
ATOM     20  C   UNL     1       6.801  -7.218  -0.556  0.00  0.00    +0.000 A 
ATOM     21  C   UNL     1       5.561  -7.354  -1.022  0.00  0.00    +0.000 A 
ATOM     22  C   UNL     1       4.730  -6.150  -0.945  0.00  0.00    +0.000 A 
ATOM     23  O   UNL     1       3.622  -6.127  -1.456  0.00  0.00    +0.000 OA
BRANCH  19  24
ATOM     24  C   UNL     1       8.612  -6.037   0.613  0.00  0.00    +0.000 A 
ATOM     25  C   UNL     1       8.821  -5.299   1.794  0.00  0.00    +0.000 A 
ATOM     26  C   UNL     1      10.054  -5.314   2.454  0.00  0.00    +0.000 A 
ATOM     27  C   UNL     1      11.116  -6.051   1.935  0.00  0.00    +0.000 A 
ATOM     28  C   UNL     1      10.946  -6.766   0.753  0.00  0.00    +0.000 A 
ATOM     29  C   UNL     1       9.710  -6.756   0.106  0.00  0.00    +0.000 A 
ATOM     30  F   UNL     1       9.607  -7.446  -1.042  0.00  0.00    +0.000 F 
ENDBRANCH  19  24
ENDBRANCH   6  17
TORSDOF 2
