REMARK  Name = 
REMARK  7 active torsions:
REMARK  status: ('A' for Active; 'I' for Inactive)
REMARK    1  A    between atoms: C_2  and  C_19
REMARK    2  A    between atoms: N_3  and  C_4
REMARK    3  A    between atoms: C_7  and  O_8
REMARK    4  A    between atoms: O_8  and  C_9
REMARK    5  A    between atoms: C_12  and  C_13
REMARK    6  A    between atoms: C_13  and  O_14
REMARK    7  A    between atoms: N_23  and  C_24
REMARK                            x       y       z     vdW  Elec       q    Type
REMARK                         _______ _______ _______ _____ _____    ______ ____
ROOT
ATOM      1  C   UNL     1       2.083   0.365   2.442  0.00  0.00    +0.000 A 
ATOM      2  C   UNL     1       0.919  -0.348   2.734  0.00  0.00    +0.000 A 
ATOM      3  C   UNL     1       0.295  -0.227   3.975  0.00  0.00    +0.000 A 
ATOM      4  C   UNL     1       0.871   0.547   4.980  0.00  0.00    +0.000 A 
ATOM      5  C   UNL     1       2.035   1.265   4.703  0.00  0.00    +0.000 A 
ATOM      6  C   UNL     1       2.643   1.171   3.443  0.00  0.00    +0.000 A 
ENDROOT
BRANCH   1   9
ATOM      7  O   UNL     1       1.076  -0.752  -0.056  0.00  0.00    +0.000 OA
ATOM      8  C   UNL     1       2.160  -0.190   0.015  0.00  0.00    +0.000 C 
ATOM      9  N   UNL     1       2.707   0.341   1.174  0.00  0.00    +0.000 N 
ATOM     10  H   UNL     1       3.567   0.865   1.082  0.00  0.00    +0.000 HD
BRANCH   8  11
ATOM     11  C   UNL     1       2.966   0.006  -1.165  0.00  0.00    +0.000 A 
ATOM     12  C   UNL     1       4.333  -0.147  -1.321  0.00  0.00    +0.000 A 
ATOM     13  C   UNL     1       4.541  -0.114  -2.705  0.00  0.00    +0.000 A 
ATOM     14  N   UNL     1       3.416   0.070  -3.383  0.00  0.00    +0.000 NA
ATOM     15  N   UNL     1       2.454   0.243  -2.434  0.00  0.00    +0.000 N 
BRANCH  15  16
ATOM     16  C   UNL     1       1.165   0.692  -2.823  0.00  0.00    +0.000 A 
ATOM     17  C   UNL     1       0.325   1.410  -1.968  0.00  0.00    +0.000 A 
ATOM     18  C   UNL     1      -0.924   1.828  -2.427  0.00  0.00    +0.000 A 
ATOM     19  C   UNL     1      -1.288   1.514  -3.725  0.00  0.00    +0.000 A 
ATOM     20  N   UNL     1      -0.494   0.841  -4.584  0.00  0.00    +0.000 NA
ATOM     21  C   UNL     1       0.720   0.452  -4.118  0.00  0.00    +0.000 A 
ENDBRANCH  15  16
ENDBRANCH   8  11
ENDBRANCH   1   9
BRANCH   4  22
ATOM     22  O   UNL     1       0.337   0.694   6.242  0.00  0.00    +0.000 OA
BRANCH  22  23
ATOM     23  C   UNL     1      -0.388  -0.340   6.794  0.00  0.00    +0.000 A 
ATOM     24  C   UNL     1      -0.068  -1.690   6.623  0.00  0.00    +0.000 A 
ATOM     25  C   UNL     1      -0.885  -2.683   7.168  0.00  0.00    +0.000 A 
ATOM     26  C   UNL     1      -1.998  -2.338   7.944  0.00  0.00    +0.000 A 
ATOM     27  C   UNL     1      -2.267  -0.981   8.179  0.00  0.00    +0.000 A 
ATOM     28  C   UNL     1      -1.468   0.013   7.603  0.00  0.00    +0.000 A 
BRANCH  26  29
ATOM     29  C   UNL     1      -2.901  -3.405   8.505  0.00  0.00    +0.000 C 
BRANCH  29  30
ATOM     30  O   UNL     1      -2.861  -3.397   9.924  0.00  0.00    +0.000 OA
ATOM     31  H   UNL     1      -1.928  -3.303  10.180  0.00  0.00    +0.000 HD
ENDBRANCH  29  30
ENDBRANCH  26  29
ENDBRANCH  22  23
ENDBRANCH   4  22
TORSDOF 7
