REMARK  Name = 
REMARK  6 active torsions:
REMARK  status: ('A' for Active; 'I' for Inactive)
REMARK    1  A    between atoms: C_2  and  C_3
REMARK    2  A    between atoms: C_6  and  C_7
REMARK    3  A    between atoms: N_9  and  C_10
REMARK    4  A    between atoms: C_10  and  C_11
REMARK    5  A    between atoms: C_13  and  O_14
REMARK    6  A    between atoms: O_14  and  C_15
REMARK                            x       y       z     vdW  Elec       q    Type
REMARK                         _______ _______ _______ _____ _____    ______ ____
ROOT
ATOM      1  C   UNL     1       7.573  -3.711   1.275  0.00  0.00    +0.000 C 
ATOM      2  O   UNL     1       7.535  -4.209   2.395  0.00  0.00    +0.000 OA
ATOM      3  N   UNL     1       7.504  -4.492   0.141  0.00  0.00    +0.000 N 
ATOM      4  H   UNL     1       7.766  -4.104  -0.751  0.00  0.00    +0.000 HD
ENDROOT
BRANCH   1   8
ATOM      5  C   UNL     1       7.863  -0.254   4.133  0.00  0.00    +0.000 A 
ATOM      6  C   UNL     1       7.784  -1.381   3.398  0.00  0.00    +0.000 A 
ATOM      7  N   UNL     1       7.747  -1.298   2.006  0.00  0.00    +0.000 N 
ATOM      8  C   UNL     1       7.665  -2.289   1.036  0.00  0.00    +0.000 A 
ATOM      9  C   UNL     1       7.666  -1.585  -0.156  0.00  0.00    +0.000 A 
ATOM     10  N   UNL     1       7.742  -0.233   0.032  0.00  0.00    +0.000 NA
ATOM     11  C   UNL     1       7.789  -0.074   1.333  0.00  0.00    +0.000 A 
ATOM     12  C   UNL     1       7.871   1.114   2.116  0.00  0.00    +0.000 A 
ATOM     13  C   UNL     1       7.906   1.036   3.457  0.00  0.00    +0.000 A 
BRANCH   5  15
ATOM     14  N   UNL     1       7.947  -0.409   6.908  0.00  0.00    +0.000 NA
ATOM     15  C   UNL     1       7.909  -0.339   5.649  0.00  0.00    +0.000 C 
ENDBRANCH   5  15
ENDBRANCH   1   8
BRANCH   3  16
ATOM     16  C   UNL     1       7.476  -5.936   0.214  0.00  0.00    +0.000 C 
BRANCH  16  17
ATOM     17  C   UNL     1       8.850  -6.577   0.219  0.00  0.00    +0.000 A 
ATOM     18  C   UNL     1       8.994  -7.834   0.799  0.00  0.00    +0.000 A 
ATOM     19  C   UNL     1      10.204  -8.512   0.659  0.00  0.00    +0.000 A 
ATOM     20  C   UNL     1      11.273  -7.872   0.046  0.00  0.00    +0.000 A 
ATOM     21  C   UNL     1      11.055  -6.610  -0.482  0.00  0.00    +0.000 A 
ATOM     22  N   UNL     1       9.866  -5.965  -0.443  0.00  0.00    +0.000 NA
BRANCH  19  23
ATOM     23  O   UNL     1      10.429  -9.794   1.118  0.00  0.00    +0.000 OA
BRANCH  23  24
ATOM     24  C   UNL     1       9.373 -10.682   1.147  0.00  0.00    +0.000 A 
ATOM     25  C   UNL     1       8.389 -10.742   0.156  0.00  0.00    +0.000 A 
ATOM     26  C   UNL     1       7.303 -11.590   0.325  0.00  0.00    +0.000 A 
ATOM     27  F   UNL     1       6.311 -11.570  -0.575  0.00  0.00    +0.000 F 
ATOM     28  C   UNL     1       7.216 -12.437   1.424  0.00  0.00    +0.000 A 
ATOM     29  C   UNL     1       8.246 -12.448   2.364  0.00  0.00    +0.000 A 
ATOM     30  C   UNL     1       9.325 -11.569   2.226  0.00  0.00    +0.000 A 
ENDBRANCH  23  24
ENDBRANCH  19  23
ENDBRANCH  16  17
ENDBRANCH   3  16
TORSDOF 6
