REMARK  Name = 
REMARK  6 active torsions:
REMARK  status: ('A' for Active; 'I' for Inactive)
REMARK    1  A    between atoms: C_1  and  C_2
REMARK    2  A    between atoms: C_4  and  C_5
REMARK    3  A    between atoms: N_7  and  C_8
REMARK    4  A    between atoms: C_11  and  C_12
REMARK    5  A    between atoms: N_21  and  C_22
REMARK    6  A    between atoms: C_26  and  C_27
REMARK                            x       y       z     vdW  Elec       q    Type
REMARK                         _______ _______ _______ _____ _____    ______ ____
ROOT
ATOM      1  C   UNL     1       5.817   1.365  -0.024  0.00  0.00    +0.000 C 
ATOM      2  O   UNL     1       6.859   0.722  -0.147  0.00  0.00    +0.000 OA
ATOM      3  N   UNL     1       5.768   2.753   0.136  0.00  0.00    +0.000 N 
ATOM      4  H   UNL     1       4.890   3.140   0.458  0.00  0.00    +0.000 HD
ENDROOT
BRANCH   1   8
ATOM      5  C   UNL     1       2.034  -2.085   0.075  0.00  0.00    +0.000 C 
ATOM      6  C   UNL     1       2.889  -0.875   0.167  0.00  0.00    +0.000 A 
ATOM      7  C   UNL     1       4.250  -0.728  -0.034  0.00  0.00    +0.000 A 
ATOM      8  C   UNL     1       4.510   0.670   0.044  0.00  0.00    +0.000 A 
ATOM      9  N   UNL     1       3.354   1.352   0.185  0.00  0.00    +0.000 NA
ATOM     10  N   UNL     1       2.404   0.403   0.377  0.00  0.00    +0.000 N 
BRANCH  10  11
ATOM     11  C   UNL     1       1.076   0.785   0.708  0.00  0.00    +0.000 A 
ATOM     12  C   UNL     1       0.274  -0.042   1.502  0.00  0.00    +0.000 A 
ATOM     13  C   UNL     1      -1.049   0.306   1.768  0.00  0.00    +0.000 A 
ATOM     14  C   UNL     1      -1.576   1.478   1.230  0.00  0.00    +0.000 A 
ATOM     15  C   UNL     1      -0.774   2.326   0.453  0.00  0.00    +0.000 A 
ATOM     16  C   UNL     1       0.566   1.993   0.215  0.00  0.00    +0.000 A 
BRANCH  15  17
ATOM     17  C   UNL     1      -1.336   3.507  -0.117  0.00  0.00    +0.000 C 
ATOM     18  N   UNL     1      -1.812   4.467  -0.593  0.00  0.00    +0.000 NA
ENDBRANCH  15  17
ENDBRANCH  10  11
ENDBRANCH   1   8
BRANCH   3  19
ATOM     19  C   UNL     1       6.911   3.591   0.125  0.00  0.00    +0.000 A 
ATOM     20  C   UNL     1       8.135   3.188  -0.397  0.00  0.00    +0.000 A 
ATOM     21  C   UNL     1       9.238   4.035  -0.332  0.00  0.00    +0.000 A 
ATOM     22  C   UNL     1       9.106   5.287   0.261  0.00  0.00    +0.000 A 
ATOM     23  N   UNL     1       7.918   5.721   0.749  0.00  0.00    +0.000 NA
ATOM     24  C   UNL     1       6.856   4.874   0.662  0.00  0.00    +0.000 A 
BRANCH  22  25
ATOM     25  C   UNL     1      10.251   6.207   0.370  0.00  0.00    +0.000 A 
ATOM     26  C   UNL     1      10.068   7.595   0.371  0.00  0.00    +0.000 A 
ATOM     27  C   UNL     1      11.179   8.422   0.416  0.00  0.00    +0.000 A 
ATOM     28  N   UNL     1      12.448   7.970   0.464  0.00  0.00    +0.000 NA
ATOM     29  C   UNL     1      12.614   6.633   0.479  0.00  0.00    +0.000 A 
ATOM     30  C   UNL     1      11.566   5.728   0.441  0.00  0.00    +0.000 A 
ENDBRANCH  22  25
ENDBRANCH   3  19
TORSDOF 5
