REMARK  Name = 
REMARK  6 active torsions:
REMARK  status: ('A' for Active; 'I' for Inactive)
REMARK    1  A    between atoms: C_2  and  C_19
REMARK    2  A    between atoms: N_3  and  C_4
REMARK    3  A    between atoms: C_9  and  C_10
REMARK    4  A    between atoms: C_10  and  O_11
REMARK    5  A    between atoms: O_11  and  C_12
REMARK    6  A    between atoms: C_12  and  C_13
REMARK                            x       y       z     vdW  Elec       q    Type
REMARK                         _______ _______ _______ _____ _____    ______ ____
ROOT
ATOM      1  O   UNL     1       0.981  -0.613   0.688  0.00  0.00    +0.000 OA
ATOM      2  C   UNL     1       2.087  -0.233   0.317  0.00  0.00    +0.000 C 
ATOM      3  N   UNL     1       2.725   0.927   0.710  0.00  0.00    +0.000 N 
ATOM      4  H   UNL     1       3.554   1.178   0.179  0.00  0.00    +0.000 HD
ENDROOT
BRANCH   2   5
ATOM      5  C   UNL     1       2.865  -1.058  -0.695  0.00  0.00    +0.000 A 
ATOM      6  C   UNL     1       2.187  -2.093  -1.200  0.00  0.00    +0.000 A 
ATOM      7  C   UNL     1       2.848  -2.964  -2.171  0.00  0.00    +0.000 A 
ATOM      8  O   UNL     1       2.219  -3.909  -2.645  0.00  0.00    +0.000 OA
ATOM      9  N   UNL     1       4.159  -2.636  -2.471  0.00  0.00    +0.000 N 
ATOM     10  C   UNL     1       4.851  -3.418  -3.390  0.00  0.00    +0.000 A 
ATOM     11  C   UNL     1       6.123  -3.164  -3.718  0.00  0.00    +0.000 A 
ATOM     12  C   UNL     1       6.810  -2.061  -3.102  0.00  0.00    +0.000 A 
ATOM     13  C   UNL     1       6.183  -1.275  -2.217  0.00  0.00    +0.000 A 
ATOM     14  C   UNL     1       4.759  -1.537  -1.857  0.00  0.00    +0.000 A 
ATOM     15  N   UNL     1       4.168  -0.749  -1.007  0.00  0.00    +0.000 NA
ENDBRANCH   2   5
BRANCH   3  16
ATOM     16  C   UNL     1       2.263   1.839   1.702  0.00  0.00    +0.000 A 
ATOM     17  C   UNL     1       1.214   1.503   2.571  0.00  0.00    +0.000 A 
ATOM     18  C   UNL     1       0.748   2.391   3.542  0.00  0.00    +0.000 A 
ATOM     19  C   UNL     1       1.345   3.632   3.690  0.00  0.00    +0.000 A 
ATOM     20  C   UNL     1       2.395   3.989   2.849  0.00  0.00    +0.000 A 
ATOM     21  C   UNL     1       2.853   3.115   1.837  0.00  0.00    +0.000 A 
BRANCH  21  22
ATOM     22  C   UNL     1       3.897   3.651   0.882  0.00  0.00    +0.000 C 
BRANCH  22  23
ATOM     23  O   UNL     1       3.458   3.621  -0.478  0.00  0.00    +0.000 OA
BRANCH  23  24
ATOM     24  C   UNL     1       2.339   4.480  -0.712  0.00  0.00    +0.000 C 
BRANCH  24  25
ATOM     25  C   UNL     1       2.009   4.481  -2.181  0.00  0.00    +0.000 A 
ATOM     26  C   UNL     1       0.800   3.938  -2.641  0.00  0.00    +0.000 A 
ATOM     27  C   UNL     1       0.486   3.961  -4.001  0.00  0.00    +0.000 A 
ATOM     28  C   UNL     1       1.376   4.524  -4.913  0.00  0.00    +0.000 A 
ATOM     29  C   UNL     1       2.582   5.062  -4.468  0.00  0.00    +0.000 A 
ATOM     30  C   UNL     1       2.898   5.039  -3.108  0.00  0.00    +0.000 A 
ENDBRANCH  24  25
ENDBRANCH  23  24
ENDBRANCH  22  23
ENDBRANCH  21  22
ENDBRANCH   3  16
TORSDOF 6
