REMARK  Name = 
REMARK  4 active torsions:
REMARK  status: ('A' for Active; 'I' for Inactive)
REMARK    1  A    between atoms: C_1  and  C_2
REMARK    2  A    between atoms: N_4  and  C_5
REMARK    3  A    between atoms: C_15  and  C_17
REMARK    4  A    between atoms: N_19  and  C_20
REMARK                            x       y       z     vdW  Elec       q    Type
REMARK                         _______ _______ _______ _____ _____    ______ ____
ROOT
ATOM      1  C   UNL     1       5.679  -1.229   0.034  0.00  0.00    +0.000 C 
ATOM      2  C   UNL     1       4.409  -0.474  -0.082  0.00  0.00    +0.000 A 
ATOM      3  C   UNL     1       4.309   0.897  -0.170  0.00  0.00    +0.000 A 
ATOM      4  N   UNL     1       2.975   1.213  -0.212  0.00  0.00    +0.000 N 
ATOM      5  N   UNL     1       2.214   0.101  -0.171  0.00  0.00    +0.000 NA
ATOM      6  C   UNL     1       3.060  -0.928  -0.115  0.00  0.00    +0.000 A 
ATOM      7  N   UNL     1       2.658  -2.252  -0.109  0.00  0.00    +0.000 N 
ATOM      8  C   UNL     1       1.339  -2.670  -0.114  0.00  0.00    +0.000 C 
ATOM      9  O   UNL     1       0.336  -1.969  -0.015  0.00  0.00    +0.000 OA
ATOM     10  H   UNL     1       3.377  -2.963  -0.143  0.00  0.00    +0.000 HD
ENDROOT
BRANCH   4  11
ATOM     11  C   UNL     1       2.395   2.510  -0.265  0.00  0.00    +0.000 A 
ATOM     12  C   UNL     1       3.204   3.650  -0.405  0.00  0.00    +0.000 A 
ATOM     13  C   UNL     1       2.628   4.920  -0.414  0.00  0.00    +0.000 A 
ATOM     14  C   UNL     1       1.251   5.054  -0.286  0.00  0.00    +0.000 A 
ATOM     15  F   UNL     1       0.707   6.278  -0.278  0.00  0.00    +0.000 F 
ATOM     16  C   UNL     1       0.433   3.937  -0.163  0.00  0.00    +0.000 A 
ATOM     17  C   UNL     1       1.002   2.659  -0.159  0.00  0.00    +0.000 A 
ENDBRANCH   4  11
BRANCH   8  18
ATOM     18  C   UNL     1       1.196  -4.117  -0.251  0.00  0.00    +0.000 A 
ATOM     19  C   UNL     1       0.019  -4.839  -0.268  0.00  0.00    +0.000 A 
ATOM     20  N   UNL     1       0.387  -6.148  -0.481  0.00  0.00    +0.000 N 
ATOM     21  N   UNL     1       1.745  -6.205  -0.541  0.00  0.00    +0.000 NA
ATOM     22  N   UNL     1       2.242  -4.982  -0.410  0.00  0.00    +0.000 NA
BRANCH  20  23
ATOM     23  C   UNL     1      -0.424  -7.301  -0.632  0.00  0.00    +0.000 A 
ATOM     24  C   UNL     1      -1.819  -7.234  -0.561  0.00  0.00    +0.000 A 
ATOM     25  F   UNL     1      -2.465  -6.083  -0.344  0.00  0.00    +0.000 F 
ATOM     26  C   UNL     1      -2.609  -8.378  -0.716  0.00  0.00    +0.000 A 
ATOM     27  C   UNL     1      -2.016  -9.617  -0.947  0.00  0.00    +0.000 A 
ATOM     28  C   UNL     1      -0.629  -9.701  -1.022  0.00  0.00    +0.000 A 
ATOM     29  C   UNL     1       0.156  -8.554  -0.866  0.00  0.00    +0.000 A 
ATOM     30  F   UNL     1       1.482  -8.718  -0.958  0.00  0.00    +0.000 F 
ENDBRANCH  20  23
ENDBRANCH   8  18
TORSDOF 3
