REMARK  Name = 
REMARK  4 active torsions:
REMARK  status: ('A' for Active; 'I' for Inactive)
REMARK    1  A    between atoms: C_2  and  C_15
REMARK    2  A    between atoms: N_3  and  C_4
REMARK    3  A    between atoms: C_18  and  O_19
REMARK    4  A    between atoms: O_19  and  C_20
REMARK                            x       y       z     vdW  Elec       q    Type
REMARK                         _______ _______ _______ _____ _____    ______ ____
ROOT
ATOM      1  O   UNL     1       1.043  -0.110   0.127  0.00  0.00    +0.000 OA
ATOM      2  C   UNL     1       2.253   0.079   0.055  0.00  0.00    +0.000 C 
ATOM      3  N   UNL     1       2.921   0.649  -1.022  0.00  0.00    +0.000 N 
ATOM      4  H   UNL     1       3.922   0.512  -1.061  0.00  0.00    +0.000 HD
ENDROOT
BRANCH   3   5
ATOM      5  C   UNL     1       2.295   1.191  -2.144  0.00  0.00    +0.000 A 
ATOM      6  C   UNL     1       1.032   1.655  -2.103  0.00  0.00    +0.000 A 
ATOM      7  C   UNL     1       0.332   2.209  -3.279  0.00  0.00    +0.000 A 
ATOM      8  O   UNL     1      -0.817   2.630  -3.197  0.00  0.00    +0.000 OA
ATOM      9  N   UNL     1       1.030   2.231  -4.451  0.00  0.00    +0.000 N 
ATOM     10  C   UNL     1       2.352   1.785  -4.566  0.00  0.00    +0.000 A 
ATOM     11  C   UNL     1       2.972   1.856  -5.812  0.00  0.00    +0.000 A 
ATOM     12  C   UNL     1       4.271   1.403  -5.905  0.00  0.00    +0.000 A 
ATOM     13  N   UNL     1       4.960   0.898  -4.861  0.00  0.00    +0.000 NA
ATOM     14  C   UNL     1       4.319   0.842  -3.665  0.00  0.00    +0.000 A 
ATOM     15  C   UNL     1       3.018   1.278  -3.439  0.00  0.00    +0.000 A 
ATOM     16  H   UNL     1       0.530   2.598  -5.249  0.00  0.00    +0.000 HD
ENDBRANCH   3   5
BRANCH   2  17
ATOM     17  C   UNL     1       3.070  -0.406   1.186  0.00  0.00    +0.000 A 
ATOM     18  C   UNL     1       2.679  -1.570   1.857  0.00  0.00    +0.000 A 
ATOM     19  C   UNL     1       3.386  -1.990   2.981  0.00  0.00    +0.000 A 
ATOM     20  C   UNL     1       4.468  -1.229   3.389  0.00  0.00    +0.000 A 
ATOM     21  N   UNL     1       4.853  -0.082   2.771  0.00  0.00    +0.000 NA
ATOM     22  C   UNL     1       4.147   0.306   1.684  0.00  0.00    +0.000 A 
BRANCH  20  23
ATOM     23  O   UNL     1       5.171  -1.686   4.498  0.00  0.00    +0.000 OA
BRANCH  23  24
ATOM     24  C   UNL     1       6.504  -1.351   4.569  0.00  0.00    +0.000 A 
ATOM     25  C   UNL     1       7.013  -0.992   5.819  0.00  0.00    +0.000 A 
ATOM     26  C   UNL     1       8.349  -0.604   5.934  0.00  0.00    +0.000 A 
ATOM     27  C   UNL     1       9.162  -0.591   4.804  0.00  0.00    +0.000 A 
ATOM     28  F   UNL     1      10.433  -0.183   4.908  0.00  0.00    +0.000 F 
ATOM     29  C   UNL     1       8.676  -0.996   3.567  0.00  0.00    +0.000 A 
ATOM     30  C   UNL     1       7.350  -1.404   3.454  0.00  0.00    +0.000 A 
ENDBRANCH  23  24
ENDBRANCH  20  23
ENDBRANCH   2  17
TORSDOF 4
