REMARK  Name = 
REMARK  7 active torsions:
REMARK  status: ('A' for Active; 'I' for Inactive)
REMARK    1  A    between atoms: C_1  and  C_2
REMARK    2  A    between atoms: C_2  and  N_3
REMARK    3  A    between atoms: C_2  and  C_19
REMARK    4  A    between atoms: C_4  and  C_6
REMARK    5  A    between atoms: C_10  and  C_11
REMARK    6  A    between atoms: C_11  and  C_12
REMARK    7  A    between atoms: N_21  and  C_22
REMARK                            x       y       z     vdW  Elec       q    Type
REMARK                         _______ _______ _______ _____ _____    ______ ____
ROOT
ATOM      1  N   UNL     1       2.994  -0.221   1.381  0.00  0.00    +0.000 N 
ATOM      2  C   UNL     1       2.841   0.745   2.351  0.00  0.00    +0.000 C 
ATOM      3  O   UNL     1       2.295   1.824   2.147  0.00  0.00    +0.000 OA
ATOM      4  H   UNL     1       3.303  -1.153   1.631  0.00  0.00    +0.000 HD
ENDROOT
BRANCH   2   5
ATOM      5  C   UNL     1       3.362   0.433   3.707  0.00  0.00    +0.000 A 
ATOM      6  C   UNL     1       4.515  -0.333   3.900  0.00  0.00    +0.000 A 
ATOM      7  C   UNL     1       5.032  -0.495   5.188  0.00  0.00    +0.000 A 
ATOM      8  C   UNL     1       4.415   0.120   6.279  0.00  0.00    +0.000 A 
ATOM      9  C   UNL     1       3.257   0.890   6.100  0.00  0.00    +0.000 A 
ATOM     10  C   UNL     1       2.728   1.025   4.808  0.00  0.00    +0.000 A 
BRANCH   9  11
ATOM     11  C   UNL     1       2.656   1.659   7.259  0.00  0.00    +0.000 C 
BRANCH  11  12
ATOM     12  C   UNL     1       3.266   3.035   7.437  0.00  0.00    +0.000 A 
ATOM     13  C   UNL     1       3.129   4.007   6.444  0.00  0.00    +0.000 A 
ATOM     14  C   UNL     1       3.756   5.238   6.607  0.00  0.00    +0.000 A 
ATOM     15  C   UNL     1       4.484   5.479   7.763  0.00  0.00    +0.000 A 
ATOM     16  C   UNL     1       4.549   4.476   8.715  0.00  0.00    +0.000 A 
ATOM     17  N   UNL     1       3.962   3.265   8.579  0.00  0.00    +0.000 NA
ENDBRANCH  11  12
ENDBRANCH   9  11
ENDBRANCH   2   5
BRANCH   1  19
ATOM     18  C   UNL     1       0.977   0.070  -0.035  0.00  0.00    +0.000 C 
ATOM     19  C   UNL     1       2.504  -0.014   0.028  0.00  0.00    +0.000 C 
BRANCH  19  20
ATOM     20  C   UNL     1       2.982  -1.131  -0.846  0.00  0.00    +0.000 A 
ATOM     21  C   UNL     1       3.372  -1.101  -2.169  0.00  0.00    +0.000 A 
ATOM     22  N   UNL     1       3.518  -2.422  -2.528  0.00  0.00    +0.000 N 
ATOM     23  N   UNL     1       3.316  -3.205  -1.439  0.00  0.00    +0.000 NA
ATOM     24  N   UNL     1       2.982  -2.431  -0.416  0.00  0.00    +0.000 NA
BRANCH  22  25
ATOM     25  C   UNL     1       3.794  -2.971  -3.809  0.00  0.00    +0.000 A 
ATOM     26  C   UNL     1       4.046  -2.140  -4.912  0.00  0.00    +0.000 A 
ATOM     27  C   UNL     1       4.306  -2.704  -6.165  0.00  0.00    +0.000 A 
ATOM     28  C   UNL     1       4.310  -4.086  -6.314  0.00  0.00    +0.000 A 
ATOM     29  F   UNL     1       4.561  -4.619  -7.518  0.00  0.00    +0.000 F 
ATOM     30  C   UNL     1       4.052  -4.921  -5.235  0.00  0.00    +0.000 A 
ATOM     31  C   UNL     1       3.795  -4.367  -3.978  0.00  0.00    +0.000 A 
ENDBRANCH  22  25
ENDBRANCH  19  20
ENDBRANCH   1  19
TORSDOF 6
