REMARK  Name = 
REMARK  6 active torsions:
REMARK  status: ('A' for Active; 'I' for Inactive)
REMARK    1  A    between atoms: C_1  and  O_2
REMARK    2  A    between atoms: O_2  and  C_3
REMARK    3  A    between atoms: C_8  and  C_9
REMARK    4  A    between atoms: N_11  and  C_12
REMARK    5  A    between atoms: C_12  and  C_13
REMARK    6  A    between atoms: C_16  and  C_17
REMARK                            x       y       z     vdW  Elec       q    Type
REMARK                         _______ _______ _______ _____ _____    ______ ____
ROOT
ATOM      1  C   UNL     1       7.197  -4.226   4.244  0.00  0.00    +0.000 C 
ATOM      2  O   UNL     1       6.870  -5.406   4.233  0.00  0.00    +0.000 OA
ATOM      3  N   UNL     1       8.267  -3.746   4.969  0.00  0.00    +0.000 N 
ATOM      4  H   UNL     1       8.453  -2.750   4.925  0.00  0.00    +0.000 HD
ENDROOT
BRANCH   1  10
ATOM      5  C   UNL     1       4.791   1.070   1.478  0.00  0.00    +0.000 A 
ATOM      6  C   UNL     1       4.348  -0.253   1.422  0.00  0.00    +0.000 A 
ATOM      7  C   UNL     1       5.035  -1.273   2.109  0.00  0.00    +0.000 A 
ATOM      8  C   UNL     1       4.613  -2.607   2.045  0.00  0.00    +0.000 A 
ATOM      9  C   UNL     1       5.321  -3.585   2.734  0.00  0.00    +0.000 A 
ATOM     10  C   UNL     1       6.427  -3.194   3.472  0.00  0.00    +0.000 A 
ATOM     11  N   UNL     1       6.869  -1.908   3.558  0.00  0.00    +0.000 NA
ATOM     12  C   UNL     1       6.178  -0.970   2.882  0.00  0.00    +0.000 A 
ATOM     13  C   UNL     1       6.596   0.348   2.935  0.00  0.00    +0.000 A 
ATOM     14  C   UNL     1       5.920   1.355   2.243  0.00  0.00    +0.000 A 
ATOM     15  F   UNL     1       6.401   2.602   2.345  0.00  0.00    +0.000 F 
BRANCH   5  17
ATOM     16  C   UNL     1       4.474   3.303   0.717  0.00  0.00    +0.000 C 
ATOM     17  O   UNL     1       4.039   1.948   0.748  0.00  0.00    +0.000 OA
ENDBRANCH   5  17
ENDBRANCH   1  10
BRANCH   3  18
ATOM     18  C   UNL     1       9.090  -4.603   5.804  0.00  0.00    +0.000 C 
BRANCH  18  19
ATOM     19  C   UNL     1       8.599  -4.723   7.227  0.00  0.00    +0.000 A 
ATOM     20  C   UNL     1       7.371  -5.301   7.529  0.00  0.00    +0.000 A 
ATOM     21  N   UNL     1       6.872  -5.378   8.792  0.00  0.00    +0.000 NA
ATOM     22  C   UNL     1       7.643  -4.861   9.783  0.00  0.00    +0.000 A 
ATOM     23  C   UNL     1       8.903  -4.348   9.478  0.00  0.00    +0.000 A 
ATOM     24  N   UNL     1       9.402  -4.255   8.216  0.00  0.00    +0.000 NA
BRANCH  22  25
ATOM     25  C   UNL     1       7.050  -4.819  11.136  0.00  0.00    +0.000 A 
ATOM     26  C   UNL     1       6.072  -5.750  11.535  0.00  0.00    +0.000 A 
ATOM     27  C   UNL     1       5.468  -5.682  12.797  0.00  0.00    +0.000 A 
ATOM     28  C   UNL     1       5.828  -4.677  13.690  0.00  0.00    +0.000 A 
ATOM     29  C   UNL     1       6.793  -3.745  13.325  0.00  0.00    +0.000 A 
ATOM     30  C   UNL     1       7.394  -3.816  12.064  0.00  0.00    +0.000 A 
ENDBRANCH  22  25
ENDBRANCH  18  19
ENDBRANCH   3  18
TORSDOF 5
