REMARK  Name = 
REMARK  6 active torsions:
REMARK  status: ('A' for Active; 'I' for Inactive)
REMARK    1  A    between atoms: C_1  and  O_2
REMARK    2  A    between atoms: O_2  and  C_3
REMARK    3  A    between atoms: C_6  and  C_7
REMARK    4  A    between atoms: C_10  and  C_11
REMARK    5  A    between atoms: N_13  and  C_14
REMARK    6  A    between atoms: N_18  and  C_19
REMARK                            x       y       z     vdW  Elec       q    Type
REMARK                         _______ _______ _______ _____ _____    ______ ____
ROOT
ATOM      1  C   UNL     1       7.421   4.421   7.362  0.00  0.00    +0.000 C 
ATOM      2  O   UNL     1       7.815   5.565   7.140  0.00  0.00    +0.000 OA
ATOM      3  N   UNL     1       7.636   3.785   8.564  0.00  0.00    +0.000 N 
ATOM      4  H   UNL     1       7.447   2.789   8.633  0.00  0.00    +0.000 HD
ENDROOT
BRANCH   1   8
ATOM      5  C   UNL     1       5.274   2.396   4.190  0.00  0.00    +0.000 A 
ATOM      6  C   UNL     1       5.728   3.723   4.066  0.00  0.00    +0.000 A 
ATOM      7  C   UNL     1       6.408   4.366   5.106  0.00  0.00    +0.000 A 
ATOM      8  C   UNL     1       6.678   3.693   6.303  0.00  0.00    +0.000 A 
ATOM      9  C   UNL     1       6.231   2.383   6.439  0.00  0.00    +0.000 A 
ATOM     10  F   UNL     1       6.453   1.691   7.570  0.00  0.00    +0.000 F 
ATOM     11  C   UNL     1       5.536   1.745   5.407  0.00  0.00    +0.000 A 
BRANCH   5  15
ATOM     12  C   UNL     1       3.139   0.499   0.939  0.00  0.00    +0.000 A 
ATOM     13  C   UNL     1       3.028   1.868   1.162  0.00  0.00    +0.000 A 
ATOM     14  C   UNL     1       3.713   2.471   2.224  0.00  0.00    +0.000 A 
ATOM     15  C   UNL     1       4.546   1.731   3.084  0.00  0.00    +0.000 A 
ATOM     16  C   UNL     1       4.643   0.353   2.827  0.00  0.00    +0.000 A 
ATOM     17  F   UNL     1       5.428  -0.430   3.584  0.00  0.00    +0.000 F 
ATOM     18  C   UNL     1       3.951  -0.257   1.780  0.00  0.00    +0.000 A 
BRANCH  12  20
ATOM     19  C   UNL     1       1.660   0.547  -0.912  0.00  0.00    +0.000 C 
ATOM     20  O   UNL     1       2.512  -0.201  -0.052  0.00  0.00    +0.000 OA
ENDBRANCH  12  20
ENDBRANCH   5  15
ENDBRANCH   1   8
BRANCH   3  21
ATOM     21  C   UNL     1       8.419   4.418   9.629  0.00  0.00    +0.000 C 
ATOM     22  C   UNL     1       7.737   5.646  10.211  0.00  0.00    +0.000 C 
ATOM     23  C   UNL     1       6.539   5.216  11.027  0.00  0.00    +0.000 C 
ATOM     24  C   UNL     1       7.008   4.343  12.174  0.00  0.00    +0.000 C 
ATOM     25  N   UNL     1       7.890   3.230  11.795  0.00  0.00    +0.000 N 
ATOM     26  C   UNL     1       8.771   3.362  10.701  0.00  0.00    +0.000 C 
ATOM     27  O   UNL     1       9.725   2.612  10.473  0.00  0.00    +0.000 OA
BRANCH  25  28
ATOM     28  C   UNL     1       8.014   2.140  12.748  0.00  0.00    +0.000 A 
ATOM     29  C   UNL     1       8.685   0.948  12.457  0.00  0.00    +0.000 A 
ATOM     30  C   UNL     1       8.761  -0.086  13.395  0.00  0.00    +0.000 A 
ATOM     31  C   UNL     1       8.146   0.084  14.620  0.00  0.00    +0.000 A 
ATOM     32  N   UNL     1       7.479   1.201  14.958  0.00  0.00    +0.000 NA
ATOM     33  C   UNL     1       7.435   2.188  14.024  0.00  0.00    +0.000 A 
ENDBRANCH  25  28
ENDBRANCH   3  21
TORSDOF 5
