REMARK  Name = 
REMARK  6 active torsions:
REMARK  status: ('A' for Active; 'I' for Inactive)
REMARK    1  A    between atoms: C_2  and  C_3
REMARK    2  A    between atoms: C_6  and  O_7
REMARK    3  A    between atoms: O_7  and  C_8
REMARK    4  A    between atoms: C_11  and  N_12
REMARK    5  A    between atoms: C_13  and  C_15
REMARK    6  A    between atoms: C_18  and  O_19
REMARK                            x       y       z     vdW  Elec       q    Type
REMARK                         _______ _______ _______ _____ _____    ______ ____
ROOT
ATOM      1  N   UNL     1       6.450  -4.934   0.279  0.00  0.00    +0.000 N 
ATOM      2  C   UNL     1       6.376  -5.959  -0.651  0.00  0.00    +0.000 C 
ATOM      3  O   UNL     1       5.764  -5.909  -1.713  0.00  0.00    +0.000 OA
ATOM      4  H   UNL     1       7.054  -5.051   1.084  0.00  0.00    +0.000 HD
ENDROOT
BRANCH   2   5
ATOM      5  C   UNL     1       7.127  -7.213  -0.380  0.00  0.00    +0.000 A 
ATOM      6  C   UNL     1       7.655  -7.842  -1.511  0.00  0.00    +0.000 A 
ATOM      7  N   UNL     1       8.338  -9.010  -1.498  0.00  0.00    +0.000 NA
ATOM      8  C   UNL     1       8.509  -9.566  -0.293  0.00  0.00    +0.000 A 
ATOM      9  C   UNL     1       8.053  -9.046   0.921  0.00  0.00    +0.000 A 
ATOM     10  C   UNL     1       8.296  -9.683   2.149  0.00  0.00    +0.000 A 
ATOM     11  C   UNL     1       7.791  -9.120   3.303  0.00  0.00    +0.000 A 
ATOM     12  N   UNL     1       7.029  -8.011   3.310  0.00  0.00    +0.000 NA
ATOM     13  C   UNL     1       6.782  -7.427   2.113  0.00  0.00    +0.000 A 
ATOM     14  C   UNL     1       7.306  -7.846   0.878  0.00  0.00    +0.000 A 
BRANCH   8  15
ATOM     15  O   UNL     1       9.165 -10.754  -0.355  0.00  0.00    +0.000 OA
ATOM     16  H   UNL     1       9.266 -10.842  -1.321  0.00  0.00    +0.000 HD
ENDBRANCH   8  15
ENDBRANCH   2   5
BRANCH   1  20
ATOM     17  C   UNL     1       4.513  -1.230   0.252  0.00  0.00    +0.000 A 
ATOM     18  C   UNL     1       4.364  -2.026  -0.870  0.00  0.00    +0.000 A 
ATOM     19  C   UNL     1       5.005  -3.269  -0.890  0.00  0.00    +0.000 A 
ATOM     20  C   UNL     1       5.785  -3.682   0.191  0.00  0.00    +0.000 A 
ATOM     21  C   UNL     1       5.899  -2.782   1.249  0.00  0.00    +0.000 A 
ATOM     22  N   UNL     1       5.301  -1.569   1.298  0.00  0.00    +0.000 NA
BRANCH  17  23
ATOM     23  O   UNL     1       3.779  -0.050   0.313  0.00  0.00    +0.000 OA
BRANCH  23  27
ATOM     24  C   UNL     1       2.191   1.083   4.014  0.00  0.00    +0.000 A 
ATOM     25  C   UNL     1       2.575   2.044   3.070  0.00  0.00    +0.000 A 
ATOM     26  C   UNL     1       3.095   1.646   1.833  0.00  0.00    +0.000 A 
ATOM     27  C   UNL     1       3.247   0.287   1.544  0.00  0.00    +0.000 A 
ATOM     28  C   UNL     1       2.816  -0.667   2.474  0.00  0.00    +0.000 A 
ATOM     29  C   UNL     1       2.318  -0.274   3.713  0.00  0.00    +0.000 A 
BRANCH  24  31
ATOM     30  N   UNL     1       1.206   1.783   6.310  0.00  0.00    +0.000 NA
ATOM     31  C   UNL     1       1.655   1.478   5.280  0.00  0.00    +0.000 C 
ENDBRANCH  24  31
ENDBRANCH  23  27
ENDBRANCH  17  23
ENDBRANCH   1  20
TORSDOF 6
