REMARK  Name = 
REMARK  6 active torsions:
REMARK  status: ('A' for Active; 'I' for Inactive)
REMARK    1  A    between atoms: C_2  and  C_15
REMARK    2  A    between atoms: N_3  and  C_4
REMARK    3  A    between atoms: C_4  and  C_5
REMARK    4  A    between atoms: C_10  and  O_11
REMARK    5  A    between atoms: O_11  and  C_12
REMARK    6  A    between atoms: C_18  and  N_19
REMARK                            x       y       z     vdW  Elec       q    Type
REMARK                         _______ _______ _______ _____ _____    ______ ____
ROOT
ATOM      1  O   UNL     1       1.058   0.396   0.387  0.00  0.00    +0.000 OA
ATOM      2  C   UNL     1       2.272   0.254   0.304  0.00  0.00    +0.000 C 
ATOM      3  N   UNL     1       2.970   1.012  -0.610  0.00  0.00    +0.000 N 
ATOM      4  H   UNL     1       2.364   1.646  -1.116  0.00  0.00    +0.000 HD
ENDROOT
BRANCH   2   5
ATOM      5  C   UNL     1       2.952  -0.814   1.079  0.00  0.00    +0.000 A 
ATOM      6  C   UNL     1       2.283  -2.036   1.121  0.00  0.00    +0.000 A 
ATOM      7  C   UNL     1       2.955  -3.161   1.568  0.00  0.00    +0.000 A 
ATOM      8  C   UNL     1       4.291  -3.062   1.981  0.00  0.00    +0.000 A 
ATOM      9  C   UNL     1       4.915  -1.828   2.106  0.00  0.00    +0.000 A 
ATOM     10  C   UNL     1       4.219  -0.698   1.671  0.00  0.00    +0.000 A 
BRANCH   8  11
ATOM     11  N   UNL     1       4.955  -4.273   2.257  0.00  0.00    +0.000 N 
ATOM     12  C   UNL     1       4.791  -5.410   1.490  0.00  0.00    +0.000 A 
ATOM     13  N   UNL     1       4.935  -6.505   2.196  0.00  0.00    +0.000 NA
ATOM     14  C   UNL     1       5.275  -6.058   3.443  0.00  0.00    +0.000 A 
ATOM     15  C   UNL     1       5.391  -6.794   4.628  0.00  0.00    +0.000 A 
ATOM     16  C   UNL     1       5.763  -6.127   5.796  0.00  0.00    +0.000 A 
ATOM     17  C   UNL     1       6.074  -4.766   5.775  0.00  0.00    +0.000 A 
ATOM     18  C   UNL     1       5.935  -4.003   4.609  0.00  0.00    +0.000 A 
ATOM     19  C   UNL     1       5.478  -4.676   3.467  0.00  0.00    +0.000 A 
ENDBRANCH   8  11
ENDBRANCH   2   5
BRANCH   3  20
ATOM     20  C   UNL     1       4.403   1.249  -0.731  0.00  0.00    +0.000 C 
BRANCH  20  21
ATOM     21  C   UNL     1       4.892   2.257   0.285  0.00  0.00    +0.000 A 
ATOM     22  C   UNL     1       3.997   3.034   1.037  0.00  0.00    +0.000 A 
ATOM     23  C   UNL     1       4.455   3.882   2.034  0.00  0.00    +0.000 A 
ATOM     24  C   UNL     1       5.817   3.968   2.232  0.00  0.00    +0.000 A 
ATOM     25  N   UNL     1       6.718   3.257   1.522  0.00  0.00    +0.000 NA
ATOM     26  C   UNL     1       6.249   2.403   0.584  0.00  0.00    +0.000 A 
BRANCH  26  27
ATOM     27  O   UNL     1       7.160   1.625  -0.090  0.00  0.00    +0.000 OA
BRANCH  27  28
ATOM     28  C   UNL     1       8.411   1.593   0.583  0.00  0.00    +0.000 C 
ATOM     29  F   UNL     1       8.291   0.815   1.691  0.00  0.00    +0.000 F 
ATOM     30  F   UNL     1       9.283   0.941  -0.235  0.00  0.00    +0.000 F 
ENDBRANCH  27  28
ENDBRANCH  26  27
ENDBRANCH  20  21
ENDBRANCH   3  20
TORSDOF 6
