REMARK  Name = 
REMARK  9 active torsions:
REMARK  status: ('A' for Active; 'I' for Inactive)
REMARK    1  A    between atoms: C_1  and  N_2
REMARK    2  A    between atoms: C_3  and  C_5
REMARK    3  A    between atoms: C_5  and  O_6
REMARK    4  A    between atoms: O_6  and  C_7
REMARK    5  A    between atoms: C_11  and  C_12
REMARK    6  A    between atoms: C_12  and  N_13
REMARK    7  A    between atoms: C_14  and  C_16
REMARK    8  A    between atoms: N_18  and  C_19
REMARK    9  A    between atoms: C_23  and  C_24
REMARK                            x       y       z     vdW  Elec       q    Type
REMARK                         _______ _______ _______ _____ _____    ______ ____
ROOT
ATOM      1  N   UNL     1      10.318  -0.305   5.851  0.00  0.00    +0.000 N 
ATOM      2  C   UNL     1      10.985  -0.695   6.987  0.00  0.00    +0.000 C 
ATOM      3  O   UNL     1      10.464  -1.381   7.861  0.00  0.00    +0.000 OA
ATOM      4  H   UNL     1      10.830   0.238   5.157  0.00  0.00    +0.000 HD
ENDROOT
BRANCH   2   5
ATOM      5  C   UNL     1      12.365  -0.233   7.070  0.00  0.00    +0.000 A 
ATOM      6  C   UNL     1      13.250  -0.530   8.097  0.00  0.00    +0.000 A 
ATOM      7  N   UNL     1      14.454   0.063   7.823  0.00  0.00    +0.000 N 
ATOM      8  C   UNL     1      15.640  -0.038   8.644  0.00  0.00    +0.000 C 
ATOM      9  C   UNL     1      14.377   0.760   6.639  0.00  0.00    +0.000 A 
ATOM     10  C   UNL     1      15.307   1.523   5.938  0.00  0.00    +0.000 A 
ATOM     11  C   UNL     1      14.862   2.074   4.738  0.00  0.00    +0.000 A 
ATOM     12  C   UNL     1      13.557   1.845   4.289  0.00  0.00    +0.000 A 
ATOM     13  N   UNL     1      12.652   1.121   4.986  0.00  0.00    +0.000 NA
ATOM     14  C   UNL     1      13.085   0.584   6.155  0.00  0.00    +0.000 A 
BRANCH  12  15
ATOM     15  C   UNL     1      13.074   2.360   2.987  0.00  0.00    +0.000 A 
ATOM     16  C   UNL     1      13.931   2.486   1.878  0.00  0.00    +0.000 A 
ATOM     17  C   UNL     1      13.465   2.951   0.645  0.00  0.00    +0.000 A 
ATOM     18  C   UNL     1      12.125   3.294   0.491  0.00  0.00    +0.000 A 
ATOM     19  C   UNL     1      11.253   3.174   1.569  0.00  0.00    +0.000 A 
ATOM     20  C   UNL     1      11.723   2.711   2.802  0.00  0.00    +0.000 A 
ENDBRANCH  12  15
ENDBRANCH   2   5
BRANCH   1  21
ATOM     21  C   UNL     1       8.955  -0.684   5.595  0.00  0.00    +0.000 C 
BRANCH  21  26
ATOM     22  C   UNL     1       7.448   1.850   3.186  0.00  0.00    +0.000 A 
ATOM     23  C   UNL     1       7.619   1.204   1.962  0.00  0.00    +0.000 A 
ATOM     24  C   UNL     1       8.177  -0.073   1.915  0.00  0.00    +0.000 A 
ATOM     25  C   UNL     1       8.586  -0.701   3.092  0.00  0.00    +0.000 A 
ATOM     26  C   UNL     1       8.451  -0.051   4.325  0.00  0.00    +0.000 A 
ATOM     27  C   UNL     1       7.890   1.235   4.359  0.00  0.00    +0.000 A 
BRANCH  22  28
ATOM     28  O   UNL     1       6.857   3.083   3.127  0.00  0.00    +0.000 OA
BRANCH  28  29
ATOM     29  C   UNL     1       6.168   3.477   4.315  0.00  0.00    +0.000 C 
BRANCH  29  32
ATOM     30  C   UNL     1       4.277   6.094   2.302  0.00  0.00    +0.000 C 
ATOM     31  N   UNL     1       5.171   5.058   2.739  0.00  0.00    +0.000 N 
ATOM     32  C   UNL     1       5.177   4.606   4.039  0.00  0.00    +0.000 C 
ATOM     33  O   UNL     1       4.450   5.064   4.916  0.00  0.00    +0.000 OA
ATOM     34  H   UNL     1       5.791   4.597   2.081  0.00  0.00    +0.000 HD
ENDBRANCH  29  32
ENDBRANCH  28  29
ENDBRANCH  22  28
ENDBRANCH  21  26
ENDBRANCH   1  21
TORSDOF 7
