REMARK  Name = 
REMARK  6 active torsions:
REMARK  status: ('A' for Active; 'I' for Inactive)
REMARK    1  A    between atoms: C_1  and  C_2
REMARK    2  A    between atoms: C_5  and  N_6
REMARK    3  A    between atoms: C_9  and  C_10
REMARK    4  A    between atoms: C_10  and  N_11
REMARK    5  A    between atoms: C_12  and  C_14
REMARK    6  A    between atoms: N_16  and  C_17
REMARK                            x       y       z     vdW  Elec       q    Type
REMARK                         _______ _______ _______ _____ _____    ______ ____
ROOT
ATOM      1  N   UNL     1      -6.019  -1.456   2.642  0.00  0.00    +0.000 N 
ATOM      2  C   UNL     1      -5.821  -2.813   2.696  0.00  0.00    +0.000 C 
ATOM      3  O   UNL     1      -6.000  -3.547   1.727  0.00  0.00    +0.000 OA
ATOM      4  H   UNL     1      -5.761  -0.903   3.450  0.00  0.00    +0.000 HD
ENDROOT
BRANCH   2   5
ATOM      5  C   UNL     1      -5.390  -3.349   4.000  0.00  0.00    +0.000 A 
ATOM      6  N   UNL     1      -5.210  -2.615   5.119  0.00  0.00    +0.000 NA
ATOM      7  N   UNL     1      -4.824  -3.519   6.078  0.00  0.00    +0.000 N 
ATOM      8  C   UNL     1      -4.778  -4.793   5.561  0.00  0.00    +0.000 A 
ATOM      9  C   UNL     1      -5.130  -4.716   4.241  0.00  0.00    +0.000 A 
BRANCH   7  10
ATOM     10  C   UNL     1      -4.537  -3.111   7.413  0.00  0.00    +0.000 A 
ATOM     11  C   UNL     1      -4.703  -1.767   7.785  0.00  0.00    +0.000 A 
ATOM     12  C   UNL     1      -4.427  -1.370   9.095  0.00  0.00    +0.000 A 
ATOM     13  F   UNL     1      -4.593  -0.088   9.443  0.00  0.00    +0.000 F 
ATOM     14  C   UNL     1      -3.983  -2.278  10.051  0.00  0.00    +0.000 A 
ATOM     15  C   UNL     1      -3.813  -3.610   9.691  0.00  0.00    +0.000 A 
ATOM     16  C   UNL     1      -4.088  -4.019   8.384  0.00  0.00    +0.000 A 
ATOM     17  F   UNL     1      -3.890  -5.316   8.115  0.00  0.00    +0.000 F 
ENDBRANCH   7  10
ENDBRANCH   2   5
BRANCH   1  18
ATOM     18  C   UNL     1      -6.452  -0.812   1.422  0.00  0.00    +0.000 C 
BRANCH  18  22
ATOM     19  N   UNL     1      -3.804   0.832  -0.345  0.00  0.00    +0.000 N 
ATOM     20  C   UNL     1      -3.653  -0.412  -0.918  0.00  0.00    +0.000 A 
ATOM     21  C   UNL     1      -4.587  -1.239  -0.345  0.00  0.00    +0.000 A 
ATOM     22  C   UNL     1      -5.278  -0.425   0.578  0.00  0.00    +0.000 A 
ATOM     23  N   UNL     1      -4.785   0.821   0.602  0.00  0.00    +0.000 NA
BRANCH  19  28
ATOM     24  C   UNL     1      -0.887   5.640  -1.513  0.00  0.00    +0.000 C 
ATOM     25  C   UNL     1      -1.663   4.388  -1.230  0.00  0.00    +0.000 A 
ATOM     26  C   UNL     1      -1.442   3.226  -1.976  0.00  0.00    +0.000 A 
ATOM     27  C   UNL     1      -2.145   2.051  -1.692  0.00  0.00    +0.000 A 
ATOM     28  C   UNL     1      -3.086   2.024  -0.654  0.00  0.00    +0.000 A 
ATOM     29  C   UNL     1      -3.317   3.191   0.090  0.00  0.00    +0.000 A 
ATOM     30  C   UNL     1      -2.606   4.361  -0.196  0.00  0.00    +0.000 A 
ENDBRANCH  19  28
ENDBRANCH  18  22
ENDBRANCH   1  18
TORSDOF 5
