REMARK  Name = 
REMARK  5 active torsions:
REMARK  status: ('A' for Active; 'I' for Inactive)
REMARK    1  A    between atoms: C_1  and  O_2
REMARK    2  A    between atoms: O_2  and  C_3
REMARK    3  A    between atoms: C_6  and  C_7
REMARK    4  A    between atoms: C_14  and  C_15
REMARK    5  A    between atoms: N_19  and  C_20
REMARK                            x       y       z     vdW  Elec       q    Type
REMARK                         _______ _______ _______ _____ _____    ______ ____
ROOT
ATOM      1  C   UNL     1       3.006  -1.175  -0.562  0.00  0.00    +0.000 A 
ATOM      2  C   UNL     1       2.763  -1.699  -1.830  0.00  0.00    +0.000 A 
ATOM      3  C   UNL     1       3.545  -2.752  -2.325  0.00  0.00    +0.000 A 
ATOM      4  C   UNL     1       4.591  -3.317  -1.574  0.00  0.00    +0.000 A 
ATOM      5  C   UNL     1       4.826  -2.772  -0.300  0.00  0.00    +0.000 A 
ATOM      6  C   UNL     1       4.051  -1.713   0.207  0.00  0.00    +0.000 A 
ENDROOT
BRANCH   6   7
ATOM      7  C   UNL     1       4.329  -1.231   1.560  0.00  0.00    +0.000 A 
ATOM      8  C   UNL     1       5.179  -0.235   1.815  0.00  0.00    +0.000 A 
ATOM      9  C   UNL     1       5.434   0.226   3.198  0.00  0.00    +0.000 A 
ATOM     10  O   UNL     1       6.258   1.130   3.330  0.00  0.00    +0.000 OA
ATOM     11  N   UNL     1       4.737  -0.446   4.212  0.00  0.00    +0.000 N 
ATOM     12  N   UNL     1       3.875  -1.502   3.962  0.00  0.00    +0.000 NA
ATOM     13  C   UNL     1       3.682  -1.837   2.732  0.00  0.00    +0.000 A 
BRANCH  11  14
ATOM     14  C   UNL     1       4.806  -0.080   5.598  0.00  0.00    +0.000 A 
ATOM     15  C   UNL     1       5.215   1.194   6.014  0.00  0.00    +0.000 A 
ATOM     16  C   UNL     1       5.235   1.542   7.370  0.00  0.00    +0.000 A 
ATOM     17  C   UNL     1       4.862   0.614   8.337  0.00  0.00    +0.000 A 
ATOM     18  C   UNL     1       4.461  -0.661   7.949  0.00  0.00    +0.000 A 
ATOM     19  C   UNL     1       4.424  -0.999   6.593  0.00  0.00    +0.000 A 
ENDBRANCH  11  14
ENDBRANCH   6   7
BRANCH   4  20
ATOM     20  C   UNL     1       5.402  -4.441  -2.097  0.00  0.00    +0.000 A 
ATOM     21  C   UNL     1       6.766  -4.571  -1.800  0.00  0.00    +0.000 A 
ATOM     22  C   UNL     1       7.479  -5.647  -2.307  0.00  0.00    +0.000 A 
ATOM     23  N   UNL     1       6.941  -6.597  -3.096  0.00  0.00    +0.000 NA
ATOM     24  C   UNL     1       5.631  -6.467  -3.385  0.00  0.00    +0.000 A 
ATOM     25  C   UNL     1       4.837  -5.432  -2.914  0.00  0.00    +0.000 A 
ENDBRANCH   4  20
BRANCH   1  27
ATOM     26  C   UNL     1       1.004   0.109  -0.512  0.00  0.00    +0.000 C 
ATOM     27  O   UNL     1       2.313  -0.131  -0.009  0.00  0.00    +0.000 OA
ENDBRANCH   1  27
TORSDOF 4
