REMARK  Name = 
REMARK  6 active torsions:
REMARK  status: ('A' for Active; 'I' for Inactive)
REMARK    1  A    between atoms: N_1  and  C_2
REMARK    2  A    between atoms: C_2  and  C_3
REMARK    3  A    between atoms: C_7  and  C_8
REMARK    4  A    between atoms: C_11  and  C_12
REMARK    5  A    between atoms: N_14  and  C_15
REMARK    6  A    between atoms: C_18  and  N_19
REMARK                            x       y       z     vdW  Elec       q    Type
REMARK                         _______ _______ _______ _____ _____    ______ ____
ROOT
ATOM      1  C   UNL     1       2.551  -4.895  -0.963  0.00  0.00    +0.000 A 
ATOM      2  C   UNL     1       3.541  -5.804  -0.540  0.00  0.00    +0.000 A 
ATOM      3  C   UNL     1       3.213  -7.064  -0.024  0.00  0.00    +0.000 A 
ATOM      4  C   UNL     1       1.873  -7.444   0.077  0.00  0.00    +0.000 A 
ATOM      5  C   UNL     1       0.876  -6.565  -0.356  0.00  0.00    +0.000 A 
ATOM      6  C   UNL     1       1.213  -5.317  -0.883  0.00  0.00    +0.000 A 
ENDROOT
BRANCH   1  11
ATOM      7  C   UNL     1       2.425  -1.105  -1.347  0.00  0.00    +0.000 A 
ATOM      8  C   UNL     1       3.650  -0.860  -1.975  0.00  0.00    +0.000 A 
ATOM      9  C   UNL     1       4.483  -1.917  -2.333  0.00  0.00    +0.000 A 
ATOM     10  C   UNL     1       4.108  -3.232  -2.049  0.00  0.00    +0.000 A 
ATOM     11  C   UNL     1       2.905  -3.520  -1.384  0.00  0.00    +0.000 A 
ATOM     12  C   UNL     1       2.071  -2.432  -1.058  0.00  0.00    +0.000 A 
BRANCH   7  13
ATOM     13  C   UNL     1       1.527   0.028  -0.923  0.00  0.00    +0.000 C 
BRANCH  13  14
ATOM     14  N   UNL     1       1.171   0.890  -2.043  0.00  0.00    +0.000 NA
ATOM     15  H   UNL     1       0.506   1.591  -1.722  0.00  0.00    +0.000 HD
ATOM     16  H   UNL     1       0.684   0.332  -2.743  0.00  0.00    +0.000 HD
ENDBRANCH  13  14
ENDBRANCH   7  13
ENDBRANCH   1  11
BRANCH   4  17
ATOM     17  C   UNL     1       1.435  -8.731   0.680  0.00  0.00    +0.000 C 
ATOM     18  O   UNL     1       0.329  -8.755   1.217  0.00  0.00    +0.000 OA
ATOM     19  N   UNL     1       2.315  -9.792   0.583  0.00  0.00    +0.000 N 
ATOM     20  H   UNL     1       3.223  -9.619   0.178  0.00  0.00    +0.000 HD
BRANCH  19  21
ATOM     21  C   UNL     1       2.071 -11.108   1.026  0.00  0.00    +0.000 A 
ATOM     22  C   UNL     1       0.807 -11.574   1.396  0.00  0.00    +0.000 A 
ATOM     23  C   UNL     1       0.626 -12.888   1.835  0.00  0.00    +0.000 A 
ATOM     24  C   UNL     1       1.719 -13.758   1.921  0.00  0.00    +0.000 A 
ATOM     25  C   UNL     1       2.975 -13.296   1.535  0.00  0.00    +0.000 A 
ATOM     26  F   UNL     1       4.057 -14.085   1.577  0.00  0.00    +0.000 F 
ATOM     27  C   UNL     1       3.154 -11.989   1.077  0.00  0.00    +0.000 A 
BRANCH  24  28
ATOM     28  N   UNL     1       1.521 -15.075   2.387  0.00  0.00    +0.000 N 
ATOM     29  C   UNL     1       2.425 -16.075   2.639  0.00  0.00    +0.000 A 
ATOM     30  N   UNL     1       1.789 -17.148   3.050  0.00  0.00    +0.000 NA
ATOM     31  N   UNL     1       0.463 -16.810   3.065  0.00  0.00    +0.000 NA
ATOM     32  N   UNL     1       0.288 -15.556   2.678  0.00  0.00    +0.000 NA
ENDBRANCH  24  28
ENDBRANCH  19  21
ENDBRANCH   4  17
TORSDOF 6
