REMARK  Name = 
REMARK  10 active torsions:
REMARK  status: ('A' for Active; 'I' for Inactive)
REMARK    1  A    between atoms: C_1  and  O_2
REMARK    2  A    between atoms: O_2  and  C_3
REMARK    3  A    between atoms: C_8  and  C_9
REMARK    4  A    between atoms: C_9  and  C_11
REMARK    5  A    between atoms: C_11  and  N_12
REMARK    6  A    between atoms: C_13  and  C_15
REMARK    7  A    between atoms: C_15  and  S_16
REMARK    8  A    between atoms: S_16  and  C_17
REMARK    9  A    between atoms: N_21  and  C_22
REMARK   10  A    between atoms: C_25  and  C_26
REMARK                            x       y       z     vdW  Elec       q    Type
REMARK                         _______ _______ _______ _____ _____    ______ ____
ROOT
ATOM      1  C   UNL     1       4.066   3.179  -5.289  0.00  0.00    +0.000 C 
ENDROOT
BRANCH   1   3
ATOM      2  N   UNL     1       3.492   0.970  -4.280  0.00  0.00    +0.000 N 
ATOM      3  C   UNL     1       3.580   2.329  -4.123  0.00  0.00    +0.000 C 
ATOM      4  O   UNL     1       3.280   2.820  -3.032  0.00  0.00    +0.000 OA
ATOM      5  H   UNL     1       3.123   0.481  -3.474  0.00  0.00    +0.000 HD
BRANCH   2   6
ATOM      6  C   UNL     1       3.741   0.212  -5.503  0.00  0.00    +0.000 C 
BRANCH   6   7
ATOM      7  C   UNL     1       4.779  -0.879  -5.325  0.00  0.00    +0.000 C 
ATOM      8  O   UNL     1       5.863  -0.816  -5.909  0.00  0.00    +0.000 OA
BRANCH   7  14
ATOM      9  C   UNL     1       3.255  -2.584  -4.178  0.00  0.00    +0.000 A 
ATOM     10  C   UNL     1       3.147  -3.640  -3.264  0.00  0.00    +0.000 A 
ATOM     11  C   UNL     1       4.276  -4.152  -2.625  0.00  0.00    +0.000 A 
ATOM     12  C   UNL     1       5.535  -3.625  -2.889  0.00  0.00    +0.000 A 
ATOM     13  C   UNL     1       5.660  -2.564  -3.778  0.00  0.00    +0.000 A 
ATOM     14  C   UNL     1       4.526  -2.026  -4.409  0.00  0.00    +0.000 A 
BRANCH   9  16
ATOM     15  C   UNL     1       0.939  -2.734  -4.758  0.00  0.00    +0.000 C 
ATOM     16  O   UNL     1       2.199  -2.079  -4.879  0.00  0.00    +0.000 OA
ENDBRANCH   9  16
ENDBRANCH   7  14
ENDBRANCH   6   7
ENDBRANCH   2   6
ENDBRANCH   1   3
BRANCH   1  17
ATOM     17  S   UNL     1       2.753   3.262  -6.551  0.00  0.00    +0.000 S 
BRANCH  17  18
ATOM     18  C   UNL     1       3.637   3.818  -7.942  0.00  0.00    +0.000 A 
ATOM     19  N   UNL     1       4.823   4.381  -7.859  0.00  0.00    +0.000 NA
ATOM     20  C   UNL     1       5.027   4.975  -9.071  0.00  0.00    +0.000 A 
ATOM     21  C   UNL     1       3.967   4.743  -9.912  0.00  0.00    +0.000 A 
ATOM     22  N   UNL     1       3.083   3.940  -9.212  0.00  0.00    +0.000 N 
BRANCH  22  23
ATOM     23  C   UNL     1       1.869   3.415  -9.744  0.00  0.00    +0.000 A 
ATOM     24  C   UNL     1       1.365   2.177  -9.328  0.00  0.00    +0.000 A 
ATOM     25  C   UNL     1       0.163   1.691  -9.857  0.00  0.00    +0.000 A 
ATOM     26  C   UNL     1      -0.550   2.429 -10.812  0.00  0.00    +0.000 A 
ATOM     27  C   UNL     1      -0.032   3.662 -11.234  0.00  0.00    +0.000 A 
ATOM     28  C   UNL     1       1.173   4.146 -10.717  0.00  0.00    +0.000 A 
BRANCH  26  29
ATOM     29  C   UNL     1      -1.846   1.919 -11.393  0.00  0.00    +0.000 C 
ATOM     30  F   UNL     1      -2.213   0.696 -10.918  0.00  0.00    +0.000 F 
ATOM     31  F   UNL     1      -2.895   2.749 -11.138  0.00  0.00    +0.000 F 
ATOM     32  F   UNL     1      -1.792   1.791 -12.748  0.00  0.00    +0.000 F 
ENDBRANCH  26  29
ENDBRANCH  22  23
ENDBRANCH  17  18
ENDBRANCH   1  17
TORSDOF 9
