REMARK  Name = 
REMARK  7 active torsions:
REMARK  status: ('A' for Active; 'I' for Inactive)
REMARK    1  A    between atoms: C_4  and  C_5
REMARK    2  A    between atoms: C_5  and  O_6
REMARK    3  A    between atoms: O_6  and  C_7
REMARK    4  A    between atoms: C_10  and  C_11
REMARK    5  A    between atoms: C_11  and  O_12
REMARK    6  A    between atoms: O_12  and  C_13
REMARK    7  A    between atoms: C_17  and  C_18
REMARK                            x       y       z     vdW  Elec       q    Type
REMARK                         _______ _______ _______ _____ _____    ______ ____
ROOT
ATOM      1  C   UNL     1      -0.759  -4.917   0.141  0.00  0.00    +0.000 A 
ATOM      2  C   UNL     1      -1.784  -5.280  -0.735  0.00  0.00    +0.000 A 
ATOM      3  C   UNL     1      -2.185  -6.616  -0.828  0.00  0.00    +0.000 A 
ATOM      4  C   UNL     1      -1.558  -7.595  -0.048  0.00  0.00    +0.000 A 
ATOM      5  C   UNL     1      -0.497  -7.228   0.788  0.00  0.00    +0.000 A 
ATOM      6  C   UNL     1      -0.095  -5.899   0.874  0.00  0.00    +0.000 A 
ENDROOT
BRANCH   1   7
ATOM      7  O   UNL     1      -0.464  -3.583   0.218  0.00  0.00    +0.000 OA
BRANCH   7   8
ATOM      8  C   UNL     1       0.117  -3.179   1.468  0.00  0.00    +0.000 C 
BRANCH   8  12
ATOM      9  C   UNL     1      -0.383   0.969   2.258  0.00  0.00    +0.000 A 
ATOM     10  C   UNL     1      -1.305   0.334   1.438  0.00  0.00    +0.000 A 
ATOM     11  C   UNL     1      -1.150  -1.018   1.163  0.00  0.00    +0.000 A 
ATOM     12  C   UNL     1      -0.059  -1.698   1.702  0.00  0.00    +0.000 A 
ATOM     13  N   UNL     1       0.841  -1.093   2.519  0.00  0.00    +0.000 NA
ATOM     14  C   UNL     1       0.661   0.222   2.774  0.00  0.00    +0.000 A 
ENDBRANCH   8  12
ENDBRANCH   7   8
ENDBRANCH   1   7
BRANCH   4  15
ATOM     15  C   UNL     1      -2.006  -9.034  -0.080  0.00  0.00    +0.000 C 
BRANCH  15  16
ATOM     16  O   UNL     1      -1.292  -9.739  -1.100  0.00  0.00    +0.000 OA
BRANCH  16  17
ATOM     17  C   UNL     1      -1.577 -11.089  -1.062  0.00  0.00    +0.000 A 
ATOM     18  C   UNL     1      -0.976 -11.908  -1.999  0.00  0.00    +0.000 A 
ATOM     19  C   UNL     1      -1.245 -13.271  -1.943  0.00  0.00    +0.000 A 
ATOM     20  C   UNL     1      -2.088 -13.763  -0.950  0.00  0.00    +0.000 A 
ATOM     21  C   UNL     1      -2.656 -12.879  -0.035  0.00  0.00    +0.000 A 
ATOM     22  N   UNL     1      -2.405 -11.545  -0.106  0.00  0.00    +0.000 NA
BRANCH  21  23
ATOM     23  C   UNL     1      -3.534 -13.319   1.074  0.00  0.00    +0.000 A 
ATOM     24  N   UNL     1      -3.765 -14.640   1.205  0.00  0.00    +0.000 NA
ATOM     25  C   UNL     1      -4.550 -15.009   2.243  0.00  0.00    +0.000 A 
ATOM     26  C   UNL     1      -5.104 -14.123   3.139  0.00  0.00    +0.000 A 
ATOM     27  C   UNL     1      -4.811 -12.800   2.921  0.00  0.00    +0.000 A 
ATOM     28  N   UNL     1      -4.035 -12.374   1.906  0.00  0.00    +0.000 NA
ENDBRANCH  21  23
ENDBRANCH  16  17
ENDBRANCH  15  16
ENDBRANCH   4  15
TORSDOF 7
