REMARK  Name = 
REMARK  9 active torsions:
REMARK  status: ('A' for Active; 'I' for Inactive)
REMARK    1  A    between atoms: C_1  and  O_2
REMARK    2  A    between atoms: O_2  and  C_3
REMARK    3  A    between atoms: C_7  and  C_8
REMARK    4  A    between atoms: C_8  and  C_9
REMARK    5  A    between atoms: C_9  and  N_10
REMARK    6  A    between atoms: C_9  and  C_25
REMARK    7  A    between atoms: C_11  and  C_13
REMARK    8  A    between atoms: C_16  and  C_17
REMARK    9  A    between atoms: C_17  and  C_18
REMARK                            x       y       z     vdW  Elec       q    Type
REMARK                         _______ _______ _______ _____ _____    ______ ____
ROOT
ATOM      1  N   UNL     1       7.026   2.745  -2.815  0.00  0.00    +0.000 N 
ATOM      2  C   UNL     1       7.053   4.040  -3.284  0.00  0.00    +0.000 C 
ATOM      3  O   UNL     1       6.879   4.345  -4.461  0.00  0.00    +0.000 OA
ATOM      4  H   UNL     1       7.316   2.549  -1.868  0.00  0.00    +0.000 HD
ENDROOT
BRANCH   2   5
ATOM      5  C   UNL     1       7.306   5.130  -2.312  0.00  0.00    +0.000 A 
ATOM      6  C   UNL     1       8.041   6.234  -2.762  0.00  0.00    +0.000 A 
ATOM      7  C   UNL     1       8.137   7.385  -1.982  0.00  0.00    +0.000 A 
ATOM      8  C   UNL     1       7.484   7.452  -0.744  0.00  0.00    +0.000 A 
ATOM      9  C   UNL     1       6.797   6.321  -0.270  0.00  0.00    +0.000 A 
ATOM     10  C   UNL     1       6.711   5.158  -1.048  0.00  0.00    +0.000 A 
BRANCH   8  11
ATOM     11  C   UNL     1       7.413   8.776  -0.009  0.00  0.00    +0.000 C 
BRANCH  11  12
ATOM     12  C   UNL     1       6.298   9.661  -0.466  0.00  0.00    +0.000 A 
ATOM     13  N   UNL     1       5.962  10.832   0.039  0.00  0.00    +0.000 NA
ATOM     14  N   UNL     1       4.917  11.336  -0.701  0.00  0.00    +0.000 NA
ATOM     15  C   UNL     1       4.637  10.466  -1.640  0.00  0.00    +0.000 A 
ATOM     16  N   UNL     1       5.461   9.391  -1.521  0.00  0.00    +0.000 N 
ATOM     17  H   UNL     1       5.471   8.566  -2.104  0.00  0.00    +0.000 HD
ENDBRANCH  11  12
ENDBRANCH   8  11
ENDBRANCH   2   5
BRANCH   1  18
ATOM     18  C   UNL     1       6.866   1.622  -3.742  0.00  0.00    +0.000 C 
BRANCH  18  19
ATOM     19  C   UNL     1       8.227   1.200  -4.291  0.00  0.00    +0.000 A 
ATOM     20  C   UNL     1       8.761   1.901  -5.391  0.00  0.00    +0.000 A 
ATOM     21  C   UNL     1      10.015   1.584  -5.916  0.00  0.00    +0.000 A 
ATOM     22  C   UNL     1      10.758   0.551  -5.355  0.00  0.00    +0.000 A 
ATOM     23  C   UNL     1      10.247  -0.155  -4.268  0.00  0.00    +0.000 A 
ATOM     24  C   UNL     1       8.995   0.169  -3.734  0.00  0.00    +0.000 A 
ENDBRANCH  18  19
BRANCH  18  25
ATOM     25  C   UNL     1       6.049   0.463  -3.108  0.00  0.00    +0.000 C 
BRANCH  25  30
ATOM     26  C   UNL     1       3.041   1.208  -0.868  0.00  0.00    +0.000 A 
ATOM     27  C   UNL     1       2.184   1.837  -1.777  0.00  0.00    +0.000 A 
ATOM     28  C   UNL     1       2.529   1.927  -3.127  0.00  0.00    +0.000 A 
ATOM     29  C   UNL     1       3.753   1.429  -3.569  0.00  0.00    +0.000 A 
ATOM     30  C   UNL     1       4.665   0.881  -2.658  0.00  0.00    +0.000 A 
ATOM     31  C   UNL     1       4.285   0.751  -1.312  0.00  0.00    +0.000 A 
BRANCH  26  33
ATOM     32  C   UNL     1       1.387   0.945   0.778  0.00  0.00    +0.000 C 
ATOM     33  O   UNL     1       2.772   1.025   0.457  0.00  0.00    +0.000 OA
ENDBRANCH  26  33
ENDBRANCH  25  30
ENDBRANCH  18  25
ENDBRANCH   1  18
TORSDOF 8
