REMARK  Name = 
REMARK  5 active torsions:
REMARK  status: ('A' for Active; 'I' for Inactive)
REMARK    1  A    between atoms: C_1  and  C_2
REMARK    2  A    between atoms: C_4  and  C_5
REMARK    3  A    between atoms: N_7  and  C_8
REMARK    4  A    between atoms: C_11  and  N_12
REMARK    5  A    between atoms: C_22  and  C_23
REMARK                            x       y       z     vdW  Elec       q    Type
REMARK                         _______ _______ _______ _____ _____    ______ ____
ROOT
ATOM      1  C   UNL     1      -1.925   2.494   0.051  0.00  0.00    +0.000 C 
ATOM      2  O   UNL     1      -2.997   2.417   0.644  0.00  0.00    +0.000 OA
ATOM      3  N   UNL     1      -1.438   3.614  -0.606  0.00  0.00    +0.000 N 
ATOM      4  H   UNL     1      -0.644   3.490  -1.224  0.00  0.00    +0.000 HD
ENDROOT
BRANCH   1   8
ATOM      5  C   UNL     1       2.530   0.177  -0.108  0.00  0.00    +0.000 C 
ATOM      6  C   UNL     1       1.028   0.045  -0.045  0.00  0.00    +0.000 A 
ATOM      7  C   UNL     1       0.291   1.259  -0.039  0.00  0.00    +0.000 A 
ATOM      8  C   UNL     1      -1.104   1.255  -0.021  0.00  0.00    +0.000 A 
ATOM      9  C   UNL     1      -1.775   0.034   0.015  0.00  0.00    +0.000 A 
ATOM     10  C   UNL     1      -1.060  -1.166   0.042  0.00  0.00    +0.000 A 
ATOM     11  C   UNL     1       0.353  -1.208   0.014  0.00  0.00    +0.000 A 
BRANCH  11  12
ATOM     12  C   UNL     1       1.020  -2.545   0.042  0.00  0.00    +0.000 A 
ATOM     13  C   UNL     1       0.464  -3.650  -0.629  0.00  0.00    +0.000 A 
ATOM     14  C   UNL     1       1.092  -4.888  -0.574  0.00  0.00    +0.000 A 
ATOM     15  N   UNL     1       2.250  -5.112   0.073  0.00  0.00    +0.000 NA
ATOM     16  C   UNL     1       2.778  -4.059   0.724  0.00  0.00    +0.000 A 
ATOM     17  C   UNL     1       2.195  -2.797   0.760  0.00  0.00    +0.000 A 
ENDBRANCH  11  12
ENDBRANCH   1   8
BRANCH   3  18
ATOM     18  C   UNL     1      -2.079   4.875  -0.646  0.00  0.00    +0.000 A 
ATOM     19  C   UNL     1      -3.112   5.232   0.224  0.00  0.00    +0.000 A 
ATOM     20  C   UNL     1      -3.737   6.482   0.127  0.00  0.00    +0.000 A 
ATOM     21  C   UNL     1      -3.364   7.410  -0.850  0.00  0.00    +0.000 A 
ATOM     22  C   UNL     1      -2.309   7.053  -1.705  0.00  0.00    +0.000 A 
ATOM     23  C   UNL     1      -1.664   5.810  -1.595  0.00  0.00    +0.000 A 
BRANCH  21  24
ATOM     24  N   UNL     1      -4.013   8.655  -0.950  0.00  0.00    +0.000 N 
ATOM     25  C   UNL     1      -4.721   9.373  -0.029  0.00  0.00    +0.000 A 
ATOM     26  C   UNL     1      -5.335  10.430  -0.572  0.00  0.00    +0.000 A 
ATOM     27  C   UNL     1      -5.055  10.302  -2.022  0.00  0.00    +0.000 A 
ATOM     28  O   UNL     1      -5.601  10.951  -2.896  0.00  0.00    +0.000 OA
ATOM     29  N   UNL     1      -4.143   9.268  -2.182  0.00  0.00    +0.000 N 
ATOM     30  H   UNL     1      -4.200   8.710  -3.024  0.00  0.00    +0.000 HD
ENDBRANCH  21  24
ENDBRANCH   3  18
TORSDOF 4
