REMARK  Name = 
REMARK  8 active torsions:
REMARK  status: ('A' for Active; 'I' for Inactive)
REMARK    1  A    between atoms: C_1  and  O_2
REMARK    2  A    between atoms: O_2  and  C_3
REMARK    3  A    between atoms: C_6  and  C_7
REMARK    4  A    between atoms: C_9  and  N_10
REMARK    5  A    between atoms: C_12  and  C_13
REMARK    6  A    between atoms: N_15  and  C_16
REMARK    7  A    between atoms: C_16  and  C_17
REMARK    8  A    between atoms: C_21  and  C_22
REMARK                            x       y       z     vdW  Elec       q    Type
REMARK                         _______ _______ _______ _____ _____    ______ ____
ROOT
ATOM      1  C   UNL     1       3.216   2.794  -3.772  0.00  0.00    +0.000 C 
ATOM      2  O   UNL     1       3.643   3.132  -4.872  0.00  0.00    +0.000 OA
ATOM      3  N   UNL     1       1.878   2.814  -3.459  0.00  0.00    +0.000 N 
ATOM      4  H   UNL     1       1.543   2.525  -2.554  0.00  0.00    +0.000 HD
ENDROOT
BRANCH   1   7
ATOM      5  N   UNL     1       4.738   1.646  -0.469  0.00  0.00    +0.000 N 
ATOM      6  C   UNL     1       3.844   2.140  -1.422  0.00  0.00    +0.000 A 
ATOM      7  C   UNL     1       4.163   2.269  -2.722  0.00  0.00    +0.000 A 
ATOM      8  C   UNL     1       5.503   1.886  -3.133  0.00  0.00    +0.000 A 
ATOM      9  C   UNL     1       6.402   1.435  -2.252  0.00  0.00    +0.000 A 
ATOM     10  C   UNL     1       6.056   1.298  -0.811  0.00  0.00    +0.000 A 
ATOM     11  O   UNL     1       6.918   0.861  -0.052  0.00  0.00    +0.000 OA
BRANCH   5  18
ATOM     12  C   UNL     1       3.164   0.580   1.125  0.00  0.00    +0.000 A 
ATOM     13  C   UNL     1       2.769   0.347   2.446  0.00  0.00    +0.000 A 
ATOM     14  C   UNL     1       3.473   0.914   3.511  0.00  0.00    +0.000 A 
ATOM     15  C   UNL     1       4.593   1.712   3.277  0.00  0.00    +0.000 A 
ATOM     16  C   UNL     1       5.334   2.341   4.421  0.00  0.00    +0.000 C 
ATOM     17  C   UNL     1       5.010   1.931   1.957  0.00  0.00    +0.000 A 
ATOM     18  C   UNL     1       4.297   1.386   0.874  0.00  0.00    +0.000 A 
BRANCH  12  20
ATOM     19  C   UNL     1       1.544  -0.956   0.281  0.00  0.00    +0.000 C 
ATOM     20  O   UNL     1       2.538   0.028   0.033  0.00  0.00    +0.000 OA
ENDBRANCH  12  20
ENDBRANCH   5  18
ENDBRANCH   1   7
BRANCH   3  21
ATOM     21  C   UNL     1       0.877   3.212  -4.425  0.00  0.00    +0.000 C 
BRANCH  21  22
ATOM     22  C   UNL     1       0.518   4.670  -4.308  0.00  0.00    +0.000 A 
ATOM     23  C   UNL     1       1.238   5.624  -5.040  0.00  0.00    +0.000 A 
ATOM     24  C   UNL     1       0.914   6.973  -4.952  0.00  0.00    +0.000 A 
ATOM     25  C   UNL     1      -0.133   7.383  -4.126  0.00  0.00    +0.000 A 
ATOM     26  C   UNL     1      -0.881   6.460  -3.369  0.00  0.00    +0.000 A 
ATOM     27  C   UNL     1      -0.526   5.101  -3.468  0.00  0.00    +0.000 A 
BRANCH  26  28
ATOM     28  C   UNL     1      -1.973   6.920  -2.485  0.00  0.00    +0.000 A 
ATOM     29  C   UNL     1      -2.765   8.029  -2.798  0.00  0.00    +0.000 A 
ATOM     30  C   UNL     1      -3.689   8.498  -1.869  0.00  0.00    +0.000 A 
ATOM     31  C   UNL     1      -3.821   7.840  -0.656  0.00  0.00    +0.000 A 
ATOM     32  C   UNL     1      -3.037   6.720  -0.435  0.00  0.00    +0.000 A 
ATOM     33  N   UNL     1      -2.127   6.245  -1.317  0.00  0.00    +0.000 NA
ENDBRANCH  26  28
ENDBRANCH  21  22
ENDBRANCH   3  21
TORSDOF 6
