REMARK  Name = 
REMARK  4 active torsions:
REMARK  status: ('A' for Active; 'I' for Inactive)
REMARK    1  A    between atoms: C_2  and  C_17
REMARK    2  A    between atoms: N_3  and  C_4
REMARK    3  A    between atoms: N_8  and  C_9
REMARK    4  A    between atoms: C_19  and  C_20
REMARK                            x       y       z     vdW  Elec       q    Type
REMARK                         _______ _______ _______ _____ _____    ______ ____
ROOT
ATOM      1  O   UNL     1       1.016  -0.005   0.277  0.00  0.00    +0.000 OA
ATOM      2  C   UNL     1       2.233   0.025   0.116  0.00  0.00    +0.000 C 
ATOM      3  N   UNL     1       2.887   0.701  -0.905  0.00  0.00    +0.000 N 
ATOM      4  H   UNL     1       3.839   0.425  -1.119  0.00  0.00    +0.000 HD
ENDROOT
BRANCH   3   5
ATOM      5  C   UNL     1       2.223   1.521  -1.799  0.00  0.00    +0.000 A 
ATOM      6  C   UNL     1       1.072   2.142  -1.541  0.00  0.00    +0.000 A 
ATOM      7  C   UNL     1       0.361   2.946  -2.544  0.00  0.00    +0.000 A 
ATOM      8  O   UNL     1      -0.711   3.428  -2.186  0.00  0.00    +0.000 OA
ATOM      9  N   UNL     1       0.954   3.020  -3.809  0.00  0.00    +0.000 N 
ATOM     10  N   UNL     1       2.173   2.421  -4.106  0.00  0.00    +0.000 NA
ATOM     11  C   UNL     1       2.759   1.766  -3.155  0.00  0.00    +0.000 A 
BRANCH   9  12
ATOM     12  C   UNL     1       0.296   3.658  -4.913  0.00  0.00    +0.000 A 
ATOM     13  C   UNL     1      -0.692   4.636  -4.710  0.00  0.00    +0.000 A 
ATOM     14  C   UNL     1      -1.440   5.154  -5.769  0.00  0.00    +0.000 A 
ATOM     15  C   UNL     1      -1.201   4.713  -7.063  0.00  0.00    +0.000 A 
ATOM     16  C   UNL     1      -0.185   3.789  -7.300  0.00  0.00    +0.000 A 
ATOM     17  C   UNL     1       0.571   3.278  -6.236  0.00  0.00    +0.000 A 
ENDBRANCH   9  12
ENDBRANCH   3   5
BRANCH   2  18
ATOM     18  C   UNL     1       3.046  -0.784   1.042  0.00  0.00    +0.000 A 
ATOM     19  C   UNL     1       2.489  -2.001   1.469  0.00  0.00    +0.000 A 
ATOM     20  C   UNL     1       3.083  -2.773   2.478  0.00  0.00    +0.000 A 
ATOM     21  C   UNL     1       4.284  -2.288   3.021  0.00  0.00    +0.000 A 
ATOM     22  C   UNL     1       4.839  -1.083   2.583  0.00  0.00    +0.000 A 
ATOM     23  F   UNL     1       5.963  -0.633   3.155  0.00  0.00    +0.000 F 
ATOM     24  C   UNL     1       4.232  -0.318   1.595  0.00  0.00    +0.000 A 
BRANCH  20  25
ATOM     25  C   UNL     1       2.460  -4.023   2.963  0.00  0.00    +0.000 A 
ATOM     26  C   UNL     1       1.082  -4.255   2.909  0.00  0.00    +0.000 A 
ATOM     27  C   UNL     1       0.566  -5.457   3.388  0.00  0.00    +0.000 A 
ATOM     28  C   UNL     1       1.432  -6.402   3.913  0.00  0.00    +0.000 A 
ATOM     29  C   UNL     1       2.783  -6.104   3.937  0.00  0.00    +0.000 A 
ATOM     30  N   UNL     1       3.311  -4.945   3.479  0.00  0.00    +0.000 NA
ENDBRANCH  20  25
ENDBRANCH   2  18
TORSDOF 4
