REMARK  Name = 
REMARK  4 active torsions:
REMARK  status: ('A' for Active; 'I' for Inactive)
REMARK    1  A    between atoms: C_2  and  C_17
REMARK    2  A    between atoms: N_3  and  C_4
REMARK    3  A    between atoms: N_6  and  C_7
REMARK    4  A    between atoms: C_20  and  C_21
REMARK                            x       y       z     vdW  Elec       q    Type
REMARK                         _______ _______ _______ _____ _____    ______ ____
ROOT
ATOM      1  O   UNL     1       1.124   0.578  -0.480  0.00  0.00    +0.000 OA
ATOM      2  C   UNL     1       2.276   0.231  -0.232  0.00  0.00    +0.000 C 
ATOM      3  N   UNL     1       2.855  -0.967  -0.656  0.00  0.00    +0.000 N 
ATOM      4  H   UNL     1       3.757  -1.186  -0.244  0.00  0.00    +0.000 HD
ENDROOT
BRANCH   3   5
ATOM      5  C   UNL     1       2.187  -1.953  -1.349  0.00  0.00    +0.000 A 
ATOM      6  C   UNL     1       1.073  -1.728  -2.062  0.00  0.00    +0.000 A 
ATOM      7  N   UNL     1       0.289  -2.738  -2.605  0.00  0.00    +0.000 N 
ATOM      8  C   UNL     1       0.658  -4.085  -2.457  0.00  0.00    +0.000 A 
ATOM      9  O   UNL     1       0.010  -5.070  -2.804  0.00  0.00    +0.000 OA
ATOM     10  C   UNL     1       1.956  -4.325  -1.756  0.00  0.00    +0.000 A 
ATOM     11  C   UNL     1       2.673  -3.311  -1.251  0.00  0.00    +0.000 A 
BRANCH   7  12
ATOM     12  C   UNL     1      -0.993  -2.412  -3.162  0.00  0.00    +0.000 A 
ATOM     13  C   UNL     1      -1.793  -1.426  -2.554  0.00  0.00    +0.000 A 
ATOM     14  C   UNL     1      -3.061  -1.125  -3.053  0.00  0.00    +0.000 A 
ATOM     15  C   UNL     1      -3.531  -1.785  -4.179  0.00  0.00    +0.000 A 
ATOM     16  C   UNL     1      -2.740  -2.741  -4.812  0.00  0.00    +0.000 A 
ATOM     17  C   UNL     1      -1.479  -3.062  -4.300  0.00  0.00    +0.000 A 
ENDBRANCH   7  12
ENDBRANCH   3   5
BRANCH   2  18
ATOM     18  C   UNL     1       3.146   1.042   0.623  0.00  0.00    +0.000 A 
ATOM     19  N   UNL     1       2.699   2.150   1.234  0.00  0.00    +0.000 NA
ATOM     20  O   UNL     1       3.800   2.603   1.941  0.00  0.00    +0.000 OA
ATOM     21  C   UNL     1       4.816   1.728   1.692  0.00  0.00    +0.000 A 
ATOM     22  N   UNL     1       4.470   0.738   0.895  0.00  0.00    +0.000 NA
BRANCH  21  23
ATOM     23  C   UNL     1       6.096   2.040   2.307  0.00  0.00    +0.000 A 
ATOM     24  C   UNL     1       6.235   3.101   3.214  0.00  0.00    +0.000 A 
ATOM     25  C   UNL     1       7.476   3.383   3.776  0.00  0.00    +0.000 A 
ATOM     26  F   UNL     1       7.590   4.406   4.632  0.00  0.00    +0.000 F 
ATOM     27  C   UNL     1       8.596   2.636   3.454  0.00  0.00    +0.000 A 
ATOM     28  C   UNL     1       8.458   1.584   2.561  0.00  0.00    +0.000 A 
ATOM     29  F   UNL     1       9.527   0.846   2.241  0.00  0.00    +0.000 F 
ATOM     30  C   UNL     1       7.226   1.278   1.989  0.00  0.00    +0.000 A 
ENDBRANCH  21  23
ENDBRANCH   2  18
TORSDOF 4
