REMARK  Name = 
REMARK  5 active torsions:
REMARK  status: ('A' for Active; 'I' for Inactive)
REMARK    1  A    between atoms: C_1  and  C_2
REMARK    2  A    between atoms: C_3  and  N_4
REMARK    3  A    between atoms: C_5  and  C_7
REMARK    4  A    between atoms: C_12  and  C_13
REMARK    5  A    between atoms: C_16  and  C_17
REMARK                            x       y       z     vdW  Elec       q    Type
REMARK                         _______ _______ _______ _____ _____    ______ ____
ROOT
ATOM      1  C   UNL     1       2.469   4.847  -0.348  0.00  0.00    +0.000 A 
ATOM      2  C   UNL     1       1.315   5.053   0.437  0.00  0.00    +0.000 A 
ATOM      3  C   UNL     1       0.558   6.216   0.300  0.00  0.00    +0.000 A 
ATOM      4  C   UNL     1       0.956   7.199  -0.596  0.00  0.00    +0.000 A 
ATOM      5  C   UNL     1       2.110   7.019  -1.362  0.00  0.00    +0.000 A 
ATOM      6  C   UNL     1       2.876   5.842  -1.266  0.00  0.00    +0.000 A 
ENDROOT
BRANCH   6   7
ATOM      7  C   UNL     1       4.046   5.733  -2.129  0.00  0.00    +0.000 A 
ATOM      8  N   UNL     1       4.880   6.662  -2.553  0.00  0.00    +0.000 NA
ATOM      9  N   UNL     1       5.816   6.014  -3.340  0.00  0.00    +0.000 NA
ATOM     10  C   UNL     1       5.465   4.743  -3.364  0.00  0.00    +0.000 A 
ATOM     11  O   UNL     1       4.301   4.510  -2.680  0.00  0.00    +0.000 OA
BRANCH  10  12
ATOM     12  C   UNL     1       6.090   3.592  -4.002  0.00  0.00    +0.000 A 
ATOM     13  C   UNL     1       7.268   3.754  -4.751  0.00  0.00    +0.000 A 
ATOM     14  C   UNL     1       7.854   2.662  -5.398  0.00  0.00    +0.000 A 
ATOM     15  C   UNL     1       7.268   1.407  -5.291  0.00  0.00    +0.000 A 
ATOM     16  F   UNL     1       7.816   0.365  -5.933  0.00  0.00    +0.000 F 
ATOM     17  C   UNL     1       6.119   1.215  -4.540  0.00  0.00    +0.000 A 
ATOM     18  C   UNL     1       5.532   2.306  -3.889  0.00  0.00    +0.000 A 
ENDBRANCH  10  12
ENDBRANCH   6   7
BRANCH   1  20
ATOM     19  N   UNL     1       2.589   2.465   0.236  0.00  0.00    +0.000 N 
ATOM     20  C   UNL     1       3.284   3.615  -0.115  0.00  0.00    +0.000 C 
ATOM     21  O   UNL     1       4.505   3.659  -0.223  0.00  0.00    +0.000 OA
ATOM     22  H   UNL     1       1.586   2.524   0.321  0.00  0.00    +0.000 HD
BRANCH  19  25
ATOM     23  C   UNL     1       0.981   0.104   1.183  0.00  0.00    +0.000 C 
ATOM     24  C   UNL     1       2.449   0.153   0.859  0.00  0.00    +0.000 A 
ATOM     25  C   UNL     1       3.157   1.227   0.443  0.00  0.00    +0.000 A 
ATOM     26  N   UNL     1       4.496   1.082   0.184  0.00  0.00    +0.000 N 
ATOM     27  C   UNL     1       5.203  -0.084   0.261  0.00  0.00    +0.000 A 
ATOM     28  O   UNL     1       6.386  -0.183  -0.040  0.00  0.00    +0.000 OA
ATOM     29  C   UNL     1       4.442  -1.257   0.738  0.00  0.00    +0.000 A 
ATOM     30  C   UNL     1       3.142  -1.121   1.032  0.00  0.00    +0.000 A 
ATOM     31  H   UNL     1       5.013   1.909  -0.112  0.00  0.00    +0.000 HD
ENDBRANCH  19  25
ENDBRANCH   1  20
TORSDOF 4
