REMARK  Name = 
REMARK  7 active torsions:
REMARK  status: ('A' for Active; 'I' for Inactive)
REMARK    1  A    between atoms: C_2  and  C_3
REMARK    2  A    between atoms: C_3  and  N_4
REMARK    3  A    between atoms: C_8  and  C_9
REMARK    4  A    between atoms: N_15  and  C_16
REMARK    5  A    between atoms: C_16  and  C_17
REMARK    6  A    between atoms: C_19  and  O_20
REMARK    7  A    between atoms: O_20  and  C_21
REMARK                            x       y       z     vdW  Elec       q    Type
REMARK                         _______ _______ _______ _____ _____    ______ ____
ROOT
ATOM      1  O   UNL     1       2.715  -1.662  -2.014  0.00  0.00    +0.000 OA
ATOM      2  C   UNL     1       2.275  -0.648  -1.473  0.00  0.00    +0.000 C 
ATOM      3  N   UNL     1       3.071   0.410  -1.097  0.00  0.00    +0.000 N 
ATOM      4  H   UNL     1       2.635   1.318  -0.957  0.00  0.00    +0.000 HD
ENDROOT
BRANCH   2   5
ATOM      5  C   UNL     1       0.784  -0.459  -1.193  0.00  0.00    +0.000 C 
BRANCH   5   6
ATOM      6  N   UNL     1       0.095   0.130  -2.338  0.00  0.00    +0.000 N 
ATOM      7  C   UNL     1      -0.483  -0.699  -3.280  0.00  0.00    +0.000 A 
ATOM      8  C   UNL     1      -1.147  -0.192  -4.324  0.00  0.00    +0.000 A 
ATOM      9  C   UNL     1      -1.232   1.236  -4.487  0.00  0.00    +0.000 A 
ATOM     10  C   UNL     1      -0.661   2.082  -3.608  0.00  0.00    +0.000 A 
ATOM     11  C   UNL     1       0.048   1.525  -2.426  0.00  0.00    +0.000 A 
ATOM     12  O   UNL     1       0.568   2.243  -1.578  0.00  0.00    +0.000 OA
BRANCH  10  13
ATOM     13  C   UNL     1      -0.683   3.555  -3.791  0.00  0.00    +0.000 C 
ATOM     14  F   UNL     1      -0.075   4.295  -2.835  0.00  0.00    +0.000 F 
ATOM     15  F   UNL     1      -0.091   3.898  -4.971  0.00  0.00    +0.000 F 
ATOM     16  F   UNL     1      -1.962   4.017  -3.875  0.00  0.00    +0.000 F 
ENDBRANCH  10  13
ENDBRANCH   5   6
ENDBRANCH   2   5
BRANCH   3  17
ATOM     17  C   UNL     1       4.518   0.362  -1.182  0.00  0.00    +0.000 C 
BRANCH  17  18
ATOM     18  C   UNL     1       5.064   0.865  -2.499  0.00  0.00    +0.000 A 
ATOM     19  C   UNL     1       5.273  -0.019  -3.551  0.00  0.00    +0.000 A 
ATOM     20  C   UNL     1       5.716   0.484  -4.773  0.00  0.00    +0.000 A 
ATOM     21  C   UNL     1       6.031   1.832  -4.884  0.00  0.00    +0.000 A 
ATOM     22  C   UNL     1       5.818   2.639  -3.782  0.00  0.00    +0.000 A 
ATOM     23  N   UNL     1       5.324   2.194  -2.606  0.00  0.00    +0.000 NA
BRANCH  20  24
ATOM     24  O   UNL     1       5.923  -0.282  -5.898  0.00  0.00    +0.000 OA
BRANCH  24  25
ATOM     25  C   UNL     1       5.108  -1.366  -6.145  0.00  0.00    +0.000 A 
ATOM     26  C   UNL     1       3.747  -1.417  -5.807  0.00  0.00    +0.000 A 
ATOM     27  C   UNL     1       3.009  -2.576  -6.049  0.00  0.00    +0.000 A 
ATOM     28  C   UNL     1       3.616  -3.654  -6.683  0.00  0.00    +0.000 A 
ATOM     29  F   UNL     1       2.903  -4.765  -6.914  0.00  0.00    +0.000 F 
ATOM     30  C   UNL     1       4.946  -3.577  -7.082  0.00  0.00    +0.000 A 
ATOM     31  F   UNL     1       5.516  -4.608  -7.721  0.00  0.00    +0.000 F 
ATOM     32  C   UNL     1       5.698  -2.437  -6.817  0.00  0.00    +0.000 A 
ENDBRANCH  24  25
ENDBRANCH  20  24
ENDBRANCH  17  18
ENDBRANCH   3  17
TORSDOF 7
