REMARK  Name = 
REMARK  10 active torsions:
REMARK  status: ('A' for Active; 'I' for Inactive)
REMARK    1  A    between atoms: C_1  and  N_2
REMARK    2  A    between atoms: N_2  and  C_3
REMARK    3  A    between atoms: C_3  and  C_4
REMARK    4  A    between atoms: C_4  and  O_5
REMARK    5  A    between atoms: O_5  and  C_6
REMARK    6  A    between atoms: C_10  and  C_11
REMARK    7  A    between atoms: N_16  and  C_17
REMARK    8  A    between atoms: C_20  and  C_21
REMARK    9  A    between atoms: N_23  and  C_24
REMARK   10  A    between atoms: C_24  and  C_25
REMARK                            x       y       z     vdW  Elec       q    Type
REMARK                         _______ _______ _______ _____ _____    ______ ____
ROOT
ATOM      1  C   UNL     1       5.217   2.333   0.748  0.00  0.00    +0.000 A 
ATOM      2  C   UNL     1       4.732   3.270   1.669  0.00  0.00    +0.000 A 
ATOM      3  C   UNL     1       5.496   4.372   2.063  0.00  0.00    +0.000 A 
ATOM      4  C   UNL     1       6.782   4.545   1.553  0.00  0.00    +0.000 A 
ATOM      5  C   UNL     1       7.307   3.579   0.685  0.00  0.00    +0.000 A 
ATOM      6  C   UNL     1       6.530   2.478   0.285  0.00  0.00    +0.000 A 
ENDROOT
BRANCH   1  11
ATOM      7  C   UNL     1       0.988   0.079  -0.049  0.00  0.00    +0.000 C 
ATOM      8  N   UNL     1       2.448   0.037  -0.135  0.00  0.00    +0.000 N 
ATOM      9  C   UNL     1       3.059   1.200   0.330  0.00  0.00    +0.000 C 
ATOM     10  O   UNL     1       2.360   2.121   0.756  0.00  0.00    +0.000 OA
ATOM     11  N   UNL     1       4.433   1.249   0.266  0.00  0.00    +0.000 N 
ATOM     12  H   UNL     1       4.886   0.610  -0.367  0.00  0.00    +0.000 HD
BRANCH   8  13
ATOM     13  C   UNL     1       3.144  -1.179  -0.614  0.00  0.00    +0.000 C 
BRANCH  13  14
ATOM     14  C   UNL     1       2.227  -2.349  -0.997  0.00  0.00    +0.000 C 
BRANCH  14  15
ATOM     15  O   UNL     1       2.944  -3.493  -1.463  0.00  0.00    +0.000 OA
BRANCH  15  16
ATOM     16  C   UNL     1       2.142  -4.550  -1.834  0.00  0.00    +0.000 A 
ATOM     17  C   UNL     1       0.742  -4.579  -1.758  0.00  0.00    +0.000 A 
ATOM     18  C   UNL     1       0.027  -5.708  -2.163  0.00  0.00    +0.000 A 
ATOM     19  C   UNL     1       0.704  -6.821  -2.651  0.00  0.00    +0.000 A 
ATOM     20  C   UNL     1       2.100  -6.804  -2.733  0.00  0.00    +0.000 A 
ATOM     21  C   UNL     1       2.815  -5.671  -2.325  0.00  0.00    +0.000 A 
BRANCH  20  22
ATOM     22  C   UNL     1       2.795  -7.949  -3.242  0.00  0.00    +0.000 C 
ATOM     23  N   UNL     1       3.351  -8.880  -3.659  0.00  0.00    +0.000 NA
ENDBRANCH  20  22
ENDBRANCH  15  16
ENDBRANCH  14  15
ENDBRANCH  13  14
ENDBRANCH   8  13
ENDBRANCH   1  11
BRANCH   4  24
ATOM     24  C   UNL     1       7.625   5.707   1.956  0.00  0.00    +0.000 C 
ATOM     25  O   UNL     1       8.846   5.591   1.992  0.00  0.00    +0.000 OA
ATOM     26  N   UNL     1       6.957   6.875   2.254  0.00  0.00    +0.000 N 
ATOM     27  H   UNL     1       5.982   6.971   2.000  0.00  0.00    +0.000 HD
BRANCH  26  28
ATOM     28  C   UNL     1       7.657   8.083   2.637  0.00  0.00    +0.000 C 
BRANCH  28  29
ATOM     29  C   UNL     1       7.978   8.945   1.449  0.00  0.00    +0.000 A 
ATOM     30  C   UNL     1       9.198   8.810   0.772  0.00  0.00    +0.000 A 
ATOM     31  C   UNL     1       9.476   9.590  -0.354  0.00  0.00    +0.000 A 
ATOM     32  C   UNL     1       8.534  10.507  -0.821  0.00  0.00    +0.000 A 
ATOM     33  C   UNL     1       7.317  10.650  -0.155  0.00  0.00    +0.000 A 
ATOM     34  C   UNL     1       7.050   9.872   0.969  0.00  0.00    +0.000 A 
ATOM     35  F   UNL     1       5.872  10.021   1.592  0.00  0.00    +0.000 F 
ENDBRANCH  28  29
ENDBRANCH  26  28
ENDBRANCH   4  24
TORSDOF 9
