REMARK  Name = 
REMARK  6 active torsions:
REMARK  status: ('A' for Active; 'I' for Inactive)
REMARK    1  A    between atoms: C_2  and  C_17
REMARK    2  A    between atoms: N_3  and  C_4
REMARK    3  A    between atoms: C_4  and  C_5
REMARK    4  A    between atoms: C_9  and  C_10
REMARK    5  A    between atoms: N_19  and  C_20
REMARK    6  A    between atoms: C_28  and  O_29
REMARK                            x       y       z     vdW  Elec       q    Type
REMARK                         _______ _______ _______ _____ _____    ______ ____
ROOT
ATOM      1  O   UNL     1       1.011   0.230   0.181  0.00  0.00    +0.000 OA
ATOM      2  C   UNL     1       2.239   0.162   0.099  0.00  0.00    +0.000 C 
ATOM      3  N   UNL     1       2.972  -0.780   0.788  0.00  0.00    +0.000 N 
ATOM      4  H   UNL     1       3.980  -0.747   0.670  0.00  0.00    +0.000 HD
ENDROOT
BRANCH   2   5
ATOM      5  C   UNL     1       3.042   1.083  -0.713  0.00  0.00    +0.000 A 
ATOM      6  N   UNL     1       4.392   1.026  -0.734  0.00  0.00    +0.000 NA
ATOM      7  N   UNL     1       4.782   2.097  -1.481  0.00  0.00    +0.000 N 
ATOM      8  C   UNL     1       3.705   2.772  -2.010  0.00  0.00    +0.000 A 
ATOM      9  C   UNL     1       2.590   2.134  -1.542  0.00  0.00    +0.000 A 
BRANCH   7  10
ATOM     10  C   UNL     1       6.160   2.421  -1.615  0.00  0.00    +0.000 A 
ATOM     11  C   UNL     1       6.577   3.571  -2.304  0.00  0.00    +0.000 A 
ATOM     12  C   UNL     1       7.938   3.889  -2.381  0.00  0.00    +0.000 A 
ATOM     13  C   UNL     1       8.884   3.058  -1.784  0.00  0.00    +0.000 A 
ATOM     14  C   UNL     1       8.466   1.914  -1.116  0.00  0.00    +0.000 A 
ATOM     15  F   UNL     1       9.377   1.115  -0.547  0.00  0.00    +0.000 F 
ATOM     16  C   UNL     1       7.119   1.588  -1.022  0.00  0.00    +0.000 A 
ENDBRANCH   7  10
BRANCH   9  17
ATOM     17  O   UNL     1       1.333   2.503  -1.826  0.00  0.00    +0.000 OA
ATOM     18  H   UNL     1       1.317   3.255  -2.441  0.00  0.00    +0.000 HD
ENDBRANCH   9  17
ENDBRANCH   2   5
BRANCH   3  19
ATOM     19  C   UNL     1       2.360  -1.725   1.687  0.00  0.00    +0.000 C 
BRANCH  19  20
ATOM     20  C   UNL     1       2.863  -1.550   3.098  0.00  0.00    +0.000 A 
ATOM     21  C   UNL     1       3.901  -2.343   3.593  0.00  0.00    +0.000 A 
ATOM     22  C   UNL     1       4.366  -2.155   4.893  0.00  0.00    +0.000 A 
ATOM     23  C   UNL     1       3.815  -1.156   5.699  0.00  0.00    +0.000 A 
ATOM     24  C   UNL     1       2.792  -0.315   5.226  0.00  0.00    +0.000 A 
ATOM     25  C   UNL     1       2.315  -0.551   3.923  0.00  0.00    +0.000 A 
BRANCH  24  26
ATOM     26  C   UNL     1       2.276   0.804   6.045  0.00  0.00    +0.000 A 
ATOM     27  C   UNL     1       0.940   1.228   5.991  0.00  0.00    +0.000 A 
ATOM     28  C   UNL     1       0.507   2.315   6.751  0.00  0.00    +0.000 A 
ATOM     29  C   UNL     1       1.422   2.955   7.566  0.00  0.00    +0.000 A 
ATOM     30  N   UNL     1       2.715   2.591   7.662  0.00  0.00    +0.000 NA
ATOM     31  C   UNL     1       3.105   1.538   6.900  0.00  0.00    +0.000 A 
ENDBRANCH  24  26
ENDBRANCH  19  20
ENDBRANCH   3  19
TORSDOF 6
