REMARK  Name = 
REMARK  9 active torsions:
REMARK  status: ('A' for Active; 'I' for Inactive)
REMARK    1  A    between atoms: C_1  and  C_2
REMARK    2  A    between atoms: C_3  and  C_4
REMARK    3  A    between atoms: N_6  and  C_7
REMARK    4  A    between atoms: C_7  and  C_8
REMARK    5  A    between atoms: C_12  and  C_13
REMARK    6  A    between atoms: N_22  and  C_23
REMARK    7  A    between atoms: C_23  and  C_24
REMARK    8  A    between atoms: C_24  and  O_25
REMARK    9  A    between atoms: O_25  and  C_26
REMARK                            x       y       z     vdW  Elec       q    Type
REMARK                         _______ _______ _______ _____ _____    ______ ____
ROOT
ATOM      1  C   UNL     1       3.010  -2.490  -0.030  0.00  0.00    +0.000 C 
ATOM      2  O   UNL     1       1.838  -2.847  -0.089  0.00  0.00    +0.000 OA
ATOM      3  N   UNL     1       4.067  -3.377   0.022  0.00  0.00    +0.000 N 
ATOM      4  H   UNL     1       5.003  -2.994  -0.059  0.00  0.00    +0.000 HD
ENDROOT
BRANCH   1   7
ATOM      5  C   UNL     1       1.171   0.278  -0.095  0.00  0.00    +0.000 C 
ATOM      6  C   UNL     1       2.635   0.064  -0.037  0.00  0.00    +0.000 A 
ATOM      7  C   UNL     1       3.417  -1.087  -0.008  0.00  0.00    +0.000 A 
ATOM      8  N   UNL     1       4.741  -0.723   0.050  0.00  0.00    +0.000 NA
ATOM      9  N   UNL     1       4.810   0.594   0.062  0.00  0.00    +0.000 NA
ATOM     10  N   UNL     1       3.557   1.082   0.008  0.00  0.00    +0.000 N 
BRANCH  10  11
ATOM     11  C   UNL     1       3.340   2.524  -0.008  0.00  0.00    +0.000 C 
BRANCH  11  12
ATOM     12  C   UNL     1       4.656   3.301   0.043  0.00  0.00    +0.000 C 
BRANCH  12  13
ATOM     13  O   UNL     1       4.471   4.721   0.004  0.00  0.00    +0.000 OA
BRANCH  13  14
ATOM     14  C   UNL     1       5.648   5.441   0.004  0.00  0.00    +0.000 A 
ATOM     15  C   UNL     1       6.936   4.889   0.079  0.00  0.00    +0.000 A 
ATOM     16  C   UNL     1       8.066   5.709   0.059  0.00  0.00    +0.000 A 
ATOM     17  C   UNL     1       7.910   7.084  -0.032  0.00  0.00    +0.000 A 
ATOM     18  F   UNL     1       8.996   7.868  -0.056  0.00  0.00    +0.000 F 
ATOM     19  C   UNL     1       6.645   7.654  -0.101  0.00  0.00    +0.000 A 
ATOM     20  C   UNL     1       5.513   6.830  -0.082  0.00  0.00    +0.000 A 
ENDBRANCH  13  14
ENDBRANCH  12  13
ENDBRANCH  11  12
ENDBRANCH  10  11
ENDBRANCH   1   7
BRANCH   3  21
ATOM     21  C   UNL     1       3.878  -4.803  -0.100  0.00  0.00    +0.000 C 
BRANCH  21  22
ATOM     22  C   UNL     1       4.896  -5.596   0.683  0.00  0.00    +0.000 A 
ATOM     23  C   UNL     1       5.057  -5.383   2.057  0.00  0.00    +0.000 A 
ATOM     24  C   UNL     1       5.929  -6.178   2.797  0.00  0.00    +0.000 A 
ATOM     25  C   UNL     1       6.625  -7.219   2.179  0.00  0.00    +0.000 A 
ATOM     26  C   UNL     1       6.465  -7.496   0.810  0.00  0.00    +0.000 A 
ATOM     27  C   UNL     1       5.618  -6.641   0.074  0.00  0.00    +0.000 A 
BRANCH  26  28
ATOM     28  C   UNL     1       7.097  -8.674   0.173  0.00  0.00    +0.000 A 
ATOM     29  C   UNL     1       7.284  -9.879   0.858  0.00  0.00    +0.000 A 
ATOM     30  C   UNL     1       7.816 -10.979   0.187  0.00  0.00    +0.000 A 
ATOM     31  C   UNL     1       8.155 -10.854  -1.153  0.00  0.00    +0.000 A 
ATOM     32  C   UNL     1       7.946  -9.631  -1.763  0.00  0.00    +0.000 A 
ATOM     33  N   UNL     1       7.425  -8.550  -1.139  0.00  0.00    +0.000 NA
ENDBRANCH  26  28
ENDBRANCH  21  22
ENDBRANCH   3  21
TORSDOF 8
