REMARK  Name = 
REMARK  4 active torsions:
REMARK  status: ('A' for Active; 'I' for Inactive)
REMARK    1  A    between atoms: N_3  and  C_4
REMARK    2  A    between atoms: C_7  and  N_8
REMARK    3  A    between atoms: N_16  and  C_17
REMARK    4  A    between atoms: N_21  and  C_22
REMARK                            x       y       z     vdW  Elec       q    Type
REMARK                         _______ _______ _______ _____ _____    ______ ____
ROOT
ATOM      1  O   UNL     1       2.693  -0.808  -0.868  0.00  0.00    +0.000 OA
ATOM      2  C   UNL     1       2.243  -0.002  -0.059  0.00  0.00    +0.000 C 
ATOM      3  N   UNL     1       0.901   0.318   0.049  0.00  0.00    +0.000 N 
ATOM      4  N   UNL     1       3.037   0.741   0.782  0.00  0.00    +0.000 N 
ATOM      5  H   UNL     1       0.679   1.130   0.607  0.00  0.00    +0.000 HD
ATOM      6  H   UNL     1       2.609   1.233   1.563  0.00  0.00    +0.000 HD
ENDROOT
BRANCH   3   7
ATOM      7  C   UNL     1      -0.098  -0.144  -0.841  0.00  0.00    +0.000 A 
ATOM      8  C   UNL     1       0.060  -1.268  -1.660  0.00  0.00    +0.000 A 
ATOM      9  C   UNL     1      -0.895  -1.602  -2.624  0.00  0.00    +0.000 A 
ATOM     10  C   UNL     1      -2.022  -0.792  -2.791  0.00  0.00    +0.000 A 
ATOM     11  C   UNL     1      -2.216   0.284  -1.927  0.00  0.00    +0.000 A 
ATOM     12  F   UNL     1      -3.322   1.040  -1.988  0.00  0.00    +0.000 F 
ATOM     13  C   UNL     1      -1.277   0.596  -0.941  0.00  0.00    +0.000 A 
BRANCH  10  14
ATOM     14  N   UNL     1      -2.916  -1.066  -3.850  0.00  0.00    +0.000 N 
ATOM     15  C   UNL     1      -3.790  -0.197  -4.469  0.00  0.00    +0.000 A 
ATOM     16  C   UNL     1      -4.448  -0.908  -5.442  0.00  0.00    +0.000 A 
ATOM     17  C   UNL     1      -3.911  -2.199  -5.356  0.00  0.00    +0.000 A 
ATOM     18  N   UNL     1      -2.950  -2.293  -4.437  0.00  0.00    +0.000 NA
ENDBRANCH  10  14
ENDBRANCH   3   7
BRANCH   4  19
ATOM     19  C   UNL     1       4.421   0.834   0.744  0.00  0.00    +0.000 A 
ATOM     20  C   UNL     1       5.223   0.249  -0.165  0.00  0.00    +0.000 A 
ATOM     21  C   UNL     1       6.644   0.421  -0.145  0.00  0.00    +0.000 A 
ATOM     22  C   UNL     1       7.216   1.139   0.821  0.00  0.00    +0.000 A 
ATOM     23  N   UNL     1       6.468   1.764   1.811  0.00  0.00    +0.000 N 
ATOM     24  C   UNL     1       5.061   1.686   1.823  0.00  0.00    +0.000 A 
ATOM     25  O   UNL     1       4.305   2.203   2.654  0.00  0.00    +0.000 OA
BRANCH  23  26
ATOM     26  C   UNL     1       7.127   2.443   2.880  0.00  0.00    +0.000 A 
ATOM     27  C   UNL     1       8.176   1.811   3.563  0.00  0.00    +0.000 A 
ATOM     28  C   UNL     1       8.771   2.426   4.665  0.00  0.00    +0.000 A 
ATOM     29  C   UNL     1       8.354   3.695   5.062  0.00  0.00    +0.000 A 
ATOM     30  C   UNL     1       7.346   4.351   4.357  0.00  0.00    +0.000 A 
ATOM     31  C   UNL     1       6.725   3.721   3.277  0.00  0.00    +0.000 A 
ENDBRANCH  23  26
ENDBRANCH   4  19
TORSDOF 4
