REMARK  Name = 
REMARK  5 active torsions:
REMARK  status: ('A' for Active; 'I' for Inactive)
REMARK    1  A    between atoms: C_2  and  C_3
REMARK    2  A    between atoms: C_3  and  C_4
REMARK    3  A    between atoms: N_14  and  C_15
REMARK    4  A    between atoms: C_17  and  N_18
REMARK    5  A    between atoms: C_19  and  C_21
REMARK                            x       y       z     vdW  Elec       q    Type
REMARK                         _______ _______ _______ _____ _____    ______ ____
ROOT
ATOM      1  C   UNL     1       4.389   0.505  -1.131  0.00  0.00    +0.000 A 
ATOM      2  C   UNL     1       5.032  -0.706  -0.868  0.00  0.00    +0.000 A 
ATOM      3  C   UNL     1       6.420  -0.842  -0.938  0.00  0.00    +0.000 A 
ATOM      4  C   UNL     1       7.183   0.272  -1.292  0.00  0.00    +0.000 A 
ATOM      5  C   UNL     1       6.549   1.474  -1.633  0.00  0.00    +0.000 A 
ATOM      6  C   UNL     1       5.154   1.588  -1.563  0.00  0.00    +0.000 A 
ENDROOT
BRANCH   1   9
ATOM      7  O   UNL     1       2.575  -1.101   0.514  0.00  0.00    +0.000 OA
ATOM      8  C   UNL     1       2.185  -0.191  -0.214  0.00  0.00    +0.000 C 
ATOM      9  N   UNL     1       2.990   0.651  -0.976  0.00  0.00    +0.000 N 
ATOM     10  H   UNL     1       2.569   1.489  -1.355  0.00  0.00    +0.000 HD
BRANCH   8  11
ATOM     11  C   UNL     1       0.700   0.095  -0.319  0.00  0.00    +0.000 C 
BRANCH  11  12
ATOM     12  C   UNL     1       0.025  -0.528  -1.519  0.00  0.00    +0.000 A 
ATOM     13  C   UNL     1      -1.141   0.059  -2.026  0.00  0.00    +0.000 A 
ATOM     14  C   UNL     1      -1.805  -0.500  -3.121  0.00  0.00    +0.000 A 
ATOM     15  C   UNL     1      -1.323  -1.670  -3.730  0.00  0.00    +0.000 A 
ATOM     16  C   UNL     1      -1.956  -2.245  -4.838  0.00  0.00    +0.000 A 
ATOM     17  C   UNL     1      -1.423  -3.403  -5.383  0.00  0.00    +0.000 A 
ATOM     18  N   UNL     1      -0.324  -4.023  -4.908  0.00  0.00    +0.000 NA
ATOM     19  C   UNL     1       0.273  -3.454  -3.834  0.00  0.00    +0.000 A 
ATOM     20  C   UNL     1      -0.171  -2.287  -3.208  0.00  0.00    +0.000 A 
ATOM     21  C   UNL     1       0.484  -1.721  -2.099  0.00  0.00    +0.000 A 
ENDBRANCH  11  12
ENDBRANCH   8  11
ENDBRANCH   1   9
BRANCH   3  22
ATOM     22  N   UNL     1       7.070  -2.063  -0.634  0.00  0.00    +0.000 N 
ATOM     23  C   UNL     1       6.447  -3.296  -0.598  0.00  0.00    +0.000 C 
ATOM     24  O   UNL     1       5.298  -3.539  -0.969  0.00  0.00    +0.000 OA
ATOM     25  H   UNL     1       8.074  -2.026  -0.536  0.00  0.00    +0.000 HD
BRANCH  23  26
ATOM     26  C   UNL     1       7.278  -4.475  -0.173  0.00  0.00    +0.000 A 
ATOM     27  C   UNL     1       8.429  -4.429   0.519  0.00  0.00    +0.000 A 
ATOM     28  C   UNL     1       9.084  -5.666   0.895  0.00  0.00    +0.000 A 
ATOM     29  C   UNL     1       8.547  -6.855   0.587  0.00  0.00    +0.000 A 
ATOM     30  C   UNL     1       7.266  -6.915  -0.159  0.00  0.00    +0.000 A 
ATOM     31  O   UNL     1       6.749  -7.985  -0.444  0.00  0.00    +0.000 OA
ATOM     32  N   UNL     1       6.730  -5.702  -0.491  0.00  0.00    +0.000 N 
ATOM     33  H   UNL     1       5.832  -5.698  -0.969  0.00  0.00    +0.000 HD
ENDBRANCH  23  26
ENDBRANCH   3  22
TORSDOF 5
