REMARK  Name = 
REMARK  4 active torsions:
REMARK  status: ('A' for Active; 'I' for Inactive)
REMARK    1  A    between atoms: C_2  and  C_17
REMARK    2  A    between atoms: N_3  and  C_4
REMARK    3  A    between atoms: C_7  and  O_8
REMARK    4  A    between atoms: O_8  and  C_9
REMARK                            x       y       z     vdW  Elec       q    Type
REMARK                         _______ _______ _______ _____ _____    ______ ____
ROOT
ATOM      1  O   UNL     1       1.359  -0.233  -0.628  0.00  0.00    +0.000 OA
ATOM      2  C   UNL     1       2.417  -0.075  -0.028  0.00  0.00    +0.000 C 
ATOM      3  N   UNL     1       2.850  -0.804   1.062  0.00  0.00    +0.000 N 
ATOM      4  H   UNL     1       3.684  -0.484   1.539  0.00  0.00    +0.000 HD
ENDROOT
BRANCH   2   5
ATOM      5  C   UNL     1       3.340   1.051  -0.392  0.00  0.00    +0.000 A 
ATOM      6  C   UNL     1       4.661   0.794  -0.368  0.00  0.00    +0.000 A 
ATOM      7  C   UNL     1       5.665   1.842  -0.616  0.00  0.00    +0.000 A 
ATOM      8  O   UNL     1       6.860   1.594  -0.519  0.00  0.00    +0.000 OA
ATOM      9  N   UNL     1       5.195   3.085  -0.920  0.00  0.00    +0.000 N 
ATOM     10  C   UNL     1       3.837   3.399  -1.004  0.00  0.00    +0.000 A 
ATOM     11  C   UNL     1       3.471   4.717  -1.302  0.00  0.00    +0.000 A 
ATOM     12  C   UNL     1       2.127   5.059  -1.379  0.00  0.00    +0.000 A 
ATOM     13  C   UNL     1       1.164   4.077  -1.177  0.00  0.00    +0.000 A 
ATOM     14  F   UNL     1      -0.131   4.407  -1.250  0.00  0.00    +0.000 F 
ATOM     15  C   UNL     1       1.521   2.761  -0.887  0.00  0.00    +0.000 A 
ATOM     16  C   UNL     1       2.870   2.402  -0.775  0.00  0.00    +0.000 A 
ATOM     17  H   UNL     1       5.902   3.795  -1.083  0.00  0.00    +0.000 HD
ENDBRANCH   2   5
BRANCH   3  18
ATOM     18  C   UNL     1       2.173  -1.866   1.691  0.00  0.00    +0.000 A 
ATOM     19  C   UNL     1       1.036  -2.494   1.186  0.00  0.00    +0.000 A 
ATOM     20  C   UNL     1       0.435  -3.525   1.911  0.00  0.00    +0.000 A 
ATOM     21  C   UNL     1       1.006  -3.900   3.114  0.00  0.00    +0.000 A 
ATOM     22  N   UNL     1       2.094  -3.295   3.644  0.00  0.00    +0.000 NA
ATOM     23  C   UNL     1       2.662  -2.318   2.913  0.00  0.00    +0.000 A 
BRANCH  21  24
ATOM     24  O   UNL     1       0.440  -4.979   3.781  0.00  0.00    +0.000 OA
BRANCH  24  25
ATOM     25  C   UNL     1       1.301  -5.766   4.516  0.00  0.00    +0.000 A 
ATOM     26  C   UNL     1       0.830  -6.270   5.728  0.00  0.00    +0.000 A 
ATOM     27  C   UNL     1       1.674  -7.042   6.530  0.00  0.00    +0.000 A 
ATOM     28  C   UNL     1       2.980  -7.313   6.119  0.00  0.00    +0.000 A 
ATOM     29  C   UNL     1       3.438  -6.842   4.891  0.00  0.00    +0.000 A 
ATOM     30  C   UNL     1       2.590  -6.095   4.079  0.00  0.00    +0.000 A 
ENDBRANCH  24  25
ENDBRANCH  21  24
ENDBRANCH   3  18
TORSDOF 4
