REMARK  Name = 
REMARK  5 active torsions:
REMARK  status: ('A' for Active; 'I' for Inactive)
REMARK    1  A    between atoms: C_2  and  C_19
REMARK    2  A    between atoms: N_3  and  C_4
REMARK    3  A    between atoms: C_8  and  O_9
REMARK    4  A    between atoms: O_9  and  C_10
REMARK    5  A    between atoms: N_23  and  C_24
REMARK                            x       y       z     vdW  Elec       q    Type
REMARK                         _______ _______ _______ _____ _____    ______ ____
ROOT
ATOM      1  O   UNL     1       0.965   0.482   0.226  0.00  0.00    +0.000 OA
ATOM      2  C   UNL     1       2.124   0.171  -0.013  0.00  0.00    +0.000 C 
ATOM      3  N   UNL     1       2.745   0.332  -1.243  0.00  0.00    +0.000 N 
ATOM      4  H   UNL     1       3.669  -0.067  -1.347  0.00  0.00    +0.000 HD
ENDROOT
BRANCH   3   5
ATOM      5  C   UNL     1       2.123   0.824  -2.417  0.00  0.00    +0.000 A 
ATOM      6  C   UNL     1       0.889   1.473  -2.406  0.00  0.00    +0.000 A 
ATOM      7  C   UNL     1       0.314   1.835  -3.608  0.00  0.00    +0.000 A 
ATOM      8  N   UNL     1       0.895   1.623  -4.800  0.00  0.00    +0.000 NA
ATOM      9  C   UNL     1       2.123   1.064  -4.796  0.00  0.00    +0.000 A 
ATOM     10  C   UNL     1       2.769   0.637  -3.641  0.00  0.00    +0.000 A 
BRANCH   9  11
ATOM     11  O   UNL     1       2.792   0.884  -6.003  0.00  0.00    +0.000 OA
BRANCH  11  12
ATOM     12  C   UNL     1       2.401   1.670  -7.066  0.00  0.00    +0.000 A 
ATOM     13  C   UNL     1       2.135   3.041  -6.941  0.00  0.00    +0.000 A 
ATOM     14  C   UNL     1       1.729   3.780  -8.051  0.00  0.00    +0.000 A 
ATOM     15  C   UNL     1       1.639   3.159  -9.292  0.00  0.00    +0.000 A 
ATOM     16  F   UNL     1       1.254   3.875 -10.356  0.00  0.00    +0.000 F 
ATOM     17  C   UNL     1       1.948   1.813  -9.445  0.00  0.00    +0.000 A 
ATOM     18  C   UNL     1       2.328   1.076  -8.328  0.00  0.00    +0.000 A 
ATOM     19  F   UNL     1       2.627  -0.223  -8.481  0.00  0.00    +0.000 F 
ENDBRANCH  11  12
ENDBRANCH   9  11
ENDBRANCH   3   5
BRANCH   2  20
ATOM     20  C   UNL     1       2.943  -0.461   0.991  0.00  0.00    +0.000 A 
ATOM     21  C   UNL     1       4.275  -0.249   1.297  0.00  0.00    +0.000 A 
ATOM     22  C   UNL     1       4.478  -0.914   2.512  0.00  0.00    +0.000 A 
ATOM     23  N   UNL     1       3.377  -1.515   2.953  0.00  0.00    +0.000 NA
ATOM     24  N   UNL     1       2.459  -1.331   1.963  0.00  0.00    +0.000 N 
BRANCH  24  25
ATOM     25  C   UNL     1       1.237  -2.059   1.998  0.00  0.00    +0.000 A 
ATOM     26  C   UNL     1       0.711  -2.455   3.230  0.00  0.00    +0.000 A 
ATOM     27  C   UNL     1      -0.486  -3.152   3.233  0.00  0.00    +0.000 A 
ATOM     28  N   UNL     1      -1.157  -3.503   2.115  0.00  0.00    +0.000 NA
ATOM     29  C   UNL     1      -0.611  -3.134   0.938  0.00  0.00    +0.000 A 
ATOM     30  C   UNL     1       0.569  -2.417   0.825  0.00  0.00    +0.000 A 
ENDBRANCH  24  25
ENDBRANCH   2  20
TORSDOF 5
