REMARK  Name = 
REMARK  5 active torsions:
REMARK  status: ('A' for Active; 'I' for Inactive)
REMARK    1  A    between atoms: C_1  and  O_2
REMARK    2  A    between atoms: O_2  and  C_3
REMARK    3  A    between atoms: C_9  and  C_10
REMARK    4  A    between atoms: C_14  and  C_15
REMARK    5  A    between atoms: C_15  and  N_16
REMARK                            x       y       z     vdW  Elec       q    Type
REMARK                         _______ _______ _______ _____ _____    ______ ____
ROOT
ATOM      1  C   UNL     1       4.543  -1.248   1.419  0.00  0.00    +0.000 A 
ATOM      2  C   UNL     1       5.853  -0.842   1.714  0.00  0.00    +0.000 A 
ATOM      3  N   UNL     1       6.341  -0.562   2.951  0.00  0.00    +0.000 NA
ATOM      4  C   UNL     1       5.481  -0.673   3.980  0.00  0.00    +0.000 A 
ATOM      5  C   UNL     1       4.152  -1.035   3.825  0.00  0.00    +0.000 A 
ATOM      6  C   UNL     1       3.693  -1.321   2.528  0.00  0.00    +0.000 A 
ENDROOT
BRANCH   1  13
ATOM      7  C   UNL     1       2.834  -1.373  -0.499  0.00  0.00    +0.000 A 
ATOM      8  C   UNL     1       2.528  -1.750  -1.821  0.00  0.00    +0.000 A 
ATOM      9  C   UNL     1       3.476  -2.386  -2.618  0.00  0.00    +0.000 A 
ATOM     10  C   UNL     1       4.729  -2.650  -2.095  0.00  0.00    +0.000 A 
ATOM     11  F   UNL     1       5.648  -3.258  -2.855  0.00  0.00    +0.000 F 
ATOM     12  C   UNL     1       5.051  -2.285  -0.793  0.00  0.00    +0.000 A 
ATOM     13  C   UNL     1       4.124  -1.621   0.041  0.00  0.00    +0.000 A 
BRANCH   7  15
ATOM     14  C   UNL     1       0.548  -0.965   0.020  0.00  0.00    +0.000 C 
ATOM     15  O   UNL     1       1.925  -0.701   0.285  0.00  0.00    +0.000 OA
ENDBRANCH   7  15
ENDBRANCH   1  13
BRANCH   5  16
ATOM     16  C   UNL     1       3.245  -1.099   5.013  0.00  0.00    +0.000 C 
BRANCH  16  17
ATOM     17  N   UNL     1       3.010  -2.425   5.566  0.00  0.00    +0.000 N 
ATOM     18  C   UNL     1       2.507  -3.364   4.695  0.00  0.00    +0.000 A 
ATOM     19  N   UNL     1       1.311  -3.843   4.758  0.00  0.00    +0.000 NA
ATOM     20  C   UNL     1       0.475  -3.312   5.758  0.00  0.00    +0.000 A 
ATOM     21  C   UNL     1      -0.911  -3.330   5.618  0.00  0.00    +0.000 A 
ATOM     22  F   UNL     1      -1.470  -3.843   4.511  0.00  0.00    +0.000 F 
ATOM     23  C   UNL     1      -1.723  -2.742   6.585  0.00  0.00    +0.000 A 
ATOM     24  F   UNL     1      -3.049  -2.691   6.404  0.00  0.00    +0.000 F 
ATOM     25  C   UNL     1      -1.175  -2.160   7.728  0.00  0.00    +0.000 A 
ATOM     26  C   UNL     1       0.208  -2.126   7.887  0.00  0.00    +0.000 A 
ATOM     27  C   UNL     1       1.012  -2.672   6.880  0.00  0.00    +0.000 A 
ATOM     28  C   UNL     1       2.452  -2.368   6.836  0.00  0.00    +0.000 A 
ATOM     29  O   UNL     1       3.050  -1.983   7.833  0.00  0.00    +0.000 OA
ENDBRANCH  16  17
ENDBRANCH   5  16
TORSDOF 4
