REMARK  Name = 
REMARK  4 active torsions:
REMARK  status: ('A' for Active; 'I' for Inactive)
REMARK    1  A    between atoms: C_1  and  N_2
REMARK    2  A    between atoms: C_7  and  N_8
REMARK    3  A    between atoms: C_9  and  C_11
REMARK    4  A    between atoms: C_14  and  C_15
REMARK                            x       y       z     vdW  Elec       q    Type
REMARK                         _______ _______ _______ _____ _____    ______ ____
ROOT
ATOM      1  N   UNL     1       4.520  -0.303  -0.244  0.00  0.00    +0.000 N 
ATOM      2  C   UNL     1       5.528   0.636  -0.133  0.00  0.00    +0.000 C 
ATOM      3  O   UNL     1       5.352   1.831   0.128  0.00  0.00    +0.000 OA
ATOM      4  H   UNL     1       4.797  -1.263  -0.450  0.00  0.00    +0.000 HD
ENDROOT
BRANCH   1  11
ATOM      5  C   UNL     1      -2.783   2.096   1.505  0.00  0.00    +0.000 C 
ATOM      6  N   UNL     1      -1.416   1.897   1.063  0.00  0.00    +0.000 N 
ATOM      7  C   UNL     1      -0.538   2.961   1.011  0.00  0.00    +0.000 A 
ATOM      8  C   UNL     1       0.754   2.800   0.707  0.00  0.00    +0.000 A 
ATOM      9  C   UNL     1       1.265   1.456   0.438  0.00  0.00    +0.000 A 
ATOM     10  C   UNL     1       2.626   1.233   0.213  0.00  0.00    +0.000 A 
ATOM     11  C   UNL     1       3.134  -0.048  -0.060  0.00  0.00    +0.000 A 
ATOM     12  C   UNL     1       2.231  -1.116  -0.141  0.00  0.00    +0.000 A 
ATOM     13  C   UNL     1       0.865  -0.908   0.099  0.00  0.00    +0.000 A 
ATOM     14  C   UNL     1       0.392   0.372   0.407  0.00  0.00    +0.000 A 
ATOM     15  C   UNL     1      -1.035   0.587   0.749  0.00  0.00    +0.000 A 
ATOM     16  O   UNL     1      -1.805  -0.370   0.771  0.00  0.00    +0.000 OA
ENDBRANCH   1  11
BRANCH   2  17
ATOM     17  C   UNL     1       6.928   0.175  -0.347  0.00  0.00    +0.000 A 
ATOM     18  C   UNL     1       7.894   1.104  -0.187  0.00  0.00    +0.000 A 
ATOM     19  C   UNL     1       9.286   0.808  -0.406  0.00  0.00    +0.000 A 
ATOM     20  C   UNL     1       9.639  -0.418  -0.813  0.00  0.00    +0.000 A 
ATOM     21  N   UNL     1       8.680  -1.388  -0.983  0.00  0.00    +0.000 N 
ATOM     22  C   UNL     1       7.335  -1.200  -0.743  0.00  0.00    +0.000 A 
ATOM     23  O   UNL     1       6.515  -2.109  -0.852  0.00  0.00    +0.000 OA
ATOM     24  H   UNL     1       8.964  -2.314  -1.278  0.00  0.00    +0.000 HD
BRANCH  20  25
ATOM     25  C   UNL     1      11.039  -0.778  -1.047  0.00  0.00    +0.000 A 
ATOM     26  C   UNL     1      11.800  -1.312   0.000  0.00  0.00    +0.000 A 
ATOM     27  C   UNL     1      13.114  -1.720  -0.224  0.00  0.00    +0.000 A 
ATOM     28  C   UNL     1      13.677  -1.594  -1.493  0.00  0.00    +0.000 A 
ATOM     29  C   UNL     1      12.933  -1.038  -2.534  0.00  0.00    +0.000 A 
ATOM     30  C   UNL     1      11.618  -0.624  -2.312  0.00  0.00    +0.000 A 
ENDBRANCH  20  25
ENDBRANCH   2  17
TORSDOF 3
