REMARK  Name = 
REMARK  5 active torsions:
REMARK  status: ('A' for Active; 'I' for Inactive)
REMARK    1  A    between atoms: C_2  and  C_3
REMARK    2  A    between atoms: C_4  and  N_5
REMARK    3  A    between atoms: N_8  and  C_9
REMARK    4  A    between atoms: C_12  and  C_13
REMARK    5  A    between atoms: N_22  and  C_23
REMARK                            x       y       z     vdW  Elec       q    Type
REMARK                         _______ _______ _______ _____ _____    ______ ____
ROOT
ATOM      1  N   UNL     1       3.635   2.519   0.051  0.00  0.00    +0.000 N 
ATOM      2  C   UNL     1       2.343   2.755  -0.400  0.00  0.00    +0.000 C 
ATOM      3  O   UNL     1       1.587   1.882  -0.812  0.00  0.00    +0.000 OA
ATOM      4  N   UNL     1       2.015   4.108  -0.365  0.00  0.00    +0.000 N 
ATOM      5  H   UNL     1       4.016   3.270   0.616  0.00  0.00    +0.000 HD
ATOM      6  H   UNL     1       2.787   4.742  -0.517  0.00  0.00    +0.000 HD
ENDROOT
BRANCH   1   8
ATOM      7  C   UNL     1       5.553   1.169   0.605  0.00  0.00    +0.000 A 
ATOM      8  C   UNL     1       4.366   1.324  -0.022  0.00  0.00    +0.000 A 
ATOM      9  C   UNL     1       3.874   0.215  -0.823  0.00  0.00    +0.000 A 
ATOM     10  C   UNL     1       4.543  -0.937  -0.922  0.00  0.00    +0.000 A 
ATOM     11  N   UNL     1       5.761  -1.132  -0.299  0.00  0.00    +0.000 N 
ATOM     12  C   UNL     1       6.326  -0.117   0.497  0.00  0.00    +0.000 A 
ATOM     13  O   UNL     1       7.377  -0.231   1.131  0.00  0.00    +0.000 OA
BRANCH  11  14
ATOM     14  C   UNL     1       6.457  -2.379  -0.426  0.00  0.00    +0.000 A 
ATOM     15  C   UNL     1       5.782  -3.594  -0.242  0.00  0.00    +0.000 A 
ATOM     16  C   UNL     1       6.482  -4.804  -0.281  0.00  0.00    +0.000 A 
ATOM     17  C   UNL     1       7.849  -4.815  -0.553  0.00  0.00    +0.000 A 
ATOM     18  C   UNL     1       8.518  -3.618  -0.790  0.00  0.00    +0.000 A 
ATOM     19  C   UNL     1       7.829  -2.405  -0.716  0.00  0.00    +0.000 A 
ENDBRANCH  11  14
BRANCH   7  21
ATOM     20  N   UNL     1       6.518   3.089   2.035  0.00  0.00    +0.000 NA
ATOM     21  C   UNL     1       6.128   2.188   1.406  0.00  0.00    +0.000 C 
ENDBRANCH   7  21
ENDBRANCH   1   8
BRANCH   4  22
ATOM     22  C   UNL     1       0.748   4.556  -0.825  0.00  0.00    +0.000 A 
ATOM     23  C   UNL     1      -0.427   3.864  -0.522  0.00  0.00    +0.000 A 
ATOM     24  C   UNL     1      -1.643   4.223  -1.114  0.00  0.00    +0.000 A 
ATOM     25  C   UNL     1      -1.707   5.280  -2.029  0.00  0.00    +0.000 A 
ATOM     26  C   UNL     1      -0.538   6.019  -2.266  0.00  0.00    +0.000 A 
ATOM     27  C   UNL     1       0.677   5.679  -1.650  0.00  0.00    +0.000 A 
BRANCH  25  28
ATOM     28  C   UNL     1      -2.927   5.589  -2.766  0.00  0.00    +0.000 A 
ATOM     29  C   UNL     1      -4.146   4.950  -2.655  0.00  0.00    +0.000 A 
ATOM     30  N   UNL     1      -4.958   5.548  -3.581  0.00  0.00    +0.000 N 
ATOM     31  C   UNL     1      -4.222   6.506  -4.215  0.00  0.00    +0.000 A 
ATOM     32  N   UNL     1      -2.998   6.562  -3.743  0.00  0.00    +0.000 NA
ATOM     33  H   UNL     1      -5.923   5.315  -3.774  0.00  0.00    +0.000 HD
ENDBRANCH  25  28
ENDBRANCH   4  22
TORSDOF 5
