REMARK  Name = 
REMARK  7 active torsions:
REMARK  status: ('A' for Active; 'I' for Inactive)
REMARK    1  A    between atoms: C_1  and  O_2
REMARK    2  A    between atoms: O_2  and  C_3
REMARK    3  A    between atoms: C_8  and  C_9
REMARK    4  A    between atoms: C_13  and  C_14
REMARK    5  A    between atoms: N_16  and  C_17
REMARK    6  A    between atoms: C_17  and  C_18
REMARK    7  A    between atoms: C_21  and  C_22
REMARK                            x       y       z     vdW  Elec       q    Type
REMARK                         _______ _______ _______ _____ _____    ______ ____
ROOT
ATOM      1  C   UNL     1       7.023   1.085   0.127  0.00  0.00    +0.000 C 
ATOM      2  O   UNL     1       8.077   1.692   0.005  0.00  0.00    +0.000 OA
ATOM      3  N   UNL     1       6.886  -0.287   0.034  0.00  0.00    +0.000 N 
ATOM      4  H   UNL     1       5.985  -0.674   0.272  0.00  0.00    +0.000 HD
ENDROOT
BRANCH   1   9
ATOM      5  C   UNL     1       5.315   3.034  -0.214  0.00  0.00    +0.000 A 
ATOM      6  C   UNL     1       4.109   3.320   0.403  0.00  0.00    +0.000 A 
ATOM      7  N   UNL     1       3.838   2.358   1.335  0.00  0.00    +0.000 N 
ATOM      8  C   UNL     1       4.820   1.408   1.305  0.00  0.00    +0.000 A 
ATOM      9  C   UNL     1       5.771   1.794   0.373  0.00  0.00    +0.000 A 
ATOM     10  H   UNL     1       3.040   2.360   1.957  0.00  0.00    +0.000 HD
BRANCH   5  16
ATOM     11  C   UNL     1       5.706   5.262  -1.400  0.00  0.00    +0.000 A 
ATOM     12  C   UNL     1       6.242   5.957  -2.499  0.00  0.00    +0.000 A 
ATOM     13  C   UNL     1       6.991   5.298  -3.473  0.00  0.00    +0.000 A 
ATOM     14  C   UNL     1       7.202   3.932  -3.369  0.00  0.00    +0.000 A 
ATOM     15  C   UNL     1       6.641   3.221  -2.305  0.00  0.00    +0.000 A 
ATOM     16  C   UNL     1       5.889   3.860  -1.298  0.00  0.00    +0.000 A 
BRANCH  11  18
ATOM     17  C   UNL     1       4.903   7.310  -0.447  0.00  0.00    +0.000 C 
ATOM     18  O   UNL     1       5.010   5.894  -0.397  0.00  0.00    +0.000 OA
ENDBRANCH  11  18
ENDBRANCH   5  16
ENDBRANCH   1   9
BRANCH   3  19
ATOM     19  C   UNL     1       7.993  -1.212  -0.103  0.00  0.00    +0.000 C 
BRANCH  19  20
ATOM     20  C   UNL     1       8.992  -0.836  -1.168  0.00  0.00    +0.000 A 
ATOM     21  C   UNL     1      10.116  -0.071  -0.819  0.00  0.00    +0.000 A 
ATOM     22  C   UNL     1      10.997   0.397  -1.791  0.00  0.00    +0.000 A 
ATOM     23  C   UNL     1      10.796   0.064  -3.131  0.00  0.00    +0.000 A 
ATOM     24  C   UNL     1       9.688  -0.716  -3.491  0.00  0.00    +0.000 A 
ATOM     25  C   UNL     1       8.786  -1.155  -2.513  0.00  0.00    +0.000 A 
BRANCH  23  26
ATOM     26  C   UNL     1      11.750   0.525  -4.146  0.00  0.00    +0.000 A 
ATOM     27  C   UNL     1      12.806  -0.263  -4.415  0.00  0.00    +0.000 A 
ATOM     28  N   UNL     1      13.746   0.111  -5.343  0.00  0.00    +0.000 N 
ATOM     29  C   UNL     1      13.696   1.284  -6.057  0.00  0.00    +0.000 A 
ATOM     30  O   UNL     1      14.544   1.597  -6.884  0.00  0.00    +0.000 OA
ATOM     31  C   UNL     1      12.536   2.168  -5.762  0.00  0.00    +0.000 A 
ATOM     32  C   UNL     1      11.631   1.790  -4.854  0.00  0.00    +0.000 A 
ATOM     33  H   UNL     1      14.537  -0.490  -5.538  0.00  0.00    +0.000 HD
ENDBRANCH  23  26
ENDBRANCH  19  20
ENDBRANCH   3  19
TORSDOF 6
