REMARK  Name = 
REMARK  3 active torsions:
REMARK  status: ('A' for Active; 'I' for Inactive)
REMARK    1  A    between atoms: C_2  and  C_17
REMARK    2  A    between atoms: N_3  and  C_4
REMARK    3  A    between atoms: N_6  and  C_7
REMARK                            x       y       z     vdW  Elec       q    Type
REMARK                         _______ _______ _______ _____ _____    ______ ____
ROOT
ATOM      1  O   UNL     1       1.418  -1.085  -0.068  0.00  0.00    +0.000 OA
ATOM      2  C   UNL     1       2.281  -0.250   0.198  0.00  0.00    +0.000 C 
ATOM      3  N   UNL     1       2.451   0.371   1.421  0.00  0.00    +0.000 N 
ATOM      4  H   UNL     1       3.232   1.022   1.500  0.00  0.00    +0.000 HD
ENDROOT
BRANCH   2   5
ATOM      5  C   UNL     1       3.377   0.003  -0.773  0.00  0.00    +0.000 A 
ATOM      6  C   UNL     1       3.322  -0.688  -1.930  0.00  0.00    +0.000 A 
ATOM      7  N   UNL     1       4.441  -1.241  -2.551  0.00  0.00    +0.000 N 
ATOM      8  C   UNL     1       5.495  -1.510  -1.625  0.00  0.00    +0.000 A 
ATOM      9  C   UNL     1       6.149  -2.737  -1.635  0.00  0.00    +0.000 A 
ATOM     10  C   UNL     1       7.079  -3.019  -0.632  0.00  0.00    +0.000 A 
ATOM     11  C   UNL     1       7.403  -2.049   0.321  0.00  0.00    +0.000 A 
ATOM     12  F   UNL     1       8.289  -2.345   1.280  0.00  0.00    +0.000 F 
ATOM     13  C   UNL     1       6.768  -0.818   0.346  0.00  0.00    +0.000 A 
ATOM     14  C   UNL     1       5.771  -0.590  -0.594  0.00  0.00    +0.000 A 
ATOM     15  C   UNL     1       4.733   0.428  -0.329  0.00  0.00    +0.000 A 
ATOM     16  O   UNL     1       4.913   1.416   0.363  0.00  0.00    +0.000 OA
ATOM     17  H   UNL     1       4.794  -0.576  -3.246  0.00  0.00    +0.000 HD
ENDBRANCH   2   5
BRANCH   3  18
ATOM     18  C   UNL     1       1.782   0.058   2.586  0.00  0.00    +0.000 A 
ATOM     19  C   UNL     1       0.695  -0.729   2.663  0.00  0.00    +0.000 A 
ATOM     20  N   UNL     1       0.049  -1.044   3.850  0.00  0.00    +0.000 N 
ATOM     21  C   UNL     1       0.515  -0.521   5.074  0.00  0.00    +0.000 A 
ATOM     22  O   UNL     1       0.061  -0.722   6.196  0.00  0.00    +0.000 OA
ATOM     23  C   UNL     1       1.738   0.333   4.987  0.00  0.00    +0.000 A 
ATOM     24  C   UNL     1       2.322   0.598   3.812  0.00  0.00    +0.000 A 
BRANCH  20  25
ATOM     25  C   UNL     1      -1.107  -1.916   3.838  0.00  0.00    +0.000 A 
ATOM     26  C   UNL     1      -2.165  -1.747   4.743  0.00  0.00    +0.000 A 
ATOM     27  C   UNL     1      -3.289  -2.576   4.702  0.00  0.00    +0.000 A 
ATOM     28  C   UNL     1      -3.372  -3.600   3.767  0.00  0.00    +0.000 A 
ATOM     29  C   UNL     1      -2.337  -3.788   2.860  0.00  0.00    +0.000 A 
ATOM     30  C   UNL     1      -1.220  -2.948   2.891  0.00  0.00    +0.000 A 
ENDBRANCH  20  25
ENDBRANCH   3  18
TORSDOF 3
