REMARK  Name = 
REMARK  5 active torsions:
REMARK  status: ('A' for Active; 'I' for Inactive)
REMARK    1  A    between atoms: C_2  and  C_22
REMARK    2  A    between atoms: N_3  and  C_4
REMARK    3  A    between atoms: C_9  and  C_10
REMARK    4  A    between atoms: C_10  and  C_12
REMARK    5  A    between atoms: C_25  and  O_26
REMARK                            x       y       z     vdW  Elec       q    Type
REMARK                         _______ _______ _______ _____ _____    ______ ____
ROOT
ATOM      1  C   UNL     1       2.191   1.538  -2.015  0.00  0.00    +0.000 A 
ATOM      2  C   UNL     1       1.112   2.366  -1.683  0.00  0.00    +0.000 A 
ATOM      3  C   UNL     1       0.357   2.996  -2.666  0.00  0.00    +0.000 A 
ATOM      4  C   UNL     1       0.694   2.825  -3.998  0.00  0.00    +0.000 A 
ATOM      5  F   UNL     1      -0.142   3.345  -4.907  0.00  0.00    +0.000 F 
ATOM      6  C   UNL     1       1.834   2.106  -4.363  0.00  0.00    +0.000 A 
ATOM      7  C   UNL     1       2.591   1.462  -3.356  0.00  0.00    +0.000 A 
ENDROOT
BRANCH   1  10
ATOM      8  O   UNL     1       1.111   0.675   0.513  0.00  0.00    +0.000 OA
ATOM      9  C   UNL     1       2.258   0.391   0.178  0.00  0.00    +0.000 C 
ATOM     10  N   UNL     1       2.848   0.756  -1.034  0.00  0.00    +0.000 N 
ATOM     11  H   UNL     1       3.717   0.287  -1.273  0.00  0.00    +0.000 HD
BRANCH   9  12
ATOM     12  C   UNL     1       3.077  -0.429   1.108  0.00  0.00    +0.000 A 
ATOM     13  C   UNL     1       2.490  -0.894   2.265  0.00  0.00    +0.000 A 
ATOM     14  F   UNL     1       1.204  -0.723   2.596  0.00  0.00    +0.000 F 
ATOM     15  C   UNL     1       3.326  -1.568   3.116  0.00  0.00    +0.000 A 
ATOM     16  N   UNL     1       4.625  -1.789   2.871  0.00  0.00    +0.000 NA
ATOM     17  C   UNL     1       5.089  -1.308   1.707  0.00  0.00    +0.000 A 
ATOM     18  N   UNL     1       4.381  -0.631   0.784  0.00  0.00    +0.000 NA
BRANCH  15  19
ATOM     19  O   UNL     1       2.851  -2.050   4.308  0.00  0.00    +0.000 OA
ATOM     20  H   UNL     1       1.911  -1.798   4.362  0.00  0.00    +0.000 HD
ENDBRANCH  15  19
ENDBRANCH   9  12
ENDBRANCH   1  10
BRANCH   6  21
ATOM     21  C   UNL     1       2.203   1.907  -5.793  0.00  0.00    +0.000 C 
ATOM     22  O   UNL     1       2.817   0.883  -6.084  0.00  0.00    +0.000 OA
BRANCH  21  23
ATOM     23  C   UNL     1       1.839   2.901  -6.806  0.00  0.00    +0.000 A 
ATOM     24  C   UNL     1       1.765   4.275  -6.631  0.00  0.00    +0.000 A 
ATOM     25  N   UNL     1       1.358   4.845  -7.807  0.00  0.00    +0.000 N 
ATOM     26  C   UNL     1       1.209   3.883  -8.776  0.00  0.00    +0.000 A 
ATOM     27  C   UNL     1       0.832   4.013 -10.118  0.00  0.00    +0.000 A 
ATOM     28  C   UNL     1       0.756   2.848 -10.886  0.00  0.00    +0.000 A 
ATOM     29  C   UNL     1       1.039   1.605 -10.327  0.00  0.00    +0.000 A 
ATOM     30  C   UNL     1       1.414   1.494  -8.982  0.00  0.00    +0.000 A 
ATOM     31  C   UNL     1       1.509   2.655  -8.184  0.00  0.00    +0.000 A 
ATOM     32  H   UNL     1       1.189   5.831  -7.951  0.00  0.00    +0.000 HD
ENDBRANCH  21  23
ENDBRANCH   6  21
TORSDOF 5
