REMARK  Name = 
REMARK  5 active torsions:
REMARK  status: ('A' for Active; 'I' for Inactive)
REMARK    1  A    between atoms: C_2  and  C_16
REMARK    2  A    between atoms: N_3  and  C_4
REMARK    3  A    between atoms: C_4  and  C_5
REMARK    4  A    between atoms: C_9  and  N_10
REMARK    5  A    between atoms: C_19  and  C_20
REMARK                            x       y       z     vdW  Elec       q    Type
REMARK                         _______ _______ _______ _____ _____    ______ ____
ROOT
ATOM      1  O   UNL     1       0.897   0.157  -0.102  0.00  0.00    +0.000 OA
ATOM      2  C   UNL     1       2.114   0.008   0.005  0.00  0.00    +0.000 C 
ATOM      3  N   UNL     1       2.872   0.695   0.932  0.00  0.00    +0.000 N 
ATOM      4  H   UNL     1       3.882   0.643   0.846  0.00  0.00    +0.000 HD
ENDROOT
BRANCH   2   5
ATOM      5  C   UNL     1       2.845  -0.895  -0.878  0.00  0.00    +0.000 A 
ATOM      6  N   UNL     1       4.165  -1.121  -0.780  0.00  0.00    +0.000 NA
ATOM      7  O   UNL     1       4.469  -2.006  -1.807  0.00  0.00    +0.000 OA
ATOM      8  C   UNL     1       3.342  -2.294  -2.519  0.00  0.00    +0.000 A 
ATOM      9  C   UNL     1       2.286  -1.629  -1.952  0.00  0.00    +0.000 A 
BRANCH   8  10
ATOM     10  C   UNL     1       3.493  -3.143  -3.689  0.00  0.00    +0.000 A 
ATOM     11  C   UNL     1       4.479  -4.133  -3.771  0.00  0.00    +0.000 A 
ATOM     12  F   UNL     1       5.302  -4.363  -2.737  0.00  0.00    +0.000 F 
ATOM     13  C   UNL     1       4.629  -4.921  -4.910  0.00  0.00    +0.000 A 
ATOM     14  C   UNL     1       3.780  -4.722  -5.990  0.00  0.00    +0.000 A 
ATOM     15  F   UNL     1       3.928  -5.467  -7.092  0.00  0.00    +0.000 F 
ATOM     16  C   UNL     1       2.782  -3.762  -5.943  0.00  0.00    +0.000 A 
ATOM     17  C   UNL     1       2.644  -2.986  -4.795  0.00  0.00    +0.000 A 
ATOM     18  F   UNL     1       1.675  -2.058  -4.781  0.00  0.00    +0.000 F 
ENDBRANCH   8  10
ENDBRANCH   2   5
BRANCH   3  19
ATOM     19  C   UNL     1       2.253   1.734   1.718  0.00  0.00    +0.000 C 
BRANCH  19  20
ATOM     20  C   UNL     1       2.866   1.940   3.079  0.00  0.00    +0.000 A 
ATOM     21  C   UNL     1       2.796   3.206   3.674  0.00  0.00    +0.000 A 
ATOM     22  C   UNL     1       3.194   3.390   4.997  0.00  0.00    +0.000 A 
ATOM     23  C   UNL     1       3.652   2.307   5.750  0.00  0.00    +0.000 A 
ATOM     24  C   UNL     1       3.730   1.030   5.177  0.00  0.00    +0.000 A 
ATOM     25  C   UNL     1       3.347   0.859   3.837  0.00  0.00    +0.000 A 
BRANCH  24  26
ATOM     26  N   UNL     1       4.151  -0.091   5.950  0.00  0.00    +0.000 N 
ATOM     27  C   UNL     1       4.332  -1.387   5.516  0.00  0.00    +0.000 A 
ATOM     28  C   UNL     1       4.738  -2.109   6.612  0.00  0.00    +0.000 A 
ATOM     29  N   UNL     1       4.806  -1.312   7.716  0.00  0.00    +0.000 NA
ATOM     30  C   UNL     1       4.446  -0.118   7.297  0.00  0.00    +0.000 A 
ENDBRANCH  24  26
ENDBRANCH  19  20
ENDBRANCH   3  19
TORSDOF 5
