REMARK  Name = 
REMARK  5 active torsions:
REMARK  status: ('A' for Active; 'I' for Inactive)
REMARK    1  A    between atoms: C_1  and  O_2
REMARK    2  A    between atoms: O_2  and  C_3
REMARK    3  A    between atoms: C_9  and  C_10
REMARK    4  A    between atoms: C_15  and  C_16
REMARK    5  A    between atoms: C_21  and  C_22
REMARK                            x       y       z     vdW  Elec       q    Type
REMARK                         _______ _______ _______ _____ _____    ______ ____
ROOT
ATOM      1  C   UNL     1       7.663   3.590   3.604  0.00  0.00    +0.000 C 
ATOM      2  O   UNL     1       7.692   4.254   2.575  0.00  0.00    +0.000 OA
ATOM      3  N   UNL     1       8.495   3.702   4.701  0.00  0.00    +0.000 N 
ATOM      4  C   UNL     1       9.451   4.717   4.872  0.00  0.00    +0.000 A 
ATOM      5  N   UNL     1       9.435   5.803   4.081  0.00  0.00    +0.000 NA
ATOM      6  C   UNL     1      10.374   6.766   4.243  0.00  0.00    +0.000 A 
ATOM      7  C   UNL     1      11.348   6.664   5.231  0.00  0.00    +0.000 A 
ATOM      8  C   UNL     1      11.354   5.547   6.060  0.00  0.00    +0.000 A 
ATOM      9  C   UNL     1      10.388   4.562   5.886  0.00  0.00    +0.000 A 
ATOM     10  H   UNL     1       8.496   2.964   5.387  0.00  0.00    +0.000 HD
ENDROOT
BRANCH   1  17
ATOM     11  C   UNL     1       3.665  -0.154   6.167  0.00  0.00    +0.000 A 
ATOM     12  C   UNL     1       3.288  -0.828   5.019  0.00  0.00    +0.000 A 
ATOM     13  N   UNL     1       3.819  -0.550   3.804  0.00  0.00    +0.000 NA
ATOM     14  C   UNL     1       4.738   0.436   3.769  0.00  0.00    +0.000 A 
ATOM     15  C   UNL     1       5.331   0.803   2.565  0.00  0.00    +0.000 A 
ATOM     16  C   UNL     1       6.284   1.823   2.511  0.00  0.00    +0.000 A 
ATOM     17  C   UNL     1       6.663   2.487   3.680  0.00  0.00    +0.000 A 
ATOM     18  C   UNL     1       6.063   2.138   4.890  0.00  0.00    +0.000 A 
ATOM     19  C   UNL     1       5.119   1.124   4.949  0.00  0.00    +0.000 A 
ATOM     20  N   UNL     1       4.591   0.828   6.145  0.00  0.00    +0.000 NA
BRANCH  11  22
ATOM     21  C   UNL     1       3.559   0.258   8.458  0.00  0.00    +0.000 C 
ATOM     22  O   UNL     1       3.068  -0.503   7.358  0.00  0.00    +0.000 OA
ENDBRANCH  11  22
ENDBRANCH   1  17
BRANCH   6  23
ATOM     23  C   UNL     1      10.289   7.887   3.282  0.00  0.00    +0.000 A 
ATOM     24  C   UNL     1      11.418   8.627   2.896  0.00  0.00    +0.000 A 
ATOM     25  C   UNL     1      11.316   9.639   1.944  0.00  0.00    +0.000 A 
ATOM     26  F   UNL     1      12.418  10.313   1.588  0.00  0.00    +0.000 F 
ATOM     27  C   UNL     1      10.104   9.953   1.349  0.00  0.00    +0.000 A 
ATOM     28  C   UNL     1       8.963   9.241   1.716  0.00  0.00    +0.000 A 
ATOM     29  C   UNL     1       9.059   8.223   2.675  0.00  0.00    +0.000 A 
BRANCH  28  30
ATOM     30  C   UNL     1       7.703   9.544   1.104  0.00  0.00    +0.000 C 
ATOM     31  N   UNL     1       6.693   9.814   0.601  0.00  0.00    +0.000 NA
ENDBRANCH  28  30
ENDBRANCH   6  23
TORSDOF 4
