REMARK  Name = 
REMARK  4 active torsions:
REMARK  status: ('A' for Active; 'I' for Inactive)
REMARK    1  A    between atoms: N_3  and  C_4
REMARK    2  A    between atoms: C_7  and  N_8
REMARK    3  A    between atoms: N_16  and  C_17
REMARK    4  A    between atoms: N_19  and  C_20
REMARK                            x       y       z     vdW  Elec       q    Type
REMARK                         _______ _______ _______ _____ _____    ______ ____
ROOT
ATOM      1  O   UNL     1       2.765   0.849   0.752  0.00  0.00    +0.000 OA
ATOM      2  C   UNL     1       2.330  -0.129   0.158  0.00  0.00    +0.000 C 
ATOM      3  N   UNL     1       0.988  -0.456   0.075  0.00  0.00    +0.000 N 
ATOM      4  N   UNL     1       3.122  -1.070  -0.485  0.00  0.00    +0.000 N 
ATOM      5  H   UNL     1       0.767  -1.390  -0.236  0.00  0.00    +0.000 HD
ATOM      6  H   UNL     1       2.638  -1.749  -1.052  0.00  0.00    +0.000 HD
ENDROOT
BRANCH   3   7
ATOM      7  C   UNL     1      -0.070   0.280   0.653  0.00  0.00    +0.000 A 
ATOM      8  C   UNL     1       0.051   1.600   1.098  0.00  0.00    +0.000 A 
ATOM      9  C   UNL     1      -1.024   2.257   1.709  0.00  0.00    +0.000 A 
ATOM     10  C   UNL     1      -2.233   1.584   1.901  0.00  0.00    +0.000 A 
ATOM     11  C   UNL     1      -2.357   0.273   1.438  0.00  0.00    +0.000 A 
ATOM     12  F   UNL     1      -3.511  -0.400   1.544  0.00  0.00    +0.000 F 
ATOM     13  C   UNL     1      -1.298  -0.368   0.797  0.00  0.00    +0.000 A 
BRANCH  10  14
ATOM     14  N   UNL     1      -3.311   2.229   2.552  0.00  0.00    +0.000 N 
ATOM     15  C   UNL     1      -3.529   3.587   2.643  0.00  0.00    +0.000 A 
ATOM     16  C   UNL     1      -4.717   3.734   3.319  0.00  0.00    +0.000 A 
ATOM     17  N   UNL     1      -5.212   2.519   3.699  0.00  0.00    +0.000 NA
ATOM     18  C   UNL     1      -4.352   1.640   3.234  0.00  0.00    +0.000 A 
ENDBRANCH  10  14
ENDBRANCH   3   7
BRANCH   4  19
ATOM     19  C   UNL     1       4.502  -1.095  -0.538  0.00  0.00    +0.000 A 
ATOM     20  C   UNL     1       5.316  -0.219   0.070  0.00  0.00    +0.000 A 
ATOM     21  N   UNL     1       6.705  -0.214  -0.070  0.00  0.00    +0.000 N 
ATOM     22  C   UNL     1       7.328  -1.179  -0.888  0.00  0.00    +0.000 A 
ATOM     23  O   UNL     1       8.530  -1.305  -1.116  0.00  0.00    +0.000 OA
ATOM     24  C   UNL     1       6.427  -2.195  -1.503  0.00  0.00    +0.000 A 
ATOM     25  C   UNL     1       5.104  -2.149  -1.327  0.00  0.00    +0.000 A 
BRANCH  21  26
ATOM     26  C   UNL     1       7.495   0.805   0.588  0.00  0.00    +0.000 A 
ATOM     27  C   UNL     1       8.686   1.291   0.028  0.00  0.00    +0.000 A 
ATOM     28  C   UNL     1       9.427   2.302   0.652  0.00  0.00    +0.000 A 
ATOM     29  C   UNL     1       8.991   2.850   1.853  0.00  0.00    +0.000 A 
ATOM     30  C   UNL     1       7.811   2.393   2.429  0.00  0.00    +0.000 A 
ATOM     31  C   UNL     1       7.070   1.385   1.800  0.00  0.00    +0.000 A 
ENDBRANCH  21  26
ENDBRANCH   4  19
TORSDOF 4
