REMARK  Name = 
REMARK  6 active torsions:
REMARK  status: ('A' for Active; 'I' for Inactive)
REMARK    1  A    between atoms: C_2  and  C_20
REMARK    2  A    between atoms: N_3  and  C_4
REMARK    3  A    between atoms: C_4  and  C_5
REMARK    4  A    between atoms: C_4  and  C_15
REMARK    5  A    between atoms: C_7  and  C_8
REMARK    6  A    between atoms: N_23  and  C_24
REMARK                            x       y       z     vdW  Elec       q    Type
REMARK                         _______ _______ _______ _____ _____    ______ ____
ROOT
ATOM      1  O   UNL     1       1.188   0.144  -0.558  0.00  0.00    +0.000 OA
ATOM      2  C   UNL     1       2.385   0.129  -0.288  0.00  0.00    +0.000 C 
ATOM      3  N   UNL     1       3.087   1.254   0.075  0.00  0.00    +0.000 N 
ATOM      4  H   UNL     1       4.061   1.165   0.346  0.00  0.00    +0.000 HD
ENDROOT
BRANCH   2   5
ATOM      5  C   UNL     1       3.148  -1.151  -0.330  0.00  0.00    +0.000 A 
ATOM      6  C   UNL     1       2.436  -2.322  -0.197  0.00  0.00    +0.000 A 
ATOM      7  C   UNL     1       3.168  -3.488  -0.221  0.00  0.00    +0.000 A 
ATOM      8  N   UNL     1       2.475  -4.699  -0.011  0.00  0.00    +0.000 N 
ATOM      9  N   UNL     1       4.500  -3.466  -0.405  0.00  0.00    +0.000 NA
ATOM     10  C   UNL     1       5.092  -2.271  -0.552  0.00  0.00    +0.000 A 
ATOM     11  N   UNL     1       4.486  -1.080  -0.500  0.00  0.00    +0.000 NA
ATOM     12  H   UNL     1       1.678  -4.785  -0.630  0.00  0.00    +0.000 HD
BRANCH   8  13
ATOM     13  C   UNL     1       3.040  -5.934   0.358  0.00  0.00    +0.000 A 
ATOM     14  C   UNL     1       4.061  -6.011   1.314  0.00  0.00    +0.000 A 
ATOM     15  C   UNL     1       4.615  -7.239   1.675  0.00  0.00    +0.000 A 
ATOM     16  C   UNL     1       4.159  -8.411   1.077  0.00  0.00    +0.000 A 
ATOM     17  C   UNL     1       3.136  -8.353   0.131  0.00  0.00    +0.000 A 
ATOM     18  C   UNL     1       2.574  -7.123  -0.221  0.00  0.00    +0.000 A 
ENDBRANCH   8  13
ENDBRANCH   2   5
BRANCH   3  19
ATOM     19  C   UNL     1       2.414   2.520   0.245  0.00  0.00    +0.000 C 
BRANCH  19  20
ATOM     20  C   UNL     1       1.799   2.671   1.632  0.00  0.00    +0.000 A 
ATOM     21  C   UNL     1       0.405   2.805   1.771  0.00  0.00    +0.000 A 
ATOM     22  C   UNL     1      -0.190   2.987   3.032  0.00  0.00    +0.000 A 
ATOM     23  C   UNL     1       0.625   3.015   4.170  0.00  0.00    +0.000 A 
ATOM     24  C   UNL     1       2.007   2.871   4.051  0.00  0.00    +0.000 A 
ATOM     25  C   UNL     1       2.588   2.700   2.792  0.00  0.00    +0.000 A 
BRANCH  22  26
ATOM     26  C   UNL     1      -1.682   3.159   3.171  0.00  0.00    +0.000 C 
ATOM     27  F   UNL     1      -2.353   3.140   1.985  0.00  0.00    +0.000 F 
ATOM     28  F   UNL     1      -2.256   2.195   3.941  0.00  0.00    +0.000 F 
ATOM     29  F   UNL     1      -2.013   4.346   3.758  0.00  0.00    +0.000 F 
ENDBRANCH  22  26
ENDBRANCH  19  20
BRANCH  19  30
ATOM     30  C   UNL     1       3.371   3.619  -0.089  0.00  0.00    +0.000 A 
ATOM     31  N   UNL     1       4.545   3.883   0.453  0.00  0.00    +0.000 NA
ATOM     32  N   UNL     1       5.041   5.020  -0.141  0.00  0.00    +0.000 NA
ATOM     33  C   UNL     1       4.174   5.408  -1.045  0.00  0.00    +0.000 A 
ATOM     34  N   UNL     1       3.125   4.545  -1.070  0.00  0.00    +0.000 N 
ATOM     35  H   UNL     1       2.320   4.582  -1.679  0.00  0.00    +0.000 HD
ENDBRANCH  19  30
ENDBRANCH   3  19
TORSDOF 6
