REMARK  Name = 
REMARK  4 active torsions:
REMARK  status: ('A' for Active; 'I' for Inactive)
REMARK    1  A    between atoms: C_2  and  C_15
REMARK    2  A    between atoms: N_3  and  C_4
REMARK    3  A    between atoms: C_8  and  C_9
REMARK    4  A    between atoms: N_17  and  C_18
REMARK                            x       y       z     vdW  Elec       q    Type
REMARK                         _______ _______ _______ _____ _____    ______ ____
ROOT
ATOM      1  O   UNL     1       1.048   0.458   0.258  0.00  0.00    +0.000 OA
ATOM      2  C   UNL     1       2.206   0.082   0.122  0.00  0.00    +0.000 C 
ATOM      3  N   UNL     1       2.881  -0.710   1.020  0.00  0.00    +0.000 N 
ATOM      4  H   UNL     1       3.844  -0.961   0.857  0.00  0.00    +0.000 HD
ENDROOT
BRANCH   2   5
ATOM      5  C   UNL     1       2.977   0.477  -1.107  0.00  0.00    +0.000 A 
ATOM      6  C   UNL     1       2.470   1.516  -1.792  0.00  0.00    +0.000 A 
ATOM      7  N   UNL     1       3.024   1.974  -2.986  0.00  0.00    +0.000 N 
ATOM      8  C   UNL     1       4.158   1.355  -3.545  0.00  0.00    +0.000 A 
ATOM      9  O   UNL     1       4.716   1.653  -4.598  0.00  0.00    +0.000 OA
ATOM     10  C   UNL     1       4.678   0.176  -2.791  0.00  0.00    +0.000 A 
ATOM     11  C   UNL     1       4.110  -0.232  -1.650  0.00  0.00    +0.000 A 
BRANCH   7  12
ATOM     12  C   UNL     1       2.386   3.035  -3.705  0.00  0.00    +0.000 A 
ATOM     13  C   UNL     1       0.995   3.030  -3.875  0.00  0.00    +0.000 A 
ATOM     14  C   UNL     1       0.377   4.058  -4.576  0.00  0.00    +0.000 A 
ATOM     15  F   UNL     1      -0.947   4.015  -4.772  0.00  0.00    +0.000 F 
ATOM     16  C   UNL     1       1.111   5.120  -5.085  0.00  0.00    +0.000 A 
ATOM     17  C   UNL     1       2.493   5.147  -4.909  0.00  0.00    +0.000 A 
ATOM     18  C   UNL     1       3.131   4.099  -4.237  0.00  0.00    +0.000 A 
ENDBRANCH   7  12
ENDBRANCH   2   5
BRANCH   3  19
ATOM     19  C   UNL     1       2.276  -1.279   2.141  0.00  0.00    +0.000 A 
ATOM     20  C   UNL     1       1.063  -0.954   2.701  0.00  0.00    +0.000 A 
ATOM     21  O   UNL     1       0.839  -1.713   3.796  0.00  0.00    +0.000 OA
ATOM     22  N   UNL     1       1.904  -2.560   3.990  0.00  0.00    +0.000 NA
ATOM     23  C   UNL     1       2.775  -2.314   2.997  0.00  0.00    +0.000 A 
BRANCH  23  24
ATOM     24  C   UNL     1       4.028  -3.067   2.905  0.00  0.00    +0.000 A 
ATOM     25  C   UNL     1       4.588  -3.410   1.665  0.00  0.00    +0.000 A 
ATOM     26  C   UNL     1       5.818  -4.070   1.598  0.00  0.00    +0.000 A 
ATOM     27  C   UNL     1       6.482  -4.426   2.770  0.00  0.00    +0.000 A 
ATOM     28  C   UNL     1       5.912  -4.139   4.008  0.00  0.00    +0.000 A 
ATOM     29  C   UNL     1       4.693  -3.463   4.075  0.00  0.00    +0.000 A 
ENDBRANCH  23  24
ENDBRANCH   3  19
TORSDOF 4
