REMARK  Name = 
REMARK  9 active torsions:
REMARK  status: ('A' for Active; 'I' for Inactive)
REMARK    1  A    between atoms: C_1  and  O_2
REMARK    2  A    between atoms: O_2  and  C_3
REMARK    3  A    between atoms: C_3  and  C_5
REMARK    4  A    between atoms: C_7  and  N_8
REMARK    5  A    between atoms: C_9  and  C_11
REMARK    6  A    between atoms: C_11  and  O_12
REMARK    7  A    between atoms: O_12  and  C_13
REMARK    8  A    between atoms: C_17  and  O_18
REMARK    9  A    between atoms: O_18  and  C_19
REMARK                            x       y       z     vdW  Elec       q    Type
REMARK                         _______ _______ _______ _____ _____    ______ ____
ROOT
ATOM      1  N   UNL     1       7.209  -1.024   1.557  0.00  0.00    +0.000 N 
ATOM      2  C   UNL     1       6.592  -1.172   2.797  0.00  0.00    +0.000 C 
ATOM      3  O   UNL     1       5.384  -1.134   3.017  0.00  0.00    +0.000 OA
ATOM      4  H   UNL     1       8.220  -1.082   1.537  0.00  0.00    +0.000 HD
ENDROOT
BRANCH   1   7
ATOM      5  C   UNL     1       4.549  -0.741  -1.085  0.00  0.00    +0.000 A 
ATOM      6  C   UNL     1       5.175  -0.858   0.170  0.00  0.00    +0.000 A 
ATOM      7  C   UNL     1       6.562  -0.861   0.306  0.00  0.00    +0.000 A 
ATOM      8  C   UNL     1       7.365  -0.718  -0.840  0.00  0.00    +0.000 A 
ATOM      9  C   UNL     1       6.733  -0.608  -2.094  0.00  0.00    +0.000 A 
ATOM     10  C   UNL     1       5.343  -0.633  -2.244  0.00  0.00    +0.000 A 
ATOM     11  C   UNL     1       5.076  -0.525  -3.640  0.00  0.00    +0.000 A 
ATOM     12  C   UNL     1       6.279  -0.427  -4.297  0.00  0.00    +0.000 A 
ATOM     13  N   UNL     1       7.273  -0.469  -3.356  0.00  0.00    +0.000 N 
ATOM     14  H   UNL     1       8.261  -0.412  -3.559  0.00  0.00    +0.000 HD
BRANCH   5  15
ATOM     15  C   UNL     1       3.070  -0.770  -1.194  0.00  0.00    +0.000 C 
ATOM     16  O   UNL     1       2.452  -1.141  -2.176  0.00  0.00    +0.000 OA
BRANCH  15  18
ATOM     17  C   UNL     1       1.100  -0.304  -0.021  0.00  0.00    +0.000 C 
ATOM     18  O   UNL     1       2.526  -0.298  -0.043  0.00  0.00    +0.000 OA
ENDBRANCH  15  18
ENDBRANCH   5  15
ENDBRANCH   1   7
BRANCH   2  19
ATOM     19  C   UNL     1       7.562  -1.389   3.954  0.00  0.00    +0.000 C 
BRANCH  19  20
ATOM     20  O   UNL     1       7.809  -2.785   4.067  0.00  0.00    +0.000 OA
BRANCH  20  21
ATOM     21  C   UNL     1       8.566  -3.198   5.130  0.00  0.00    +0.000 A 
ATOM     22  C   UNL     1       9.166  -2.365   6.076  0.00  0.00    +0.000 A 
ATOM     23  C   UNL     1       9.982  -2.908   7.070  0.00  0.00    +0.000 A 
ATOM     24  C   UNL     1      10.185  -4.284   7.136  0.00  0.00    +0.000 A 
ATOM     25  C   UNL     1       9.521  -5.133   6.248  0.00  0.00    +0.000 A 
ATOM     26  C   UNL     1       8.738  -4.584   5.228  0.00  0.00    +0.000 A 
BRANCH  25  27
ATOM     27  O   UNL     1       9.654  -6.505   6.266  0.00  0.00    +0.000 OA
BRANCH  27  28
ATOM     28  C   UNL     1       9.717  -7.144   7.501  0.00  0.00    +0.000 A 
ATOM     29  C   UNL     1      10.329  -8.389   7.525  0.00  0.00    +0.000 A 
ATOM     30  C   UNL     1      10.433  -9.049   8.747  0.00  0.00    +0.000 A 
ATOM     31  C   UNL     1       9.921  -8.449   9.893  0.00  0.00    +0.000 A 
ATOM     32  C   UNL     1       9.306  -7.215   9.767  0.00  0.00    +0.000 A 
ATOM     33  N   UNL     1       9.180  -6.558   8.597  0.00  0.00    +0.000 NA
ENDBRANCH  27  28
ENDBRANCH  25  27
ENDBRANCH  20  21
ENDBRANCH  19  20
ENDBRANCH   2  19
TORSDOF 8
