REMARK  Name = 
REMARK  12 active torsions:
REMARK  status: ('A' for Active; 'I' for Inactive)
REMARK    1  A    between atoms: C_1  and  O_2
REMARK    2  A    between atoms: O_2  and  C_3
REMARK    3  A    between atoms: C_5  and  C_6
REMARK    4  A    between atoms: C_6  and  O_8
REMARK    5  A    between atoms: O_8  and  C_9
REMARK    6  A    between atoms: C_9  and  C_10
REMARK    7  A    between atoms: C_13  and  C_14
REMARK    8  A    between atoms: C_21  and  O_22
REMARK    9  A    between atoms: O_22  and  C_23
REMARK   10  A    between atoms: C_24  and  O_25
REMARK   11  A    between atoms: O_25  and  C_26
REMARK   12  A    between atoms: C_26  and  C_27
REMARK                            x       y       z     vdW  Elec       q    Type
REMARK                         _______ _______ _______ _____ _____    ______ ____
ROOT
ATOM      1  C   UNL     1       3.246  -1.248   0.264  0.00  0.00    +0.000 A 
ATOM      2  C   UNL     1       2.849  -2.469  -0.308  0.00  0.00    +0.000 A 
ATOM      3  C   UNL     1       3.615  -3.619  -0.117  0.00  0.00    +0.000 A 
ATOM      4  C   UNL     1       4.795  -3.553   0.622  0.00  0.00    +0.000 A 
ATOM      5  C   UNL     1       5.191  -2.356   1.220  0.00  0.00    +0.000 A 
ATOM      6  C   UNL     1       4.373  -1.206   1.119  0.00  0.00    +0.000 A 
ENDROOT
BRANCH   3   7
ATOM      7  C   UNL     1       3.250  -4.928  -0.702  0.00  0.00    +0.000 C 
ATOM      8  O   UNL     1       4.074  -5.819  -0.875  0.00  0.00    +0.000 OA
BRANCH   7   9
ATOM      9  O   UNL     1       1.926  -5.003  -0.957  0.00  0.00    +0.000 OA
BRANCH   9  10
ATOM     10  C   UNL     1       1.481  -6.239  -1.537  0.00  0.00    +0.000 C 
BRANCH  10  11
ATOM     11  C   UNL     1       0.543  -6.948  -0.598  0.00  0.00    +0.000 A 
ATOM     12  C   UNL     1       0.955  -7.342   0.681  0.00  0.00    +0.000 A 
ATOM     13  C   UNL     1       0.077  -8.034   1.524  0.00  0.00    +0.000 A 
ATOM     14  C   UNL     1      -1.224  -8.350   1.103  0.00  0.00    +0.000 A 
ATOM     15  C   UNL     1      -1.632  -7.969  -0.178  0.00  0.00    +0.000 A 
ATOM     16  C   UNL     1      -0.749  -7.281  -1.008  0.00  0.00    +0.000 A 
ATOM     17  F   UNL     1      -1.166  -6.947  -2.238  0.00  0.00    +0.000 F 
BRANCH  14  18
ATOM     18  C   UNL     1      -2.104  -9.089   2.052  0.00  0.00    +0.000 C 
ATOM     19  N   UNL     1      -3.378  -9.398   1.665  0.00  0.00    +0.000 N 
ATOM     20  O   UNL     1      -1.708  -9.419   3.164  0.00  0.00    +0.000 OA
ATOM     21  H   UNL     1      -3.800  -9.160   0.782  0.00  0.00    +0.000 HD
ATOM     22  H   UNL     1      -3.947  -9.894   2.339  0.00  0.00    +0.000 HD
ENDBRANCH  14  18
ENDBRANCH  10  11
ENDBRANCH   9  10
ENDBRANCH   7   9
ENDBRANCH   3   7
BRANCH   5  23
ATOM     23  O   UNL     1       6.343  -2.296   1.960  0.00  0.00    +0.000 OA
ATOM     24  C   UNL     1       7.440  -3.087   1.528  0.00  0.00    +0.000 C 
ENDBRANCH   5  23
BRANCH   1  26
ATOM     25  C   UNL     1       2.005   0.053  -1.273  0.00  0.00    +0.000 C 
ATOM     26  O   UNL     1       2.521  -0.097   0.056  0.00  0.00    +0.000 OA
ENDBRANCH   1  26
BRANCH   6  27
ATOM     27  O   UNL     1       4.599  -0.020   1.804  0.00  0.00    +0.000 OA
BRANCH  27  28
ATOM     28  C   UNL     1       5.398  -0.147   2.994  0.00  0.00    +0.000 C 
BRANCH  28  29
ATOM     29  C   UNL     1       5.207   0.933   4.034  0.00  0.00    +0.000 A 
ATOM     30  C   UNL     1       4.030   1.681   4.115  0.00  0.00    +0.000 A 
ATOM     31  C   UNL     1       3.833   2.562   5.177  0.00  0.00    +0.000 A 
ATOM     32  C   UNL     1       4.802   2.702   6.171  0.00  0.00    +0.000 A 
ATOM     33  C   UNL     1       5.980   1.962   6.101  0.00  0.00    +0.000 A 
ATOM     34  C   UNL     1       6.181   1.082   5.040  0.00  0.00    +0.000 A 
ENDBRANCH  28  29
ENDBRANCH  27  28
ENDBRANCH   6  27
TORSDOF 10
