REMARK  Name = 
REMARK  7 active torsions:
REMARK  status: ('A' for Active; 'I' for Inactive)
REMARK    1  A    between atoms: C_1  and  N_2
REMARK    2  A    between atoms: C_4  and  C_5
REMARK    3  A    between atoms: N_7  and  C_8
REMARK    4  A    between atoms: C_8  and  C_9
REMARK    5  A    between atoms: C_12  and  C_13
REMARK    6  A    between atoms: C_16  and  C_17
REMARK    7  A    between atoms: N_27  and  C_28
REMARK                            x       y       z     vdW  Elec       q    Type
REMARK                         _______ _______ _______ _____ _____    ______ ____
ROOT
ATOM      1  C   UNL     1       6.585   5.187   0.116  0.00  0.00    +0.000 A 
ATOM      2  C   UNL     1       5.356   5.607   0.632  0.00  0.00    +0.000 A 
ATOM      3  C   UNL     1       5.038   6.967   0.689  0.00  0.00    +0.000 A 
ATOM      4  C   UNL     1       5.938   7.951   0.243  0.00  0.00    +0.000 A 
ATOM      5  C   UNL     1       7.171   7.508  -0.269  0.00  0.00    +0.000 A 
ATOM      6  C   UNL     1       7.486   6.149  -0.347  0.00  0.00    +0.000 A 
ENDROOT
BRANCH   4   7
ATOM      7  C   UNL     1       5.600   9.390   0.294  0.00  0.00    +0.000 A 
ATOM      8  C   UNL     1       4.773   9.923   1.296  0.00  0.00    +0.000 A 
ATOM      9  C   UNL     1       4.437  11.284   1.322  0.00  0.00    +0.000 A 
ATOM     10  C   UNL     1       4.938  12.183   0.368  0.00  0.00    +0.000 A 
ATOM     11  C   UNL     1       5.782  11.651  -0.619  0.00  0.00    +0.000 A 
ATOM     12  C   UNL     1       6.090  10.287  -0.666  0.00  0.00    +0.000 A 
BRANCH  10  13
ATOM     13  C   UNL     1       4.605  13.626   0.396  0.00  0.00    +0.000 A 
ATOM     14  C   UNL     1       4.357  14.304   1.603  0.00  0.00    +0.000 A 
ATOM     15  C   UNL     1       4.067  15.671   1.627  0.00  0.00    +0.000 A 
ATOM     16  C   UNL     1       4.031  16.397   0.441  0.00  0.00    +0.000 A 
ATOM     17  C   UNL     1       4.269  15.754  -0.768  0.00  0.00    +0.000 A 
ATOM     18  C   UNL     1       4.540  14.384  -0.789  0.00  0.00    +0.000 A 
ENDBRANCH  10  13
ENDBRANCH   4   7
BRANCH   1  19
ATOM     19  C   UNL     1       6.929   3.729   0.046  0.00  0.00    +0.000 C 
BRANCH  19  22
ATOM     20  C   UNL     1       6.651   1.778  -1.377  0.00  0.00    +0.000 C 
ATOM     21  O   UNL     1       7.209   1.073  -0.540  0.00  0.00    +0.000 OA
ATOM     22  N   UNL     1       6.443   3.121  -1.170  0.00  0.00    +0.000 N 
ATOM     23  H   UNL     1       6.091   3.720  -1.904  0.00  0.00    +0.000 HD
BRANCH  20  27
ATOM     24  C   UNL     1       4.040   1.073  -5.583  0.00  0.00    +0.000 C 
ATOM     25  N   UNL     1       5.006   0.914  -4.536  0.00  0.00    +0.000 N 
ATOM     26  C   UNL     1       5.203   1.745  -3.454  0.00  0.00    +0.000 A 
ATOM     27  C   UNL     1       6.171   1.231  -2.677  0.00  0.00    +0.000 A 
ATOM     28  N   UNL     1       6.609   0.044  -3.253  0.00  0.00    +0.000 N 
ATOM     29  C   UNL     1       7.609  -0.876  -2.789  0.00  0.00    +0.000 C 
ATOM     30  C   UNL     1       5.876  -0.190  -4.438  0.00  0.00    +0.000 A 
ATOM     31  O   UNL     1       5.966  -1.135  -5.202  0.00  0.00    +0.000 OA
ENDBRANCH  20  27
ENDBRANCH  19  22
ENDBRANCH   1  19
TORSDOF 5
