REMARK  Name = 
REMARK  6 active torsions:
REMARK  status: ('A' for Active; 'I' for Inactive)
REMARK    1  A    between atoms: C_2  and  C_3
REMARK    2  A    between atoms: C_5  and  C_6
REMARK    3  A    between atoms: N_8  and  C_9
REMARK    4  A    between atoms: C_9  and  C_10
REMARK    5  A    between atoms: C_13  and  C_14
REMARK    6  A    between atoms: C_19  and  C_20
REMARK                            x       y       z     vdW  Elec       q    Type
REMARK                         _______ _______ _______ _____ _____    ______ ____
ROOT
ATOM      1  C   UNL     1       2.293   6.240   0.175  0.00  0.00    +0.000 A 
ATOM      2  C   UNL     1       0.906   6.213   0.342  0.00  0.00    +0.000 A 
ATOM      3  C   UNL     1       0.166   7.406   0.369  0.00  0.00    +0.000 A 
ATOM      4  C   UNL     1       0.785   8.666   0.254  0.00  0.00    +0.000 A 
ATOM      5  C   UNL     1       2.188   8.665   0.164  0.00  0.00    +0.000 A 
ATOM      6  C   UNL     1       2.927   7.480   0.080  0.00  0.00    +0.000 A 
ENDROOT
BRANCH   4   7
ATOM      7  C   UNL     1      -0.005   9.936   0.242  0.00  0.00    +0.000 A 
ATOM      8  C   UNL     1      -1.125  10.049   1.102  0.00  0.00    +0.000 A 
ATOM      9  C   UNL     1      -1.879  11.221   1.199  0.00  0.00    +0.000 A 
ATOM     10  C   UNL     1      -1.518  12.338   0.463  0.00  0.00    +0.000 A 
ATOM     11  C   UNL     1      -0.436  12.262  -0.413  0.00  0.00    +0.000 A 
ATOM     12  C   UNL     1       0.307  11.069  -0.567  0.00  0.00    +0.000 A 
BRANCH  12  13
ATOM     13  C   UNL     1       1.339  11.041  -1.609  0.00  0.00    +0.000 A 
ATOM     14  N   UNL     1       1.666  10.044  -2.412  0.00  0.00    +0.000 NA
ATOM     15  N   UNL     1       2.733  10.472  -3.162  0.00  0.00    +0.000 NA
ATOM     16  N   UNL     1       3.049  11.721  -2.864  0.00  0.00    +0.000 NA
ATOM     17  N   UNL     1       2.173  12.083  -1.918  0.00  0.00    +0.000 N 
ATOM     18  H   UNL     1       2.217  13.015  -1.530  0.00  0.00    +0.000 HD
ENDBRANCH  12  13
ENDBRANCH   4   7
BRANCH   1  19
ATOM     19  C   UNL     1       3.092   4.972   0.056  0.00  0.00    +0.000 C 
BRANCH  19  22
ATOM     20  C   UNL     1       3.788   3.325  -1.605  0.00  0.00    +0.000 C 
ATOM     21  O   UNL     1       4.406   2.670  -0.772  0.00  0.00    +0.000 OA
ATOM     22  N   UNL     1       3.093   4.473  -1.302  0.00  0.00    +0.000 N 
ATOM     23  H   UNL     1       2.815   5.114  -2.037  0.00  0.00    +0.000 HD
BRANCH  20  26
ATOM     24  C   UNL     1       2.726   2.672  -5.199  0.00  0.00    +0.000 A 
ATOM     25  C   UNL     1       2.708   3.153  -3.882  0.00  0.00    +0.000 A 
ATOM     26  C   UNL     1       3.791   2.892  -3.030  0.00  0.00    +0.000 A 
ATOM     27  C   UNL     1       4.880   2.144  -3.498  0.00  0.00    +0.000 A 
ATOM     28  C   UNL     1       4.900   1.675  -4.812  0.00  0.00    +0.000 A 
ATOM     29  C   UNL     1       3.820   1.941  -5.653  0.00  0.00    +0.000 A 
ATOM     30  F   UNL     1       3.855   1.470  -6.908  0.00  0.00    +0.000 F 
BRANCH  24  32
ATOM     31  N   UNL     1       0.689   3.120  -6.745  0.00  0.00    +0.000 NA
ATOM     32  C   UNL     1       1.609   2.912  -6.069  0.00  0.00    +0.000 C 
ENDBRANCH  24  32
ENDBRANCH  20  26
ENDBRANCH  19  22
ENDBRANCH   1  19
TORSDOF 6
