REMARK  Name = 
REMARK  6 active torsions:
REMARK  status: ('A' for Active; 'I' for Inactive)
REMARK    1  A    between atoms: C_1  and  N_2
REMARK    2  A    between atoms: C_3  and  C_5
REMARK    3  A    between atoms: C_8  and  C_9
REMARK    4  A    between atoms: C_20  and  O_21
REMARK    5  A    between atoms: O_21  and  C_22
REMARK    6  A    between atoms: C_22  and  C_23
REMARK                            x       y       z     vdW  Elec       q    Type
REMARK                         _______ _______ _______ _____ _____    ______ ____
ROOT
ATOM      1  C   UNL     1       1.044  -0.001  -0.061  0.00  0.00    +0.000 C 
ATOM      2  N   UNL     1       2.453  -0.131   0.241  0.00  0.00    +0.000 N 
ATOM      3  C   UNL     1       3.180   0.948   0.743  0.00  0.00    +0.000 C 
ATOM      4  O   UNL     1       2.679   2.049   0.986  0.00  0.00    +0.000 OA
ATOM      5  C   UNL     1       3.105  -1.154  -0.460  0.00  0.00    +0.000 A 
ATOM      6  N   UNL     1       3.223  -2.349   0.141  0.00  0.00    +0.000 NA
ATOM      7  C   UNL     1       3.952  -3.276  -0.510  0.00  0.00    +0.000 A 
ATOM      8  C   UNL     1       4.450  -3.107  -1.783  0.00  0.00    +0.000 A 
ATOM      9  C   UNL     1       4.220  -1.864  -2.330  0.00  0.00    +0.000 A 
ATOM     10  N   UNL     1       3.570  -0.869  -1.691  0.00  0.00    +0.000 NA
ENDROOT
BRANCH   3  11
ATOM     11  C   UNL     1       4.644   0.756   1.048  0.00  0.00    +0.000 A 
ATOM     12  C   UNL     1       5.521   1.830   1.012  0.00  0.00    +0.000 A 
ATOM     13  C   UNL     1       6.880   1.585   1.261  0.00  0.00    +0.000 A 
ATOM     14  C   UNL     1       7.346   0.296   1.547  0.00  0.00    +0.000 A 
ATOM     15  C   UNL     1       6.363  -0.689   1.609  0.00  0.00    +0.000 A 
ATOM     16  N   UNL     1       5.046  -0.489   1.381  0.00  0.00    +0.000 NA
BRANCH  14  17
ATOM     17  C   UNL     1       8.767  -0.023   1.773  0.00  0.00    +0.000 A 
ATOM     18  C   UNL     1       9.323  -1.259   1.396  0.00  0.00    +0.000 A 
ATOM     19  C   UNL     1      10.665  -1.543   1.643  0.00  0.00    +0.000 A 
ATOM     20  C   UNL     1      11.436  -0.576   2.256  0.00  0.00    +0.000 A 
ATOM     21  N   UNL     1      10.960   0.628   2.632  0.00  0.00    +0.000 NA
ATOM     22  C   UNL     1       9.648   0.868   2.388  0.00  0.00    +0.000 A 
ENDBRANCH  14  17
ENDBRANCH   3  11
BRANCH   8  23
ATOM     23  O   UNL     1       5.100  -4.152  -2.361  0.00  0.00    +0.000 OA
BRANCH  23  24
ATOM     24  C   UNL     1       5.034  -4.174  -3.787  0.00  0.00    +0.000 C 
BRANCH  24  25
ATOM     25  C   UNL     1       5.264  -5.584  -4.262  0.00  0.00    +0.000 A 
ATOM     26  C   UNL     1       4.200  -6.496  -4.293  0.00  0.00    +0.000 A 
ATOM     27  C   UNL     1       4.396  -7.795  -4.763  0.00  0.00    +0.000 A 
ATOM     28  C   UNL     1       5.657  -8.195  -5.196  0.00  0.00    +0.000 A 
ATOM     29  C   UNL     1       6.727  -7.303  -5.147  0.00  0.00    +0.000 A 
ATOM     30  C   UNL     1       6.535  -6.003  -4.677  0.00  0.00    +0.000 A 
ENDBRANCH  24  25
ENDBRANCH  23  24
ENDBRANCH   8  23
TORSDOF 5
