REMARK  Name = 
REMARK  5 active torsions:
REMARK  status: ('A' for Active; 'I' for Inactive)
REMARK    1  A    between atoms: C_2  and  C_14
REMARK    2  A    between atoms: N_3  and  C_4
REMARK    3  A    between atoms: C_17  and  C_18
REMARK    4  A    between atoms: C_18  and  C_20
REMARK    5  A    between atoms: C_22  and  O_23
REMARK                            x       y       z     vdW  Elec       q    Type
REMARK                         _______ _______ _______ _____ _____    ______ ____
ROOT
ATOM      1  C   UNL     1       3.122   1.127  -0.148  0.00  0.00    +0.000 A 
ATOM      2  C   UNL     1       2.679   2.277   0.519  0.00  0.00    +0.000 A 
ATOM      3  C   UNL     1       3.402   3.467   0.419  0.00  0.00    +0.000 A 
ATOM      4  C   UNL     1       4.565   3.511  -0.359  0.00  0.00    +0.000 A 
ATOM      5  C   UNL     1       5.032   2.345  -0.983  0.00  0.00    +0.000 A 
ATOM      6  C   UNL     1       4.299   1.157  -0.897  0.00  0.00    +0.000 A 
ENDROOT
BRANCH   1   8
ATOM      7  O   UNL     1       1.050   0.099  -0.083  0.00  0.00    +0.000 OA
ATOM      8  C   UNL     1       2.260  -0.079  -0.099  0.00  0.00    +0.000 C 
ATOM      9  N   UNL     1       2.907  -1.298  -0.025  0.00  0.00    +0.000 N 
ATOM     10  H   UNL     1       3.904  -1.298   0.154  0.00  0.00    +0.000 HD
BRANCH   9  11
ATOM     11  C   UNL     1       2.240  -2.544   0.068  0.00  0.00    +0.000 A 
ATOM     12  C   UNL     1       0.893  -2.725  -0.227  0.00  0.00    +0.000 A 
ATOM     13  N   UNL     1       0.234  -3.895  -0.074  0.00  0.00    +0.000 NA
ATOM     14  C   UNL     1       0.932  -4.932   0.410  0.00  0.00    +0.000 A 
ATOM     15  C   UNL     1       0.277  -6.126   0.653  0.00  0.00    +0.000 A 
ATOM     16  C   UNL     1       0.958  -7.217   1.178  0.00  0.00    +0.000 A 
ATOM     17  C   UNL     1       2.309  -7.073   1.433  0.00  0.00    +0.000 A 
ATOM     18  N   UNL     1       2.998  -5.933   1.202  0.00  0.00    +0.000 NA
ATOM     19  C   UNL     1       2.311  -4.880   0.710  0.00  0.00    +0.000 A 
ATOM     20  C   UNL     1       2.951  -3.663   0.503  0.00  0.00    +0.000 A 
ENDBRANCH   9  11
ENDBRANCH   1   8
BRANCH   4  21
ATOM     21  C   UNL     1       5.274   4.813  -0.489  0.00  0.00    +0.000 C 
ATOM     22  O   UNL     1       5.217   5.614   0.440  0.00  0.00    +0.000 OA
BRANCH  21  23
ATOM     23  C   UNL     1       6.043   5.170  -1.711  0.00  0.00    +0.000 A 
ATOM     24  C   UNL     1       5.691   4.690  -2.980  0.00  0.00    +0.000 A 
ATOM     25  C   UNL     1       6.475   5.028  -4.080  0.00  0.00    +0.000 A 
ATOM     26  C   UNL     1       7.573   5.870  -3.943  0.00  0.00    +0.000 A 
ATOM     27  C   UNL     1       7.899   6.384  -2.689  0.00  0.00    +0.000 A 
ATOM     28  C   UNL     1       7.136   6.035  -1.573  0.00  0.00    +0.000 A 
BRANCH  25  29
ATOM     29  O   UNL     1       6.198   4.546  -5.324  0.00  0.00    +0.000 OA
ATOM     30  H   UNL     1       5.397   3.997  -5.288  0.00  0.00    +0.000 HD
ENDBRANCH  25  29
ENDBRANCH  21  23
ENDBRANCH   4  21
TORSDOF 5
