REMARK  Name = 
REMARK  8 active torsions:
REMARK  status: ('A' for Active; 'I' for Inactive)
REMARK    1  A    between atoms: C_2  and  C_3
REMARK    2  A    between atoms: C_2  and  O_18
REMARK    3  A    between atoms: C_3  and  O_4
REMARK    4  A    between atoms: O_4  and  C_5
REMARK    5  A    between atoms: C_9  and  O_10
REMARK    6  A    between atoms: O_10  and  C_11
REMARK    7  A    between atoms: O_18  and  C_19
REMARK    8  A    between atoms: C_19  and  C_20
REMARK                            x       y       z     vdW  Elec       q    Type
REMARK                         _______ _______ _______ _____ _____    ______ ____
ROOT
ATOM      1  O   UNL     1       1.832  -1.174  -0.469  0.00  0.00    +0.000 OA
ATOM      2  C   UNL     1       2.059  -0.072   0.014  0.00  0.00    +0.000 C 
ENDROOT
BRANCH   2   3
ATOM      3  C   UNL     1       2.861   0.151   1.292  0.00  0.00    +0.000 C 
BRANCH   3   4
ATOM      4  O   UNL     1       2.013   0.135   2.435  0.00  0.00    +0.000 OA
BRANCH   4   5
ATOM      5  C   UNL     1       2.618   0.181   3.666  0.00  0.00    +0.000 A 
ATOM      6  C   UNL     1       3.991   0.256   3.897  0.00  0.00    +0.000 A 
ATOM      7  C   UNL     1       4.487   0.264   5.203  0.00  0.00    +0.000 A 
ATOM      8  C   UNL     1       3.614   0.222   6.291  0.00  0.00    +0.000 A 
ATOM      9  C   UNL     1       2.237   0.209   6.073  0.00  0.00    +0.000 A 
ATOM     10  C   UNL     1       1.745   0.153   4.763  0.00  0.00    +0.000 A 
BRANCH   9  11
ATOM     11  O   UNL     1       1.310   0.170   7.093  0.00  0.00    +0.000 OA
BRANCH  11  12
ATOM     12  C   UNL     1       1.564   0.897   8.255  0.00  0.00    +0.000 A 
ATOM     13  C   UNL     1       0.938   0.457   9.412  0.00  0.00    +0.000 A 
ATOM     14  C   UNL     1       1.180   1.146  10.600  0.00  0.00    +0.000 A 
ATOM     15  C   UNL     1       2.027   2.249  10.585  0.00  0.00    +0.000 A 
ATOM     16  C   UNL     1       2.586   2.630   9.379  0.00  0.00    +0.000 A 
ATOM     17  N   UNL     1       2.362   1.989   8.213  0.00  0.00    +0.000 NA
ENDBRANCH  11  12
ENDBRANCH   9  11
ENDBRANCH   4   5
ENDBRANCH   3   4
ENDBRANCH   2   3
BRANCH   2  18
ATOM     18  O   UNL     1       1.670   1.110  -0.542  0.00  0.00    +0.000 OA
BRANCH  18  19
ATOM     19  C   UNL     1       0.850   1.023  -1.730  0.00  0.00    +0.000 C 
BRANCH  19  20
ATOM     20  C   UNL     1       1.649   1.135  -3.022  0.00  0.00    +0.000 A 
ATOM     21  C   UNL     1       2.982   1.045  -3.024  0.00  0.00    +0.000 A 
ATOM     22  C   UNL     1       3.706   1.436  -4.234  0.00  0.00    +0.000 A 
ATOM     23  O   UNL     1       4.891   1.736  -4.140  0.00  0.00    +0.000 OA
ATOM     24  N   UNL     1       2.958   1.467  -5.389  0.00  0.00    +0.000 N 
ATOM     25  C   UNL     1       3.613   1.582  -6.608  0.00  0.00    +0.000 A 
ATOM     26  C   UNL     1       2.940   1.610  -7.769  0.00  0.00    +0.000 A 
ATOM     27 CL   UNL     1       3.765   1.651  -9.277  0.00  0.00    +0.000 Cl
ATOM     28  C   UNL     1       1.499   1.590  -7.757  0.00  0.00    +0.000 A 
ATOM     29  C   UNL     1       0.831   1.543  -6.594  0.00  0.00    +0.000 A 
ATOM     30  C   UNL     1       1.570   1.454  -5.298  0.00  0.00    +0.000 A 
ATOM     31  N   UNL     1       0.917   1.352  -4.174  0.00  0.00    +0.000 NA
ENDBRANCH  19  20
ENDBRANCH  18  19
ENDBRANCH   2  18
TORSDOF 8
