REMARK  Name = 
REMARK  9 active torsions:
REMARK  status: ('A' for Active; 'I' for Inactive)
REMARK    1  A    between atoms: C_1  and  O_2
REMARK    2  A    between atoms: O_2  and  C_3
REMARK    3  A    between atoms: C_7  and  C_8
REMARK    4  A    between atoms: C_8  and  C_10
REMARK    5  A    between atoms: C_13  and  C_14
REMARK    6  A    between atoms: C_14  and  O_16
REMARK    7  A    between atoms: O_16  and  C_17
REMARK    8  A    between atoms: C_17  and  C_18
REMARK    9  A    between atoms: N_27  and  C_28
REMARK                            x       y       z     vdW  Elec       q    Type
REMARK                         _______ _______ _______ _____ _____    ______ ____
ROOT
ATOM      1  C   UNL     1       7.483   2.373   2.892  0.00  0.00    +0.000 A 
ATOM      2  C   UNL     1       7.710   1.334   3.807  0.00  0.00    +0.000 A 
ATOM      3  C   UNL     1       8.616   1.505   4.868  0.00  0.00    +0.000 A 
ATOM      4  C   UNL     1       9.301   2.717   5.012  0.00  0.00    +0.000 A 
ATOM      5  C   UNL     1       9.061   3.757   4.107  0.00  0.00    +0.000 A 
ATOM      6  C   UNL     1       8.138   3.597   3.072  0.00  0.00    +0.000 A 
ENDROOT
BRANCH   1   7
ATOM      7  C   UNL     1       6.537   2.160   1.757  0.00  0.00    +0.000 C 
ATOM      8  O   UNL     1       5.619   1.354   1.883  0.00  0.00    +0.000 OA
BRANCH   7  13
ATOM      9  C   UNL     1       5.636   4.102  -1.365  0.00  0.00    +0.000 A 
ATOM     10  C   UNL     1       6.900   4.464  -1.837  0.00  0.00    +0.000 A 
ATOM     11  C   UNL     1       8.050   4.030  -1.175  0.00  0.00    +0.000 A 
ATOM     12  C   UNL     1       7.942   3.242  -0.030  0.00  0.00    +0.000 A 
ATOM     13  C   UNL     1       6.680   2.917   0.481  0.00  0.00    +0.000 A 
ATOM     14  C   UNL     1       5.531   3.319  -0.209  0.00  0.00    +0.000 A 
BRANCH   9  16
ATOM     15  C   UNL     1       4.502   5.295  -3.085  0.00  0.00    +0.000 C 
ATOM     16  O   UNL     1       4.443   4.463  -1.931  0.00  0.00    +0.000 OA
ENDBRANCH   9  16
ENDBRANCH   7  13
ENDBRANCH   1   7
BRANCH   4  17
ATOM     17  C   UNL     1      10.300   2.970   6.081  0.00  0.00    +0.000 C 
ATOM     18  O   UNL     1      11.191   3.796   5.959  0.00  0.00    +0.000 OA
BRANCH  17  19
ATOM     19  O   UNL     1      10.029   2.236   7.184  0.00  0.00    +0.000 OA
BRANCH  19  20
ATOM     20  C   UNL     1      10.865   2.507   8.318  0.00  0.00    +0.000 C 
BRANCH  20  21
ATOM     21  C   UNL     1      10.034   3.144   9.406  0.00  0.00    +0.000 A 
ATOM     22  C   UNL     1       9.896   4.555   9.454  0.00  0.00    +0.000 A 
ATOM     23  C   UNL     1       9.119   5.176  10.439  0.00  0.00    +0.000 A 
ATOM     24  C   UNL     1       8.488   4.357  11.347  0.00  0.00    +0.000 A 
ATOM     25  C   UNL     1       8.605   2.983  11.308  0.00  0.00    +0.000 A 
ATOM     26  C   UNL     1       9.371   2.346  10.354  0.00  0.00    +0.000 A 
ATOM     27  O   UNL     1       7.876   2.356  12.307  0.00  0.00    +0.000 OA
ATOM     28  C   UNL     1       7.281   3.438  12.976  0.00  0.00    +0.000 A 
ATOM     29  O   UNL     1       6.530   3.296  13.932  0.00  0.00    +0.000 OA
ATOM     30  N   UNL     1       7.660   4.636  12.407  0.00  0.00    +0.000 N 
ATOM     31  C   UNL     1       7.256   5.948  12.822  0.00  0.00    +0.000 C 
ENDBRANCH  20  21
ENDBRANCH  19  20
ENDBRANCH  17  19
ENDBRANCH   4  17
TORSDOF 7
