REMARK  Name = 
REMARK  7 active torsions:
REMARK  status: ('A' for Active; 'I' for Inactive)
REMARK    1  A    between atoms: C_2  and  C_4
REMARK    2  A    between atoms: C_4  and  N_5
REMARK    3  A    between atoms: N_5  and  C_6
REMARK    4  A    between atoms: C_6  and  C_7
REMARK    5  A    between atoms: C_10  and  C_11
REMARK    6  A    between atoms: C_19  and  C_21
REMARK    7  A    between atoms: C_21  and  C_22
REMARK                            x       y       z     vdW  Elec       q    Type
REMARK                         _______ _______ _______ _____ _____    ______ ____
ROOT
ATOM      1  N   UNL     1       4.850  -1.167  -0.363  0.00  0.00    +0.000 N 
ATOM      2  C   UNL     1       5.697  -2.277  -0.368  0.00  0.00    +0.000 C 
ATOM      3  O   UNL     1       5.229  -3.418  -0.422  0.00  0.00    +0.000 OA
ENDROOT
BRANCH   1   4
ATOM      4  C   UNL     1       5.270   0.205  -0.037  0.00  0.00    +0.000 C 
BRANCH   4   5
ATOM      5  C   UNL     1       5.383   1.147  -1.223  0.00  0.00    +0.000 A 
ATOM      6  C   UNL     1       5.081   2.504  -1.040  0.00  0.00    +0.000 A 
ATOM      7  C   UNL     1       5.092   3.406  -2.115  0.00  0.00    +0.000 A 
ATOM      8  C   UNL     1       5.424   3.001  -3.417  0.00  0.00    +0.000 A 
ATOM      9  C   UNL     1       5.846   1.667  -3.565  0.00  0.00    +0.000 A 
ATOM     10  C   UNL     1       5.822   0.754  -2.492  0.00  0.00    +0.000 A 
BRANCH   8  11
ATOM     11  C   UNL     1       5.251   3.917  -4.580  0.00  0.00    +0.000 A 
ATOM     12  C   UNL     1       5.417   5.312  -4.470  0.00  0.00    +0.000 A 
ATOM     13  C   UNL     1       5.140   6.175  -5.540  0.00  0.00    +0.000 A 
ATOM     14  C   UNL     1       4.708   5.663  -6.759  0.00  0.00    +0.000 A 
ATOM     15  C   UNL     1       4.562   4.289  -6.908  0.00  0.00    +0.000 A 
ATOM     16  C   UNL     1       4.828   3.431  -5.833  0.00  0.00    +0.000 A 
ENDBRANCH   8  11
ENDBRANCH   4   5
ENDBRANCH   1   4
BRANCH   1  17
ATOM     17  C   UNL     1       3.404  -1.392  -0.527  0.00  0.00    +0.000 C 
BRANCH  17  19
ATOM     18  N   UNL     1       3.171  -2.828   1.471  0.00  0.00    +0.000 N 
ATOM     19  C   UNL     1       2.655  -1.778   0.763  0.00  0.00    +0.000 C 
ATOM     20  O   UNL     1       1.596  -1.264   1.106  0.00  0.00    +0.000 OA
ATOM     21  H   UNL     1       2.588  -3.215   2.201  0.00  0.00    +0.000 HD
ATOM     22  H   UNL     1       3.840  -3.446   1.018  0.00  0.00    +0.000 HD
ENDBRANCH  17  19
ENDBRANCH   1  17
BRANCH   2  23
ATOM     23  C   UNL     1       7.189  -2.012  -0.214  0.00  0.00    +0.000 C 
BRANCH  23  24
ATOM     24  C   UNL     1       8.087  -3.050  -0.788  0.00  0.00    +0.000 A 
ATOM     25  C   UNL     1       7.955  -4.291  -1.383  0.00  0.00    +0.000 A 
ATOM     26  C   UNL     1       9.269  -4.758  -1.669  0.00  0.00    +0.000 A 
ATOM     27  C   UNL     1       9.835  -5.918  -2.228  0.00  0.00    +0.000 A 
ATOM     28  C   UNL     1      11.233  -6.005  -2.332  0.00  0.00    +0.000 A 
ATOM     29  C   UNL     1      12.055  -4.960  -1.902  0.00  0.00    +0.000 A 
ATOM     30  C   UNL     1      11.512  -3.797  -1.349  0.00  0.00    +0.000 A 
ATOM     31  C   UNL     1      10.124  -3.748  -1.248  0.00  0.00    +0.000 A 
ATOM     32  O   UNL     1       9.413  -2.718  -0.721  0.00  0.00    +0.000 OA
ENDBRANCH  23  24
ENDBRANCH   2  23
TORSDOF 7
