REMARK  Name = 
REMARK  10 active torsions:
REMARK  status: ('A' for Active; 'I' for Inactive)
REMARK    1  A    between atoms: C_1  and  N_2
REMARK    2  A    between atoms: C_5  and  C_6
REMARK    3  A    between atoms: C_6  and  N_7
REMARK    4  A    between atoms: N_7  and  C_8
REMARK    5  A    between atoms: C_11  and  C_12
REMARK    6  A    between atoms: N_14  and  C_15
REMARK    7  A    between atoms: C_15  and  C_16
REMARK    8  A    between atoms: C_21  and  O_22
REMARK    9  A    between atoms: O_22  and  C_23
REMARK   10  A    between atoms: C_29  and  O_30
REMARK                            x       y       z     vdW  Elec       q    Type
REMARK                         _______ _______ _______ _____ _____    ______ ____
ROOT
ATOM      1  C   UNL     1       8.877   3.607  -0.330  0.00  0.00    +0.000 C 
ATOM      2  O   UNL     1       9.137   4.430   0.540  0.00  0.00    +0.000 OA
ATOM      3  N   UNL     1       9.754   3.257  -1.335  0.00  0.00    +0.000 N 
ATOM      4  H   UNL     1       9.387   2.840  -2.184  0.00  0.00    +0.000 HD
ENDROOT
BRANCH   1   8
ATOM      5  C   UNL     1       5.024   1.681  -0.223  0.00  0.00    +0.000 A 
ATOM      6  C   UNL     1       5.224   2.969   0.290  0.00  0.00    +0.000 A 
ATOM      7  C   UNL     1       6.473   3.590   0.223  0.00  0.00    +0.000 A 
ATOM      8  C   UNL     1       7.565   2.914  -0.331  0.00  0.00    +0.000 A 
ATOM      9  C   UNL     1       7.388   1.605  -0.792  0.00  0.00    +0.000 A 
ATOM     10  C   UNL     1       6.127   1.000  -0.750  0.00  0.00    +0.000 A 
BRANCH   9  11
ATOM     11  O   UNL     1       8.415   0.821  -1.250  0.00  0.00    +0.000 OA
ATOM     12  H   UNL     1       9.263   1.210  -0.957  0.00  0.00    +0.000 HD
ENDBRANCH   9  11
BRANCH   5  13
ATOM     13  N   UNL     1       3.755   1.117  -0.065  0.00  0.00    +0.000 N 
ATOM     14  H   UNL     1       3.628   0.812   0.901  0.00  0.00    +0.000 HD
BRANCH  13  15
ATOM     15  C   UNL     1       3.335   0.041  -0.972  0.00  0.00    +0.000 C 
BRANCH  15  20
ATOM     16  C   UNL     1      -1.029  -2.112  -0.842  0.00  0.00    +0.000 C 
ATOM     17  N   UNL     1      -0.061  -1.060  -1.027  0.00  0.00    +0.000 N 
ATOM     18  C   UNL     1      -0.317   0.222  -1.420  0.00  0.00    +0.000 A 
ATOM     19  C   UNL     1       0.902   0.850  -1.457  0.00  0.00    +0.000 A 
ATOM     20  C   UNL     1       1.844  -0.135  -1.077  0.00  0.00    +0.000 A 
ATOM     21  N   UNL     1       1.244  -1.306  -0.808  0.00  0.00    +0.000 NA
ENDBRANCH  15  20
ENDBRANCH  13  15
ENDBRANCH   5  13
ENDBRANCH   1   8
BRANCH   3  22
ATOM     22  C   UNL     1      11.079   3.838  -1.383  0.00  0.00    +0.000 C 
BRANCH  22  23
ATOM     23  C   UNL     1      12.070   2.932  -2.067  0.00  0.00    +0.000 A 
ATOM     24  C   UNL     1      12.779   3.402  -3.187  0.00  0.00    +0.000 A 
ATOM     25  C   UNL     1      13.738   2.605  -3.815  0.00  0.00    +0.000 A 
ATOM     26  C   UNL     1      13.987   1.319  -3.347  0.00  0.00    +0.000 A 
ATOM     27  C   UNL     1      13.283   0.832  -2.248  0.00  0.00    +0.000 A 
ATOM     28  C   UNL     1      12.356   1.642  -1.579  0.00  0.00    +0.000 A 
BRANCH  28  29
ATOM     29  O   UNL     1      11.631   1.195  -0.491  0.00  0.00    +0.000 OA
BRANCH  29  30
ATOM     30  C   UNL     1      12.254   0.366   0.436  0.00  0.00    +0.000 A 
ATOM     31  C   UNL     1      11.425  -0.477   1.161  0.00  0.00    +0.000 A 
ATOM     32  C   UNL     1      12.009  -1.346   2.079  0.00  0.00    +0.000 A 
ATOM     33  C   UNL     1      13.389  -1.333   2.246  0.00  0.00    +0.000 A 
ATOM     34  C   UNL     1      14.132  -0.434   1.499  0.00  0.00    +0.000 A 
ATOM     35  N   UNL     1      13.595   0.424   0.608  0.00  0.00    +0.000 NA
ENDBRANCH  29  30
ENDBRANCH  28  29
ENDBRANCH  22  23
ENDBRANCH   3  22
TORSDOF 9
