REMARK  Name = 
REMARK  5 active torsions:
REMARK  status: ('A' for Active; 'I' for Inactive)
REMARK    1  A    between atoms: C_1  and  C_2
REMARK    2  A    between atoms: C_4  and  C_5
REMARK    3  A    between atoms: C_12  and  N_13
REMARK    4  A    between atoms: C_14  and  C_16
REMARK    5  A    between atoms: N_18  and  C_19
REMARK                            x       y       z     vdW  Elec       q    Type
REMARK                         _______ _______ _______ _____ _____    ______ ____
ROOT
ATOM      1  N   UNL     1       1.139  -2.337  -0.042  0.00  0.00    +0.000 N 
ATOM      2  C   UNL     1       2.496  -2.603  -0.175  0.00  0.00    +0.000 C 
ATOM      3  O   UNL     1       3.384  -1.791  -0.425  0.00  0.00    +0.000 OA
ATOM      4  H   UNL     1       0.521  -3.119   0.125  0.00  0.00    +0.000 HD
ENDROOT
BRANCH   1  11
ATOM      5  C   UNL     1      -1.791  -2.105   0.350  0.00  0.00    +0.000 C 
ATOM      6  C   UNL     1      -0.892  -0.959  -0.032  0.00  0.00    +0.000 A 
ATOM      7  C   UNL     1      -1.502   0.302  -0.219  0.00  0.00    +0.000 A 
ATOM      8  C   UNL     1      -0.771   1.441  -0.577  0.00  0.00    +0.000 A 
ATOM      9  C   UNL     1       0.608   1.311  -0.720  0.00  0.00    +0.000 A 
ATOM     10  C   UNL     1       1.230   0.074  -0.526  0.00  0.00    +0.000 A 
ATOM     11  C   UNL     1       0.504  -1.075  -0.194  0.00  0.00    +0.000 A 
BRANCH   8  12
ATOM     12  C   UNL     1      -1.472   2.710  -0.800  0.00  0.00    +0.000 A 
ATOM     13  N   UNL     1      -2.759   2.932  -0.596  0.00  0.00    +0.000 NA
ATOM     14  C   UNL     1      -2.992   4.231  -0.961  0.00  0.00    +0.000 A 
ATOM     15  C   UNL     1      -1.835   4.825  -1.398  0.00  0.00    +0.000 A 
ATOM     16  N   UNL     1      -0.879   3.855  -1.288  0.00  0.00    +0.000 N 
ATOM     17  H   UNL     1       0.093   3.953  -1.538  0.00  0.00    +0.000 HD
ENDBRANCH   8  12
ENDBRANCH   1  11
BRANCH   2  18
ATOM     18  C   UNL     1       2.882  -4.046  -0.070  0.00  0.00    +0.000 A 
ATOM     19  C   UNL     1       2.293  -4.861   0.814  0.00  0.00    +0.000 A 
ATOM     20  N   UNL     1       2.599  -6.218   0.896  0.00  0.00    +0.000 N 
ATOM     21  C   UNL     1       3.571  -6.800   0.062  0.00  0.00    +0.000 A 
ATOM     22  O   UNL     1       3.888  -7.987   0.030  0.00  0.00    +0.000 OA
ATOM     23  C   UNL     1       4.312  -5.854  -0.822  0.00  0.00    +0.000 A 
ATOM     24  C   UNL     1       3.976  -4.560  -0.869  0.00  0.00    +0.000 A 
BRANCH  20  25
ATOM     25  C   UNL     1       1.868  -7.036   1.814  0.00  0.00    +0.000 A 
ATOM     26  C   UNL     1       1.283  -8.237   1.395  0.00  0.00    +0.000 A 
ATOM     27  C   UNL     1       0.436  -8.942   2.256  0.00  0.00    +0.000 A 
ATOM     28  C   UNL     1       0.200  -8.479   3.552  0.00  0.00    +0.000 A 
ATOM     29  C   UNL     1       0.813  -7.311   3.994  0.00  0.00    +0.000 A 
ATOM     30  C   UNL     1       1.630  -6.597   3.126  0.00  0.00    +0.000 A 
ATOM     31  F   UNL     1       2.205  -5.472   3.580  0.00  0.00    +0.000 F 
ENDBRANCH  20  25
ENDBRANCH   2  18
TORSDOF 4
