REMARK  Name = 
REMARK  5 active torsions:
REMARK  status: ('A' for Active; 'I' for Inactive)
REMARK    1  A    between atoms: N_3  and  C_4
REMARK    2  A    between atoms: C_4  and  C_5
REMARK    3  A    between atoms: N_17  and  C_18
REMARK    4  A    between atoms: C_18  and  C_19
REMARK    5  A    between atoms: C_22  and  C_23
REMARK                            x       y       z     vdW  Elec       q    Type
REMARK                         _______ _______ _______ _____ _____    ______ ____
ROOT
ATOM      1  O   UNL     1       0.971  -0.013  -0.005  0.00  0.00    +0.000 OA
ATOM      2  C   UNL     1       2.197  -0.008   0.062  0.00  0.00    +0.000 C 
ATOM      3  N   UNL     1       2.901  -0.792   0.930  0.00  0.00    +0.000 N 
ATOM      4  N   UNL     1       3.005   0.734  -0.748  0.00  0.00    +0.000 N 
ATOM      5  H   UNL     1       3.880  -0.608   1.109  0.00  0.00    +0.000 HD
ATOM      6  H   UNL     1       4.004   0.664  -0.642  0.00  0.00    +0.000 HD
ENDROOT
BRANCH   3   7
ATOM      7  C   UNL     1       2.208  -1.652   1.871  0.00  0.00    +0.000 C 
BRANCH   7   8
ATOM      8  C   UNL     1       3.205  -2.452   2.726  0.00  0.00    +0.000 C 
ATOM      9  O   UNL     1       4.330  -1.997   2.954  0.00  0.00    +0.000 OA
ATOM     10  N   UNL     1       2.769  -3.666   3.251  0.00  0.00    +0.000 N 
ATOM     11  C   UNL     1       1.435  -4.223   2.982  0.00  0.00    +0.000 C 
ATOM     12  C   UNL     1       1.080  -5.465   3.805  0.00  0.00    +0.000 C 
ATOM     13  C   UNL     1       2.199  -6.465   3.708  0.00  0.00    +0.000 A 
ATOM     14  C   UNL     1       1.964  -7.836   3.569  0.00  0.00    +0.000 A 
ATOM     15  C   UNL     1       3.040  -8.717   3.471  0.00  0.00    +0.000 A 
ATOM     16  C   UNL     1       4.348  -8.235   3.527  0.00  0.00    +0.000 A 
ATOM     17  C   UNL     1       4.587  -6.868   3.688  0.00  0.00    +0.000 A 
ATOM     18  C   UNL     1       3.515  -5.974   3.773  0.00  0.00    +0.000 A 
ATOM     19  C   UNL     1       3.732  -4.491   3.990  0.00  0.00    +0.000 C 
ENDBRANCH   7   8
ENDBRANCH   3   7
BRANCH   4  20
ATOM     20  C   UNL     1       2.490   1.614  -1.776  0.00  0.00    +0.000 C 
BRANCH  20  21
ATOM     21  C   UNL     1       2.991   1.222  -3.141  0.00  0.00    +0.000 A 
ATOM     22  C   UNL     1       2.656  -0.013  -3.701  0.00  0.00    +0.000 A 
ATOM     23  C   UNL     1       3.148  -0.379  -4.963  0.00  0.00    +0.000 A 
ATOM     24  C   UNL     1       3.998   0.468  -5.702  0.00  0.00    +0.000 A 
ATOM     25  C   UNL     1       4.299   1.716  -5.134  0.00  0.00    +0.000 A 
ATOM     26  C   UNL     1       3.800   2.083  -3.882  0.00  0.00    +0.000 A 
ATOM     27  F   UNL     1       4.121   3.290  -3.393  0.00  0.00    +0.000 F 
BRANCH  24  28
ATOM     28  C   UNL     1       4.573   0.053  -7.005  0.00  0.00    +0.000 A 
ATOM     29  C   UNL     1       4.832   0.986  -8.028  0.00  0.00    +0.000 A 
ATOM     30  C   UNL     1       5.413   0.601  -9.240  0.00  0.00    +0.000 A 
ATOM     31  C   UNL     1       5.741  -0.731  -9.466  0.00  0.00    +0.000 A 
ATOM     32  C   UNL     1       5.486  -1.677  -8.480  0.00  0.00    +0.000 A 
ATOM     33  C   UNL     1       4.912  -1.288  -7.265  0.00  0.00    +0.000 A 
ENDBRANCH  24  28
ENDBRANCH  20  21
ENDBRANCH   4  20
TORSDOF 5
