REMARK  Name = 
REMARK  8 active torsions:
REMARK  status: ('A' for Active; 'I' for Inactive)
REMARK    1  A    between atoms: C_1  and  O_2
REMARK    2  A    between atoms: O_2  and  C_3
REMARK    3  A    between atoms: C_6  and  C_7
REMARK    4  A    between atoms: N_9  and  C_10
REMARK    5  A    between atoms: C_16  and  C_17
REMARK    6  A    between atoms: N_19  and  C_20
REMARK    7  A    between atoms: C_20  and  C_21
REMARK    8  A    between atoms: C_28  and  C_29
REMARK                            x       y       z     vdW  Elec       q    Type
REMARK                         _______ _______ _______ _____ _____    ______ ____
ROOT
ATOM      1  C   UNL     1       5.109   6.042  -4.356  0.00  0.00    +0.000 A 
ATOM      2  C   UNL     1       5.364   5.744  -5.706  0.00  0.00    +0.000 A 
ATOM      3  C   UNL     1       5.856   6.706  -6.581  0.00  0.00    +0.000 A 
ATOM      4  F   UNL     1       6.082   6.379  -7.861  0.00  0.00    +0.000 F 
ATOM      5  C   UNL     1       6.100   7.996  -6.152  0.00  0.00    +0.000 A 
ATOM      6  C   UNL     1       5.832   8.329  -4.826  0.00  0.00    +0.000 A 
ATOM      7  C   UNL     1       5.339   7.365  -3.919  0.00  0.00    +0.000 A 
ENDROOT
BRANCH   1  10
ATOM      8  C   UNL     1       4.619   3.672  -3.732  0.00  0.00    +0.000 C 
ATOM      9  O   UNL     1       5.142   3.148  -4.709  0.00  0.00    +0.000 OA
ATOM     10  N   UNL     1       4.589   5.044  -3.478  0.00  0.00    +0.000 N 
ATOM     11  H   UNL     1       4.198   5.376  -2.604  0.00  0.00    +0.000 HD
BRANCH   8  15
ATOM     12  C   UNL     1       3.076   0.812  -0.933  0.00  0.00    +0.000 A 
ATOM     13  C   UNL     1       3.420   2.089  -0.480  0.00  0.00    +0.000 A 
ATOM     14  C   UNL     1       3.890   3.062  -1.375  0.00  0.00    +0.000 A 
ATOM     15  C   UNL     1       4.017   2.755  -2.732  0.00  0.00    +0.000 A 
ATOM     16  C   UNL     1       3.661   1.472  -3.180  0.00  0.00    +0.000 A 
ATOM     17  C   UNL     1       3.202   0.506  -2.285  0.00  0.00    +0.000 A 
BRANCH  12  19
ATOM     18  C   UNL     1       2.038   0.137   1.079  0.00  0.00    +0.000 C 
ATOM     19  O   UNL     1       2.665  -0.226  -0.145  0.00  0.00    +0.000 OA
ENDBRANCH  12  19
ENDBRANCH   8  15
ENDBRANCH   1  10
BRANCH   7  20
ATOM     20  C   UNL     1       5.080   7.871  -2.541  0.00  0.00    +0.000 C 
ATOM     21  O   UNL     1       4.645   9.008  -2.391  0.00  0.00    +0.000 OA
ATOM     22  N   UNL     1       5.385   7.034  -1.488  0.00  0.00    +0.000 N 
ATOM     23  H   UNL     1       6.017   6.260  -1.655  0.00  0.00    +0.000 HD
BRANCH  22  24
ATOM     24  C   UNL     1       5.325   7.528  -0.121  0.00  0.00    +0.000 C 
BRANCH  24  25
ATOM     25  C   UNL     1       6.684   7.951   0.326  0.00  0.00    +0.000 A 
ATOM     26  C   UNL     1       7.301   9.181   0.222  0.00  0.00    +0.000 A 
ATOM     27  C   UNL     1       6.954  10.460  -0.297  0.00  0.00    +0.000 A 
ATOM     28  C   UNL     1       7.866  11.451  -0.281  0.00  0.00    +0.000 A 
ATOM     29  C   UNL     1       9.200  11.247   0.256  0.00  0.00    +0.000 A 
ATOM     30  C   UNL     1       9.515  10.051   0.782  0.00  0.00    +0.000 A 
ATOM     31  N   UNL     1       8.566   9.025   0.777  0.00  0.00    +0.000 N 
ATOM     32  C   UNL     1       8.621   7.729   1.264  0.00  0.00    +0.000 A 
ATOM     33  C   UNL     1       9.758   7.179   2.048  0.00  0.00    +0.000 C 
ATOM     34  N   UNL     1       7.520   7.059   0.967  0.00  0.00    +0.000 NA
ENDBRANCH  24  25
ENDBRANCH  22  24
ENDBRANCH   7  20
TORSDOF 6
