REMARK  Name = 
REMARK  7 active torsions:
REMARK  status: ('A' for Active; 'I' for Inactive)
REMARK    1  A    between atoms: N_1  and  C_2
REMARK    2  A    between atoms: C_2  and  C_3
REMARK    3  A    between atoms: C_3  and  N_4
REMARK    4  A    between atoms: C_3  and  C_23
REMARK    5  A    between atoms: C_5  and  C_7
REMARK    6  A    between atoms: C_14  and  C_15
REMARK    7  A    between atoms: C_15  and  C_17
REMARK                            x       y       z     vdW  Elec       q    Type
REMARK                         _______ _______ _______ _____ _____    ______ ____
ROOT
ATOM      1  N   UNL     1       2.527  -2.525   0.295  0.00  0.00    +0.000 N 
ATOM      2  C   UNL     1       1.180  -2.833   0.396  0.00  0.00    +0.000 C 
ATOM      3  O   UNL     1       0.474  -2.241   1.191  0.00  0.00    +0.000 OA
ATOM      4  H   UNL     1       3.073  -2.873  -0.478  0.00  0.00    +0.000 HD
ENDROOT
BRANCH   2   5
ATOM      5  C   UNL     1       0.634  -3.982  -0.402  0.00  0.00    +0.000 A 
ATOM      6  C   UNL     1       1.560  -4.981  -0.780  0.00  0.00    +0.000 A 
ATOM      7  C   UNL     1       1.133  -6.155  -1.387  0.00  0.00    +0.000 A 
ATOM      8  F   UNL     1       2.034  -7.097  -1.696  0.00  0.00    +0.000 F 
ATOM      9  C   UNL     1      -0.211  -6.369  -1.626  0.00  0.00    +0.000 A 
ATOM     10  F   UNL     1      -0.627  -7.521  -2.167  0.00  0.00    +0.000 F 
ATOM     11  C   UNL     1      -1.147  -5.405  -1.276  0.00  0.00    +0.000 A 
ATOM     12  C   UNL     1      -0.752  -4.190  -0.675  0.00  0.00    +0.000 A 
BRANCH  12  13
ATOM     13  C   UNL     1      -1.874  -3.272  -0.271  0.00  0.00    +0.000 C 
ATOM     14  O   UNL     1      -1.840  -2.636   0.774  0.00  0.00    +0.000 OA
BRANCH  13  15
ATOM     15  C   UNL     1      -3.165  -3.177  -1.011  0.00  0.00    +0.000 A 
ATOM     16  C   UNL     1      -3.279  -3.306  -2.396  0.00  0.00    +0.000 A 
ATOM     17  C   UNL     1      -4.537  -3.190  -2.997  0.00  0.00    +0.000 A 
ATOM     18  C   UNL     1      -5.678  -2.922  -2.227  0.00  0.00    +0.000 A 
ATOM     19  C   UNL     1      -5.564  -2.779  -0.848  0.00  0.00    +0.000 A 
ATOM     20  C   UNL     1      -4.310  -2.908  -0.246  0.00  0.00    +0.000 A 
ENDBRANCH  13  15
ENDBRANCH  12  13
ENDBRANCH   2   5
BRANCH   1  21
ATOM     21  C   UNL     1       3.173  -1.463   1.098  0.00  0.00    +0.000 C 
BRANCH  21  22
ATOM     22  C   UNL     1       3.184  -0.143   0.352  0.00  0.00    +0.000 A 
ATOM     23  C   UNL     1       1.994   0.561   0.118  0.00  0.00    +0.000 A 
ATOM     24  C   UNL     1       2.007   1.784  -0.562  0.00  0.00    +0.000 A 
ATOM     25  C   UNL     1       3.211   2.323  -1.017  0.00  0.00    +0.000 A 
ATOM     26  C   UNL     1       4.402   1.637  -0.789  0.00  0.00    +0.000 A 
ATOM     27  C   UNL     1       4.383   0.419  -0.108  0.00  0.00    +0.000 A 
ATOM     28  F   UNL     1       5.546  -0.213   0.101  0.00  0.00    +0.000 F 
ENDBRANCH  21  22
BRANCH  21  29
ATOM     29  C   UNL     1       2.646  -1.308   2.568  0.00  0.00    +0.000 C 
BRANCH  29  30
ATOM     30  N   UNL     1       2.641  -2.559   3.344  0.00  0.00    +0.000 NA
ATOM     31  H   UNL     1       1.949  -3.173   2.906  0.00  0.00    +0.000 HD
ATOM     32  H   UNL     1       3.540  -3.023   3.257  0.00  0.00    +0.000 HD
ENDBRANCH  29  30
ENDBRANCH  21  29
ENDBRANCH   1  21
TORSDOF 7
