REMARK  Name = 
REMARK  4 active torsions:
REMARK  status: ('A' for Active; 'I' for Inactive)
REMARK    1  A    between atoms: C_2  and  C_20
REMARK    2  A    between atoms: N_3  and  C_4
REMARK    3  A    between atoms: C_6  and  C_7
REMARK    4  A    between atoms: C_14  and  C_15
REMARK                            x       y       z     vdW  Elec       q    Type
REMARK                         _______ _______ _______ _____ _____    ______ ____
ROOT
ATOM      1  C   UNL     1       2.269   0.980   2.275  0.00  0.00    +0.000 A 
ATOM      2  C   UNL     1       1.148   0.306   2.773  0.00  0.00    +0.000 A 
ATOM      3  C   UNL     1       0.628   0.546   4.057  0.00  0.00    +0.000 A 
ATOM      4  C   UNL     1       1.230   1.560   4.814  0.00  0.00    +0.000 A 
ATOM      5  C   UNL     1       2.354   2.262   4.344  0.00  0.00    +0.000 A 
ATOM      6  C   UNL     1       2.881   1.945   3.079  0.00  0.00    +0.000 A 
ENDROOT
BRANCH   3   7
ATOM      7  C   UNL     1      -0.448  -0.306   4.617  0.00  0.00    +0.000 A 
ATOM      8  C   UNL     1      -0.504  -1.682   4.317  0.00  0.00    +0.000 A 
ATOM      9  C   UNL     1      -1.456  -2.523   4.898  0.00  0.00    +0.000 A 
ATOM     10  C   UNL     1      -2.375  -2.006   5.803  0.00  0.00    +0.000 A 
ATOM     11  C   UNL     1      -2.356  -0.648   6.106  0.00  0.00    +0.000 A 
ATOM     12  C   UNL     1      -1.410   0.195   5.511  0.00  0.00    +0.000 A 
ENDBRANCH   3   7
BRANCH   1  15
ATOM     13  O   UNL     1       1.102  -0.496   0.029  0.00  0.00    +0.000 OA
ATOM     14  C   UNL     1       2.243  -0.038  -0.000  0.00  0.00    +0.000 C 
ATOM     15  N   UNL     1       2.835   0.696   1.010  0.00  0.00    +0.000 N 
ATOM     16  H   UNL     1       3.763   1.082   0.824  0.00  0.00    +0.000 HD
BRANCH  14  17
ATOM     17  C   UNL     1       3.066  -0.241  -1.232  0.00  0.00    +0.000 A 
ATOM     18  C   UNL     1       2.446  -0.822  -2.280  0.00  0.00    +0.000 A 
ATOM     19  N   UNL     1       3.119  -1.052  -3.461  0.00  0.00    +0.000 N 
ATOM     20  C   UNL     1       4.448  -0.736  -3.674  0.00  0.00    +0.000 A 
ATOM     21  O   UNL     1       4.989  -0.970  -4.748  0.00  0.00    +0.000 OA
ATOM     22  C   UNL     1       5.100  -0.129  -2.544  0.00  0.00    +0.000 A 
ATOM     23  C   UNL     1       6.394   0.295  -2.361  0.00  0.00    +0.000 A 
ATOM     24  C   UNL     1       6.414   0.794  -1.051  0.00  0.00    +0.000 A 
ATOM     25  N   UNL     1       5.224   0.715  -0.447  0.00  0.00    +0.000 NA
ATOM     26  N   UNL     1       4.407   0.115  -1.365  0.00  0.00    +0.000 N 
ATOM     27  H   UNL     1       2.638  -1.485  -4.244  0.00  0.00    +0.000 HD
ENDBRANCH  14  17
ENDBRANCH   1  15
BRANCH   5  28
ATOM     28  C   UNL     1       3.006   3.315   5.205  0.00  0.00    +0.000 C 
ATOM     29  F   UNL     1       2.389   3.496   6.407  0.00  0.00    +0.000 F 
ATOM     30  F   UNL     1       4.303   3.018   5.495  0.00  0.00    +0.000 F 
ATOM     31  F   UNL     1       3.026   4.539   4.610  0.00  0.00    +0.000 F 
ENDBRANCH   5  28
TORSDOF 4
