REMARK  Name = 
REMARK  7 active torsions:
REMARK  status: ('A' for Active; 'I' for Inactive)
REMARK    1  A    between atoms: C_1  and  C_2
REMARK    2  A    between atoms: C_2  and  N_3
REMARK    3  A    between atoms: C_2  and  C_22
REMARK    4  A    between atoms: N_6  and  C_7
REMARK    5  A    between atoms: C_10  and  O_11
REMARK    6  A    between atoms: O_11  and  C_12
REMARK    7  A    between atoms: N_26  and  C_27
REMARK                            x       y       z     vdW  Elec       q    Type
REMARK                         _______ _______ _______ _____ _____    ______ ____
ROOT
ATOM      1  N   UNL     1       2.756   0.441  -1.399  0.00  0.00    +0.000 N 
ATOM      2  C   UNL     1       2.457  -0.465  -2.382  0.00  0.00    +0.000 C 
ATOM      3  O   UNL     1       1.688  -1.403  -2.212  0.00  0.00    +0.000 OA
ATOM      4  N   UNL     1       3.104  -0.203  -3.567  0.00  0.00    +0.000 N 
ATOM      5  H   UNL     1       3.603   0.974  -1.513  0.00  0.00    +0.000 HD
ATOM      6  H   UNL     1       4.018   0.208  -3.477  0.00  0.00    +0.000 HD
ENDROOT
BRANCH   4   7
ATOM      7  C   UNL     1       2.907  -1.071  -4.666  0.00  0.00    +0.000 A 
ATOM      8  C   UNL     1       1.639  -1.515  -5.044  0.00  0.00    +0.000 A 
ATOM      9  C   UNL     1       1.512  -2.458  -6.059  0.00  0.00    +0.000 A 
ATOM     10  C   UNL     1       2.668  -2.908  -6.671  0.00  0.00    +0.000 A 
ATOM     11  N   UNL     1       3.913  -2.483  -6.344  0.00  0.00    +0.000 NA
ATOM     12  C   UNL     1       4.003  -1.563  -5.363  0.00  0.00    +0.000 A 
BRANCH  10  13
ATOM     13  O   UNL     1       2.509  -3.857  -7.678  0.00  0.00    +0.000 OA
BRANCH  13  14
ATOM     14  C   UNL     1       3.473  -3.905  -8.656  0.00  0.00    +0.000 A 
ATOM     15  C   UNL     1       4.064  -2.757  -9.199  0.00  0.00    +0.000 A 
ATOM     16  C   UNL     1       5.032  -2.863 -10.200  0.00  0.00    +0.000 A 
ATOM     17  C   UNL     1       5.383  -4.120 -10.691  0.00  0.00    +0.000 A 
ATOM     18  C   UNL     1       4.762  -5.257 -10.175  0.00  0.00    +0.000 A 
ATOM     19  F   UNL     1       5.097  -6.460 -10.669  0.00  0.00    +0.000 F 
ATOM     20  C   UNL     1       3.811  -5.154  -9.164  0.00  0.00    +0.000 A 
ATOM     21  F   UNL     1       3.227  -6.265  -8.688  0.00  0.00    +0.000 F 
ENDBRANCH  13  14
ENDBRANCH  10  13
ENDBRANCH   4   7
BRANCH   1  23
ATOM     22  C   UNL     1       2.892  -0.936   0.654  0.00  0.00    +0.000 C 
ATOM     23  C   UNL     1       2.259   0.278  -0.033  0.00  0.00    +0.000 C 
BRANCH  23  24
ATOM     24  C   UNL     1       0.762   0.237   0.021  0.00  0.00    +0.000 A 
ATOM     25  N   UNL     1       0.026  -0.859   0.104  0.00  0.00    +0.000 NA
ATOM     26  N   UNL     1      -1.248  -0.463   0.377  0.00  0.00    +0.000 NA
ATOM     27  N   UNL     1      -1.312   0.850   0.513  0.00  0.00    +0.000 NA
ATOM     28  N   UNL     1      -0.080   1.324   0.207  0.00  0.00    +0.000 N 
BRANCH  28  29
ATOM     29  C   UNL     1       0.155   2.721   0.164  0.00  0.00    +0.000 A 
ATOM     30  C   UNL     1      -0.684   3.569   0.904  0.00  0.00    +0.000 A 
ATOM     31  C   UNL     1      -0.475   4.949   0.891  0.00  0.00    +0.000 A 
ATOM     32  C   UNL     1       0.550   5.494   0.123  0.00  0.00    +0.000 A 
ATOM     33  C   UNL     1       1.368   4.660  -0.638  0.00  0.00    +0.000 A 
ATOM     34  C   UNL     1       1.172   3.276  -0.620  0.00  0.00    +0.000 A 
ENDBRANCH  28  29
ENDBRANCH  23  24
ENDBRANCH   1  23
TORSDOF 6
