REMARK  Name = 
REMARK  7 active torsions:
REMARK  status: ('A' for Active; 'I' for Inactive)
REMARK    1  A    between atoms: C_2  and  C_3
REMARK    2  A    between atoms: C_3  and  N_4
REMARK    3  A    between atoms: C_5  and  C_7
REMARK    4  A    between atoms: C_8  and  O_9
REMARK    5  A    between atoms: N_18  and  C_19
REMARK    6  A    between atoms: C_23  and  C_24
REMARK    7  A    between atoms: C_27  and  C_28
REMARK                            x       y       z     vdW  Elec       q    Type
REMARK                         _______ _______ _______ _____ _____    ______ ____
ROOT
ATOM      1  O   UNL     1       2.079  -1.066  -0.554  0.00  0.00    +0.000 OA
ATOM      2  C   UNL     1       2.425  -0.089   0.109  0.00  0.00    +0.000 C 
ATOM      3  N   UNL     1       2.175   0.109   1.458  0.00  0.00    +0.000 N 
ATOM      4  H   UNL     1       2.209   1.072   1.786  0.00  0.00    +0.000 HD
ENDROOT
BRANCH   3   5
ATOM      5  C   UNL     1       1.649  -0.860   2.347  0.00  0.00    +0.000 A 
ATOM      6  C   UNL     1       1.646  -2.227   2.055  0.00  0.00    +0.000 A 
ATOM      7  C   UNL     1       1.060  -3.144   2.929  0.00  0.00    +0.000 A 
ATOM      8  C   UNL     1       0.470  -2.703   4.109  0.00  0.00    +0.000 A 
ATOM      9  C   UNL     1       0.487  -1.341   4.444  0.00  0.00    +0.000 A 
ATOM     10  C   UNL     1       1.106  -0.429   3.566  0.00  0.00    +0.000 A 
BRANCH   9  11
ATOM     11  C   UNL     1      -0.180  -0.872   5.655  0.00  0.00    +0.000 A 
ATOM     12  N   UNL     1      -0.835  -1.677   6.509  0.00  0.00    +0.000 NA
ATOM     13  O   UNL     1      -1.379  -0.805   7.447  0.00  0.00    +0.000 OA
ATOM     14  C   UNL     1      -0.996   0.449   7.079  0.00  0.00    +0.000 A 
ATOM     15  N   UNL     1      -0.244   0.464   5.994  0.00  0.00    +0.000 NA
BRANCH  14  16
ATOM     16  C   UNL     1      -1.498   1.560   7.915  0.00  0.00    +0.000 C 
ATOM     17  F   UNL     1      -2.858   1.627   7.896  0.00  0.00    +0.000 F 
ATOM     18  F   UNL     1      -1.144   1.411   9.222  0.00  0.00    +0.000 F 
ENDBRANCH  14  16
ENDBRANCH   9  11
ENDBRANCH   3   5
BRANCH   2  19
ATOM     19  C   UNL     1       3.098   1.096  -0.583  0.00  0.00    +0.000 C 
BRANCH  19  20
ATOM     20  N   UNL     1       2.114   1.991  -1.171  0.00  0.00    +0.000 N 
ATOM     21  C   UNL     1       1.672   3.089  -0.473  0.00  0.00    +0.000 C 
ATOM     22  O   UNL     1       2.071   3.354   0.660  0.00  0.00    +0.000 OA
ATOM     23  H   UNL     1       1.815   1.798  -2.115  0.00  0.00    +0.000 HD
BRANCH  21  24
ATOM     24  C   UNL     1       0.720   4.008  -1.126  0.00  0.00    +0.000 A 
ATOM     25  C   UNL     1       0.711   5.368  -0.801  0.00  0.00    +0.000 A 
ATOM     26  C   UNL     1      -0.236   6.237  -1.374  0.00  0.00    +0.000 A 
ATOM     27  C   UNL     1      -0.300   7.616  -1.073  0.00  0.00    +0.000 A 
ATOM     28  C   UNL     1      -1.299   8.421  -1.616  0.00  0.00    +0.000 A 
ATOM     29  C   UNL     1      -2.235   7.860  -2.474  0.00  0.00    +0.000 A 
ATOM     30  C   UNL     1      -2.156   6.502  -2.797  0.00  0.00    +0.000 A 
ATOM     31  C   UNL     1      -1.174   5.675  -2.265  0.00  0.00    +0.000 A 
ATOM     32  N   UNL     1      -1.164   4.370  -2.597  0.00  0.00    +0.000 NA
ATOM     33  C   UNL     1      -0.234   3.566  -2.024  0.00  0.00    +0.000 A 
BRANCH  25  34
ATOM     34  O   UNL     1       1.613   5.897   0.096  0.00  0.00    +0.000 OA
ATOM     35  H   UNL     1       2.032   5.157   0.587  0.00  0.00    +0.000 HD
ENDBRANCH  25  34
ENDBRANCH  21  24
ENDBRANCH  19  20
ENDBRANCH   2  19
TORSDOF 7
