REMARK  Name = 
REMARK  6 active torsions:
REMARK  status: ('A' for Active; 'I' for Inactive)
REMARK    1  A    between atoms: C_2  and  C_3
REMARK    2  A    between atoms: C_5  and  N_6
REMARK    3  A    between atoms: C_9  and  C_10
REMARK    4  A    between atoms: N_12  and  C_13
REMARK    5  A    between atoms: C_13  and  C_14
REMARK    6  A    between atoms: C_13  and  C_17
REMARK                            x       y       z     vdW  Elec       q    Type
REMARK                         _______ _______ _______ _____ _____    ______ ____
ROOT
ATOM      1  C   UNL     1       3.768  -4.905   2.278  0.00  0.00    +0.000 C 
ATOM      2  O   UNL     1       3.383  -6.021   2.615  0.00  0.00    +0.000 OA
ATOM      3  N   UNL     1       4.965  -4.369   2.685  0.00  0.00    +0.000 N 
ATOM      4  H   UNL     1       5.154  -3.404   2.438  0.00  0.00    +0.000 HD
ENDROOT
BRANCH   1   8
ATOM      5  N   UNL     1       2.292  -2.333   0.272  0.00  0.00    +0.000 N 
ATOM      6  C   UNL     1       1.274  -3.257   0.203  0.00  0.00    +0.000 A 
ATOM      7  C   UNL     1       1.672  -4.353   0.919  0.00  0.00    +0.000 A 
ATOM      8  C   UNL     1       2.960  -4.035   1.406  0.00  0.00    +0.000 A 
ATOM      9  N   UNL     1       3.365  -2.824   0.967  0.00  0.00    +0.000 NA
BRANCH   5  12
ATOM     10  C   UNL     1       3.405   1.100  -0.691  0.00  0.00    +0.000 A 
ATOM     11  C   UNL     1       3.433  -0.212  -0.193  0.00  0.00    +0.000 A 
ATOM     12  C   UNL     1       2.280  -1.010  -0.259  0.00  0.00    +0.000 A 
ATOM     13  C   UNL     1       1.110  -0.481  -0.829  0.00  0.00    +0.000 A 
ATOM     14  C   UNL     1       1.082   0.832  -1.304  0.00  0.00    +0.000 A 
ATOM     15  C   UNL     1       2.227   1.621  -1.234  0.00  0.00    +0.000 A 
BRANCH  10  17
ATOM     16  N   UNL     1       5.540   2.570  -0.636  0.00  0.00    +0.000 NA
ATOM     17  C   UNL     1       4.588   1.911  -0.653  0.00  0.00    +0.000 C 
ENDBRANCH  10  17
ENDBRANCH   5  12
ENDBRANCH   1   8
BRANCH   3  18
ATOM     18  C   UNL     1       5.868  -5.087   3.582  0.00  0.00    +0.000 C 
BRANCH  18  19
ATOM     19  C   UNL     1       6.034  -4.314   4.880  0.00  0.00    +0.000 A 
ATOM     20  C   UNL     1       7.053  -3.369   5.052  0.00  0.00    +0.000 A 
ATOM     21  C   UNL     1       7.179  -2.665   6.253  0.00  0.00    +0.000 A 
ATOM     22  C   UNL     1       6.287  -2.880   7.312  0.00  0.00    +0.000 A 
ATOM     23  C   UNL     1       6.408  -2.177   8.523  0.00  0.00    +0.000 A 
ATOM     24  C   UNL     1       5.520  -2.408   9.574  0.00  0.00    +0.000 A 
ATOM     25  C   UNL     1       4.503  -3.346   9.429  0.00  0.00    +0.000 A 
ATOM     26  C   UNL     1       4.367  -4.049   8.229  0.00  0.00    +0.000 A 
ATOM     27  C   UNL     1       5.249  -3.825   7.158  0.00  0.00    +0.000 A 
ATOM     28  C   UNL     1       5.130  -4.522   5.939  0.00  0.00    +0.000 A 
ENDBRANCH  18  19
BRANCH  18  29
ATOM     29  C   UNL     1       7.217  -5.435   2.893  0.00  0.00    +0.000 C 
ATOM     30  N   UNL     1       7.392  -4.982   1.613  0.00  0.00    +0.000 N 
ATOM     31  O   UNL     1       8.128  -6.050   3.442  0.00  0.00    +0.000 OA
ATOM     32  H   UNL     1       6.606  -4.667   1.060  0.00  0.00    +0.000 HD
ATOM     33  H   UNL     1       8.239  -5.270   1.139  0.00  0.00    +0.000 HD
ENDBRANCH  18  29
ENDBRANCH   3  18
TORSDOF 6
