REMARK  Name = 
REMARK  5 active torsions:
REMARK  status: ('A' for Active; 'I' for Inactive)
REMARK    1  A    between atoms: C_2  and  C_18
REMARK    2  A    between atoms: N_3  and  C_4
REMARK    3  A    between atoms: C_4  and  C_5
REMARK    4  A    between atoms: C_6  and  C_7
REMARK    5  A    between atoms: N_22  and  C_23
REMARK                            x       y       z     vdW  Elec       q    Type
REMARK                         _______ _______ _______ _____ _____    ______ ____
ROOT
ATOM      1  O   UNL     1       1.076  -0.015  -0.038  0.00  0.00    +0.000 OA
ATOM      2  C   UNL     1       2.300  -0.007   0.039  0.00  0.00    +0.000 C 
ATOM      3  N   UNL     1       3.040  -1.160   0.065  0.00  0.00    +0.000 N 
ATOM      4  H   UNL     1       4.010  -1.117   0.339  0.00  0.00    +0.000 HD
ENDROOT
BRANCH   2   5
ATOM      5  C   UNL     1       3.091   1.192   0.084  0.00  0.00    +0.000 A 
ATOM      6  C   UNL     1       4.308   1.436  -0.527  0.00  0.00    +0.000 A 
ATOM      7  N   UNL     1       4.677   2.745  -0.425  0.00  0.00    +0.000 NA
ATOM      8  C   UNL     1       3.695   3.311   0.241  0.00  0.00    +0.000 A 
ATOM      9  N   UNL     1       2.722   2.412   0.630  0.00  0.00    +0.000 N 
BRANCH   9  10
ATOM     10  C   UNL     1       1.626   2.718   1.482  0.00  0.00    +0.000 A 
ATOM     11  C   UNL     1       1.059   3.997   1.451  0.00  0.00    +0.000 A 
ATOM     12  C   UNL     1      -0.002   4.293   2.301  0.00  0.00    +0.000 A 
ATOM     13  F   UNL     1      -0.561   5.509   2.251  0.00  0.00    +0.000 F 
ATOM     14  C   UNL     1      -0.495   3.351   3.196  0.00  0.00    +0.000 A 
ATOM     15  C   UNL     1       0.075   2.081   3.238  0.00  0.00    +0.000 A 
ATOM     16  C   UNL     1       1.131   1.760   2.381  0.00  0.00    +0.000 A 
ENDBRANCH   9  10
ENDBRANCH   2   5
BRANCH   3  17
ATOM     17  C   UNL     1       2.409  -2.455   0.072  0.00  0.00    +0.000 C 
BRANCH  17  18
ATOM     18  C   UNL     1       2.179  -2.954   1.459  0.00  0.00    +0.000 A 
ATOM     19  C   UNL     1       1.570  -4.138   1.845  0.00  0.00    +0.000 A 
ATOM     20  O   UNL     1       1.527  -4.151   3.216  0.00  0.00    +0.000 OA
ATOM     21  C   UNL     1       2.135  -2.991   3.581  0.00  0.00    +0.000 A 
ATOM     22  N   UNL     1       2.552  -2.239   2.587  0.00  0.00    +0.000 NA
BRANCH  19  23
ATOM     23  C   UNL     1       1.011  -5.302   1.170  0.00  0.00    +0.000 A 
ATOM     24  C   UNL     1      -0.096  -5.982   1.704  0.00  0.00    +0.000 A 
ATOM     25  C   UNL     1      -0.620  -7.106   1.056  0.00  0.00    +0.000 A 
ATOM     26  C   UNL     1      -0.046  -7.551  -0.131  0.00  0.00    +0.000 A 
ATOM     27  F   UNL     1      -0.544  -8.631  -0.744  0.00  0.00    +0.000 F 
ATOM     28  C   UNL     1       1.040  -6.896  -0.683  0.00  0.00    +0.000 A 
ATOM     29  C   UNL     1       1.562  -5.788  -0.026  0.00  0.00    +0.000 A 
ATOM     30  F   UNL     1       2.646  -5.213  -0.563  0.00  0.00    +0.000 F 
ENDBRANCH  19  23
ENDBRANCH  17  18
ENDBRANCH   3  17
TORSDOF 5
