REMARK  Name = 
REMARK  11 active torsions:
REMARK  status: ('A' for Active; 'I' for Inactive)
REMARK    1  A    between atoms: C_1  and  C_2
REMARK    2  A    between atoms: C_6  and  C_7
REMARK    3  A    between atoms: C_7  and  C_8
REMARK    4  A    between atoms: C_8  and  C_9
REMARK    5  A    between atoms: C_8  and  C_11
REMARK    6  A    between atoms: C_9  and  O_10
REMARK    7  A    between atoms: C_11  and  N_12
REMARK    8  A    between atoms: N_15  and  C_16
REMARK    9  A    between atoms: C_16  and  C_17
REMARK   10  A    between atoms: N_19  and  C_20
REMARK   11  A    between atoms: C_27  and  C_28
REMARK                            x       y       z     vdW  Elec       q    Type
REMARK                         _______ _______ _______ _____ _____    ______ ____
ROOT
ATOM      1  N   UNL     1      -5.656  -3.486   0.136  0.00  0.00    +0.000 N 
ATOM      2  C   UNL     1      -6.462  -4.580  -0.034  0.00  0.00    +0.000 C 
ATOM      3  O   UNL     1      -6.055  -5.707  -0.275  0.00  0.00    +0.000 OA
ATOM      4  N   UNL     1      -7.784  -4.245   0.089  0.00  0.00    +0.000 N 
ATOM      5  H   UNL     1      -6.093  -2.578   0.107  0.00  0.00    +0.000 HD
ATOM      6  H   UNL     1      -7.973  -3.469   0.703  0.00  0.00    +0.000 HD
ENDROOT
BRANCH   4   7
ATOM      7  C   UNL     1      -8.804  -5.271   0.035  0.00  0.00    +0.000 C 
BRANCH   7   8
ATOM      8  C   UNL     1     -10.100  -4.695  -0.430  0.00  0.00    +0.000 A 
ATOM      9  C   UNL     1     -10.360  -3.389  -0.810  0.00  0.00    +0.000 A 
ATOM     10  N   UNL     1     -11.665  -3.321  -1.226  0.00  0.00    +0.000 N 
ATOM     11  N   UNL     1     -12.277  -4.516  -1.099  0.00  0.00    +0.000 NA
ATOM     12  C   UNL     1     -11.347  -5.370  -0.643  0.00  0.00    +0.000 A 
BRANCH  12  13
ATOM     13  C   UNL     1     -11.718  -6.779  -0.453  0.00  0.00    +0.000 A 
ATOM     14  C   UNL     1     -12.699  -7.350  -1.271  0.00  0.00    +0.000 A 
ATOM     15  C   UNL     1     -13.079  -8.663  -1.054  0.00  0.00    +0.000 A 
ATOM     16  N   UNL     1     -12.546  -9.443  -0.091  0.00  0.00    +0.000 NA
ATOM     17  C   UNL     1     -11.600  -8.878   0.688  0.00  0.00    +0.000 A 
ATOM     18  C   UNL     1     -11.160  -7.569   0.551  0.00  0.00    +0.000 A 
ENDBRANCH  12  13
BRANCH  10  19
ATOM     19  C   UNL     1     -12.364  -2.197  -1.748  0.00  0.00    +0.000 A 
ATOM     20  C   UNL     1     -11.716  -0.972  -1.967  0.00  0.00    +0.000 A 
ATOM     21  C   UNL     1     -12.420   0.109  -2.504  0.00  0.00    +0.000 A 
ATOM     22  C   UNL     1     -13.771  -0.021  -2.819  0.00  0.00    +0.000 A 
ATOM     23  C   UNL     1     -14.426  -1.230  -2.596  0.00  0.00    +0.000 A 
ATOM     24  C   UNL     1     -13.728  -2.316  -2.065  0.00  0.00    +0.000 A 
ENDBRANCH  10  19
ENDBRANCH   7   8
ENDBRANCH   4   7
BRANCH   1  25
ATOM     25  C   UNL     1      -4.214  -3.555  -0.020  0.00  0.00    +0.000 C 
BRANCH  25  26
ATOM     26  C   UNL     1      -3.745  -3.402  -1.483  0.00  0.00    +0.000 C 
BRANCH  26  27
ATOM     27  C   UNL     1      -4.144  -2.014  -2.041  0.00  0.00    +0.000 C 
BRANCH  27  33
ATOM     28  C   UNL     1      -1.633   0.812  -5.387  0.00  0.00    +0.000 C 
ATOM     29  C   UNL     1      -2.474  -0.393  -5.082  0.00  0.00    +0.000 A 
ATOM     30  C   UNL     1      -2.869  -1.264  -6.102  0.00  0.00    +0.000 A 
ATOM     31  C   UNL     1      -3.697  -2.349  -5.818  0.00  0.00    +0.000 A 
ATOM     32  C   UNL     1      -4.124  -2.583  -4.511  0.00  0.00    +0.000 A 
ATOM     33  C   UNL     1      -3.706  -1.749  -3.466  0.00  0.00    +0.000 A 
ATOM     34  C   UNL     1      -2.896  -0.642  -3.767  0.00  0.00    +0.000 A 
ENDBRANCH  27  33
ENDBRANCH  26  27
BRANCH  26  35
ATOM     35  C   UNL     1      -2.228  -3.642  -1.544  0.00  0.00    +0.000 C 
BRANCH  35  36
ATOM     36  O   UNL     1      -1.526  -2.683  -0.760  0.00  0.00    +0.000 OA
ATOM     37  H   UNL     1      -1.390  -1.901  -1.323  0.00  0.00    +0.000 HD
ENDBRANCH  35  36
ENDBRANCH  26  35
ENDBRANCH  25  26
ENDBRANCH   1  25
TORSDOF 10
