REMARK  Name = 
REMARK  3 active torsions:
REMARK  status: ('A' for Active; 'I' for Inactive)
REMARK    1  A    between atoms: C_2  and  C_17
REMARK    2  A    between atoms: N_6  and  C_7
REMARK    3  A    between atoms: N_20  and  C_21
REMARK                            x       y       z     vdW  Elec       q    Type
REMARK                         _______ _______ _______ _____ _____    ______ ____
ROOT
ATOM      1  O   UNL     1       0.860  -0.197   0.130  0.00  0.00    +0.000 OA
ATOM      2  C   UNL     1       2.072  -0.052   0.069  0.00  0.00    +0.000 C 
ATOM      3  N   UNL     1       2.758   1.139  -0.025  0.00  0.00    +0.000 N 
ATOM      4  C   UNL     1       2.141   2.353  -0.062  0.00  0.00    +0.000 A 
ATOM      5  N   UNL     1       0.864   2.595   0.188  0.00  0.00    +0.000 NA
ATOM      6  N   UNL     1       0.733   3.892  -0.131  0.00  0.00    +0.000 N 
ATOM      7  C   UNL     1       1.962   4.394  -0.476  0.00  0.00    +0.000 A 
ATOM      8  N   UNL     1       2.873   3.447  -0.415  0.00  0.00    +0.000 NA
ATOM      9  H   UNL     1       3.751   1.165  -0.189  0.00  0.00    +0.000 HD
ENDROOT
BRANCH   6  10
ATOM     10  C   UNL     1      -0.534   4.521  -0.108  0.00  0.00    +0.000 A 
ATOM     11  C   UNL     1      -0.689   5.845  -0.542  0.00  0.00    +0.000 A 
ATOM     12  C   UNL     1      -1.958   6.432  -0.526  0.00  0.00    +0.000 A 
ATOM     13  C   UNL     1      -3.054   5.706  -0.075  0.00  0.00    +0.000 A 
ATOM     14  F   UNL     1      -4.263   6.285  -0.059  0.00  0.00    +0.000 F 
ATOM     15  C   UNL     1      -2.902   4.394   0.358  0.00  0.00    +0.000 A 
ATOM     16  F   UNL     1      -3.963   3.700   0.795  0.00  0.00    +0.000 F 
ATOM     17  C   UNL     1      -1.652   3.790   0.340  0.00  0.00    +0.000 A 
ENDBRANCH   6  10
BRANCH   2  18
ATOM     18  C   UNL     1       2.926  -1.218   0.051  0.00  0.00    +0.000 A 
ATOM     19  C   UNL     1       4.294  -1.280   0.099  0.00  0.00    +0.000 A 
ATOM     20  F   UNL     1       5.079  -0.234   0.173  0.00  0.00    +0.000 F 
ATOM     21  N   UNL     1       4.668  -2.605   0.103  0.00  0.00    +0.000 N 
ATOM     22  N   UNL     1       3.577  -3.414   0.000  0.00  0.00    +0.000 NA
ATOM     23  C   UNL     1       2.540  -2.573  -0.007  0.00  0.00    +0.000 A 
BRANCH  21  24
ATOM     24  C   UNL     1       5.977  -3.134   0.249  0.00  0.00    +0.000 A 
ATOM     25  C   UNL     1       7.079  -2.281   0.401  0.00  0.00    +0.000 A 
ATOM     26  C   UNL     1       8.346  -2.810   0.634  0.00  0.00    +0.000 A 
ATOM     27  C   UNL     1       8.525  -4.189   0.702  0.00  0.00    +0.000 A 
ATOM     28  C   UNL     1       7.440  -5.043   0.516  0.00  0.00    +0.000 A 
ATOM     29  C   UNL     1       6.165  -4.521   0.288  0.00  0.00    +0.000 A 
ENDBRANCH  21  24
ENDBRANCH   2  18
TORSDOF 3
