REMARK  Name = 
REMARK  7 active torsions:
REMARK  status: ('A' for Active; 'I' for Inactive)
REMARK    1  A    between atoms: C_1  and  C_2
REMARK    2  A    between atoms: N_7  and  C_8
REMARK    3  A    between atoms: C_12  and  C_13
REMARK    4  A    between atoms: N_15  and  C_16
REMARK    5  A    between atoms: C_16  and  C_17
REMARK    6  A    between atoms: C_19  and  O_20
REMARK    7  A    between atoms: O_20  and  C_21
REMARK                            x       y       z     vdW  Elec       q    Type
REMARK                         _______ _______ _______ _____ _____    ______ ____
ROOT
ATOM      1  C   UNL     1       3.640  -5.762   1.757  0.00  0.00    +0.000 C 
ATOM      2  O   UNL     1       4.386  -5.339   2.623  0.00  0.00    +0.000 OA
ATOM      3  N   UNL     1       3.436  -7.115   1.536  0.00  0.00    +0.000 N 
ATOM      4  H   UNL     1       2.937  -7.475   0.747  0.00  0.00    +0.000 HD
ENDROOT
BRANCH   1   9
ATOM      5  C   UNL     1       2.512  -2.496   0.229  0.00  0.00    +0.000 A 
ATOM      6  C   UNL     1       1.641  -2.933  -0.775  0.00  0.00    +0.000 A 
ATOM      7  C   UNL     1       1.400  -4.293  -0.959  0.00  0.00    +0.000 A 
ATOM      8  C   UNL     1       2.015  -5.227  -0.131  0.00  0.00    +0.000 A 
ATOM      9  C   UNL     1       2.905  -4.810   0.867  0.00  0.00    +0.000 A 
ATOM     10  C   UNL     1       3.148  -3.438   1.042  0.00  0.00    +0.000 A 
BRANCH   5  17
ATOM     11  C   UNL     1       0.463  -0.197   0.759  0.00  0.00    +0.000 C 
ATOM     12  C   UNL     1       1.918  -0.051   0.498  0.00  0.00    +0.000 A 
ATOM     13  C   UNL     1       2.628   1.090   0.469  0.00  0.00    +0.000 A 
ATOM     14  N   UNL     1       3.954   0.788   0.320  0.00  0.00    +0.000 N 
ATOM     15  C   UNL     1       4.122  -0.607   0.264  0.00  0.00    +0.000 A 
ATOM     16  O   UNL     1       5.184  -1.188   0.106  0.00  0.00    +0.000 OA
ATOM     17  N   UNL     1       2.795  -1.125   0.375  0.00  0.00    +0.000 N 
ATOM     18  H   UNL     1       4.724   1.435   0.248  0.00  0.00    +0.000 HD
ENDBRANCH   5  17
ENDBRANCH   1   9
BRANCH   3  19
ATOM     19  C   UNL     1       4.144  -8.085   2.338  0.00  0.00    +0.000 C 
BRANCH  19  20
ATOM     20  C   UNL     1       5.475  -8.479   1.743  0.00  0.00    +0.000 A 
ATOM     21  C   UNL     1       6.599  -7.753   2.116  0.00  0.00    +0.000 A 
ATOM     22  C   UNL     1       7.839  -8.108   1.597  0.00  0.00    +0.000 A 
ATOM     23  C   UNL     1       7.925  -9.186   0.728  0.00  0.00    +0.000 A 
ATOM     24  C   UNL     1       6.757  -9.848   0.391  0.00  0.00    +0.000 A 
ATOM     25  N   UNL     1       5.534  -9.522   0.874  0.00  0.00    +0.000 NA
BRANCH  22  26
ATOM     26  O   UNL     1       9.020  -7.476   1.918  0.00  0.00    +0.000 OA
BRANCH  26  27
ATOM     27  C   UNL     1       8.999  -6.131   2.204  0.00  0.00    +0.000 A 
ATOM     28  C   UNL     1       8.099  -5.238   1.606  0.00  0.00    +0.000 A 
ATOM     29  C   UNL     1       8.131  -3.884   1.926  0.00  0.00    +0.000 A 
ATOM     30  C   UNL     1       9.071  -3.423   2.844  0.00  0.00    +0.000 A 
ATOM     31  F   UNL     1       9.108  -2.121   3.140  0.00  0.00    +0.000 F 
ATOM     32  C   UNL     1       9.967  -4.307   3.436  0.00  0.00    +0.000 A 
ATOM     33  F   UNL     1      10.854  -3.857   4.335  0.00  0.00    +0.000 F 
ATOM     34  C   UNL     1       9.951  -5.660   3.112  0.00  0.00    +0.000 A 
ENDBRANCH  26  27
ENDBRANCH  22  26
ENDBRANCH  19  20
ENDBRANCH   3  19
TORSDOF 6
