REMARK  Name = 
REMARK  6 active torsions:
REMARK  status: ('A' for Active; 'I' for Inactive)
REMARK    1  A    between atoms: C_2  and  C_19
REMARK    2  A    between atoms: N_3  and  C_4
REMARK    3  A    between atoms: C_7  and  O_8
REMARK    4  A    between atoms: O_8  and  C_9
REMARK    5  A    between atoms: C_9  and  C_10
REMARK    6  A    between atoms: C_22  and  C_23
REMARK                            x       y       z     vdW  Elec       q    Type
REMARK                         _______ _______ _______ _____ _____    ______ ____
ROOT
ATOM      1  O   UNL     1       1.040  -0.307  -0.674  0.00  0.00    +0.000 OA
ATOM      2  C   UNL     1       2.177  -0.165  -0.236  0.00  0.00    +0.000 C 
ATOM      3  N   UNL     1       2.789  -0.938   0.733  0.00  0.00    +0.000 N 
ATOM      4  H   UNL     1       3.641  -0.593   1.158  0.00  0.00    +0.000 HD
ENDROOT
BRANCH   3   5
ATOM      5  C   UNL     1       2.200  -2.070   1.340  0.00  0.00    +0.000 A 
ATOM      6  C   UNL     1       1.090  -2.728   0.805  0.00  0.00    +0.000 A 
ATOM      7  C   UNL     1       0.523  -3.821   1.462  0.00  0.00    +0.000 A 
ATOM      8  C   UNL     1       1.073  -4.283   2.651  0.00  0.00    +0.000 A 
ATOM      9  C   UNL     1       2.179  -3.631   3.199  0.00  0.00    +0.000 A 
ATOM     10  C   UNL     1       2.752  -2.541   2.534  0.00  0.00    +0.000 A 
BRANCH   8  11
ATOM     11  O   UNL     1       0.448  -5.367   3.198  0.00  0.00    +0.000 OA
BRANCH  11  12
ATOM     12  C   UNL     1       1.278  -6.192   4.016  0.00  0.00    +0.000 C 
BRANCH  12  13
ATOM     13  C   UNL     1       0.766  -7.608   4.025  0.00  0.00    +0.000 A 
ATOM     14  C   UNL     1       0.055  -8.151   2.946  0.00  0.00    +0.000 A 
ATOM     15  C   UNL     1      -0.323  -9.496   2.954  0.00  0.00    +0.000 A 
ATOM     16  C   UNL     1       0.015 -10.311   4.033  0.00  0.00    +0.000 A 
ATOM     17  C   UNL     1       0.725  -9.784   5.110  0.00  0.00    +0.000 A 
ATOM     18  C   UNL     1       1.097  -8.442   5.094  0.00  0.00    +0.000 A 
ATOM     19  F   UNL     1       1.807  -7.956   6.123  0.00  0.00    +0.000 F 
ENDBRANCH  12  13
ENDBRANCH  11  12
ENDBRANCH   8  11
ENDBRANCH   3   5
BRANCH   2  20
ATOM     20  C   UNL     1       2.936   0.991  -0.747  0.00  0.00    +0.000 A 
ATOM     21  C   UNL     1       2.228   2.148  -1.067  0.00  0.00    +0.000 A 
ATOM     22  C   UNL     1       2.889   3.208  -1.674  0.00  0.00    +0.000 A 
ATOM     23  C   UNL     1       4.250   3.088  -1.948  0.00  0.00    +0.000 A 
ATOM     24  N   UNL     1       4.965   1.974  -1.613  0.00  0.00    +0.000 NA
ATOM     25  C   UNL     1       4.291   0.948  -1.034  0.00  0.00    +0.000 A 
BRANCH  23  26
ATOM     26  C   UNL     1       4.927   4.176  -2.668  0.00  0.00    +0.000 A 
ATOM     27  N   UNL     1       6.231   4.202  -3.001  0.00  0.00    +0.000 NA
ATOM     28  N   UNL     1       6.331   5.359  -3.669  0.00  0.00    +0.000 N 
ATOM     29  C   UNL     1       5.140   6.003  -3.729  0.00  0.00    +0.000 A 
ATOM     30  N   UNL     1       4.233   5.295  -3.105  0.00  0.00    +0.000 NA
ATOM     31  H   UNL     1       7.228   5.634  -4.051  0.00  0.00    +0.000 HD
ENDBRANCH  23  26
ENDBRANCH   2  20
TORSDOF 6
