REMARK  Name = 
REMARK  7 active torsions:
REMARK  status: ('A' for Active; 'I' for Inactive)
REMARK    1  A    between atoms: C_2  and  C_21
REMARK    2  A    between atoms: N_3  and  C_4
REMARK    3  A    between atoms: C_4  and  C_5
REMARK    4  A    between atoms: C_8  and  N_9
REMARK    5  A    between atoms: C_10  and  C_12
REMARK    6  A    between atoms: C_17  and  O_18
REMARK    7  A    between atoms: N_23  and  C_24
REMARK                            x       y       z     vdW  Elec       q    Type
REMARK                         _______ _______ _______ _____ _____    ______ ____
ROOT
ATOM      1  C   UNL     1       3.333   3.457  -0.724  0.00  0.00    +0.000 A 
ATOM      2  C   UNL     1       2.754   4.730  -0.733  0.00  0.00    +0.000 A 
ATOM      3  C   UNL     1       3.544   5.870  -0.895  0.00  0.00    +0.000 A 
ATOM      4  C   UNL     1       4.923   5.764  -1.065  0.00  0.00    +0.000 A 
ATOM      5  C   UNL     1       5.505   4.490  -1.071  0.00  0.00    +0.000 A 
ATOM      6  C   UNL     1       4.715   3.344  -0.910  0.00  0.00    +0.000 A 
ENDROOT
BRANCH   4   7
ATOM      7  N   UNL     1       5.777   6.877  -1.217  0.00  0.00    +0.000 N 
ATOM      8  C   UNL     1       5.419   8.211  -1.251  0.00  0.00    +0.000 C 
ATOM      9  O   UNL     1       4.273   8.648  -1.187  0.00  0.00    +0.000 OA
ATOM     10  H   UNL     1       6.771   6.685  -1.300  0.00  0.00    +0.000 HD
BRANCH   8  11
ATOM     11  C   UNL     1       6.541   9.202  -1.358  0.00  0.00    +0.000 A 
ATOM     12  C   UNL     1       6.185  10.563  -1.389  0.00  0.00    +0.000 A 
ATOM     13  C   UNL     1       7.160  11.561  -1.427  0.00  0.00    +0.000 A 
ATOM     14  C   UNL     1       8.507  11.213  -1.437  0.00  0.00    +0.000 A 
ATOM     15  C   UNL     1       8.881   9.868  -1.432  0.00  0.00    +0.000 A 
ATOM     16  C   UNL     1       7.903   8.868  -1.400  0.00  0.00    +0.000 A 
BRANCH  16  17
ATOM     17  O   UNL     1       8.308   7.556  -1.408  0.00  0.00    +0.000 OA
ATOM     18  H   UNL     1       9.279   7.532  -1.486  0.00  0.00    +0.000 HD
ENDBRANCH  16  17
ENDBRANCH   8  11
ENDBRANCH   4   7
BRANCH   1  19
ATOM     19  C   UNL     1       2.469   2.250  -0.505  0.00  0.00    +0.000 C 
BRANCH  19  22
ATOM     20  O   UNL     1       0.636   0.184  -0.651  0.00  0.00    +0.000 OA
ATOM     21  C   UNL     1       1.016   0.703  -1.698  0.00  0.00    +0.000 C 
ATOM     22  N   UNL     1       1.926   1.731  -1.735  0.00  0.00    +0.000 N 
ATOM     23  H   UNL     1       2.203   2.123  -2.629  0.00  0.00    +0.000 HD
BRANCH  21  24
ATOM     24  C   UNL     1       0.529   0.264  -2.994  0.00  0.00    +0.000 A 
ATOM     25  C   UNL     1      -0.404  -0.725  -3.216  0.00  0.00    +0.000 A 
ATOM     26  N   UNL     1      -0.531  -0.804  -4.579  0.00  0.00    +0.000 N 
ATOM     27  N   UNL     1       0.291   0.107  -5.159  0.00  0.00    +0.000 NA
ATOM     28  N   UNL     1       0.936   0.766  -4.202  0.00  0.00    +0.000 NA
BRANCH  26  29
ATOM     29  C   UNL     1      -1.349  -1.674  -5.328  0.00  0.00    +0.000 A 
ATOM     30  C   UNL     1      -2.227  -2.573  -4.712  0.00  0.00    +0.000 A 
ATOM     31  C   UNL     1      -3.000  -3.422  -5.501  0.00  0.00    +0.000 A 
ATOM     32  C   UNL     1      -2.868  -3.344  -6.877  0.00  0.00    +0.000 A 
ATOM     33  N   UNL     1      -2.036  -2.483  -7.502  0.00  0.00    +0.000 NA
ATOM     34  C   UNL     1      -1.294  -1.663  -6.717  0.00  0.00    +0.000 A 
ENDBRANCH  26  29
ENDBRANCH  21  24
ENDBRANCH  19  22
ENDBRANCH   1  19
TORSDOF 7
