REMARK  Name = 
REMARK  5 active torsions:
REMARK  status: ('A' for Active; 'I' for Inactive)
REMARK    1  A    between atoms: C_2  and  C_17
REMARK    2  A    between atoms: N_3  and  C_4
REMARK    3  A    between atoms: C_4  and  C_5
REMARK    4  A    between atoms: N_7  and  C_8
REMARK    5  A    between atoms: C_20  and  C_21
REMARK                            x       y       z     vdW  Elec       q    Type
REMARK                         _______ _______ _______ _____ _____    ______ ____
ROOT
ATOM      1  O   UNL     1       1.100   0.044  -0.085  0.00  0.00    +0.000 OA
ATOM      2  C   UNL     1       2.321  -0.018   0.007  0.00  0.00    +0.000 C 
ATOM      3  N   UNL     1       2.977  -0.013   1.214  0.00  0.00    +0.000 N 
ATOM      4  H   UNL     1       3.989   0.036   1.238  0.00  0.00    +0.000 HD
ENDROOT
BRANCH   2   5
ATOM      5  C   UNL     1       3.154  -0.097  -1.226  0.00  0.00    +0.000 A 
ATOM      6  C   UNL     1       2.513  -0.146  -2.468  0.00  0.00    +0.000 A 
ATOM      7  C   UNL     1       3.257  -0.219  -3.655  0.00  0.00    +0.000 A 
ATOM      8  C   UNL     1       4.666  -0.237  -3.639  0.00  0.00    +0.000 A 
ATOM      9  C   UNL     1       5.289  -0.189  -2.381  0.00  0.00    +0.000 A 
ATOM     10  C   UNL     1       4.545  -0.125  -1.200  0.00  0.00    +0.000 A 
ATOM     11  F   UNL     1       5.221  -0.081  -0.042  0.00  0.00    +0.000 F 
BRANCH   8  12
ATOM     12  C   UNL     1       5.456  -0.295  -4.881  0.00  0.00    +0.000 A 
ATOM     13  C   UNL     1       5.055   0.282  -6.077  0.00  0.00    +0.000 A 
ATOM     14  N   UNL     1       5.763   0.257  -7.229  0.00  0.00    +0.000 NA
ATOM     15  C   UNL     1       6.941  -0.379  -7.172  0.00  0.00    +0.000 A 
ATOM     16  N   UNL     1       7.452  -0.979  -6.090  0.00  0.00    +0.000 NA
ATOM     17  C   UNL     1       6.691  -0.923  -4.976  0.00  0.00    +0.000 A 
ENDBRANCH   8  12
ENDBRANCH   2   5
BRANCH   3  18
ATOM     18  C   UNL     1       2.264   0.122   2.461  0.00  0.00    +0.000 C 
BRANCH  18  19
ATOM     19  C   UNL     1       3.047  -0.567   3.513  0.00  0.00    +0.000 A 
ATOM     20  C   UNL     1       4.045  -0.058   4.319  0.00  0.00    +0.000 A 
ATOM     21  N   UNL     1       4.497  -1.084   5.122  0.00  0.00    +0.000 N 
ATOM     22  N   UNL     1       3.811  -2.230   4.879  0.00  0.00    +0.000 NA
ATOM     23  C   UNL     1       2.949  -1.913   3.913  0.00  0.00    +0.000 A 
BRANCH  21  24
ATOM     24  C   UNL     1       5.554  -1.049   6.075  0.00  0.00    +0.000 A 
ATOM     25  C   UNL     1       6.258   0.137   6.333  0.00  0.00    +0.000 A 
ATOM     26  C   UNL     1       7.328   0.135   7.234  0.00  0.00    +0.000 A 
ATOM     27  C   UNL     1       7.696  -1.045   7.878  0.00  0.00    +0.000 A 
ATOM     28 CL   UNL     1       9.035  -1.045   8.958  0.00  0.00    +0.000 Cl
ATOM     29  C   UNL     1       6.991  -2.223   7.646  0.00  0.00    +0.000 A 
ATOM     30  C   UNL     1       5.918  -2.227   6.749  0.00  0.00    +0.000 A 
ENDBRANCH  21  24
ENDBRANCH  18  19
ENDBRANCH   3  18
TORSDOF 5
