REMARK  Name = 
REMARK  3 active torsions:
REMARK  status: ('A' for Active; 'I' for Inactive)
REMARK    1  A    between atoms: C_2  and  C_17
REMARK    2  A    between atoms: N_3  and  C_4
REMARK    3  A    between atoms: N_6  and  C_7
REMARK                            x       y       z     vdW  Elec       q    Type
REMARK                         _______ _______ _______ _____ _____    ______ ____
ROOT
ATOM      1  O   UNL     1       2.542  -1.256  -0.935  0.00  0.00    +0.000 OA
ATOM      2  C   UNL     1       3.508  -0.969  -0.232  0.00  0.00    +0.000 C 
ATOM      3  N   UNL     1       3.545  -1.143   1.139  0.00  0.00    +0.000 N 
ATOM      4  H   UNL     1       4.378  -0.851   1.631  0.00  0.00    +0.000 HD
ENDROOT
BRANCH   2   5
ATOM      5  C   UNL     1       4.727  -0.459  -0.924  0.00  0.00    +0.000 A 
ATOM      6  C   UNL     1       5.917  -0.056  -0.344  0.00  0.00    +0.000 A 
ATOM      7  N   UNL     1       7.028   0.308  -1.050  0.00  0.00    +0.000 NA
ATOM      8  C   UNL     1       7.011   0.192  -2.412  0.00  0.00    +0.000 A 
ATOM      9  C   UNL     1       8.111   0.451  -3.235  0.00  0.00    +0.000 A 
ATOM     10  F   UNL     1       9.244   0.936  -2.703  0.00  0.00    +0.000 F 
ATOM     11  C   UNL     1       8.098   0.201  -4.614  0.00  0.00    +0.000 A 
ATOM     12  C   UNL     1       6.956  -0.310  -5.213  0.00  0.00    +0.000 A 
ATOM     13  C   UNL     1       5.821  -0.501  -4.442  0.00  0.00    +0.000 A 
ATOM     14  C   UNL     1       5.844  -0.244  -3.068  0.00  0.00    +0.000 A 
ATOM     15  C   UNL     1       4.699  -0.482  -2.319  0.00  0.00    +0.000 A 
ENDBRANCH   2   5
BRANCH   3  16
ATOM     16  C   UNL     1       2.566  -1.728   1.928  0.00  0.00    +0.000 A 
ATOM     17  C   UNL     1       1.383  -2.221   1.507  0.00  0.00    +0.000 A 
ATOM     18  N   UNL     1       0.433  -2.812   2.359  0.00  0.00    +0.000 N 
ATOM     19  C   UNL     1       0.728  -2.940   3.735  0.00  0.00    +0.000 A 
ATOM     20  O   UNL     1       0.061  -3.503   4.601  0.00  0.00    +0.000 OA
ATOM     21  C   UNL     1       2.017  -2.361   4.194  0.00  0.00    +0.000 A 
ATOM     22  C   UNL     1       2.873  -1.804   3.336  0.00  0.00    +0.000 A 
BRANCH  18  23
ATOM     23  C   UNL     1      -0.838  -3.317   1.848  0.00  0.00    +0.000 A 
ATOM     24  C   UNL     1      -1.965  -3.455   2.679  0.00  0.00    +0.000 A 
ATOM     25  C   UNL     1      -3.184  -3.956   2.203  0.00  0.00    +0.000 A 
ATOM     26  C   UNL     1      -3.316  -4.321   0.871  0.00  0.00    +0.000 A 
ATOM     27  C   UNL     1      -2.228  -4.179   0.017  0.00  0.00    +0.000 A 
ATOM     28  C   UNL     1      -1.005  -3.683   0.498  0.00  0.00    +0.000 A 
ENDBRANCH  18  23
ENDBRANCH   3  16
TORSDOF 3
