REMARK  Name = 
REMARK  3 active torsions:
REMARK  status: ('A' for Active; 'I' for Inactive)
REMARK    1  A    between atoms: N_3  and  C_4
REMARK    2  A    between atoms: C_7  and  C_8
REMARK    3  A    between atoms: N_20  and  C_21
REMARK                            x       y       z     vdW  Elec       q    Type
REMARK                         _______ _______ _______ _____ _____    ______ ____
ROOT
ATOM      1  O   UNL     1       1.098  -0.396  -0.180  0.00  0.00    +0.000 OA
ATOM      2  C   UNL     1       2.294  -0.166  -0.027  0.00  0.00    +0.000 C 
ATOM      3  N   UNL     1       2.982  -0.921   0.900  0.00  0.00    +0.000 N 
ATOM      4  N   UNL     1       3.055   0.737  -0.717  0.00  0.00    +0.000 N 
ATOM      5  C   UNL     1       2.652   1.582  -1.710  0.00  0.00    +0.000 A 
ATOM      6  N   UNL     1       1.411   1.726  -2.148  0.00  0.00    +0.000 NA
ATOM      7  N   UNL     1       1.537   2.666  -3.109  0.00  0.00    +0.000 N 
ATOM      8  N   UNL     1       2.796   3.125  -3.345  0.00  0.00    +0.000 NA
ATOM      9  C   UNL     1       3.497   2.447  -2.434  0.00  0.00    +0.000 A 
ATOM     10  H   UNL     1       2.425  -1.650   1.323  0.00  0.00    +0.000 HD
ATOM     11  H   UNL     1       4.034   0.800  -0.467  0.00  0.00    +0.000 HD
ENDROOT
BRANCH   7  12
ATOM     12  C   UNL     1       0.407   3.142  -3.808  0.00  0.00    +0.000 A 
ATOM     13  C   UNL     1      -0.875   2.693  -3.431  0.00  0.00    +0.000 A 
ATOM     14  C   UNL     1      -1.996   3.164  -4.100  0.00  0.00    +0.000 A 
ATOM     15  C   UNL     1      -1.837   4.067  -5.145  0.00  0.00    +0.000 A 
ATOM     16  F   UNL     1      -2.920   4.519  -5.793  0.00  0.00    +0.000 F 
ATOM     17  C   UNL     1      -0.576   4.513  -5.530  0.00  0.00    +0.000 A 
ATOM     18  C   UNL     1       0.556   4.055  -4.858  0.00  0.00    +0.000 A 
ENDBRANCH   7  12
BRANCH   3  19
ATOM     19  C   UNL     1       4.318  -0.766   1.273  0.00  0.00    +0.000 A 
ATOM     20  C   UNL     1       4.926  -1.694   2.088  0.00  0.00    +0.000 A 
ATOM     21  C   UNL     1       6.271  -1.509   2.402  0.00  0.00    +0.000 A 
ATOM     22  C   UNL     1       6.946  -0.391   1.919  0.00  0.00    +0.000 A 
ATOM     23  N   UNL     1       6.312   0.487   1.116  0.00  0.00    +0.000 NA
ATOM     24  N   UNL     1       5.009   0.293   0.802  0.00  0.00    +0.000 NA
BRANCH  22  25
ATOM     25  C   UNL     1       8.333  -0.039   2.237  0.00  0.00    +0.000 A 
ATOM     26  C   UNL     1       9.129   0.675   1.316  0.00  0.00    +0.000 A 
ATOM     27  C   UNL     1      10.430   1.074   1.637  0.00  0.00    +0.000 A 
ATOM     28  C   UNL     1      10.961   0.767   2.885  0.00  0.00    +0.000 A 
ATOM     29  C   UNL     1      10.197   0.062   3.809  0.00  0.00    +0.000 A 
ATOM     30  C   UNL     1       8.900  -0.331   3.482  0.00  0.00    +0.000 A 
ATOM     31  F   UNL     1       8.188  -0.973   4.420  0.00  0.00    +0.000 F 
ENDBRANCH  22  25
ENDBRANCH   3  19
TORSDOF 3
