REMARK  Name = 
REMARK  6 active torsions:
REMARK  status: ('A' for Active; 'I' for Inactive)
REMARK    1  A    between atoms: N_1  and  C_2
REMARK    2  A    between atoms: C_2  and  C_3
REMARK    3  A    between atoms: C_7  and  C_8
REMARK    4  A    between atoms: N_10  and  C_11
REMARK    5  A    between atoms: C_14  and  O_15
REMARK    6  A    between atoms: O_15  and  C_16
REMARK                            x       y       z     vdW  Elec       q    Type
REMARK                         _______ _______ _______ _____ _____    ______ ____
ROOT
ATOM      1  C   UNL     1       4.754   1.549   6.789  0.00  0.00    +0.000 C 
ATOM      2  O   UNL     1       4.336   2.704   6.813  0.00  0.00    +0.000 OA
ATOM      3  N   UNL     1       5.394   0.908   7.831  0.00  0.00    +0.000 N 
ATOM      4  H   UNL     1       5.831   0.016   7.641  0.00  0.00    +0.000 HD
ENDROOT
BRANCH   1   9
ATOM      5  C   UNL     1       4.159   0.326   1.056  0.00  0.00    +0.000 A 
ATOM      6  C   UNL     1       4.343   1.395   1.912  0.00  0.00    +0.000 A 
ATOM      7  N   UNL     1       4.443   0.855   3.164  0.00  0.00    +0.000 N 
ATOM      8  C   UNL     1       4.615   1.495   4.382  0.00  0.00    +0.000 A 
ATOM      9  C   UNL     1       4.662   0.768   5.517  0.00  0.00    +0.000 A 
ATOM     10  C   UNL     1       4.516  -0.684   5.418  0.00  0.00    +0.000 A 
ATOM     11  C   UNL     1       4.355  -1.295   4.224  0.00  0.00    +0.000 A 
ATOM     12  C   UNL     1       4.316  -0.519   3.028  0.00  0.00    +0.000 A 
ATOM     13  N   UNL     1       4.156  -0.863   1.766  0.00  0.00    +0.000 NA
BRANCH   5  14
ATOM     14  C   UNL     1       3.989   0.347  -0.423  0.00  0.00    +0.000 C 
BRANCH  14  15
ATOM     15  N   UNL     1       5.309   0.268  -1.046  0.00  0.00    +0.000 NA
ATOM     16  H   UNL     1       5.189   0.156  -2.049  0.00  0.00    +0.000 HD
ATOM     17  H   UNL     1       5.749  -0.591  -0.713  0.00  0.00    +0.000 HD
ENDBRANCH  14  15
ENDBRANCH   5  14
ENDBRANCH   1   9
BRANCH   3  18
ATOM     18  C   UNL     1       5.648   1.478   9.103  0.00  0.00    +0.000 A 
ATOM     19  C   UNL     1       5.044   2.645   9.570  0.00  0.00    +0.000 A 
ATOM     20  C   UNL     1       5.363   3.143  10.832  0.00  0.00    +0.000 A 
ATOM     21  C   UNL     1       6.273   2.442  11.601  0.00  0.00    +0.000 A 
ATOM     22  N   UNL     1       6.914   1.328  11.179  0.00  0.00    +0.000 NA
ATOM     23  C   UNL     1       6.561   0.859   9.958  0.00  0.00    +0.000 A 
BRANCH  21  24
ATOM     24  O   UNL     1       6.531   2.944  12.867  0.00  0.00    +0.000 OA
BRANCH  24  25
ATOM     25  C   UNL     1       6.784   2.037  13.871  0.00  0.00    +0.000 A 
ATOM     26  C   UNL     1       6.154   0.796  13.996  0.00  0.00    +0.000 A 
ATOM     27  F   UNL     1       5.207   0.402  13.129  0.00  0.00    +0.000 F 
ATOM     28  C   UNL     1       6.475  -0.041  15.057  0.00  0.00    +0.000 A 
ATOM     29  F   UNL     1       5.896  -1.246  15.159  0.00  0.00    +0.000 F 
ATOM     30  C   UNL     1       7.382   0.361  16.032  0.00  0.00    +0.000 A 
ATOM     31  C   UNL     1       7.976   1.620  15.944  0.00  0.00    +0.000 A 
ATOM     32  C   UNL     1       7.679   2.456  14.864  0.00  0.00    +0.000 A 
ENDBRANCH  24  25
ENDBRANCH  21  24
ENDBRANCH   3  18
TORSDOF 6
