REMARK  Name = 
REMARK  5 active torsions:
REMARK  status: ('A' for Active; 'I' for Inactive)
REMARK    1  A    between atoms: C_2  and  C_17
REMARK    2  A    between atoms: N_3  and  C_4
REMARK    3  A    between atoms: N_6  and  C_7
REMARK    4  A    between atoms: C_20  and  C_21
REMARK    5  A    between atoms: C_26  and  O_27
REMARK                            x       y       z     vdW  Elec       q    Type
REMARK                         _______ _______ _______ _____ _____    ______ ____
ROOT
ATOM      1  O   UNL     1       0.819   0.117   0.365  0.00  0.00    +0.000 OA
ATOM      2  C   UNL     1       2.035   0.059   0.199  0.00  0.00    +0.000 C 
ATOM      3  N   UNL     1       2.765   0.886  -0.641  0.00  0.00    +0.000 N 
ATOM      4  H   UNL     1       3.742   0.658  -0.790  0.00  0.00    +0.000 HD
ENDROOT
BRANCH   3   5
ATOM      5  C   UNL     1       2.176   1.872  -1.416  0.00  0.00    +0.000 A 
ATOM      6  C   UNL     1       0.913   2.393  -1.280  0.00  0.00    +0.000 A 
ATOM      7  N   UNL     1       0.694   3.250  -2.334  0.00  0.00    +0.000 N 
ATOM      8  N   UNL     1       1.802   3.355  -3.112  0.00  0.00    +0.000 NA
ATOM      9  C   UNL     1       2.703   2.560  -2.523  0.00  0.00    +0.000 A 
BRANCH   7  10
ATOM     10  C   UNL     1      -0.501   3.939  -2.622  0.00  0.00    +0.000 A 
ATOM     11  C   UNL     1      -1.370   4.319  -1.597  0.00  0.00    +0.000 A 
ATOM     12  F   UNL     1      -1.064   4.116  -0.307  0.00  0.00    +0.000 F 
ATOM     13  C   UNL     1      -2.562   4.988  -1.874  0.00  0.00    +0.000 A 
ATOM     14  C   UNL     1      -2.914   5.263  -3.193  0.00  0.00    +0.000 A 
ATOM     15  C   UNL     1      -2.062   4.874  -4.226  0.00  0.00    +0.000 A 
ATOM     16  C   UNL     1      -0.856   4.228  -3.939  0.00  0.00    +0.000 A 
ATOM     17  F   UNL     1      -0.113   3.820  -4.977  0.00  0.00    +0.000 F 
ENDBRANCH   7  10
ENDBRANCH   3   5
BRANCH   2  18
ATOM     18  C   UNL     1       2.807  -0.975   0.882  0.00  0.00    +0.000 A 
ATOM     19  N   UNL     1       4.148  -1.067   0.856  0.00  0.00    +0.000 NA
ATOM     20  O   UNL     1       4.459  -2.138   1.697  0.00  0.00    +0.000 OA
ATOM     21  C   UNL     1       3.308  -2.681   2.197  0.00  0.00    +0.000 A 
ATOM     22  C   UNL     1       2.242  -2.005   1.669  0.00  0.00    +0.000 A 
BRANCH  21  23
ATOM     23  C   UNL     1       3.429  -3.771   3.157  0.00  0.00    +0.000 A 
ATOM     24  C   UNL     1       4.520  -4.651   3.109  0.00  0.00    +0.000 A 
ATOM     25  C   UNL     1       4.636  -5.699   4.025  0.00  0.00    +0.000 A 
ATOM     26  C   UNL     1       3.662  -5.882   5.009  0.00  0.00    +0.000 A 
ATOM     27  C   UNL     1       2.569  -5.027   5.074  0.00  0.00    +0.000 A 
ATOM     28  C   UNL     1       2.453  -3.982   4.151  0.00  0.00    +0.000 A 
BRANCH  28  29
ATOM     29  O   UNL     1       1.371  -3.144   4.238  0.00  0.00    +0.000 OA
ATOM     30  H   UNL     1       0.813  -3.414   4.986  0.00  0.00    +0.000 HD
ENDBRANCH  28  29
ENDBRANCH  21  23
ENDBRANCH   2  18
TORSDOF 5
