REMARK  Name = 
REMARK  7 active torsions:
REMARK  status: ('A' for Active; 'I' for Inactive)
REMARK    1  A    between atoms: C_1  and  C_2
REMARK    2  A    between atoms: C_2  and  C_3
REMARK    3  A    between atoms: C_7  and  O_8
REMARK    4  A    between atoms: O_8  and  C_9
REMARK    5  A    between atoms: C_12  and  C_13
REMARK    6  A    between atoms: N_15  and  C_16
REMARK    7  A    between atoms: C_16  and  C_17
REMARK                            x       y       z     vdW  Elec       q    Type
REMARK                         _______ _______ _______ _____ _____    ______ ____
ROOT
ATOM      1  C   UNL     1       3.171   5.877   8.398  0.00  0.00    +0.000 C 
ATOM      2  O   UNL     1       3.723   5.719   9.477  0.00  0.00    +0.000 OA
ATOM      3  N   UNL     1       2.513   7.032   8.042  0.00  0.00    +0.000 N 
ATOM      4  H   UNL     1       2.182   7.177   7.102  0.00  0.00    +0.000 HD
ENDROOT
BRANCH   1   8
ATOM      5  C   UNL     1       3.479   2.751   5.458  0.00  0.00    +0.000 A 
ATOM      6  C   UNL     1       2.307   3.512   5.544  0.00  0.00    +0.000 A 
ATOM      7  C   UNL     1       2.199   4.555   6.473  0.00  0.00    +0.000 A 
ATOM      8  C   UNL     1       3.236   4.790   7.376  0.00  0.00    +0.000 A 
ATOM      9  C   UNL     1       4.363   3.954   7.365  0.00  0.00    +0.000 A 
ATOM     10  C   UNL     1       4.486   2.943   6.405  0.00  0.00    +0.000 A 
BRANCH   5  11
ATOM     11  O   UNL     1       3.705   1.770   4.515  0.00  0.00    +0.000 OA
BRANCH  11  16
ATOM     12  C   UNL     1       2.136   0.716   1.382  0.00  0.00    +0.000 A 
ATOM     13  C   UNL     1       1.844   1.950   0.786  0.00  0.00    +0.000 A 
ATOM     14  C   UNL     1       2.235   3.138   1.397  0.00  0.00    +0.000 A 
ATOM     15  C   UNL     1       2.908   3.104   2.616  0.00  0.00    +0.000 A 
ATOM     16  C   UNL     1       3.139   1.885   3.262  0.00  0.00    +0.000 A 
ATOM     17  C   UNL     1       2.799   0.692   2.619  0.00  0.00    +0.000 A 
BRANCH  12  19
ATOM     18  C   UNL     1       0.273  -0.926   1.303  0.00  0.00    +0.000 C 
ATOM     19  C   UNL     1       1.640  -0.557   0.745  0.00  0.00    +0.000 C 
ENDBRANCH  12  19
ENDBRANCH  11  16
ENDBRANCH   5  11
ENDBRANCH   1   8
BRANCH   3  20
ATOM     20  C   UNL     1       2.441   8.172   8.940  0.00  0.00    +0.000 C 
BRANCH  20  21
ATOM     21  C   UNL     1       0.992   8.479   9.267  0.00  0.00    +0.000 A 
ATOM     22  C   UNL     1       0.567   8.440  10.537  0.00  0.00    +0.000 A 
ATOM     23  C   UNL     1      -0.836   8.762  10.840  0.00  0.00    +0.000 A 
ATOM     24  O   UNL     1      -1.216   8.713  12.010  0.00  0.00    +0.000 OA
ATOM     25  N   UNL     1      -1.617   9.113   9.752  0.00  0.00    +0.000 N 
ATOM     26  C   UNL     1      -2.955   9.439   9.953  0.00  0.00    +0.000 A 
ATOM     27  C   UNL     1      -3.758   9.787   8.941  0.00  0.00    +0.000 A 
ATOM     28  C   UNL     1      -3.236   9.837   7.601  0.00  0.00    +0.000 A 
ATOM     29  C   UNL     1      -1.955   9.531   7.358  0.00  0.00    +0.000 A 
ATOM     30  C   UNL     1      -1.056   9.133   8.480  0.00  0.00    +0.000 A 
ATOM     31  N   UNL     1       0.180   8.833   8.212  0.00  0.00    +0.000 NA
ENDBRANCH  20  21
ENDBRANCH   3  20
TORSDOF 6
