REMARK  Name = 
REMARK  6 active torsions:
REMARK  status: ('A' for Active; 'I' for Inactive)
REMARK    1  A    between atoms: C_2  and  C_3
REMARK    2  A    between atoms: C_2  and  O_12
REMARK    3  A    between atoms: C_3  and  N_4
REMARK    4  A    between atoms: O_12  and  C_13
REMARK    5  A    between atoms: C_13  and  C_14
REMARK    6  A    between atoms: N_23  and  C_24
REMARK                            x       y       z     vdW  Elec       q    Type
REMARK                         _______ _______ _______ _____ _____    ______ ____
ROOT
ATOM      1  C   UNL     1       5.536  -1.043   1.768  0.00  0.00    +0.000 A 
ATOM      2  N   UNL     1       6.173   0.113   1.961  0.00  0.00    +0.000 NA
ATOM      3  C   UNL     1       7.301  -0.077   1.199  0.00  0.00    +0.000 A 
ATOM      4  C   UNL     1       8.130   0.864   0.589  0.00  0.00    +0.000 A 
ATOM      5  C   UNL     1       9.095   0.382  -0.295  0.00  0.00    +0.000 A 
ATOM      6  F   UNL     1       9.846   1.261  -0.972  0.00  0.00    +0.000 F 
ATOM      7  C   UNL     1       9.279  -0.982  -0.531  0.00  0.00    +0.000 A 
ATOM      8  C   UNL     1       8.502  -1.940   0.126  0.00  0.00    +0.000 A 
ATOM      9  C   UNL     1       7.511  -1.440   0.976  0.00  0.00    +0.000 A 
ATOM     10  N   UNL     1       6.551  -2.009   1.804  0.00  0.00    +0.000 N 
ENDROOT
BRANCH  10  11
ATOM     11  C   UNL     1       6.776  -3.008   2.801  0.00  0.00    +0.000 A 
ATOM     12  C   UNL     1       8.088  -3.453   3.053  0.00  0.00    +0.000 A 
ATOM     13  C   UNL     1       8.368  -4.272   4.148  0.00  0.00    +0.000 A 
ATOM     14  C   UNL     1       7.337  -4.683   4.990  0.00  0.00    +0.000 A 
ATOM     15  C   UNL     1       6.026  -4.274   4.726  0.00  0.00    +0.000 A 
ATOM     16  C   UNL     1       5.742  -3.434   3.640  0.00  0.00    +0.000 A 
ENDBRANCH  10  11
BRANCH   1  17
ATOM     17  C   UNL     1       4.429  -1.078   0.742  0.00  0.00    +0.000 C 
BRANCH  17  18
ATOM     18  O   UNL     1       3.432  -2.032   1.086  0.00  0.00    +0.000 OA
BRANCH  18  20
ATOM     19  O   UNL     1       4.384  -3.498  -0.397  0.00  0.00    +0.000 OA
ATOM     20  C   UNL     1       3.433  -3.133   0.283  0.00  0.00    +0.000 C 
BRANCH  20  21
ATOM     21  C   UNL     1       2.104  -3.863   0.392  0.00  0.00    +0.000 C 
BRANCH  21  22
ATOM     22  N   UNL     1       1.666  -4.385  -0.904  0.00  0.00    +0.000 N 
ATOM     23  C   UNL     1       2.042  -5.657  -1.300  0.00  0.00    +0.000 A 
ATOM     24  C   UNL     1       1.643  -6.163  -2.474  0.00  0.00    +0.000 A 
ATOM     25  F   UNL     1       1.997  -7.406  -2.850  0.00  0.00    +0.000 F 
ATOM     26  C   UNL     1       0.816  -5.387  -3.356  0.00  0.00    +0.000 A 
ATOM     27  C   UNL     1       0.458  -4.139  -3.023  0.00  0.00    +0.000 A 
ATOM     28  C   UNL     1       0.911  -3.549  -1.729  0.00  0.00    +0.000 A 
ATOM     29  O   UNL     1       0.604  -2.394  -1.449  0.00  0.00    +0.000 OA
ENDBRANCH  21  22
ENDBRANCH  20  21
ENDBRANCH  18  20
ENDBRANCH  17  18
ENDBRANCH   1  17
TORSDOF 6
