REMARK  Name = 
REMARK  6 active torsions:
REMARK  status: ('A' for Active; 'I' for Inactive)
REMARK    1  A    between atoms: C_1  and  O_2
REMARK    2  A    between atoms: O_2  and  C_3
REMARK    3  A    between atoms: C_8  and  C_9
REMARK    4  A    between atoms: N_11  and  C_12
REMARK    5  A    between atoms: C_14  and  C_15
REMARK    6  A    between atoms: C_15  and  C_16
REMARK                            x       y       z     vdW  Elec       q    Type
REMARK                         _______ _______ _______ _____ _____    ______ ____
ROOT
ATOM      1  C   UNL     1       5.684  -1.866  -6.867  0.00  0.00    +0.000 C 
ATOM      2  O   UNL     1       6.541  -2.679  -6.525  0.00  0.00    +0.000 OA
ATOM      3  N   UNL     1       5.475  -1.347  -8.126  0.00  0.00    +0.000 N 
ATOM      4  H   UNL     1       4.891  -0.531  -8.226  0.00  0.00    +0.000 HD
ENDROOT
BRANCH   1  10
ATOM      5  C   UNL     1       3.362   0.130  -1.119  0.00  0.00    +0.000 A 
ATOM      6  C   UNL     1       4.658  -0.383  -0.995  0.00  0.00    +0.000 A 
ATOM      7  C   UNL     1       5.350  -0.869  -2.111  0.00  0.00    +0.000 A 
ATOM      8  C   UNL     1       4.748  -0.854  -3.369  0.00  0.00    +0.000 A 
ATOM      9  N   UNL     1       5.447  -1.237  -4.515  0.00  0.00    +0.000 N 
ATOM     10  C   UNL     1       4.851  -1.250  -5.764  0.00  0.00    +0.000 A 
ATOM     11  C   UNL     1       3.598  -0.825  -5.981  0.00  0.00    +0.000 A 
ATOM     12  C   UNL     1       2.824  -0.299  -4.831  0.00  0.00    +0.000 A 
ATOM     13  O   UNL     1       1.694   0.145  -5.007  0.00  0.00    +0.000 OA
ATOM     14  C   UNL     1       3.451  -0.332  -3.486  0.00  0.00    +0.000 A 
ATOM     15  C   UNL     1       2.753   0.147  -2.373  0.00  0.00    +0.000 A 
ATOM     16  H   UNL     1       6.281  -1.819  -4.436  0.00  0.00    +0.000 HD
BRANCH   5  18
ATOM     17  C   UNL     1       1.492   1.125  -0.046  0.00  0.00    +0.000 C 
ATOM     18  O   UNL     1       2.811   0.596   0.042  0.00  0.00    +0.000 OA
ENDBRANCH   5  18
ENDBRANCH   1  10
BRANCH   3  19
ATOM     19  C   UNL     1       6.171  -1.769  -9.271  0.00  0.00    +0.000 A 
ATOM     20  C   UNL     1       6.110  -0.968 -10.410  0.00  0.00    +0.000 A 
ATOM     21  C   UNL     1       6.838  -1.338 -11.552  0.00  0.00    +0.000 A 
ATOM     22  C   UNL     1       7.578  -2.519 -11.510  0.00  0.00    +0.000 A 
ATOM     23  C   UNL     1       7.556  -3.268 -10.348  0.00  0.00    +0.000 A 
ATOM     24  N   UNL     1       6.869  -2.916  -9.245  0.00  0.00    +0.000 NA
BRANCH  21  25
ATOM     25  C   UNL     1       6.860  -0.468 -12.786  0.00  0.00    +0.000 C 
BRANCH  25  26
ATOM     26  C   UNL     1       7.966   0.562 -12.799  0.00  0.00    +0.000 A 
ATOM     27  C   UNL     1       9.232   0.247 -13.316  0.00  0.00    +0.000 A 
ATOM     28  C   UNL     1      10.245   1.204 -13.350  0.00  0.00    +0.000 A 
ATOM     29  C   UNL     1      10.012   2.489 -12.861  0.00  0.00    +0.000 A 
ATOM     30  C   UNL     1       8.764   2.812 -12.332  0.00  0.00    +0.000 A 
ATOM     31  C   UNL     1       7.748   1.852 -12.296  0.00  0.00    +0.000 A 
ENDBRANCH  25  26
ENDBRANCH  21  25
ENDBRANCH   3  19
TORSDOF 5
