REMARK  Name = 
REMARK  4 active torsions:
REMARK  status: ('A' for Active; 'I' for Inactive)
REMARK    1  A    between atoms: N_3  and  C_4
REMARK    2  A    between atoms: C_4  and  C_5
REMARK    3  A    between atoms: C_8  and  C_9
REMARK    4  A    between atoms: C_21  and  C_22
REMARK                            x       y       z     vdW  Elec       q    Type
REMARK                         _______ _______ _______ _____ _____    ______ ____
ROOT
ATOM      1  O   UNL     1       0.957  -0.092  -0.115  0.00  0.00    +0.000 OA
ATOM      2  C   UNL     1       2.181  -0.014  -0.050  0.00  0.00    +0.000 C 
ATOM      3  N   UNL     1       2.815   1.018   0.563  0.00  0.00    +0.000 N 
ATOM      4  N   UNL     1       2.966  -0.942  -0.658  0.00  0.00    +0.000 N 
ATOM      5  C   UNL     1       4.345  -1.048  -0.622  0.00  0.00    +0.000 A 
ATOM      6  N   UNL     1       5.035  -0.344   0.289  0.00  0.00    +0.000 NA
ATOM      7  C   UNL     1       6.372  -0.506   0.307  0.00  0.00    +0.000 A 
ATOM      8  C   UNL     1       7.077  -1.283  -0.588  0.00  0.00    +0.000 A 
ATOM      9  C   UNL     1       6.259  -1.928  -1.503  0.00  0.00    +0.000 A 
ATOM     10  N   UNL     1       4.907  -1.860  -1.521  0.00  0.00    +0.000 NA
ATOM     11  H   UNL     1       3.829   1.028   0.528  0.00  0.00    +0.000 HD
ATOM     12  H   UNL     1       2.496  -1.614  -1.244  0.00  0.00    +0.000 HD
ENDROOT
BRANCH   8  13
ATOM     13  C   UNL     1       8.541  -1.415  -0.558  0.00  0.00    +0.000 A 
ATOM     14  C   UNL     1       9.190  -2.579  -0.988  0.00  0.00    +0.000 A 
ATOM     15  C   UNL     1      10.577  -2.666  -0.929  0.00  0.00    +0.000 A 
ATOM     16  F   UNL     1      11.195  -3.778  -1.336  0.00  0.00    +0.000 F 
ATOM     17  C   UNL     1      11.300  -1.596  -0.442  0.00  0.00    +0.000 A 
ATOM     18  N   UNL     1      10.726  -0.451  -0.012  0.00  0.00    +0.000 NA
ATOM     19  C   UNL     1       9.375  -0.391  -0.084  0.00  0.00    +0.000 A 
ENDBRANCH   8  13
BRANCH   3  20
ATOM     20  C   UNL     1       2.145   2.169   1.108  0.00  0.00    +0.000 C 
BRANCH  20  21
ATOM     21  C   UNL     1       1.919   3.250   0.083  0.00  0.00    +0.000 A 
ATOM     22  C   UNL     1       0.735   3.316  -0.638  0.00  0.00    +0.000 A 
ATOM     23  N   UNL     1       0.459   4.301  -1.529  0.00  0.00    +0.000 NA
ATOM     24  C   UNL     1       1.427   5.236  -1.716  0.00  0.00    +0.000 A 
ATOM     25  C   UNL     1       2.625   5.144  -1.008  0.00  0.00    +0.000 A 
ATOM     26  N   UNL     1       2.905   4.167  -0.107  0.00  0.00    +0.000 NA
BRANCH  24  27
ATOM     27  C   UNL     1       1.119   6.358  -2.627  0.00  0.00    +0.000 A 
ATOM     28  C   UNL     1      -0.200   6.819  -2.789  0.00  0.00    +0.000 A 
ATOM     29  C   UNL     1      -0.488   7.945  -3.568  0.00  0.00    +0.000 A 
ATOM     30  C   UNL     1       0.538   8.630  -4.212  0.00  0.00    +0.000 A 
ATOM     31  C   UNL     1       1.847   8.172  -4.102  0.00  0.00    +0.000 A 
ATOM     32  C   UNL     1       2.131   7.044  -3.327  0.00  0.00    +0.000 A 
ENDBRANCH  24  27
ENDBRANCH  20  21
ENDBRANCH   3  20
TORSDOF 4
