REMARK  Name = 
REMARK  8 active torsions:
REMARK  status: ('A' for Active; 'I' for Inactive)
REMARK    1  A    between atoms: C_2  and  C_15
REMARK    2  A    between atoms: N_3  and  C_4
REMARK    3  A    between atoms: C_4  and  C_5
REMARK    4  A    between atoms: C_5  and  C_6
REMARK    5  A    between atoms: C_9  and  O_10
REMARK    6  A    between atoms: C_11  and  C_12
REMARK    7  A    between atoms: C_12  and  O_13
REMARK    8  A    between atoms: C_18  and  N_19
REMARK                            x       y       z     vdW  Elec       q    Type
REMARK                         _______ _______ _______ _____ _____    ______ ____
ROOT
ATOM      1  O   UNL     1       1.038  -0.617   0.110  0.00  0.00    +0.000 OA
ATOM      2  C   UNL     1       2.218  -0.322   0.070  0.00  0.00    +0.000 C 
ATOM      3  N   UNL     1       2.975  -0.047   1.184  0.00  0.00    +0.000 N 
ATOM      4  H   UNL     1       3.826   0.489   1.049  0.00  0.00    +0.000 HD
ENDROOT
BRANCH   2   5
ATOM      5  C   UNL     1       2.902  -0.140  -1.236  0.00  0.00    +0.000 A 
ATOM      6  C   UNL     1       2.139   0.396  -2.251  0.00  0.00    +0.000 A 
ATOM      7  C   UNL     1       2.739   0.702  -3.477  0.00  0.00    +0.000 A 
ATOM      8  C   UNL     1       4.095   0.448  -3.683  0.00  0.00    +0.000 A 
ATOM      9  C   UNL     1       4.862  -0.153  -2.693  0.00  0.00    +0.000 A 
ATOM     10  C   UNL     1       4.252  -0.447  -1.432  0.00  0.00    +0.000 A 
BRANCH   8  11
ATOM     11  N   UNL     1       4.673   0.873  -4.920  0.00  0.00    +0.000 N 
ATOM     12  C   UNL     1       4.100   1.843  -5.732  0.00  0.00    +0.000 A 
ATOM     13  C   UNL     1       4.989   2.121  -6.746  0.00  0.00    +0.000 A 
ATOM     14  C   UNL     1       5.480   0.815  -6.972  0.00  0.00    +0.000 A 
ATOM     15  C   UNL     1       5.654   0.028  -8.118  0.00  0.00    +0.000 A 
ATOM     16  C   UNL     1       6.199  -1.242  -7.969  0.00  0.00    +0.000 A 
ATOM     17  C   UNL     1       6.657  -1.671  -6.723  0.00  0.00    +0.000 A 
ATOM     18  C   UNL     1       6.398  -0.941  -5.555  0.00  0.00    +0.000 A 
ATOM     19  C   UNL     1       5.643   0.232  -5.704  0.00  0.00    +0.000 A 
ENDBRANCH   8  11
ENDBRANCH   2   5
BRANCH   3  20
ATOM     20  C   UNL     1       2.307   0.049   2.468  0.00  0.00    +0.000 C 
BRANCH  20  21
ATOM     21  C   UNL     1       3.281   0.315   3.609  0.00  0.00    +0.000 C 
BRANCH  21  22
ATOM     22  C   UNL     1       2.562   0.371   4.931  0.00  0.00    +0.000 A 
ATOM     23  C   UNL     1       2.393  -0.790   5.690  0.00  0.00    +0.000 A 
ATOM     24  C   UNL     1       1.700  -0.744   6.898  0.00  0.00    +0.000 A 
ATOM     25  C   UNL     1       1.169   0.465   7.353  0.00  0.00    +0.000 A 
ATOM     26  C   UNL     1       1.304   1.643   6.610  0.00  0.00    +0.000 A 
ATOM     27  C   UNL     1       2.009   1.575   5.393  0.00  0.00    +0.000 A 
BRANCH  25  28
ATOM     28  O   UNL     1       0.501   0.496   8.546  0.00  0.00    +0.000 OA
ATOM     29  H   UNL     1       0.565  -0.383   8.958  0.00  0.00    +0.000 HD
ENDBRANCH  25  28
BRANCH  26  30
ATOM     30  C   UNL     1       0.744   2.992   7.013  0.00  0.00    +0.000 C 
BRANCH  30  31
ATOM     31  O   UNL     1       0.048   3.052   8.250  0.00  0.00    +0.000 OA
ATOM     32  H   UNL     1       0.023   2.141   8.602  0.00  0.00    +0.000 HD
ENDBRANCH  30  31
ENDBRANCH  26  30
ENDBRANCH  21  22
ENDBRANCH  20  21
ENDBRANCH   3  20
TORSDOF 8
