REMARK  Name = 
REMARK  4 active torsions:
REMARK  status: ('A' for Active; 'I' for Inactive)
REMARK    1  A    between atoms: C_2  and  C_4
REMARK    2  A    between atoms: C_4  and  N_5
REMARK    3  A    between atoms: C_4  and  C_20
REMARK    4  A    between atoms: N_8  and  C_9
REMARK                            x       y       z     vdW  Elec       q    Type
REMARK                         _______ _______ _______ _____ _____    ______ ____
ROOT
ATOM      1  N   UNL     1       2.864   2.197  -1.036  0.00  0.00    +0.000 N 
ATOM      2  C   UNL     1       1.751   2.512  -1.779  0.00  0.00    +0.000 C 
ATOM      3  O   UNL     1       1.166   1.657  -2.439  0.00  0.00    +0.000 OA
ATOM      4  N   UNL     1       1.429   3.854  -1.746  0.00  0.00    +0.000 N 
ATOM      5  H   UNL     1       2.985   2.704  -0.171  0.00  0.00    +0.000 HD
ATOM      6  H   UNL     1       2.161   4.480  -1.436  0.00  0.00    +0.000 HD
ENDROOT
BRANCH   4   7
ATOM      7  C   UNL     1       0.324   4.412  -2.439  0.00  0.00    +0.000 A 
ATOM      8  C   UNL     1      -0.747   3.657  -2.907  0.00  0.00    +0.000 A 
ATOM      9  N   UNL     1      -1.774   4.140  -3.647  0.00  0.00    +0.000 NA
ATOM     10  C   UNL     1      -1.769   5.442  -3.973  0.00  0.00    +0.000 A 
ATOM     11  C   UNL     1      -2.764   5.964  -4.801  0.00  0.00    +0.000 A 
ATOM     12  F   UNL     1      -3.733   5.160  -5.271  0.00  0.00    +0.000 F 
ATOM     13  C   UNL     1      -2.788   7.300  -5.188  0.00  0.00    +0.000 A 
ATOM     14  C   UNL     1      -1.801   8.162  -4.729  0.00  0.00    +0.000 A 
ATOM     15  C   UNL     1      -0.796   7.676  -3.889  0.00  0.00    +0.000 A 
ATOM     16  C   UNL     1      -0.759   6.315  -3.513  0.00  0.00    +0.000 A 
ATOM     17  C   UNL     1       0.278   5.780  -2.712  0.00  0.00    +0.000 A 
ENDBRANCH   4   7
BRANCH   1  18
ATOM     18  C   UNL     1       3.264   0.789  -0.998  0.00  0.00    +0.000 C 
BRANCH  18  19
ATOM     19  C   UNL     1       4.774   0.653  -0.891  0.00  0.00    +0.000 A 
ATOM     20  C   UNL     1       5.538   0.718  -2.066  0.00  0.00    +0.000 A 
ATOM     21  C   UNL     1       6.921   0.533  -2.031  0.00  0.00    +0.000 A 
ATOM     22  C   UNL     1       7.579   0.287  -0.818  0.00  0.00    +0.000 A 
ATOM     23  C   UNL     1       8.967   0.075  -0.770  0.00  0.00    +0.000 A 
ATOM     24  C   UNL     1       9.608  -0.174   0.444  0.00  0.00    +0.000 A 
ATOM     25  C   UNL     1       8.871  -0.215   1.623  0.00  0.00    +0.000 A 
ATOM     26  C   UNL     1       7.491  -0.007   1.591  0.00  0.00    +0.000 A 
ATOM     27  C   UNL     1       6.829   0.245   0.378  0.00  0.00    +0.000 A 
ATOM     28  C   UNL     1       5.437   0.444   0.329  0.00  0.00    +0.000 A 
ENDBRANCH  18  19
BRANCH  18  30
ATOM     29  N   UNL     1       2.329  -1.324  -0.108  0.00  0.00    +0.000 N 
ATOM     30  C   UNL     1       2.506   0.018   0.114  0.00  0.00    +0.000 C 
ATOM     31  O   UNL     1       2.144   0.528   1.173  0.00  0.00    +0.000 OA
ATOM     32  H   UNL     1       1.815  -1.857   0.582  0.00  0.00    +0.000 HD
ATOM     33  H   UNL     1       2.495  -1.750  -1.011  0.00  0.00    +0.000 HD
ENDBRANCH  18  30
ENDBRANCH   1  18
TORSDOF 4
