REMARK  Name = 
REMARK  6 active torsions:
REMARK  status: ('A' for Active; 'I' for Inactive)
REMARK    1  A    between atoms: C_1  and  C_2
REMARK    2  A    between atoms: C_2  and  C_3
REMARK    3  A    between atoms: C_2  and  C_17
REMARK    4  A    between atoms: N_8  and  C_9
REMARK    5  A    between atoms: C_21  and  C_22
REMARK    6  A    between atoms: C_22  and  C_24
REMARK                            x       y       z     vdW  Elec       q    Type
REMARK                         _______ _______ _______ _____ _____    ______ ____
ROOT
ATOM      1  C   UNL     1       0.872  -0.080   0.209  0.00  0.00    +0.000 C 
ATOM      2  C   UNL     1       2.398  -0.091   0.085  0.00  0.00    +0.000 C 
ENDROOT
BRANCH   2   3
ATOM      3  C   UNL     1       2.987  -1.033   1.139  0.00  0.00    +0.000 C 
ATOM      4  O   UNL     1       3.513  -0.579   2.156  0.00  0.00    +0.000 OA
ATOM      5  N   UNL     1       2.851  -2.382   0.881  0.00  0.00    +0.000 N 
ATOM      6  C   UNL     1       3.324  -3.324   1.767  0.00  0.00    +0.000 A 
ATOM      7  N   UNL     1       3.902  -4.444   1.332  0.00  0.00    +0.000 NA
ATOM      8  N   UNL     1       4.337  -5.012   2.491  0.00  0.00    +0.000 N 
ATOM      9  N   UNL     1       3.890  -4.434   3.639  0.00  0.00    +0.000 NA
ATOM     10  C   UNL     1       3.300  -3.330   3.174  0.00  0.00    +0.000 A 
ATOM     11  H   UNL     1       2.809  -2.698  -0.079  0.00  0.00    +0.000 HD
BRANCH   8  12
ATOM     12  C   UNL     1       5.215  -6.115   2.509  0.00  0.00    +0.000 A 
ATOM     13  C   UNL     1       5.554  -6.752   3.706  0.00  0.00    +0.000 A 
ATOM     14  C   UNL     1       6.420  -7.843   3.674  0.00  0.00    +0.000 A 
ATOM     15  C   UNL     1       6.928  -8.242   2.448  0.00  0.00    +0.000 A 
ATOM     16  N   UNL     1       6.636  -7.633   1.277  0.00  0.00    +0.000 NA
ATOM     17  C   UNL     1       5.782  -6.580   1.330  0.00  0.00    +0.000 A 
ENDBRANCH   8  12
ENDBRANCH   2   3
BRANCH   2  18
ATOM     18  C   UNL     1       2.912  -0.355  -1.323  0.00  0.00    +0.000 A 
ATOM     19  C   UNL     1       4.122   0.220  -1.743  0.00  0.00    +0.000 A 
ATOM     20  C   UNL     1       4.626  -0.024  -3.024  0.00  0.00    +0.000 A 
ATOM     21  C   UNL     1       3.938  -0.860  -3.905  0.00  0.00    +0.000 A 
ATOM     22  C   UNL     1       2.726  -1.430  -3.511  0.00  0.00    +0.000 A 
ATOM     23  C   UNL     1       2.225  -1.179  -2.225  0.00  0.00    +0.000 A 
BRANCH  22  24
ATOM     24  C   UNL     1       1.962  -2.364  -4.366  0.00  0.00    +0.000 C 
ATOM     25  O   UNL     1       1.284  -3.240  -3.818  0.00  0.00    +0.000 OA
BRANCH  24  26
ATOM     26  C   UNL     1       1.963  -2.295  -5.846  0.00  0.00    +0.000 A 
ATOM     27  C   UNL     1       2.070  -1.078  -6.531  0.00  0.00    +0.000 A 
ATOM     28  C   UNL     1       2.063  -1.068  -7.928  0.00  0.00    +0.000 A 
ATOM     29  C   UNL     1       1.927  -2.260  -8.637  0.00  0.00    +0.000 A 
ATOM     30  C   UNL     1       1.789  -3.471  -7.956  0.00  0.00    +0.000 A 
ATOM     31  C   UNL     1       1.802  -3.485  -6.558  0.00  0.00    +0.000 A 
ENDBRANCH  24  26
ENDBRANCH  22  24
ENDBRANCH   2  18
TORSDOF 5
