REMARK  Name = 
REMARK  5 active torsions:
REMARK  status: ('A' for Active; 'I' for Inactive)
REMARK    1  A    between atoms: C_2  and  C_16
REMARK    2  A    between atoms: N_3  and  C_4
REMARK    3  A    between atoms: C_4  and  C_5
REMARK    4  A    between atoms: C_8  and  N_9
REMARK    5  A    between atoms: N_18  and  C_19
REMARK                            x       y       z     vdW  Elec       q    Type
REMARK                         _______ _______ _______ _____ _____    ______ ____
ROOT
ATOM      1  O   UNL     1       1.096  -0.005  -0.018  0.00  0.00    +0.000 OA
ATOM      2  C   UNL     1       2.323  -0.090  -0.052  0.00  0.00    +0.000 C 
ATOM      3  N   UNL     1       3.049  -0.655   0.964  0.00  0.00    +0.000 N 
ATOM      4  H   UNL     1       4.052  -0.544   1.018  0.00  0.00    +0.000 HD
ENDROOT
BRANCH   2   5
ATOM      5  C   UNL     1       3.093   0.489  -1.205  0.00  0.00    +0.000 A 
ATOM      6  C   UNL     1       4.333   0.081  -1.534  0.00  0.00    +0.000 A 
ATOM      7  N   UNL     1       5.045   0.644  -2.592  0.00  0.00    +0.000 N 
ATOM      8  C   UNL     1       4.495   1.661  -3.394  0.00  0.00    +0.000 A 
ATOM      9  O   UNL     1       5.046   2.219  -4.339  0.00  0.00    +0.000 OA
ATOM     10  C   UNL     1       3.086   2.035  -3.079  0.00  0.00    +0.000 A 
ATOM     11  C   UNL     1       2.451   1.472  -2.045  0.00  0.00    +0.000 A 
BRANCH   7  12
ATOM     12  C   UNL     1       6.363   0.189  -2.885  0.00  0.00    +0.000 A 
ATOM     13  C   UNL     1       6.591  -1.169  -3.135  0.00  0.00    +0.000 A 
ATOM     14  C   UNL     1       7.886  -1.617  -3.369  0.00  0.00    +0.000 A 
ATOM     15  F   UNL     1       8.093  -2.913  -3.635  0.00  0.00    +0.000 F 
ATOM     16  C   UNL     1       8.967  -0.745  -3.327  0.00  0.00    +0.000 A 
ATOM     17  C   UNL     1       8.748   0.610  -3.078  0.00  0.00    +0.000 A 
ATOM     18  C   UNL     1       7.446   1.079  -2.877  0.00  0.00    +0.000 A 
ENDBRANCH   7  12
ENDBRANCH   2   5
BRANCH   3  19
ATOM     19  C   UNL     1       2.393  -1.163   2.154  0.00  0.00    +0.000 C 
BRANCH  19  20
ATOM     20  C   UNL     1       2.252  -0.116   3.234  0.00  0.00    +0.000 A 
ATOM     21  C   UNL     1       1.131   0.711   3.286  0.00  0.00    +0.000 A 
ATOM     22  C   UNL     1       1.019   1.648   4.314  0.00  0.00    +0.000 A 
ATOM     23  C   UNL     1       2.036   1.750   5.266  0.00  0.00    +0.000 A 
ATOM     24  C   UNL     1       3.125   0.898   5.128  0.00  0.00    +0.000 A 
ATOM     25  N   UNL     1       3.260  -0.018   4.138  0.00  0.00    +0.000 NA
BRANCH  23  26
ATOM     26  N   UNL     1       1.963   2.680   6.337  0.00  0.00    +0.000 N 
ATOM     27  C   UNL     1       0.933   3.555   6.621  0.00  0.00    +0.000 A 
ATOM     28  C   UNL     1       1.304   4.225   7.763  0.00  0.00    +0.000 A 
ATOM     29  N   UNL     1       2.530   3.810   8.191  0.00  0.00    +0.000 NA
ATOM     30  C   UNL     1       2.904   2.896   7.324  0.00  0.00    +0.000 A 
ENDBRANCH  23  26
ENDBRANCH  19  20
ENDBRANCH   3  19
TORSDOF 5
