REMARK  Name = 
REMARK  8 active torsions:
REMARK  status: ('A' for Active; 'I' for Inactive)
REMARK    1  A    between atoms: C_1  and  O_2
REMARK    2  A    between atoms: O_2  and  C_3
REMARK    3  A    between atoms: C_3  and  C_5
REMARK    4  A    between atoms: C_12  and  C_13
REMARK    5  A    between atoms: C_13  and  N_14
REMARK    6  A    between atoms: C_15  and  C_17
REMARK    7  A    between atoms: C_17  and  C_18
REMARK    8  A    between atoms: N_20  and  C_21
REMARK                            x       y       z     vdW  Elec       q    Type
REMARK                         _______ _______ _______ _____ _____    ______ ____
ROOT
ATOM      1  N   UNL     1       5.424  -4.620   0.432  0.00  0.00    +0.000 N 
ATOM      2  C   UNL     1       4.536  -5.236   1.290  0.00  0.00    +0.000 C 
ATOM      3  O   UNL     1       4.875  -5.755   2.353  0.00  0.00    +0.000 OA
ATOM      4  H   UNL     1       5.088  -4.446  -0.513  0.00  0.00    +0.000 HD
ENDROOT
BRANCH   1   5
ATOM      5  C   UNL     1       6.847  -4.604   0.678  0.00  0.00    +0.000 C 
BRANCH   5  13
ATOM      6  C   UNL     1       8.709  -2.133  -2.538  0.00  0.00    +0.000 A 
ATOM      7  C   UNL     1       9.383  -0.965  -2.193  0.00  0.00    +0.000 A 
ATOM      8  C   UNL     1       9.338  -0.508  -0.874  0.00  0.00    +0.000 A 
ATOM      9  C   UNL     1       8.652  -1.226   0.123  0.00  0.00    +0.000 A 
ATOM     10  C   UNL     1       8.623  -0.740   1.437  0.00  0.00    +0.000 A 
ATOM     11  C   UNL     1       7.977  -1.446   2.444  0.00  0.00    +0.000 A 
ATOM     12  C   UNL     1       7.373  -2.667   2.159  0.00  0.00    +0.000 A 
ATOM     13  C   UNL     1       7.399  -3.202   0.857  0.00  0.00    +0.000 A 
ATOM     14  C   UNL     1       8.002  -2.449  -0.193  0.00  0.00    +0.000 A 
ATOM     15  C   UNL     1       8.015  -2.853  -1.547  0.00  0.00    +0.000 A 
BRANCH   6  16
ATOM     16  C   UNL     1       8.696  -2.683  -3.918  0.00  0.00    +0.000 C 
ATOM     17  O   UNL     1       7.997  -3.635  -4.242  0.00  0.00    +0.000 OA
BRANCH  16  19
ATOM     18  C   UNL     1       9.641  -2.619  -6.037  0.00  0.00    +0.000 C 
ATOM     19  O   UNL     1       9.561  -2.033  -4.736  0.00  0.00    +0.000 OA
ENDBRANCH  16  19
ENDBRANCH   6  16
ENDBRANCH   5  13
ENDBRANCH   1   5
BRANCH   2  20
ATOM     20  C   UNL     1       3.077  -5.125   0.894  0.00  0.00    +0.000 C 
BRANCH  20  21
ATOM     21  C   UNL     1       2.753  -5.718  -0.434  0.00  0.00    +0.000 A 
ATOM     22  N   UNL     1       3.261  -5.186  -1.552  0.00  0.00    +0.000 NA
ATOM     23  N   UNL     1       2.619  -5.820  -2.571  0.00  0.00    +0.000 N 
ATOM     24  C   UNL     1       1.789  -6.809  -2.094  0.00  0.00    +0.000 A 
ATOM     25  C   UNL     1       1.850  -6.763  -0.721  0.00  0.00    +0.000 A 
BRANCH  23  26
ATOM     26  C   UNL     1       2.809  -5.407  -3.917  0.00  0.00    +0.000 A 
ATOM     27  C   UNL     1       3.715  -4.372  -4.197  0.00  0.00    +0.000 A 
ATOM     28  C   UNL     1       3.906  -3.940  -5.510  0.00  0.00    +0.000 A 
ATOM     29  C   UNL     1       3.189  -4.530  -6.549  0.00  0.00    +0.000 A 
ATOM     30  C   UNL     1       2.283  -5.554  -6.278  0.00  0.00    +0.000 A 
ATOM     31  C   UNL     1       2.092  -5.998  -4.967  0.00  0.00    +0.000 A 
ENDBRANCH  23  26
ENDBRANCH  20  21
ENDBRANCH   2  20
TORSDOF 7
