REMARK  Name = 
REMARK  7 active torsions:
REMARK  status: ('A' for Active; 'I' for Inactive)
REMARK    1  A    between atoms: C_2  and  C_3
REMARK    2  A    between atoms: C_6  and  C_7
REMARK    3  A    between atoms: N_9  and  C_10
REMARK    4  A    between atoms: C_10  and  C_11
REMARK    5  A    between atoms: C_16  and  N_17
REMARK    6  A    between atoms: C_19  and  C_20
REMARK    7  A    between atoms: C_24  and  N_25
REMARK                            x       y       z     vdW  Elec       q    Type
REMARK                         _______ _______ _______ _____ _____    ______ ____
ROOT
ATOM      1  C   UNL     1       5.331  -6.595   5.120  0.00  0.00    +0.000 A 
ATOM      2  C   UNL     1       5.946  -7.788   4.691  0.00  0.00    +0.000 A 
ATOM      3  C   UNL     1       5.458  -9.037   5.071  0.00  0.00    +0.000 A 
ATOM      4  C   UNL     1       4.347  -9.121   5.899  0.00  0.00    +0.000 A 
ATOM      5  C   UNL     1       3.699  -7.957   6.312  0.00  0.00    +0.000 A 
ATOM      6  C   UNL     1       4.160  -6.690   5.899  0.00  0.00    +0.000 A 
ENDROOT
BRANCH   6   7
ATOM      7  N   UNL     1       3.402  -5.548   6.270  0.00  0.00    +0.000 N 
ATOM      8  C   UNL     1       2.522  -5.438   7.320  0.00  0.00    +0.000 A 
ATOM      9  C   UNL     1       1.999  -4.172   7.222  0.00  0.00    +0.000 A 
ATOM     10  N   UNL     1       2.547  -3.548   6.136  0.00  0.00    +0.000 NA
ATOM     11  N   UNL     1       3.406  -4.386   5.570  0.00  0.00    +0.000 NA
BRANCH   9  12
ATOM     12  C   UNL     1       1.043  -3.569   8.129  0.00  0.00    +0.000 A 
ATOM     13  C   UNL     1       0.562  -2.285   7.897  0.00  0.00    +0.000 A 
ATOM     14  C   UNL     1      -0.343  -1.752   8.799  0.00  0.00    +0.000 A 
ATOM     15  N   UNL     1      -0.784  -2.405   9.898  0.00  0.00    +0.000 NA
ATOM     16  C   UNL     1      -0.310  -3.640  10.112  0.00  0.00    +0.000 A 
ATOM     17  C   UNL     1       0.586  -4.257   9.256  0.00  0.00    +0.000 A 
BRANCH  16  18
ATOM     18  N   UNL     1      -0.788  -4.322  11.228  0.00  0.00    +0.000 N 
ATOM     19  H   UNL     1      -1.380  -3.674  11.740  0.00  0.00    +0.000 HD
ATOM     20  H   UNL     1      -0.035  -4.681  11.802  0.00  0.00    +0.000 HD
ENDBRANCH  16  18
ENDBRANCH   9  12
ENDBRANCH   6   7
BRANCH   1  21
ATOM     21  C   UNL     1       6.020  -5.298   4.769  0.00  0.00    +0.000 C 
BRANCH  21  24
ATOM     22  C   UNL     1       6.261  -5.022   2.346  0.00  0.00    +0.000 C 
ATOM     23  O   UNL     1       7.274  -5.712   2.298  0.00  0.00    +0.000 OA
ATOM     24  N   UNL     1       5.567  -4.774   3.507  0.00  0.00    +0.000 N 
ATOM     25  H   UNL     1       4.758  -4.166   3.531  0.00  0.00    +0.000 HD
BRANCH  22  29
ATOM     26  C   UNL     1       4.945  -3.119  -1.278  0.00  0.00    +0.000 A 
ATOM     27  C   UNL     1       4.011  -3.443  -0.283  0.00  0.00    +0.000 A 
ATOM     28  C   UNL     1       4.413  -4.059   0.909  0.00  0.00    +0.000 A 
ATOM     29  C   UNL     1       5.761  -4.365   1.112  0.00  0.00    +0.000 A 
ATOM     30  C   UNL     1       6.695  -4.068   0.113  0.00  0.00    +0.000 A 
ATOM     31  C   UNL     1       6.290  -3.448  -1.071  0.00  0.00    +0.000 A 
BRANCH  26  33
ATOM     32  C   UNL     1       3.511  -1.698  -2.738  0.00  0.00    +0.000 C 
ATOM     33  C   UNL     1       4.560  -2.512  -2.559  0.00  0.00    +0.000 C 
ENDBRANCH  26  33
ENDBRANCH  22  29
ENDBRANCH  21  24
ENDBRANCH   1  21
TORSDOF 7
