REMARK  Name = 
REMARK  5 active torsions:
REMARK  status: ('A' for Active; 'I' for Inactive)
REMARK    1  A    between atoms: C_2  and  C_3
REMARK    2  A    between atoms: C_5  and  C_6
REMARK    3  A    between atoms: C_13  and  N_14
REMARK    4  A    between atoms: N_17  and  C_18
REMARK    5  A    between atoms: N_20  and  C_21
REMARK                            x       y       z     vdW  Elec       q    Type
REMARK                         _______ _______ _______ _____ _____    ______ ____
ROOT
ATOM      1  N   UNL     1       2.478   2.345   0.059  0.00  0.00    +0.000 N 
ATOM      2  C   UNL     1       3.847   2.479   0.012  0.00  0.00    +0.000 C 
ATOM      3  O   UNL     1       4.673   1.569  -0.023  0.00  0.00    +0.000 OA
ATOM      4  N   UNL     1       4.328   3.756  -0.072  0.00  0.00    +0.000 N 
ATOM      5  H   UNL     1       1.954   3.214   0.069  0.00  0.00    +0.000 HD
ATOM      6  H   UNL     1       5.322   3.814  -0.241  0.00  0.00    +0.000 HD
ENDROOT
BRANCH   1  11
ATOM      7  C   UNL     1      -0.451   0.092  -0.020  0.00  0.00    +0.000 A 
ATOM      8  C   UNL     1       0.171  -1.166  -0.037  0.00  0.00    +0.000 A 
ATOM      9  C   UNL     1       1.569  -1.287   0.007  0.00  0.00    +0.000 A 
ATOM     10  C   UNL     1       2.314  -0.099   0.072  0.00  0.00    +0.000 A 
ATOM     11  C   UNL     1       1.722   1.161   0.051  0.00  0.00    +0.000 A 
ATOM     12  C   UNL     1       0.328   1.256   0.013  0.00  0.00    +0.000 A 
BRANCH   9  13
ATOM     13  C   UNL     1       2.270  -2.591  -0.009  0.00  0.00    +0.000 A 
ATOM     14  C   UNL     1       3.548  -2.725  -0.581  0.00  0.00    +0.000 A 
ATOM     15  C   UNL     1       4.195  -3.948  -0.541  0.00  0.00    +0.000 A 
ATOM     16  N   UNL     1       3.663  -5.055   0.007  0.00  0.00    +0.000 NA
ATOM     17  C   UNL     1       2.434  -4.923   0.547  0.00  0.00    +0.000 A 
ATOM     18  C   UNL     1       1.715  -3.736   0.569  0.00  0.00    +0.000 A 
ENDBRANCH   9  13
BRANCH   7  20
ATOM     19  N   UNL     1      -3.041   0.244  -0.047  0.00  0.00    +0.000 NA
ATOM     20  C   UNL     1      -1.885   0.181  -0.038  0.00  0.00    +0.000 C 
ENDBRANCH   7  20
ENDBRANCH   1  11
BRANCH   4  21
ATOM     21  C   UNL     1       3.604   4.912   0.011  0.00  0.00    +0.000 A 
ATOM     22  C   UNL     1       4.053   6.168  -0.291  0.00  0.00    +0.000 A 
ATOM     23  N   UNL     1       2.945   6.968  -0.130  0.00  0.00    +0.000 N 
ATOM     24  N   UNL     1       1.912   6.226   0.343  0.00  0.00    +0.000 NA
ATOM     25  N   UNL     1       2.300   4.965   0.397  0.00  0.00    +0.000 NA
BRANCH  23  26
ATOM     26  C   UNL     1       2.790   8.338  -0.438  0.00  0.00    +0.000 A 
ATOM     27  C   UNL     1       3.816   9.047  -1.073  0.00  0.00    +0.000 A 
ATOM     28  C   UNL     1       3.622  10.385  -1.414  0.00  0.00    +0.000 A 
ATOM     29  C   UNL     1       2.416  11.017  -1.118  0.00  0.00    +0.000 A 
ATOM     30  C   UNL     1       1.395  10.316  -0.479  0.00  0.00    +0.000 A 
ATOM     31  C   UNL     1       1.578   8.977  -0.138  0.00  0.00    +0.000 A 
ENDBRANCH  23  26
ENDBRANCH   4  21
TORSDOF 5
