REMARK  Name = 
REMARK  10 active torsions:
REMARK  status: ('A' for Active; 'I' for Inactive)
REMARK    1  A    between atoms: C_1  and  C_2
REMARK    2  A    between atoms: C_2  and  O_3
REMARK    3  A    between atoms: O_3  and  C_4
REMARK    4  A    between atoms: N_6  and  C_7
REMARK    5  A    between atoms: C_14  and  C_15
REMARK    6  A    between atoms: N_17  and  C_18
REMARK    7  A    between atoms: N_17  and  C_22
REMARK    8  A    between atoms: C_18  and  C_19
REMARK    9  A    between atoms: C_22  and  C_23
REMARK   10  A    between atoms: C_26  and  C_27
REMARK                            x       y       z     vdW  Elec       q    Type
REMARK                         _______ _______ _______ _____ _____    ______ ____
ROOT
ATOM      1  C   UNL     1       4.436  -0.567   3.500  0.00  0.00    +0.000 C 
ATOM      2  O   UNL     1       5.158  -1.030   4.387  0.00  0.00    +0.000 OA
ATOM      3  N   UNL     1       3.096  -0.240   3.787  0.00  0.00    +0.000 N 
ENDROOT
BRANCH   1   8
ATOM      4  C   UNL     1       5.973  -1.080   1.441  0.00  0.00    +0.000 A 
ATOM      5  C   UNL     1       6.067  -0.512   0.198  0.00  0.00    +0.000 A 
ATOM      6  N   UNL     1       5.160   0.514   0.155  0.00  0.00    +0.000 N 
ATOM      7  N   UNL     1       4.572   0.698   1.369  0.00  0.00    +0.000 NA
ATOM      8  C   UNL     1       4.981  -0.335   2.140  0.00  0.00    +0.000 A 
BRANCH   6   9
ATOM      9  C   UNL     1       4.800   1.300  -0.980  0.00  0.00    +0.000 A 
ATOM     10  C   UNL     1       5.346   1.034  -2.247  0.00  0.00    +0.000 A 
ATOM     11  C   UNL     1       4.975   1.804  -3.356  0.00  0.00    +0.000 A 
ATOM     12  C   UNL     1       4.058   2.842  -3.212  0.00  0.00    +0.000 A 
ATOM     13  C   UNL     1       3.502   3.107  -1.963  0.00  0.00    +0.000 A 
ATOM     14  C   UNL     1       3.869   2.341  -0.851  0.00  0.00    +0.000 A 
ENDBRANCH   6   9
BRANCH   4  15
ATOM     15  O   UNL     1       6.630  -2.232   1.697  0.00  0.00    +0.000 OA
BRANCH  15  17
ATOM     16  C   UNL     1       8.573  -3.167   2.685  0.00  0.00    +0.000 C 
ATOM     17  C   UNL     1       7.383  -2.244   2.907  0.00  0.00    +0.000 C 
ENDBRANCH  15  17
ENDBRANCH   4  15
ENDBRANCH   1   8
BRANCH   3  18
ATOM     18  C   UNL     1       2.566  -0.524   5.125  0.00  0.00    +0.000 C 
BRANCH  18  19
ATOM     19  C   UNL     1       1.800  -1.831   5.252  0.00  0.00    +0.000 A 
ATOM     20  C   UNL     1       1.785  -2.809   4.252  0.00  0.00    +0.000 A 
ATOM     21  C   UNL     1       1.026  -3.982   4.395  0.00  0.00    +0.000 A 
ATOM     22  C   UNL     1       0.278  -4.250   5.553  0.00  0.00    +0.000 A 
ATOM     23  C   UNL     1       0.333  -3.281   6.569  0.00  0.00    +0.000 A 
ATOM     24  C   UNL     1       1.073  -2.093   6.424  0.00  0.00    +0.000 A 
BRANCH  22  25
ATOM     25  C   UNL     1      -0.526  -5.494   5.692  0.00  0.00    +0.000 A 
ATOM     26  C   UNL     1      -0.135  -6.696   5.070  0.00  0.00    +0.000 A 
ATOM     27  C   UNL     1      -0.888  -7.869   5.193  0.00  0.00    +0.000 A 
ATOM     28  C   UNL     1      -2.051  -7.875   5.954  0.00  0.00    +0.000 A 
ATOM     29  C   UNL     1      -2.466  -6.705   6.580  0.00  0.00    +0.000 A 
ATOM     30  C   UNL     1      -1.717  -5.529   6.443  0.00  0.00    +0.000 A 
ENDBRANCH  22  25
ENDBRANCH  18  19
ENDBRANCH   3  18
BRANCH   3  31
ATOM     31  C   UNL     1       2.125   0.254   2.795  0.00  0.00    +0.000 C 
BRANCH  31  32
ATOM     32  C   UNL     1       2.117   1.779   2.625  0.00  0.00    +0.000 C 
ATOM     33  N   UNL     1       2.885   2.499   3.498  0.00  0.00    +0.000 N 
ATOM     34  O   UNL     1       1.419   2.354   1.793  0.00  0.00    +0.000 OA
ATOM     35  H   UNL     1       3.644   2.032   3.975  0.00  0.00    +0.000 HD
ATOM     36  H   UNL     1       3.015   3.475   3.265  0.00  0.00    +0.000 HD
ENDBRANCH  31  32
ENDBRANCH   3  31
TORSDOF 9
