REMARK  Name = 
REMARK  5 active torsions:
REMARK  status: ('A' for Active; 'I' for Inactive)
REMARK    1  A    between atoms: C_2  and  C_11
REMARK    2  A    between atoms: N_3  and  C_4
REMARK    3  A    between atoms: C_4  and  C_5
REMARK    4  A    between atoms: C_14  and  N_15
REMARK    5  A    between atoms: C_16  and  C_18
REMARK                            x       y       z     vdW  Elec       q    Type
REMARK                         _______ _______ _______ _____ _____    ______ ____
ROOT
ATOM      1  C   UNL     1       3.040   1.133  -0.056  0.00  0.00    +0.000 A 
ATOM      2  C   UNL     1       2.610   2.201   0.734  0.00  0.00    +0.000 A 
ATOM      3  C   UNL     1       3.346   3.391   0.781  0.00  0.00    +0.000 A 
ATOM      4  C   UNL     1       4.509   3.529   0.025  0.00  0.00    +0.000 A 
ATOM      5  C   UNL     1       4.916   2.470  -0.799  0.00  0.00    +0.000 A 
ATOM      6  C   UNL     1       4.190   1.274  -0.838  0.00  0.00    +0.000 A 
ENDROOT
BRANCH   1   8
ATOM      7  O   UNL     1       1.034  -0.083   0.164  0.00  0.00    +0.000 OA
ATOM      8  C   UNL     1       2.237  -0.119  -0.063  0.00  0.00    +0.000 C 
ATOM      9  N   UNL     1       2.935  -1.285  -0.289  0.00  0.00    +0.000 N 
ATOM     10  H   UNL     1       3.943  -1.278  -0.209  0.00  0.00    +0.000 HD
BRANCH   9  11
ATOM     11  C   UNL     1       2.272  -2.565  -0.211  0.00  0.00    +0.000 C 
BRANCH  11  12
ATOM     12  C   UNL     1       2.989  -3.588  -1.056  0.00  0.00    +0.000 A 
ATOM     13  C   UNL     1       4.010  -4.374  -0.518  0.00  0.00    +0.000 A 
ATOM     14  C   UNL     1       4.638  -5.289  -1.348  0.00  0.00    +0.000 A 
ATOM     15  N   UNL     1       4.332  -5.460  -2.653  0.00  0.00    +0.000 NA
ATOM     16  C   UNL     1       3.349  -4.680  -3.151  0.00  0.00    +0.000 A 
ATOM     17  C   UNL     1       2.663  -3.737  -2.401  0.00  0.00    +0.000 A 
ENDBRANCH  11  12
ENDBRANCH   9  11
ENDBRANCH   1   8
BRANCH   4  18
ATOM     18  N   UNL     1       5.295   4.698   0.002  0.00  0.00    +0.000 N 
ATOM     19  C   UNL     1       5.123   5.848   0.756  0.00  0.00    +0.000 C 
ATOM     20  O   UNL     1       4.346   6.028   1.680  0.00  0.00    +0.000 OA
ATOM     21  H   UNL     1       6.020   4.709  -0.707  0.00  0.00    +0.000 HD
BRANCH  19  22
ATOM     22  C   UNL     1       5.941   6.984   0.260  0.00  0.00    +0.000 A 
ATOM     23  C   UNL     1       7.300   6.789  -0.034  0.00  0.00    +0.000 A 
ATOM     24  C   UNL     1       7.954   7.664  -0.905  0.00  0.00    +0.000 A 
ATOM     25  C   UNL     1       7.225   8.660  -1.558  0.00  0.00    +0.000 A 
ATOM     26  C   UNL     1       5.873   8.845  -1.247  0.00  0.00    +0.000 A 
ATOM     27  C   UNL     1       5.275   8.096  -0.246  0.00  0.00    +0.000 A 
ATOM     28  C   UNL     1       3.927   8.493   0.159  0.00  0.00    +0.000 A 
ATOM     29  N   UNL     1       3.141   9.205  -0.587  0.00  0.00    +0.000 NA
ATOM     30  N   UNL     1       3.648   9.633  -1.779  0.00  0.00    +0.000 N 
ATOM     31  C   UNL     1       4.985   9.642  -2.107  0.00  0.00    +0.000 A 
ATOM     32  O   UNL     1       5.416  10.195  -3.117  0.00  0.00    +0.000 OA
ATOM     33  H   UNL     1       3.000  10.111  -2.397  0.00  0.00    +0.000 HD
ENDBRANCH  19  22
ENDBRANCH   4  18
TORSDOF 5
