REMARK  Name = 
REMARK  8 active torsions:
REMARK  status: ('A' for Active; 'I' for Inactive)
REMARK    1  A    between atoms: C_1  and  O_2
REMARK    2  A    between atoms: O_2  and  C_3
REMARK    3  A    between atoms: C_3  and  C_5
REMARK    4  A    between atoms: C_9  and  C_10
REMARK    5  A    between atoms: C_15  and  C_16
REMARK    6  A    between atoms: C_16  and  N_17
REMARK    7  A    between atoms: C_18  and  C_20
REMARK    8  A    between atoms: C_26  and  O_27
REMARK                            x       y       z     vdW  Elec       q    Type
REMARK                         _______ _______ _______ _____ _____    ______ ____
ROOT
ATOM      1  C   UNL     1       7.276   4.123  -1.157  0.00  0.00    +0.000 C 
ENDROOT
BRANCH   1   7
ATOM      2  C   UNL     1       7.487   2.117  -2.836  0.00  0.00    +0.000 A 
ATOM      3  C   UNL     1       8.026   1.695  -4.079  0.00  0.00    +0.000 A 
ATOM      4  C   UNL     1       8.734   2.549  -4.925  0.00  0.00    +0.000 A 
ATOM      5  C   UNL     1       8.904   3.875  -4.571  0.00  0.00    +0.000 A 
ATOM      6  C   UNL     1       8.396   4.330  -3.358  0.00  0.00    +0.000 A 
ATOM      7  C   UNL     1       7.709   3.475  -2.462  0.00  0.00    +0.000 A 
BRANCH   2  12
ATOM      8  C   UNL     1       4.780   0.519  -0.642  0.00  0.00    +0.000 A 
ATOM      9  C   UNL     1       5.152  -0.826  -0.662  0.00  0.00    +0.000 A 
ATOM     10  C   UNL     1       6.284  -1.214  -1.372  0.00  0.00    +0.000 A 
ATOM     11  C   UNL     1       7.060  -0.254  -2.033  0.00  0.00    +0.000 A 
ATOM     12  C   UNL     1       6.707   1.113  -2.051  0.00  0.00    +0.000 A 
ATOM     13  C   UNL     1       5.535   1.459  -1.365  0.00  0.00    +0.000 A 
BRANCH   8  14
ATOM     14  C   UNL     1       3.585   0.927   0.146  0.00  0.00    +0.000 C 
ATOM     15  O   UNL     1       2.877   0.148   0.762  0.00  0.00    +0.000 OA
BRANCH  14  17
ATOM     16  C   UNL     1       2.337   2.796   0.831  0.00  0.00    +0.000 C 
ATOM     17  O   UNL     1       3.433   2.272   0.084  0.00  0.00    +0.000 OA
ENDBRANCH  14  17
ENDBRANCH   8  14
ENDBRANCH   2  12
ENDBRANCH   1   7
BRANCH   1  18
ATOM     18  N   UNL     1       7.803   3.446   0.003  0.00  0.00    +0.000 N 
ATOM     19  C   UNL     1       7.573   3.918   1.274  0.00  0.00    +0.000 C 
ATOM     20  O   UNL     1       6.934   4.930   1.534  0.00  0.00    +0.000 OA
ATOM     21  H   UNL     1       8.499   2.732  -0.148  0.00  0.00    +0.000 HD
BRANCH  19  22
ATOM     22  C   UNL     1       8.212   3.121   2.371  0.00  0.00    +0.000 A 
ATOM     23  C   UNL     1       8.674   3.770   3.524  0.00  0.00    +0.000 A 
ATOM     24  C   UNL     1       9.364   3.067   4.525  0.00  0.00    +0.000 A 
ATOM     25  C   UNL     1       9.524   1.690   4.337  0.00  0.00    +0.000 A 
ATOM     26  N   UNL     1      10.163   0.724   5.080  0.00  0.00    +0.000 N 
ATOM     27  N   UNL     1       9.973  -0.535   4.626  0.00  0.00    +0.000 NA
ATOM     28  C   UNL     1       9.265  -0.328   3.525  0.00  0.00    +0.000 A 
ATOM     29  C   UNL     1       8.993   1.014   3.243  0.00  0.00    +0.000 A 
ATOM     30  C   UNL     1       8.340   1.731   2.230  0.00  0.00    +0.000 A 
ATOM     31  H   UNL     1      10.732   0.857   5.909  0.00  0.00    +0.000 HD
BRANCH  28  32
ATOM     32  O   UNL     1       8.885  -1.424   2.872  0.00  0.00    +0.000 OA
ATOM     33  H   UNL     1       9.164  -2.160   3.442  0.00  0.00    +0.000 HD
ENDBRANCH  28  32
ENDBRANCH  19  22
ENDBRANCH   1  18
TORSDOF 7
