REMARK  Name = 
REMARK  6 active torsions:
REMARK  status: ('A' for Active; 'I' for Inactive)
REMARK    1  A    between atoms: C_1  and  O_2
REMARK    2  A    between atoms: O_2  and  C_3
REMARK    3  A    between atoms: C_8  and  N_9
REMARK    4  A    between atoms: C_11  and  C_12
REMARK    5  A    between atoms: C_14  and  N_15
REMARK    6  A    between atoms: C_16  and  C_18
REMARK                            x       y       z     vdW  Elec       q    Type
REMARK                         _______ _______ _______ _____ _____    ______ ____
ROOT
ATOM      1  C   UNL     1       4.044  -4.368  -2.606  0.00  0.00    +0.000 A 
ATOM      2  C   UNL     1       3.685  -4.413  -3.959  0.00  0.00    +0.000 A 
ATOM      3  C   UNL     1       3.367  -5.627  -4.584  0.00  0.00    +0.000 A 
ATOM      4  C   UNL     1       3.356  -6.802  -3.822  0.00  0.00    +0.000 A 
ATOM      5  C   UNL     1       3.715  -6.770  -2.473  0.00  0.00    +0.000 A 
ATOM      6  C   UNL     1       4.063  -5.561  -1.878  0.00  0.00    +0.000 A 
ATOM      7  F   UNL     1       4.401  -5.573  -0.579  0.00  0.00    +0.000 F 
ENDROOT
BRANCH   1  10
ATOM      8  N   UNL     1       5.243  -1.571  -0.705  0.00  0.00    +0.000 N 
ATOM      9  C   UNL     1       5.348  -2.898  -1.049  0.00  0.00    +0.000 A 
ATOM     10  C   UNL     1       4.374  -3.102  -1.993  0.00  0.00    +0.000 A 
ATOM     11  N   UNL     1       3.740  -1.920  -2.248  0.00  0.00    +0.000 NA
ATOM     12  N   UNL     1       4.239  -1.003  -1.425  0.00  0.00    +0.000 NA
BRANCH   8  18
ATOM     13  C   UNL     1       7.194  -1.290   0.786  0.00  0.00    +0.000 A 
ATOM     14  C   UNL     1       7.747  -0.647   1.899  0.00  0.00    +0.000 A 
ATOM     15  C   UNL     1       7.075   0.408   2.522  0.00  0.00    +0.000 A 
ATOM     16  C   UNL     1       5.857   0.856   2.021  0.00  0.00    +0.000 A 
ATOM     17  C   UNL     1       5.290   0.230   0.912  0.00  0.00    +0.000 A 
ATOM     18  C   UNL     1       5.932  -0.871   0.319  0.00  0.00    +0.000 A 
BRANCH  13  20
ATOM     19  C   UNL     1       9.170  -2.608   0.450  0.00  0.00    +0.000 C 
ATOM     20  O   UNL     1       7.838  -2.274   0.086  0.00  0.00    +0.000 OA
ENDBRANCH  13  20
ENDBRANCH   8  18
ENDBRANCH   1  10
BRANCH   3  21
ATOM     21  N   UNL     1       3.051  -5.724  -5.960  0.00  0.00    +0.000 N 
ATOM     22  C   UNL     1       3.357  -4.762  -6.913  0.00  0.00    +0.000 C 
ATOM     23  O   UNL     1       4.013  -3.745  -6.714  0.00  0.00    +0.000 OA
ATOM     24  H   UNL     1       2.727  -6.625  -6.286  0.00  0.00    +0.000 HD
BRANCH  22  25
ATOM     25  C   UNL     1       2.906  -5.017  -8.296  0.00  0.00    +0.000 A 
ATOM     26  C   UNL     1       1.782  -5.775  -8.630  0.00  0.00    +0.000 A 
ATOM     27  C   UNL     1       1.412  -5.884  -9.973  0.00  0.00    +0.000 A 
ATOM     28  C   UNL     1       2.178  -5.236 -10.930  0.00  0.00    +0.000 A 
ATOM     29  N   UNL     1       3.273  -4.505 -10.641  0.00  0.00    +0.000 NA
ATOM     30  C   UNL     1       3.604  -4.400  -9.331  0.00  0.00    +0.000 A 
ENDBRANCH  22  25
ENDBRANCH   3  21
TORSDOF 5
