REMARK  Name = 
REMARK  6 active torsions:
REMARK  status: ('A' for Active; 'I' for Inactive)
REMARK    1  A    between atoms: C_2  and  C_3
REMARK    2  A    between atoms: C_3  and  N_4
REMARK    3  A    between atoms: N_16  and  C_17
REMARK    4  A    between atoms: C_17  and  C_18
REMARK    5  A    between atoms: C_17  and  C_28
REMARK    6  A    between atoms: C_22  and  C_23
REMARK                            x       y       z     vdW  Elec       q    Type
REMARK                         _______ _______ _______ _____ _____    ______ ____
ROOT
ATOM      1  O   UNL     1       2.941  -0.013   1.001  0.00  0.00    +0.000 OA
ATOM      2  C   UNL     1       2.385   0.200  -0.075  0.00  0.00    +0.000 C 
ATOM      3  N   UNL     1       3.075   0.415  -1.240  0.00  0.00    +0.000 N 
ATOM      4  H   UNL     1       2.591   0.756  -2.068  0.00  0.00    +0.000 HD
ENDROOT
BRANCH   2   5
ATOM      5  C   UNL     1       0.866   0.320  -0.187  0.00  0.00    +0.000 C 
BRANCH   5   6
ATOM      6  N   UNL     1       0.443   1.649   0.224  0.00  0.00    +0.000 N 
ATOM      7  C   UNL     1       0.175   1.906   1.547  0.00  0.00    +0.000 A 
ATOM      8  N   UNL     1      -0.210   3.047   2.013  0.00  0.00    +0.000 NA
ATOM      9  C   UNL     1      -0.349   4.108   1.108  0.00  0.00    +0.000 A 
ATOM     10  C   UNL     1      -0.723   5.364   1.597  0.00  0.00    +0.000 A 
ATOM     11  C   UNL     1      -0.852   6.451   0.729  0.00  0.00    +0.000 A 
ATOM     12  C   UNL     1      -0.620   6.275  -0.631  0.00  0.00    +0.000 A 
ATOM     13  F   UNL     1      -0.743   7.321  -1.458  0.00  0.00    +0.000 F 
ATOM     14  C   UNL     1      -0.255   5.036  -1.142  0.00  0.00    +0.000 A 
ATOM     15  C   UNL     1      -0.114   3.960  -0.262  0.00  0.00    +0.000 A 
ATOM     16  C   UNL     1       0.310   2.631  -0.744  0.00  0.00    +0.000 A 
ATOM     17  O   UNL     1       0.526   2.439  -1.937  0.00  0.00    +0.000 OA
ENDBRANCH   5   6
ENDBRANCH   2   5
BRANCH   3  18
ATOM     18  C   UNL     1       4.519   0.290  -1.329  0.00  0.00    +0.000 C 
BRANCH  18  19
ATOM     19  C   UNL     1       5.031   1.326  -2.283  0.00  0.00    +0.000 A 
ATOM     20  N   UNL     1       4.398   1.867  -3.308  0.00  0.00    +0.000 NA
ATOM     21  N   UNL     1       5.265   2.732  -3.934  0.00  0.00    +0.000 NA
ATOM     22  C   UNL     1       6.402   2.701  -3.280  0.00  0.00    +0.000 A 
ATOM     23  N   UNL     1       6.302   1.841  -2.233  0.00  0.00    +0.000 N 
ATOM     24  H   UNL     1       7.025   1.607  -1.569  0.00  0.00    +0.000 HD
ENDBRANCH  18  19
BRANCH  18  25
ATOM     25  C   UNL     1       4.913  -1.117  -1.766  0.00  0.00    +0.000 A 
ATOM     26  C   UNL     1       4.489  -1.633  -3.002  0.00  0.00    +0.000 A 
ATOM     27  C   UNL     1       4.858  -2.914  -3.409  0.00  0.00    +0.000 A 
ATOM     28  C   UNL     1       5.658  -3.705  -2.587  0.00  0.00    +0.000 A 
ATOM     29  C   UNL     1       6.097  -3.222  -1.347  0.00  0.00    +0.000 A 
ATOM     30  C   UNL     1       5.720  -1.926  -0.945  0.00  0.00    +0.000 A 
BRANCH  29  31
ATOM     31  C   UNL     1       6.964  -4.073  -0.448  0.00  0.00    +0.000 C 
ATOM     32  F   UNL     1       7.220  -5.314  -0.947  0.00  0.00    +0.000 F 
ATOM     33  F   UNL     1       8.182  -3.506  -0.220  0.00  0.00    +0.000 F 
ATOM     34  F   UNL     1       6.409  -4.270   0.779  0.00  0.00    +0.000 F 
ENDBRANCH  29  31
ENDBRANCH  18  25
ENDBRANCH   3  18
TORSDOF 6
