REMARK  Name = 
REMARK  3 active torsions:
REMARK  status: ('A' for Active; 'I' for Inactive)
REMARK    1  A    between atoms: N_3  and  C_4
REMARK    2  A    between atoms: C_8  and  C_9
REMARK    3  A    between atoms: N_19  and  C_20
REMARK                            x       y       z     vdW  Elec       q    Type
REMARK                         _______ _______ _______ _____ _____    ______ ____
ROOT
ATOM      1  O   UNL     1       1.167  -0.310   0.025  0.00  0.00    +0.000 OA
ATOM      2  C   UNL     1       2.363  -0.028  -0.035  0.00  0.00    +0.000 C 
ATOM      3  N   UNL     1       2.937   1.130   0.423  0.00  0.00    +0.000 N 
ATOM      4  N   UNL     1       3.206  -0.940  -0.602  0.00  0.00    +0.000 N 
ATOM      5  C   UNL     1       4.554  -0.860  -0.774  0.00  0.00    +0.000 A 
ATOM      6  N   UNL     1       5.320   0.197  -0.498  0.00  0.00    +0.000 NA
ATOM      7  N   UNL     1       6.561  -0.253  -0.808  0.00  0.00    +0.000 N 
ATOM      8  C   UNL     1       6.472  -1.546  -1.260  0.00  0.00    +0.000 A 
ATOM      9  N   UNL     1       5.220  -1.941  -1.265  0.00  0.00    +0.000 NA
ATOM     10  H   UNL     1       3.919   1.235   0.180  0.00  0.00    +0.000 HD
ATOM     11  H   UNL     1       2.780  -1.803  -0.902  0.00  0.00    +0.000 HD
ENDROOT
BRANCH   7  12
ATOM     12  C   UNL     1       7.703   0.563  -0.641  0.00  0.00    +0.000 A 
ATOM     13  C   UNL     1       7.544   1.897  -0.234  0.00  0.00    +0.000 A 
ATOM     14  C   UNL     1       8.663   2.703  -0.051  0.00  0.00    +0.000 A 
ATOM     15  F   UNL     1       8.499   3.975   0.333  0.00  0.00    +0.000 F 
ATOM     16  C   UNL     1       9.942   2.214  -0.262  0.00  0.00    +0.000 A 
ATOM     17  C   UNL     1      10.094   0.896  -0.670  0.00  0.00    +0.000 A 
ATOM     18  F   UNL     1      11.323   0.408  -0.876  0.00  0.00    +0.000 F 
ATOM     19  C   UNL     1       8.992   0.062  -0.865  0.00  0.00    +0.000 A 
ENDBRANCH   7  12
BRANCH   3  20
ATOM     20  C   UNL     1       2.322   2.201   1.097  0.00  0.00    +0.000 A 
ATOM     21  C   UNL     1       1.024   2.142   1.600  0.00  0.00    +0.000 A 
ATOM     22  C   UNL     1       0.471   3.248   2.240  0.00  0.00    +0.000 A 
ATOM     23  C   UNL     1       1.215   4.419   2.387  0.00  0.00    +0.000 A 
ATOM     24  C   UNL     1       2.539   4.508   1.924  0.00  0.00    +0.000 A 
ATOM     25  C   UNL     1       3.074   3.374   1.279  0.00  0.00    +0.000 A 
BRANCH  24  26
ATOM     26  C   UNL     1       3.331   5.735   2.128  0.00  0.00    +0.000 A 
ATOM     27  C   UNL     1       3.209   6.535   3.256  0.00  0.00    +0.000 A 
ATOM     28  N   UNL     1       3.912   7.665   3.491  0.00  0.00    +0.000 NA
ATOM     29  C   UNL     1       4.790   8.006   2.540  0.00  0.00    +0.000 A 
ATOM     30  N   UNL     1       5.013   7.333   1.403  0.00  0.00    +0.000 NA
ATOM     31  C   UNL     1       4.271   6.214   1.227  0.00  0.00    +0.000 A 
ENDBRANCH  24  26
ENDBRANCH   3  20
TORSDOF 3
