REMARK  Name = 
REMARK  6 active torsions:
REMARK  status: ('A' for Active; 'I' for Inactive)
REMARK    1  A    between atoms: C_2  and  C_22
REMARK    2  A    between atoms: N_3  and  C_4
REMARK    3  A    between atoms: C_4  and  C_5
REMARK    4  A    between atoms: N_7  and  C_8
REMARK    5  A    between atoms: C_13  and  C_14
REMARK    6  A    between atoms: C_28  and  O_29
REMARK                            x       y       z     vdW  Elec       q    Type
REMARK                         _______ _______ _______ _____ _____    ______ ____
ROOT
ATOM      1  C   UNL     1       3.095   2.944   2.276  0.00  0.00    +0.000 A 
ATOM      2  C   UNL     1       2.938   4.303   2.442  0.00  0.00    +0.000 A 
ATOM      3  N   UNL     1       4.083   4.717   3.088  0.00  0.00    +0.000 N 
ATOM      4  N   UNL     1       4.846   3.636   3.377  0.00  0.00    +0.000 NA
ATOM      5  N   UNL     1       4.267   2.559   2.864  0.00  0.00    +0.000 NA
ENDROOT
BRANCH   3   6
ATOM      6  C   UNL     1       4.439   6.039   3.463  0.00  0.00    +0.000 A 
ATOM      7  C   UNL     1       3.382   6.881   3.879  0.00  0.00    +0.000 A 
ATOM      8  C   UNL     1       3.643   8.147   4.395  0.00  0.00    +0.000 A 
ATOM      9  C   UNL     1       4.953   8.591   4.485  0.00  0.00    +0.000 A 
ATOM     10  C   UNL     1       5.997   7.787   4.014  0.00  0.00    +0.000 A 
ATOM     11  C   UNL     1       5.785   6.497   3.468  0.00  0.00    +0.000 A 
BRANCH  11  12
ATOM     12  C   UNL     1       6.950   5.787   2.845  0.00  0.00    +0.000 A 
ATOM     13  C   UNL     1       8.258   5.915   3.355  0.00  0.00    +0.000 A 
ATOM     14  C   UNL     1       9.351   5.269   2.762  0.00  0.00    +0.000 A 
ATOM     15  C   UNL     1       9.162   4.438   1.664  0.00  0.00    +0.000 A 
ATOM     16  C   UNL     1       7.890   4.298   1.128  0.00  0.00    +0.000 A 
ATOM     17  C   UNL     1       6.815   5.001   1.683  0.00  0.00    +0.000 A 
ENDBRANCH  11  12
ENDBRANCH   3   6
BRANCH   1  18
ATOM     18  C   UNL     1       2.212   1.961   1.609  0.00  0.00    +0.000 C 
BRANCH  18  21
ATOM     19  O   UNL     1       0.339   1.389  -0.358  0.00  0.00    +0.000 OA
ATOM     20  C   UNL     1       1.496   1.597  -0.709  0.00  0.00    +0.000 C 
ATOM     21  N   UNL     1       2.485   1.940   0.183  0.00  0.00    +0.000 N 
ATOM     22  H   UNL     1       3.454   1.948  -0.126  0.00  0.00    +0.000 HD
BRANCH  20  23
ATOM     23  C   UNL     1       1.842   1.494  -2.149  0.00  0.00    +0.000 A 
ATOM     24  C   UNL     1       0.806   1.254  -3.059  0.00  0.00    +0.000 A 
ATOM     25  C   UNL     1       1.089   1.185  -4.415  0.00  0.00    +0.000 A 
ATOM     26  F   UNL     1       0.111   0.969  -5.296  0.00  0.00    +0.000 F 
ATOM     27  C   UNL     1       2.397   1.353  -4.840  0.00  0.00    +0.000 A 
ATOM     28  N   UNL     1       3.430   1.573  -3.993  0.00  0.00    +0.000 NA
ATOM     29  C   UNL     1       3.118   1.636  -2.680  0.00  0.00    +0.000 A 
BRANCH  29  30
ATOM     30  O   UNL     1       4.218   1.850  -1.913  0.00  0.00    +0.000 OA
ATOM     31  H   UNL     1       4.902   1.880  -2.610  0.00  0.00    +0.000 HD
ENDBRANCH  29  30
ENDBRANCH  20  23
ENDBRANCH  18  21
ENDBRANCH   1  18
TORSDOF 6
