REMARK  Name = 
REMARK  7 active torsions:
REMARK  status: ('A' for Active; 'I' for Inactive)
REMARK    1  A    between atoms: C_1  and  N_2
REMARK    2  A    between atoms: C_4  and  C_5
REMARK    3  A    between atoms: C_5  and  C_6
REMARK    4  A    between atoms: C_6  and  C_7
REMARK    5  A    between atoms: N_9  and  C_10
REMARK    6  A    between atoms: C_11  and  C_12
REMARK    7  A    between atoms: N_16  and  C_17
REMARK                            x       y       z     vdW  Elec       q    Type
REMARK                         _______ _______ _______ _____ _____    ______ ____
ROOT
ATOM      1  C   UNL     1       2.341  -5.446   0.249  0.00  0.00    +0.000 C 
ATOM      2  O   UNL     1       1.286  -6.026   0.490  0.00  0.00    +0.000 OA
ATOM      3  N   UNL     1       3.566  -6.107   0.131  0.00  0.00    +0.000 N 
ATOM      4  H   UNL     1       4.362  -5.547   0.417  0.00  0.00    +0.000 HD
ENDROOT
BRANCH   3   5
ATOM      5  C   UNL     1       3.695  -7.490   0.254  0.00  0.00    +0.000 A 
ATOM      6  C   UNL     1       3.032  -8.404  -0.491  0.00  0.00    +0.000 A 
ATOM      7  C   UNL     1       3.162  -9.858  -0.245  0.00  0.00    +0.000 A 
ATOM      8  O   UNL     1       2.602 -10.648  -1.004  0.00  0.00    +0.000 OA
ATOM      9  N   UNL     1       3.976 -10.217   0.846  0.00  0.00    +0.000 N 
ATOM     10  C   UNL     1       4.678  -9.260   1.568  0.00  0.00    +0.000 A 
ATOM     11  C   UNL     1       4.587  -7.953   1.292  0.00  0.00    +0.000 A 
BRANCH   9  12
ATOM     12  C   UNL     1       4.143 -11.610   1.112  0.00  0.00    +0.000 A 
ATOM     13  C   UNL     1       5.435 -12.144   1.232  0.00  0.00    +0.000 A 
ATOM     14  C   UNL     1       5.614 -13.517   1.382  0.00  0.00    +0.000 A 
ATOM     15  C   UNL     1       4.507 -14.361   1.459  0.00  0.00    +0.000 A 
ATOM     16  C   UNL     1       3.221 -13.837   1.378  0.00  0.00    +0.000 A 
ATOM     17  C   UNL     1       3.039 -12.466   1.195  0.00  0.00    +0.000 A 
ENDBRANCH   9  12
BRANCH   6  18
ATOM     18  C   UNL     1       2.062  -7.952  -1.571  0.00  0.00    +0.000 C 
ATOM     19  N   UNL     1       1.258  -7.578  -2.467  0.00  0.00    +0.000 NA
ENDBRANCH   6  18
ENDBRANCH   3   5
BRANCH   1  20
ATOM     20  C   UNL     1       2.423  -3.934   0.073  0.00  0.00    +0.000 C 
BRANCH  20  21
ATOM     21  C   UNL     1       1.361  -3.227   0.920  0.00  0.00    +0.000 C 
BRANCH  21  25
ATOM     22  C   UNL     1       0.360   1.480  -0.527  0.00  0.00    +0.000 C 
ATOM     23  N   UNL     1       0.954   0.366   0.172  0.00  0.00    +0.000 N 
ATOM     24  C   UNL     1       0.667  -0.952  -0.066  0.00  0.00    +0.000 A 
ATOM     25  C   UNL     1       1.405  -1.728   0.809  0.00  0.00    +0.000 A 
ATOM     26  C   UNL     1       2.169  -0.821   1.615  0.00  0.00    +0.000 A 
ATOM     27  C   UNL     1       3.078  -0.987   2.683  0.00  0.00    +0.000 A 
ATOM     28  C   UNL     1       3.669   0.135   3.275  0.00  0.00    +0.000 A 
ATOM     29  C   UNL     1       3.368   1.418   2.826  0.00  0.00    +0.000 A 
ATOM     30  C   UNL     1       2.463   1.611   1.777  0.00  0.00    +0.000 A 
ATOM     31  C   UNL     1       1.877   0.476   1.191  0.00  0.00    +0.000 A 
ENDBRANCH  21  25
ENDBRANCH  20  21
ENDBRANCH   1  20
TORSDOF 6
