REMARK  Name = 
REMARK  7 active torsions:
REMARK  status: ('A' for Active; 'I' for Inactive)
REMARK    1  A    between atoms: C_1  and  N_2
REMARK    2  A    between atoms: C_3  and  C_4
REMARK    3  A    between atoms: C_7  and  C_8
REMARK    4  A    between atoms: N_10  and  C_11
REMARK    5  A    between atoms: C_14  and  O_15
REMARK    6  A    between atoms: O_15  and  C_16
REMARK    7  A    between atoms: C_16  and  C_17
REMARK                            x       y       z     vdW  Elec       q    Type
REMARK                         _______ _______ _______ _____ _____    ______ ____
ROOT
ATOM      1  C   UNL     1       1.158   6.459  -0.059  0.00  0.00    +0.000 C 
ATOM      2  O   UNL     1       0.615   6.746   1.001  0.00  0.00    +0.000 OA
ATOM      3  N   UNL     1       1.356   7.308  -1.128  0.00  0.00    +0.000 N 
ATOM      4  H   UNL     1       1.631   6.891  -2.012  0.00  0.00    +0.000 HD
ENDROOT
BRANCH   1   8
ATOM      5  C   UNL     1       2.330   2.362  -0.533  0.00  0.00    +0.000 A 
ATOM      6  C   UNL     1       1.287   2.716   0.326  0.00  0.00    +0.000 A 
ATOM      7  C   UNL     1       0.905   4.052   0.445  0.00  0.00    +0.000 A 
ATOM      8  C   UNL     1       1.596   5.051  -0.252  0.00  0.00    +0.000 A 
ATOM      9  C   UNL     1       2.692   4.709  -1.052  0.00  0.00    +0.000 A 
ATOM     10  C   UNL     1       3.053   3.366  -1.194  0.00  0.00    +0.000 A 
BRANCH   5  13
ATOM     11  C   UNL     1       0.419  -0.164  -0.726  0.00  0.00    +0.000 C 
ATOM     12  N   UNL     1       1.864  -0.089  -0.747  0.00  0.00    +0.000 N 
ATOM     13  C   UNL     1       2.737   0.957  -0.722  0.00  0.00    +0.000 A 
ATOM     14  N   UNL     1       3.985   0.613  -0.909  0.00  0.00    +0.000 NA
ATOM     15  N   UNL     1       3.939  -0.745  -1.043  0.00  0.00    +0.000 N 
ATOM     16  C   UNL     1       2.637  -1.204  -0.957  0.00  0.00    +0.000 A 
ATOM     17  O   UNL     1       2.268  -2.363  -1.072  0.00  0.00    +0.000 OA
ATOM     18  H   UNL     1       4.758  -1.310  -1.220  0.00  0.00    +0.000 HD
ENDBRANCH   5  13
ENDBRANCH   1   8
BRANCH   3  19
ATOM     19  C   UNL     1       1.041   8.683  -1.158  0.00  0.00    +0.000 A 
ATOM     20  C   UNL     1       0.720   9.434  -0.030  0.00  0.00    +0.000 A 
ATOM     21  C   UNL     1       0.388  10.783  -0.163  0.00  0.00    +0.000 A 
ATOM     22  C   UNL     1       0.420  11.348  -1.424  0.00  0.00    +0.000 A 
ATOM     23  N   UNL     1       0.751  10.662  -2.539  0.00  0.00    +0.000 NA
ATOM     24  C   UNL     1       1.050   9.352  -2.379  0.00  0.00    +0.000 A 
BRANCH  22  25
ATOM     25  O   UNL     1       0.058  12.676  -1.521  0.00  0.00    +0.000 OA
BRANCH  25  26
ATOM     26  C   UNL     1       0.554  13.267  -2.722  0.00  0.00    +0.000 C 
BRANCH  26  27
ATOM     27  C   UNL     1       0.077  14.696  -2.843  0.00  0.00    +0.000 A 
ATOM     28  C   UNL     1       0.292  15.624  -1.814  0.00  0.00    +0.000 A 
ATOM     29  C   UNL     1      -0.086  16.958  -1.977  0.00  0.00    +0.000 A 
ATOM     30  C   UNL     1      -0.682  17.377  -3.167  0.00  0.00    +0.000 A 
ATOM     31  C   UNL     1      -0.908  16.462  -4.192  0.00  0.00    +0.000 A 
ATOM     32  C   UNL     1      -0.531  15.129  -4.031  0.00  0.00    +0.000 A 
ENDBRANCH  26  27
ENDBRANCH  25  26
ENDBRANCH  22  25
ENDBRANCH   3  19
TORSDOF 6
