REMARK  Name = 
REMARK  5 active torsions:
REMARK  status: ('A' for Active; 'I' for Inactive)
REMARK    1  A    between atoms: C_2  and  C_24
REMARK    2  A    between atoms: N_3  and  C_4
REMARK    3  A    between atoms: C_8  and  N_9
REMARK    4  A    between atoms: C_10  and  C_12
REMARK    5  A    between atoms: C_15  and  O_16
REMARK                            x       y       z     vdW  Elec       q    Type
REMARK                         _______ _______ _______ _____ _____    ______ ____
ROOT
ATOM      1  C   UNL     1       2.122  -1.001  -2.361  0.00  0.00    +0.000 A 
ATOM      2  C   UNL     1       1.029  -0.243  -2.791  0.00  0.00    +0.000 A 
ATOM      3  C   UNL     1       0.343  -0.574  -3.950  0.00  0.00    +0.000 A 
ATOM      4  C   UNL     1       0.757  -1.656  -4.717  0.00  0.00    +0.000 A 
ATOM      5  C   UNL     1       1.876  -2.406  -4.356  0.00  0.00    +0.000 A 
ATOM      6  C   UNL     1       2.561  -2.071  -3.169  0.00  0.00    +0.000 A 
ENDROOT
BRANCH   1   9
ATOM      7  O   UNL     1       1.148   0.582  -0.102  0.00  0.00    +0.000 OA
ATOM      8  C   UNL     1       2.260   0.063  -0.121  0.00  0.00    +0.000 C 
ATOM      9  N   UNL     1       2.789  -0.723  -1.139  0.00  0.00    +0.000 N 
ATOM     10  H   UNL     1       3.625  -1.256  -0.937  0.00  0.00    +0.000 HD
BRANCH   8  11
ATOM     11  C   UNL     1       3.094   0.244   1.094  0.00  0.00    +0.000 A 
ATOM     12  C   UNL     1       2.426   0.337   2.328  0.00  0.00    +0.000 A 
ATOM     13  C   UNL     1       3.139   0.580   3.500  0.00  0.00    +0.000 A 
ATOM     14  C   UNL     1       4.515   0.739   3.433  0.00  0.00    +0.000 A 
ATOM     15  F   UNL     1       5.204   0.985   4.556  0.00  0.00    +0.000 F 
ATOM     16  C   UNL     1       5.192   0.663   2.217  0.00  0.00    +0.000 A 
ATOM     17  C   UNL     1       4.482   0.416   1.037  0.00  0.00    +0.000 A 
ENDBRANCH   8  11
ENDBRANCH   1   9
BRANCH   5  18
ATOM     18  N   UNL     1       2.333  -3.511  -5.128  0.00  0.00    +0.000 N 
ATOM     19  C   UNL     1       1.813  -3.913  -6.357  0.00  0.00    +0.000 C 
ATOM     20  O   UNL     1       0.922  -3.352  -6.984  0.00  0.00    +0.000 OA
ATOM     21  H   UNL     1       3.087  -4.048  -4.719  0.00  0.00    +0.000 HD
BRANCH  19  22
ATOM     22  C   UNL     1       2.406  -5.128  -6.973  0.00  0.00    +0.000 A 
ATOM     23  C   UNL     1       3.789  -5.292  -6.938  0.00  0.00    +0.000 A 
ATOM     24  N   UNL     1       4.447  -6.339  -7.484  0.00  0.00    +0.000 NA
ATOM     25  C   UNL     1       3.680  -7.238  -8.122  0.00  0.00    +0.000 A 
ATOM     26  C   UNL     1       2.293  -7.175  -8.262  0.00  0.00    +0.000 A 
ATOM     27  C   UNL     1       1.545  -8.132  -8.959  0.00  0.00    +0.000 A 
ATOM     28  N   UNL     1       0.203  -8.087  -9.124  0.00  0.00    +0.000 NA
ATOM     29  C   UNL     1      -0.431  -7.038  -8.570  0.00  0.00    +0.000 A 
ATOM     30  C   UNL     1       0.214  -6.044  -7.847  0.00  0.00    +0.000 A 
ATOM     31  C   UNL     1       1.619  -6.086  -7.677  0.00  0.00    +0.000 A 
BRANCH  25  32
ATOM     32  O   UNL     1       4.400  -8.259  -8.654  0.00  0.00    +0.000 OA
ATOM     33  H   UNL     1       5.301  -7.990  -8.402  0.00  0.00    +0.000 HD
ENDBRANCH  25  32
ENDBRANCH  19  22
ENDBRANCH   5  18
TORSDOF 5
