REMARK  Name = 
REMARK  9 active torsions:
REMARK  status: ('A' for Active; 'I' for Inactive)
REMARK    1  A    between atoms: C_1  and  O_2
REMARK    2  A    between atoms: O_2  and  C_3
REMARK    3  A    between atoms: C_3  and  C_5
REMARK    4  A    between atoms: C_5  and  N_6
REMARK    5  A    between atoms: C_5  and  C_23
REMARK    6  A    between atoms: C_7  and  C_9
REMARK    7  A    between atoms: C_13  and  O_14
REMARK    8  A    between atoms: O_14  and  C_15
REMARK    9  A    between atoms: C_15  and  C_16
REMARK                            x       y       z     vdW  Elec       q    Type
REMARK                         _______ _______ _______ _____ _____    ______ ____
ROOT
ATOM      1  N   UNL     1       5.197  -0.236  -1.202  0.00  0.00    +0.000 N 
ATOM      2  C   UNL     1       4.982  -1.461  -0.608  0.00  0.00    +0.000 C 
ATOM      3  O   UNL     1       4.471  -1.592   0.497  0.00  0.00    +0.000 OA
ATOM      4  H   UNL     1       5.532  -0.184  -2.154  0.00  0.00    +0.000 HD
ENDROOT
BRANCH   2   5
ATOM      5  C   UNL     1       5.423  -2.665  -1.364  0.00  0.00    +0.000 A 
ATOM      6  C   UNL     1       5.873  -3.767  -0.634  0.00  0.00    +0.000 A 
ATOM      7  C   UNL     1       6.278  -4.886  -1.333  0.00  0.00    +0.000 A 
ATOM      8  N   UNL     1       6.274  -4.965  -2.680  0.00  0.00    +0.000 NA
ATOM      9  C   UNL     1       5.821  -3.893  -3.364  0.00  0.00    +0.000 A 
ATOM     10  C   UNL     1       5.367  -2.734  -2.757  0.00  0.00    +0.000 A 
BRANCH   9  11
ATOM     11  O   UNL     1       5.763  -3.952  -4.744  0.00  0.00    +0.000 OA
BRANCH  11  12
ATOM     12  C   UNL     1       6.689  -4.909  -5.272  0.00  0.00    +0.000 C 
BRANCH  12  13
ATOM     13  C   UNL     1       6.529  -5.027  -6.772  0.00  0.00    +0.000 A 
ATOM     14  C   UNL     1       7.568  -4.656  -7.639  0.00  0.00    +0.000 A 
ATOM     15  C   UNL     1       7.437  -4.828  -9.019  0.00  0.00    +0.000 A 
ATOM     16  C   UNL     1       6.269  -5.373  -9.548  0.00  0.00    +0.000 A 
ATOM     17  C   UNL     1       5.229  -5.745  -8.698  0.00  0.00    +0.000 A 
ATOM     18  C   UNL     1       5.357  -5.572  -7.317  0.00  0.00    +0.000 A 
ENDBRANCH  12  13
ENDBRANCH  11  12
ENDBRANCH   9  11
ENDBRANCH   2   5
BRANCH   1  19
ATOM     19  C   UNL     1       4.584   0.973  -0.646  0.00  0.00    +0.000 C 
BRANCH  19  20
ATOM     20  C   UNL     1       5.444   2.196  -0.917  0.00  0.00    +0.000 A 
ATOM     21  C   UNL     1       6.058   2.881   0.146  0.00  0.00    +0.000 A 
ATOM     22  C   UNL     1       6.785   4.051  -0.092  0.00  0.00    +0.000 A 
ATOM     23  C   UNL     1       6.911   4.534  -1.390  0.00  0.00    +0.000 A 
ATOM     24  F   UNL     1       7.596   5.664  -1.609  0.00  0.00    +0.000 F 
ATOM     25  C   UNL     1       6.336   3.863  -2.458  0.00  0.00    +0.000 A 
ATOM     26  C   UNL     1       5.609   2.701  -2.214  0.00  0.00    +0.000 A 
ATOM     27  F   UNL     1       5.056   2.056  -3.251  0.00  0.00    +0.000 F 
ENDBRANCH  19  20
BRANCH  19  28
ATOM     28  C   UNL     1       3.123   1.203  -1.114  0.00  0.00    +0.000 C 
ATOM     29  O   UNL     1       2.433   2.157  -0.765  0.00  0.00    +0.000 OA
BRANCH  28  31
ATOM     30  C   UNL     1       1.354   0.353  -2.414  0.00  0.00    +0.000 C 
ATOM     31  O   UNL     1       2.703   0.219  -1.963  0.00  0.00    +0.000 OA
ENDBRANCH  28  31
ENDBRANCH  19  28
ENDBRANCH   1  19
TORSDOF 8
