REMARK  Name = 
REMARK  6 active torsions:
REMARK  status: ('A' for Active; 'I' for Inactive)
REMARK    1  A    between atoms: C_2  and  C_15
REMARK    2  A    between atoms: N_3  and  C_4
REMARK    3  A    between atoms: C_8  and  C_9
REMARK    4  A    between atoms: C_17  and  C_18
REMARK    5  A    between atoms: C_18  and  O_19
REMARK    6  A    between atoms: O_19  and  C_20
REMARK                            x       y       z     vdW  Elec       q    Type
REMARK                         _______ _______ _______ _____ _____    ______ ____
ROOT
ATOM      1  O   UNL     1       2.849  -0.350   1.062  0.00  0.00    +0.000 OA
ATOM      2  C   UNL     1       2.228  -0.248   0.009  0.00  0.00    +0.000 C 
ATOM      3  N   UNL     1       0.854  -0.172  -0.139  0.00  0.00    +0.000 N 
ATOM      4  H   UNL     1       0.428  -0.302  -1.054  0.00  0.00    +0.000 HD
ENDROOT
BRANCH   3   5
ATOM      5  C   UNL     1      -0.037  -0.178   0.923  0.00  0.00    +0.000 A 
ATOM      6  C   UNL     1       0.253   0.065   2.242  0.00  0.00    +0.000 A 
ATOM      7  N   UNL     1      -0.910  -0.090   2.922  0.00  0.00    +0.000 N 
ATOM      8  N   UNL     1      -1.958  -0.394   2.143  0.00  0.00    +0.000 NA
ATOM      9  C   UNL     1      -1.442  -0.465   0.899  0.00  0.00    +0.000 A 
ATOM     10  H   UNL     1      -1.057  -0.014   3.923  0.00  0.00    +0.000 HD
BRANCH   9  11
ATOM     11  C   UNL     1      -2.261  -0.869  -0.247  0.00  0.00    +0.000 A 
ATOM     12  C   UNL     1      -3.591  -1.250  -0.075  0.00  0.00    +0.000 A 
ATOM     13  N   UNL     1      -4.374  -1.695  -1.093  0.00  0.00    +0.000 NA
ATOM     14  C   UNL     1      -3.771  -1.740  -2.299  0.00  0.00    +0.000 A 
ATOM     15  C   UNL     1      -2.453  -1.351  -2.485  0.00  0.00    +0.000 A 
ATOM     16  N   UNL     1      -1.664  -0.909  -1.474  0.00  0.00    +0.000 NA
ENDBRANCH   9  11
ENDBRANCH   3   5
BRANCH   2  17
ATOM     17  C   UNL     1       2.996  -0.261  -1.263  0.00  0.00    +0.000 A 
ATOM     18  C   UNL     1       2.597   0.522  -2.349  0.00  0.00    +0.000 A 
ATOM     19  C   UNL     1       3.357   0.533  -3.525  0.00  0.00    +0.000 A 
ATOM     20  C   UNL     1       4.506  -0.266  -3.607  0.00  0.00    +0.000 A 
ATOM     21  C   UNL     1       4.909  -1.043  -2.520  0.00  0.00    +0.000 A 
ATOM     22  C   UNL     1       4.159  -1.037  -1.345  0.00  0.00    +0.000 A 
BRANCH  19  23
ATOM     23  C   UNL     1       2.938   1.392  -4.690  0.00  0.00    +0.000 C 
BRANCH  23  24
ATOM     24  O   UNL     1       2.063   0.637  -5.526  0.00  0.00    +0.000 OA
BRANCH  24  25
ATOM     25  C   UNL     1       1.654   1.254  -6.676  0.00  0.00    +0.000 A 
ATOM     26  C   UNL     1       1.944   2.566  -7.043  0.00  0.00    +0.000 A 
ATOM     27  C   UNL     1       1.481   3.064  -8.254  0.00  0.00    +0.000 A 
ATOM     28  F   UNL     1       1.769   4.327  -8.599  0.00  0.00    +0.000 F 
ATOM     29  C   UNL     1       0.737   2.274  -9.123  0.00  0.00    +0.000 A 
ATOM     30  C   UNL     1       0.438   0.962  -8.759  0.00  0.00    +0.000 A 
ATOM     31  C   UNL     1       0.887   0.459  -7.536  0.00  0.00    +0.000 A 
ENDBRANCH  24  25
ENDBRANCH  23  24
ENDBRANCH  19  23
ENDBRANCH   2  17
TORSDOF 6
