REMARK  Name = 
REMARK  6 active torsions:
REMARK  status: ('A' for Active; 'I' for Inactive)
REMARK    1  A    between atoms: C_2  and  C_3
REMARK    2  A    between atoms: C_6  and  O_7
REMARK    3  A    between atoms: C_8  and  C_9
REMARK    4  A    between atoms: C_17  and  O_18
REMARK    5  A    between atoms: O_18  and  C_19
REMARK    6  A    between atoms: C_19  and  C_20
REMARK                            x       y       z     vdW  Elec       q    Type
REMARK                         _______ _______ _______ _____ _____    ______ ____
ROOT
ATOM      1  C   UNL     1      -1.915   2.481   0.148  0.00  0.00    +0.000 A 
ATOM      2  C   UNL     1      -2.730   2.760   1.169  0.00  0.00    +0.000 A 
ATOM      3  C   UNL     1      -3.439   4.038   1.194  0.00  0.00    +0.000 A 
ATOM      4  O   UNL     1      -4.146   4.298   2.167  0.00  0.00    +0.000 OA
ATOM      5  N   UNL     1      -3.254   4.847   0.086  0.00  0.00    +0.000 N 
ATOM      6  C   UNL     1      -3.920   6.062   0.037  0.00  0.00    +0.000 A 
ATOM      7  C   UNL     1      -3.799   6.888  -1.005  0.00  0.00    +0.000 A 
ATOM      8  C   UNL     1      -2.977   6.516  -2.121  0.00  0.00    +0.000 A 
ATOM      9  C   UNL     1      -2.289   5.366  -2.147  0.00  0.00    +0.000 A 
ATOM     10  C   UNL     1      -2.409   4.438  -0.950  0.00  0.00    +0.000 A 
ATOM     11  N   UNL     1      -1.757   3.316  -0.925  0.00  0.00    +0.000 NA
ENDROOT
BRANCH   1  16
ATOM     12  C   UNL     1      -0.169  -0.575  -1.258  0.00  0.00    +0.000 A 
ATOM     13  C   UNL     1       0.248  -1.231  -0.096  0.00  0.00    +0.000 A 
ATOM     14  C   UNL     1      -0.043  -0.694   1.158  0.00  0.00    +0.000 A 
ATOM     15  C   UNL     1      -0.738   0.510   1.250  0.00  0.00    +0.000 A 
ATOM     16  C   UNL     1      -1.183   1.188   0.102  0.00  0.00    +0.000 A 
ATOM     17  C   UNL     1      -0.886   0.620  -1.155  0.00  0.00    +0.000 A 
BRANCH  15  18
ATOM     18  O   UNL     1      -0.965   1.036   2.492  0.00  0.00    +0.000 OA
ATOM     19  H   UNL     1      -0.697   0.409   3.179  0.00  0.00    +0.000 HD
ENDBRANCH  15  18
BRANCH  12  21
ATOM     20  N   UNL     1       0.399  -1.577  -3.587  0.00  0.00    +0.000 NA
ATOM     21  C   UNL     1       0.137  -1.127  -2.545  0.00  0.00    +0.000 C 
ENDBRANCH  12  21
ENDBRANCH   1  16
BRANCH   9  22
ATOM     22  O   UNL     1      -1.557   5.072  -3.293  0.00  0.00    +0.000 OA
BRANCH  22  23
ATOM     23  C   UNL     1      -0.390   4.268  -3.120  0.00  0.00    +0.000 C 
BRANCH  23  24
ATOM     24  C   UNL     1       0.634   4.606  -4.177  0.00  0.00    +0.000 A 
ATOM     25  C   UNL     1       1.142   5.909  -4.274  0.00  0.00    +0.000 A 
ATOM     26  C   UNL     1       2.159   6.205  -5.179  0.00  0.00    +0.000 A 
ATOM     27  C   UNL     1       2.686   5.200  -5.989  0.00  0.00    +0.000 A 
ATOM     28  C   UNL     1       2.189   3.900  -5.901  0.00  0.00    +0.000 A 
ATOM     29  C   UNL     1       1.162   3.605  -5.005  0.00  0.00    +0.000 A 
ENDBRANCH  23  24
ENDBRANCH  22  23
ENDBRANCH   9  22
TORSDOF 6
