REMARK  Name = 
REMARK  6 active torsions:
REMARK  status: ('A' for Active; 'I' for Inactive)
REMARK    1  A    between atoms: C_2  and  C_26
REMARK    2  A    between atoms: N_3  and  C_4
REMARK    3  A    between atoms: C_4  and  C_5
REMARK    4  A    between atoms: C_5  and  N_6
REMARK    5  A    between atoms: C_5  and  C_19
REMARK    6  A    between atoms: C_7  and  C_9
REMARK                            x       y       z     vdW  Elec       q    Type
REMARK                         _______ _______ _______ _____ _____    ______ ____
ROOT
ATOM      1  C   UNL     1       3.238  -2.644   2.368  0.00  0.00    +0.000 C 
ENDROOT
BRANCH   1   2
ATOM      2  C   UNL     1       2.544  -3.691   3.225  0.00  0.00    +0.000 A 
ATOM      3  C   UNL     1       1.264  -3.480   3.767  0.00  0.00    +0.000 A 
ATOM      4  C   UNL     1       0.650  -4.446   4.561  0.00  0.00    +0.000 A 
ATOM      5  C   UNL     1       1.308  -5.639   4.838  0.00  0.00    +0.000 A 
ATOM      6  C   UNL     1       2.584  -5.861   4.324  0.00  0.00    +0.000 A 
ATOM      7  C   UNL     1       3.192  -4.893   3.529  0.00  0.00    +0.000 A 
ATOM      8  F   UNL     1       4.426  -5.128   3.058  0.00  0.00    +0.000 F 
ENDBRANCH   1   2
BRANCH   1   9
ATOM      9  N   UNL     1       4.133  -1.815   3.176  0.00  0.00    +0.000 N 
ATOM     10  C   UNL     1       3.690  -0.935   4.138  0.00  0.00    +0.000 C 
ATOM     11  O   UNL     1       2.509  -0.732   4.394  0.00  0.00    +0.000 OA
ATOM     12  H   UNL     1       5.113  -2.049   3.126  0.00  0.00    +0.000 HD
BRANCH  10  13
ATOM     13  C   UNL     1       4.733  -0.208   4.906  0.00  0.00    +0.000 A 
ATOM     14  C   UNL     1       5.960   0.141   4.335  0.00  0.00    +0.000 A 
ATOM     15  C   UNL     1       6.875   0.897   5.067  0.00  0.00    +0.000 A 
ATOM     16  C   UNL     1       6.579   1.310   6.377  0.00  0.00    +0.000 A 
ATOM     17  C   UNL     1       7.450   2.087   7.143  0.00  0.00    +0.000 A 
ATOM     18  N   UNL     1       7.196   2.506   8.404  0.00  0.00    +0.000 NA
ATOM     19  C   UNL     1       6.014   2.135   8.937  0.00  0.00    +0.000 A 
ATOM     20  C   UNL     1       5.071   1.371   8.268  0.00  0.00    +0.000 A 
ATOM     21  C   UNL     1       5.348   0.951   6.962  0.00  0.00    +0.000 A 
ATOM     22  C   UNL     1       4.431   0.194   6.216  0.00  0.00    +0.000 A 
ENDBRANCH  10  13
ENDBRANCH   1   9
BRANCH   1  23
ATOM     23  C   UNL     1       2.247  -1.822   1.498  0.00  0.00    +0.000 C 
BRANCH  23  26
ATOM     24  O   UNL     1       4.020  -2.456  -0.614  0.00  0.00    +0.000 OA
ATOM     25  C   UNL     1       3.683  -1.287  -0.444  0.00  0.00    +0.000 C 
ATOM     26  N   UNL     1       2.858  -0.885   0.576  0.00  0.00    +0.000 N 
ATOM     27  H   UNL     1       2.449   0.034   0.522  0.00  0.00    +0.000 HD
BRANCH  25  28
ATOM     28  C   UNL     1       4.127  -0.208  -1.319  0.00  0.00    +0.000 A 
ATOM     29  C   UNL     1       4.915  -0.394  -2.443  0.00  0.00    +0.000 A 
ATOM     30  N   UNL     1       5.145   0.821  -3.028  0.00  0.00    +0.000 N 
ATOM     31  C   UNL     1       4.531   1.798  -2.296  0.00  0.00    +0.000 A 
ATOM     32  C   UNL     1       3.897   1.194  -1.231  0.00  0.00    +0.000 A 
ATOM     33  H   UNL     1       5.690   0.970  -3.867  0.00  0.00    +0.000 HD
ENDBRANCH  25  28
ENDBRANCH  23  26
ENDBRANCH   1  23
TORSDOF 6
