REMARK  Name = 
REMARK  10 active torsions:
REMARK  status: ('A' for Active; 'I' for Inactive)
REMARK    1  A    between atoms: C_1  and  C_2
REMARK    2  A    between atoms: C_2  and  N_3
REMARK    3  A    between atoms: N_3  and  C_4
REMARK    4  A    between atoms: N_3  and  C_6
REMARK    5  A    between atoms: C_4  and  C_5
REMARK    6  A    between atoms: C_6  and  C_7
REMARK    7  A    between atoms: C_7  and  N_8
REMARK    8  A    between atoms: C_7  and  C_28
REMARK    9  A    between atoms: C_9  and  C_11
REMARK   10  A    between atoms: C_14  and  N_15
REMARK                            x       y       z     vdW  Elec       q    Type
REMARK                         _______ _______ _______ _____ _____    ______ ____
ROOT
ATOM      1  N   UNL     1       4.397   3.294   1.739  0.00  0.00    +0.000 N 
ATOM      2  C   UNL     1       3.973   4.593   1.873  0.00  0.00    +0.000 C 
ATOM      3  O   UNL     1       3.885   5.375   0.931  0.00  0.00    +0.000 OA
ATOM      4  H   UNL     1       4.582   2.738   2.558  0.00  0.00    +0.000 HD
ENDROOT
BRANCH   2   5
ATOM      5  C   UNL     1       3.527   5.024   3.229  0.00  0.00    +0.000 A 
ATOM      6  C   UNL     1       3.402   6.395   3.464  0.00  0.00    +0.000 A 
ATOM      7  C   UNL     1       2.558   6.856   4.474  0.00  0.00    +0.000 A 
ATOM      8  C   UNL     1       1.742   5.927   5.138  0.00  0.00    +0.000 A 
ATOM      9  C   UNL     1       2.137   4.579   5.153  0.00  0.00    +0.000 A 
ATOM     10  C   UNL     1       3.010   4.120   4.164  0.00  0.00    +0.000 A 
BRANCH   8  11
ATOM     11  N   UNL     1       0.334   6.284   5.376  0.00  0.00    +0.000 N 
ATOM     12  C   UNL     1      -0.525   5.201   5.386  0.00  0.00    +0.000 A 
ATOM     13  N   UNL     1      -1.073   4.700   4.319  0.00  0.00    +0.000 NA
ATOM     14  C   UNL     1      -0.718   5.345   3.111  0.00  0.00    +0.000 A 
ATOM     15  C   UNL     1      -0.573   4.625   1.929  0.00  0.00    +0.000 A 
ATOM     16  C   UNL     1      -0.035   5.246   0.794  0.00  0.00    +0.000 A 
ATOM     17  C   UNL     1       0.299   6.604   0.815  0.00  0.00    +0.000 A 
ATOM     18  C   UNL     1       0.124   7.349   1.979  0.00  0.00    +0.000 A 
ATOM     19  C   UNL     1      -0.343   6.694   3.118  0.00  0.00    +0.000 A 
ATOM     20  C   UNL     1      -0.125   7.250   4.475  0.00  0.00    +0.000 A 
ATOM     21  O   UNL     1      -0.286   8.442   4.726  0.00  0.00    +0.000 OA
ENDBRANCH   8  11
ENDBRANCH   2   5
BRANCH   1  22
ATOM     22  C   UNL     1       4.827   2.757   0.454  0.00  0.00    +0.000 C 
BRANCH  22  23
ATOM     23  C   UNL     1       6.350   2.777   0.392  0.00  0.00    +0.000 A 
ATOM     24  C   UNL     1       7.004   3.549  -0.581  0.00  0.00    +0.000 A 
ATOM     25  C   UNL     1       8.398   3.571  -0.650  0.00  0.00    +0.000 A 
ATOM     26  C   UNL     1       9.156   2.833   0.258  0.00  0.00    +0.000 A 
ATOM     27  C   UNL     1       8.523   2.076   1.240  0.00  0.00    +0.000 A 
ATOM     28  C   UNL     1       7.129   2.050   1.307  0.00  0.00    +0.000 A 
ENDBRANCH  22  23
BRANCH  22  29
ATOM     29  C   UNL     1       4.278   1.312   0.206  0.00  0.00    +0.000 C 
BRANCH  29  30
ATOM     30  N   UNL     1       2.805   1.104   0.340  0.00  0.00    +0.000 NA
BRANCH  30  32
ATOM     31  C   UNL     1       0.571   1.728  -0.690  0.00  0.00    +0.000 C 
ATOM     32  C   UNL     1       2.095   1.851  -0.726  0.00  0.00    +0.000 C 
ENDBRANCH  30  32
BRANCH  30  33
ATOM     33  C   UNL     1       2.477  -0.337   0.273  0.00  0.00    +0.000 C 
ATOM     34  C   UNL     1       3.053  -1.188   1.407  0.00  0.00    +0.000 C 
ENDBRANCH  30  33
ENDBRANCH  29  30
ENDBRANCH  22  29
ENDBRANCH   1  22
TORSDOF 8
