REMARK  Name = 
REMARK  5 active torsions:
REMARK  status: ('A' for Active; 'I' for Inactive)
REMARK    1  A    between atoms: C_2  and  C_17
REMARK    2  A    between atoms: N_3  and  C_4
REMARK    3  A    between atoms: C_8  and  N_9
REMARK    4  A    between atoms: N_19  and  C_20
REMARK    5  A    between atoms: C_22  and  O_23
REMARK                            x       y       z     vdW  Elec       q    Type
REMARK                         _______ _______ _______ _____ _____    ______ ____
ROOT
ATOM      1  O   UNL     1       0.918   0.228  -0.046  0.00  0.00    +0.000 OA
ATOM      2  C   UNL     1       2.136   0.117   0.019  0.00  0.00    +0.000 C 
ATOM      3  N   UNL     1       2.801  -0.977   0.549  0.00  0.00    +0.000 N 
ATOM      4  H   UNL     1       3.782  -0.868   0.770  0.00  0.00    +0.000 HD
ENDROOT
BRANCH   3   5
ATOM      5  C   UNL     1       2.166  -2.155   0.999  0.00  0.00    +0.000 A 
ATOM      6  C   UNL     1       0.865  -2.503   0.625  0.00  0.00    +0.000 A 
ATOM      7  C   UNL     1       0.254  -3.643   1.142  0.00  0.00    +0.000 A 
ATOM      8  F   UNL     1      -1.015  -3.876   0.782  0.00  0.00    +0.000 F 
ATOM      9  C   UNL     1       0.917  -4.455   2.057  0.00  0.00    +0.000 A 
ATOM     10  C   UNL     1       2.228  -4.124   2.405  0.00  0.00    +0.000 A 
ATOM     11  F   UNL     1       2.943  -4.897   3.235  0.00  0.00    +0.000 F 
ATOM     12  C   UNL     1       2.863  -3.003   1.860  0.00  0.00    +0.000 A 
BRANCH   9  13
ATOM     13  N   UNL     1       0.272  -5.578   2.616  0.00  0.00    +0.000 N 
ATOM     14  C   UNL     1      -0.746  -6.319   2.055  0.00  0.00    +0.000 A 
ATOM     15  C   UNL     1      -1.030  -7.317   2.955  0.00  0.00    +0.000 A 
ATOM     16  N   UNL     1      -0.248  -7.203   4.068  0.00  0.00    +0.000 NA
ATOM     17  C   UNL     1       0.518  -6.159   3.841  0.00  0.00    +0.000 A 
ENDBRANCH   9  13
ENDBRANCH   3   5
BRANCH   2  18
ATOM     18  C   UNL     1       2.978   1.204  -0.445  0.00  0.00    +0.000 A 
ATOM     19  C   UNL     1       2.475   2.424  -0.852  0.00  0.00    +0.000 A 
ATOM     20  N   UNL     1       3.520   3.190  -1.302  0.00  0.00    +0.000 N 
ATOM     21  N   UNL     1       4.701   2.530  -1.151  0.00  0.00    +0.000 NA
ATOM     22  C   UNL     1       4.363   1.343  -0.640  0.00  0.00    +0.000 A 
BRANCH  20  23
ATOM     23  C   UNL     1       3.451   4.486  -1.877  0.00  0.00    +0.000 A 
ATOM     24  C   UNL     1       4.616   5.086  -2.373  0.00  0.00    +0.000 A 
ATOM     25  C   UNL     1       4.542   6.350  -2.955  0.00  0.00    +0.000 A 
ATOM     26  C   UNL     1       3.331   7.031  -3.036  0.00  0.00    +0.000 A 
ATOM     27  C   UNL     1       2.172   6.438  -2.543  0.00  0.00    +0.000 A 
ATOM     28  C   UNL     1       2.225   5.167  -1.969  0.00  0.00    +0.000 A 
BRANCH  25  29
ATOM     29  O   UNL     1       5.644   6.957  -3.475  0.00  0.00    +0.000 OA
ATOM     30  H   UNL     1       6.385   6.331  -3.441  0.00  0.00    +0.000 HD
ENDBRANCH  25  29
ENDBRANCH  20  23
ENDBRANCH   2  18
TORSDOF 5
