REMARK  Name = 
REMARK  10 active torsions:
REMARK  status: ('A' for Active; 'I' for Inactive)
REMARK    1  A    between atoms: C_1  and  O_2
REMARK    2  A    between atoms: O_2  and  C_3
REMARK    3  A    between atoms: C_6  and  C_7
REMARK    4  A    between atoms: C_7  and  C_8
REMARK    5  A    between atoms: C_8  and  N_9
REMARK    6  A    between atoms: C_8  and  C_23
REMARK    7  A    between atoms: C_10  and  C_12
REMARK    8  A    between atoms: C_21  and  N_22
REMARK    9  A    between atoms: C_30  and  O_31
REMARK   10  A    between atoms: O_31  and  C_32
REMARK                            x       y       z     vdW  Elec       q    Type
REMARK                         _______ _______ _______ _____ _____    ______ ____
ROOT
ATOM      1  C   UNL     1       4.446  -1.035  -5.960  0.00  0.00    +0.000 C 
ENDROOT
BRANCH   1   2
ATOM      2  C   UNL     1       5.171  -1.660  -7.162  0.00  0.00    +0.000 A 
ATOM      3  C   UNL     1       4.465  -2.424  -8.101  0.00  0.00    +0.000 A 
ATOM      4  C   UNL     1       5.125  -3.026  -9.180  0.00  0.00    +0.000 A 
ATOM      5  C   UNL     1       6.502  -2.872  -9.341  0.00  0.00    +0.000 A 
ATOM      6  C   UNL     1       7.223  -2.134  -8.413  0.00  0.00    +0.000 A 
ATOM      7  C   UNL     1       6.565  -1.547  -7.330  0.00  0.00    +0.000 A 
ENDBRANCH   1   2
BRANCH   1   8
ATOM      8  N   UNL     1       4.326   0.437  -6.101  0.00  0.00    +0.000 N 
ATOM      9  C   UNL     1       5.379   1.325  -5.990  0.00  0.00    +0.000 C 
ATOM     10  O   UNL     1       6.526   0.969  -5.727  0.00  0.00    +0.000 OA
ATOM     11  H   UNL     1       3.418   0.809  -6.356  0.00  0.00    +0.000 HD
BRANCH   9  12
ATOM     12  C   UNL     1       5.139   2.792  -5.985  0.00  0.00    +0.000 A 
ATOM     13  N   UNL     1       4.191   3.473  -6.647  0.00  0.00    +0.000 NA
ATOM     14  N   UNL     1       3.704   4.692  -6.058  0.00  0.00    +0.000 NA
ATOM     15  C   UNL     1       3.806   4.857  -4.704  0.00  0.00    +0.000 A 
ATOM     16  C   UNL     1       2.935   5.574  -3.892  0.00  0.00    +0.000 A 
ATOM     17  C   UNL     1       2.205   4.847  -2.951  0.00  0.00    +0.000 A 
ATOM     18  C   UNL     1       2.465   3.486  -2.821  0.00  0.00    +0.000 A 
ATOM     19  C   UNL     1       3.644   2.992  -3.364  0.00  0.00    +0.000 A 
ATOM     20  C   UNL     1       4.480   3.831  -4.120  0.00  0.00    +0.000 A 
ATOM     21  C   UNL     1       5.594   3.407  -4.850  0.00  0.00    +0.000 A 
BRANCH  21  22
ATOM     22  N   UNL     1       6.630   4.453  -5.089  0.00  0.00    +0.000 N 
ATOM     23  H   UNL     1       6.201   5.198  -5.668  0.00  0.00    +0.000 HD
ATOM     24  H   UNL     1       7.385   4.048  -5.641  0.00  0.00    +0.000 HD
ENDBRANCH  21  22
ENDBRANCH   9  12
ENDBRANCH   1   8
BRANCH   1  25
ATOM     25  C   UNL     1       5.072  -1.596  -4.640  0.00  0.00    +0.000 C 
BRANCH  25  29
ATOM     26  C   UNL     1       3.310  -1.397  -0.660  0.00  0.00    +0.000 A 
ATOM     27  C   UNL     1       4.172  -0.404  -1.136  0.00  0.00    +0.000 A 
ATOM     28  C   UNL     1       4.684  -0.444  -2.435  0.00  0.00    +0.000 A 
ATOM     29  C   UNL     1       4.336  -1.464  -3.321  0.00  0.00    +0.000 A 
ATOM     30  C   UNL     1       3.421  -2.433  -2.866  0.00  0.00    +0.000 A 
ATOM     31  C   UNL     1       2.899  -2.391  -1.568  0.00  0.00    +0.000 A 
BRANCH  26  33
ATOM     32  C   UNL     1       3.583  -0.696   1.608  0.00  0.00    +0.000 C 
ATOM     33  O   UNL     1       2.872  -1.456   0.636  0.00  0.00    +0.000 OA
ENDBRANCH  26  33
BRANCH  31  34
ATOM     34  O   UNL     1       2.065  -3.459  -1.271  0.00  0.00    +0.000 OA
ATOM     35  C   UNL     1       1.058  -3.239  -0.285  0.00  0.00    +0.000 C 
ENDBRANCH  31  34
ENDBRANCH  25  29
ENDBRANCH   1  25
TORSDOF 8
