REMARK  Name = 
REMARK  5 active torsions:
REMARK  status: ('A' for Active; 'I' for Inactive)
REMARK    1  A    between atoms: C_2  and  C_3
REMARK    2  A    between atoms: C_3  and  C_4
REMARK    3  A    between atoms: C_7  and  C_8
REMARK    4  A    between atoms: C_12  and  C_13
REMARK    5  A    between atoms: N_22  and  C_23
REMARK                            x       y       z     vdW  Elec       q    Type
REMARK                         _______ _______ _______ _____ _____    ______ ____
ROOT
ATOM      1  C   UNL     1       2.046   2.370   0.139  0.00  0.00    +0.000 A 
ATOM      2  N   UNL     1       2.383   3.650  -0.061  0.00  0.00    +0.000 NA
ATOM      3  O   UNL     1       1.170   4.328   0.097  0.00  0.00    +0.000 OA
ATOM      4  C   UNL     1       0.228   3.382   0.386  0.00  0.00    +0.000 A 
ATOM      5  N   UNL     1       0.718   2.159   0.405  0.00  0.00    +0.000 NA
ENDROOT
BRANCH   4   6
ATOM      6  C   UNL     1      -1.134   3.835   0.649  0.00  0.00    +0.000 A 
ATOM      7  C   UNL     1      -2.106   2.880   0.992  0.00  0.00    +0.000 A 
ATOM      8  C   UNL     1      -3.427   3.253   1.237  0.00  0.00    +0.000 A 
ATOM      9  C   UNL     1      -3.790   4.596   1.176  0.00  0.00    +0.000 A 
ATOM     10  C   UNL     1      -2.825   5.571   0.896  0.00  0.00    +0.000 A 
ATOM     11  C   UNL     1      -1.508   5.187   0.599  0.00  0.00    +0.000 A 
BRANCH  10  12
ATOM     12  C   UNL     1      -3.159   7.023   0.958  0.00  0.00    +0.000 A 
ATOM     13  N   UNL     1      -2.590   7.855   0.139  0.00  0.00    +0.000 NA
ATOM     14  N   UNL     1      -2.918   9.176   0.274  0.00  0.00    +0.000 N 
ATOM     15  C   UNL     1      -3.773   9.702   1.211  0.00  0.00    +0.000 A 
ATOM     16  O   UNL     1      -4.026  10.898   1.303  0.00  0.00    +0.000 OA
ATOM     17  C   UNL     1      -4.388   8.733   2.131  0.00  0.00    +0.000 A 
ATOM     18  C   UNL     1      -4.107   7.433   2.026  0.00  0.00    +0.000 A 
ATOM     19  H   UNL     1      -2.474   9.825  -0.367  0.00  0.00    +0.000 HD
ENDBRANCH  10  12
ENDBRANCH   4   6
BRANCH   1  20
ATOM     20  C   UNL     1       3.027   1.266   0.165  0.00  0.00    +0.000 C 
BRANCH  20  22
ATOM     21  O   UNL     1       4.333   0.620  -1.717  0.00  0.00    +0.000 OA
ATOM     22  C   UNL     1       3.222   0.626  -1.192  0.00  0.00    +0.000 C 
ATOM     23  N   UNL     1       2.090   0.013  -1.706  0.00  0.00    +0.000 N 
ATOM     24  H   UNL     1       1.192   0.242  -1.284  0.00  0.00    +0.000 HD
BRANCH  23  25
ATOM     25  C   UNL     1       2.019  -0.774  -2.881  0.00  0.00    +0.000 A 
ATOM     26  C   UNL     1       3.135  -1.284  -3.548  0.00  0.00    +0.000 A 
ATOM     27  C   UNL     1       2.981  -2.043  -4.714  0.00  0.00    +0.000 A 
ATOM     28  C   UNL     1       1.710  -2.302  -5.226  0.00  0.00    +0.000 A 
ATOM     29  C   UNL     1       0.587  -1.816  -4.559  0.00  0.00    +0.000 A 
ATOM     30  C   UNL     1       0.749  -1.070  -3.393  0.00  0.00    +0.000 A 
ATOM     31  F   UNL     1      -0.343  -0.611  -2.762  0.00  0.00    +0.000 F 
ENDBRANCH  23  25
ENDBRANCH  20  22
ENDBRANCH   1  20
TORSDOF 5
