REMARK  Name = 
REMARK  5 active torsions:
REMARK  status: ('A' for Active; 'I' for Inactive)
REMARK    1  A    between atoms: N_1  and  C_2
REMARK    2  A    between atoms: C_2  and  C_3
REMARK    3  A    between atoms: C_6  and  C_7
REMARK    4  A    between atoms: C_12  and  C_13
REMARK    5  A    between atoms: N_15  and  C_16
REMARK                            x       y       z     vdW  Elec       q    Type
REMARK                         _______ _______ _______ _____ _____    ______ ____
ROOT
ATOM      1  C   UNL     1       3.956  -3.126  -4.426  0.00  0.00    +0.000 A 
ATOM      2  C   UNL     1       5.254  -3.524  -4.817  0.00  0.00    +0.000 A 
ATOM      3  C   UNL     1       5.489  -4.268  -5.980  0.00  0.00    +0.000 A 
ATOM      4  C   UNL     1       4.428  -4.680  -6.776  0.00  0.00    +0.000 A 
ATOM      5  C   UNL     1       3.133  -4.318  -6.438  0.00  0.00    +0.000 A 
ATOM      6  C   UNL     1       2.896  -3.532  -5.291  0.00  0.00    +0.000 A 
ENDROOT
BRANCH   1  10
ATOM      7  C   UNL     1       3.343  -0.414  -1.061  0.00  0.00    +0.000 A 
ATOM      8  C   UNL     1       4.570  -0.458  -1.726  0.00  0.00    +0.000 A 
ATOM      9  C   UNL     1       4.778  -1.356  -2.784  0.00  0.00    +0.000 A 
ATOM     10  C   UNL     1       3.786  -2.273  -3.196  0.00  0.00    +0.000 A 
ATOM     11  C   UNL     1       2.623  -2.308  -2.409  0.00  0.00    +0.000 A 
ATOM     12  C   UNL     1       2.385  -1.376  -1.387  0.00  0.00    +0.000 A 
BRANCH   7  13
ATOM     13  C   UNL     1       3.046   0.668  -0.053  0.00  0.00    +0.000 C 
BRANCH  13  14
ATOM     14  N   UNL     1       3.184   1.994  -0.650  0.00  0.00    +0.000 NA
ATOM     15  H   UNL     1       2.837   2.696  -0.002  0.00  0.00    +0.000 HD
ATOM     16  H   UNL     1       2.586   2.041  -1.476  0.00  0.00    +0.000 HD
ENDBRANCH  13  14
ENDBRANCH   7  13
ENDBRANCH   1  10
BRANCH   6  17
ATOM     17  C   UNL     1       1.542  -2.942  -5.200  0.00  0.00    +0.000 C 
ATOM     18  O   UNL     1       1.508  -1.720  -5.103  0.00  0.00    +0.000 OA
ATOM     19  N   UNL     1       0.440  -3.803  -5.261  0.00  0.00    +0.000 N 
ATOM     20  H   UNL     1       0.617  -4.801  -5.365  0.00  0.00    +0.000 HD
BRANCH  19  21
ATOM     21  C   UNL     1      -0.881  -3.422  -4.916  0.00  0.00    +0.000 A 
ATOM     22  C   UNL     1      -1.179  -2.089  -4.596  0.00  0.00    +0.000 A 
ATOM     23  C   UNL     1      -2.342  -1.753  -3.923  0.00  0.00    +0.000 A 
ATOM     24  C   UNL     1      -3.267  -2.729  -3.718  0.00  0.00    +0.000 A 
ATOM     25  C   UNL     1      -4.511  -2.360  -3.010  0.00  0.00    +0.000 A 
ATOM     26  C   UNL     1      -5.615  -2.827  -3.594  0.00  0.00    +0.000 A 
ATOM     27  N   UNL     1      -5.563  -4.045  -4.242  0.00  0.00    +0.000 N 
ATOM     28  C   UNL     1      -4.397  -4.770  -4.454  0.00  0.00    +0.000 A 
ATOM     29  O   UNL     1      -4.402  -5.922  -4.873  0.00  0.00    +0.000 OA
ATOM     30  C   UNL     1      -3.140  -3.987  -4.272  0.00  0.00    +0.000 A 
ATOM     31  C   UNL     1      -1.898  -4.380  -4.824  0.00  0.00    +0.000 A 
ATOM     32  H   UNL     1      -6.432  -4.464  -4.557  0.00  0.00    +0.000 HD
ENDBRANCH  19  21
ENDBRANCH   6  17
TORSDOF 5
