REMARK  Name = 
REMARK  8 active torsions:
REMARK  status: ('A' for Active; 'I' for Inactive)
REMARK    1  A    between atoms: C_1  and  O_2
REMARK    2  A    between atoms: O_2  and  C_3
REMARK    3  A    between atoms: C_3  and  C_5
REMARK    4  A    between atoms: C_5  and  N_6
REMARK    5  A    between atoms: C_5  and  C_24
REMARK    6  A    between atoms: C_7  and  C_9
REMARK    7  A    between atoms: N_11  and  C_12
REMARK    8  A    between atoms: C_16  and  C_17
REMARK                            x       y       z     vdW  Elec       q    Type
REMARK                         _______ _______ _______ _____ _____    ______ ____
ROOT
ATOM      1  N   UNL     1       5.029   1.093  -0.446  0.00  0.00    +0.000 N 
ATOM      2  C   UNL     1       4.848   0.257  -1.524  0.00  0.00    +0.000 C 
ATOM      3  O   UNL     1       4.332  -0.852  -1.438  0.00  0.00    +0.000 OA
ATOM      4  H   UNL     1       5.318   2.046  -0.636  0.00  0.00    +0.000 HD
ENDROOT
BRANCH   2   5
ATOM      5  C   UNL     1       5.328   0.810  -2.784  0.00  0.00    +0.000 A 
ATOM      6  C   UNL     1       5.301   0.208  -4.023  0.00  0.00    +0.000 A 
ATOM      7  N   UNL     1       5.855   1.125  -4.884  0.00  0.00    +0.000 N 
ATOM      8  N   UNL     1       6.236   2.223  -4.182  0.00  0.00    +0.000 NA
ATOM      9  N   UNL     1       5.910   2.046  -2.907  0.00  0.00    +0.000 NA
BRANCH   7  10
ATOM     10  C   UNL     1       6.026   1.033  -6.292  0.00  0.00    +0.000 A 
ATOM     11  C   UNL     1       5.569  -0.090  -6.993  0.00  0.00    +0.000 A 
ATOM     12  C   UNL     1       5.726  -0.165  -8.379  0.00  0.00    +0.000 A 
ATOM     13  C   UNL     1       6.340   0.876  -9.074  0.00  0.00    +0.000 A 
ATOM     14  C   UNL     1       6.808   2.009  -8.393  0.00  0.00    +0.000 A 
ATOM     15  C   UNL     1       6.645   2.080  -6.995  0.00  0.00    +0.000 A 
BRANCH  14  16
ATOM     16  C   UNL     1       7.475   3.142  -9.140  0.00  0.00    +0.000 C 
ATOM     17  F   UNL     1       7.573   2.921 -10.481  0.00  0.00    +0.000 F 
ATOM     18  F   UNL     1       6.806   4.319  -9.007  0.00  0.00    +0.000 F 
ATOM     19  F   UNL     1       8.743   3.376  -8.709  0.00  0.00    +0.000 F 
ENDBRANCH  14  16
ENDBRANCH   7  10
ENDBRANCH   2   5
BRANCH   1  20
ATOM     20  C   UNL     1       4.582   0.718   0.889  0.00  0.00    +0.000 C 
BRANCH  20  21
ATOM     21  C   UNL     1       5.404   1.416   1.955  0.00  0.00    +0.000 A 
ATOM     22  C   UNL     1       5.423   2.818   2.074  0.00  0.00    +0.000 A 
ATOM     23  C   UNL     1       6.080   3.424   3.147  0.00  0.00    +0.000 A 
ATOM     24  C   UNL     1       6.722   2.635   4.095  0.00  0.00    +0.000 A 
ATOM     25  F   UNL     1       7.317   3.219   5.143  0.00  0.00    +0.000 F 
ATOM     26  C   UNL     1       6.742   1.252   3.982  0.00  0.00    +0.000 A 
ATOM     27  C   UNL     1       6.085   0.655   2.913  0.00  0.00    +0.000 A 
ATOM     28  F   UNL     1       6.086  -0.682   2.826  0.00  0.00    +0.000 F 
ENDBRANCH  20  21
BRANCH  20  29
ATOM     29  C   UNL     1       3.089   1.041   1.115  0.00  0.00    +0.000 C 
ATOM     30  O   UNL     1       2.482   1.964   0.583  0.00  0.00    +0.000 OA
BRANCH  29  32
ATOM     31  C   UNL     1       1.249   0.548   2.497  0.00  0.00    +0.000 C 
ATOM     32  O   UNL     1       2.578   0.227   2.088  0.00  0.00    +0.000 OA
ENDBRANCH  29  32
ENDBRANCH  20  29
ENDBRANCH   1  20
TORSDOF 7
