REMARK  Name = 
REMARK  12 active torsions:
REMARK  status: ('A' for Active; 'I' for Inactive)
REMARK    1  A    between atoms: C_1  and  O_2
REMARK    2  A    between atoms: O_2  and  C_3
REMARK    3  A    between atoms: C_7  and  C_8
REMARK    4  A    between atoms: C_8  and  C_11
REMARK    5  A    between atoms: C_11  and  N_12
REMARK    6  A    between atoms: C_13  and  C_15
REMARK    7  A    between atoms: C_15  and  C_16
REMARK    8  A    between atoms: C_16  and  O_17
REMARK    9  A    between atoms: C_16  and  C_18
REMARK   10  A    between atoms: C_21  and  O_22
REMARK   11  A    between atoms: O_22  and  C_23
REMARK   12  A    between atoms: C_23  and  C_24
REMARK                            x       y       z     vdW  Elec       q    Type
REMARK                         _______ _______ _______ _____ _____    ______ ____
ROOT
ATOM      1  C   UNL     1      10.265  -1.099   5.467  0.00  0.00    +0.000 C 
ENDROOT
BRANCH   1   3
ATOM      2  N   UNL     1       9.142  -3.102   4.625  0.00  0.00    +0.000 N 
ATOM      3  C   UNL     1       9.024  -1.766   4.913  0.00  0.00    +0.000 C 
ATOM      4  O   UNL     1       8.008  -1.119   4.672  0.00  0.00    +0.000 OA
ATOM      5  H   UNL     1      10.051  -3.553   4.760  0.00  0.00    +0.000 HD
BRANCH   2   6
ATOM      6  C   UNL     1       8.093  -3.849   3.944  0.00  0.00    +0.000 C 
BRANCH   6   7
ATOM      7  C   UNL     1       8.153  -3.812   2.402  0.00  0.00    +0.000 C 
ATOM      8  F   UNL     1       8.040  -2.517   1.978  0.00  0.00    +0.000 F 
ATOM      9  F   UNL     1       7.025  -4.434   1.933  0.00  0.00    +0.000 F 
BRANCH   7  14
ATOM     10  C   UNL     1      10.718  -6.410   1.778  0.00  0.00    +0.000 A 
ATOM     11  C   UNL     1      11.623  -5.819   0.915  0.00  0.00    +0.000 A 
ATOM     12  C   UNL     1      11.401  -4.499   0.534  0.00  0.00    +0.000 A 
ATOM     13  C   UNL     1      10.281  -3.825   1.019  0.00  0.00    +0.000 A 
ATOM     14  C   UNL     1       9.414  -4.490   1.885  0.00  0.00    +0.000 A 
ATOM     15  N   UNL     1       9.636  -5.775   2.272  0.00  0.00    +0.000 NA
BRANCH  10  17
ATOM     16  C   UNL     1       9.950  -8.234   3.010  0.00  0.00    +0.000 C 
ATOM     17  O   UNL     1      10.948  -7.724   2.127  0.00  0.00    +0.000 OA
ENDBRANCH  10  17
ENDBRANCH   7  14
ENDBRANCH   6   7
ENDBRANCH   2   6
ENDBRANCH   1   3
BRANCH   1  18
ATOM     18  C   UNL     1      11.126  -2.020   6.328  0.00  0.00    +0.000 C 
BRANCH  18  19
ATOM     19  C   UNL     1      12.318  -1.375   7.001  0.00  0.00    +0.000 A 
ATOM     20  C   UNL     1      12.675  -0.030   6.835  0.00  0.00    +0.000 A 
ATOM     21  C   UNL     1      13.785   0.498   7.499  0.00  0.00    +0.000 A 
ATOM     22  C   UNL     1      14.547  -0.306   8.341  0.00  0.00    +0.000 A 
ATOM     23  C   UNL     1      14.239  -1.660   8.467  0.00  0.00    +0.000 A 
ATOM     24  C   UNL     1      13.122  -2.183   7.820  0.00  0.00    +0.000 A 
BRANCH  22  25
ATOM     25  O   UNL     1      15.566   0.324   9.004  0.00  0.00    +0.000 OA
BRANCH  25  26
ATOM     26  C   UNL     1      15.968  -0.326  10.213  0.00  0.00    +0.000 C 
BRANCH  26  27
ATOM     27  C   UNL     1      16.656   0.635  11.149  0.00  0.00    +0.000 A 
ATOM     28  C   UNL     1      16.500   0.465  12.534  0.00  0.00    +0.000 A 
ATOM     29  C   UNL     1      17.151   1.309  13.429  0.00  0.00    +0.000 A 
ATOM     30  C   UNL     1      17.975   2.325  12.952  0.00  0.00    +0.000 A 
ATOM     31  C   UNL     1      18.146   2.498  11.575  0.00  0.00    +0.000 A 
ATOM     32  C   UNL     1      17.494   1.653  10.677  0.00  0.00    +0.000 A 
ENDBRANCH  26  27
ENDBRANCH  25  26
ENDBRANCH  22  25
ENDBRANCH  18  19
BRANCH  18  33
ATOM     33  O   UNL     1      11.631  -3.074   5.487  0.00  0.00    +0.000 OA
ATOM     34  H   UNL     1      12.454  -2.744   5.081  0.00  0.00    +0.000 HD
ENDBRANCH  18  33
ENDBRANCH   1  18
TORSDOF 11
