REMARK  Name = 
REMARK  7 active torsions:
REMARK  status: ('A' for Active; 'I' for Inactive)
REMARK    1  A    between atoms: C_1  and  N_2
REMARK    2  A    between atoms: N_2  and  C_3
REMARK    3  A    between atoms: N_2  and  C_25
REMARK    4  A    between atoms: C_3  and  C_4
REMARK    5  A    between atoms: C_7  and  C_8
REMARK    6  A    between atoms: N_10  and  C_11
REMARK    7  A    between atoms: C_14  and  N_15
REMARK                            x       y       z     vdW  Elec       q    Type
REMARK                         _______ _______ _______ _____ _____    ______ ____
ROOT
ATOM      1  C   UNL     1      -0.240  -4.727   3.497  0.00  0.00    +0.000 C 
ATOM      2  O   UNL     1      -0.634  -4.378   4.608  0.00  0.00    +0.000 OA
ATOM      3  N   UNL     1      -0.589  -5.898   2.849  0.00  0.00    +0.000 N 
ATOM      4  H   UNL     1      -0.126  -6.115   1.977  0.00  0.00    +0.000 HD
ENDROOT
BRANCH   3   5
ATOM      5  C   UNL     1      -1.518  -6.852   3.323  0.00  0.00    +0.000 A 
ATOM      6  C   UNL     1      -2.416  -6.602   4.363  0.00  0.00    +0.000 A 
ATOM      7  C   UNL     1      -3.293  -7.594   4.817  0.00  0.00    +0.000 A 
ATOM      8  C   UNL     1      -3.276  -8.866   4.231  0.00  0.00    +0.000 A 
ATOM      9  C   UNL     1      -2.400  -9.103   3.175  0.00  0.00    +0.000 A 
ATOM     10  F   UNL     1      -2.349 -10.293   2.559  0.00  0.00    +0.000 F 
ATOM     11  C   UNL     1      -1.542  -8.104   2.708  0.00  0.00    +0.000 A 
BRANCH   8  12
ATOM     12  N   UNL     1      -4.144  -9.868   4.713  0.00  0.00    +0.000 N 
ATOM     13  C   UNL     1      -4.248 -11.193   4.367  0.00  0.00    +0.000 A 
ATOM     14  N   UNL     1      -5.227 -11.748   5.044  0.00  0.00    +0.000 NA
ATOM     15  N   UNL     1      -5.730 -10.759   5.845  0.00  0.00    +0.000 NA
ATOM     16  N   UNL     1      -5.072  -9.622   5.669  0.00  0.00    +0.000 NA
ENDBRANCH   8  12
ENDBRANCH   3   5
BRANCH   1  20
ATOM     17  C   UNL     1       2.309  -1.919   1.463  0.00  0.00    +0.000 A 
ATOM     18  C   UNL     1       2.454  -3.294   1.210  0.00  0.00    +0.000 A 
ATOM     19  C   UNL     1       1.649  -4.235   1.867  0.00  0.00    +0.000 A 
ATOM     20  C   UNL     1       0.683  -3.803   2.781  0.00  0.00    +0.000 A 
ATOM     21  C   UNL     1       0.564  -2.437   3.066  0.00  0.00    +0.000 A 
ATOM     22  C   UNL     1       1.364  -1.500   2.407  0.00  0.00    +0.000 A 
BRANCH  17  23
ATOM     23  C   UNL     1       3.148  -0.897   0.722  0.00  0.00    +0.000 C 
BRANCH  23  25
ATOM     24  C   UNL     1       1.269  -0.853  -1.022  0.00  0.00    +0.000 C 
ATOM     25  N   UNL     1       2.560  -0.395  -0.529  0.00  0.00    +0.000 N 
BRANCH  25  26
ATOM     26  C   UNL     1       3.017   0.855  -0.966  0.00  0.00    +0.000 A 
ATOM     27  C   UNL     1       2.144   1.901  -1.308  0.00  0.00    +0.000 A 
ATOM     28  C   UNL     1       2.619   3.132  -1.774  0.00  0.00    +0.000 A 
ATOM     29  C   UNL     1       3.986   3.341  -1.919  0.00  0.00    +0.000 A 
ATOM     30  C   UNL     1       4.874   2.326  -1.582  0.00  0.00    +0.000 A 
ATOM     31  C   UNL     1       4.392   1.102  -1.102  0.00  0.00    +0.000 A 
ENDBRANCH  25  26
ENDBRANCH  23  25
ENDBRANCH  17  23
ENDBRANCH   1  20
TORSDOF 6
