REMARK  Name = 
REMARK  7 active torsions:
REMARK  status: ('A' for Active; 'I' for Inactive)
REMARK    1  A    between atoms: C_2  and  C_3
REMARK    2  A    between atoms: C_6  and  C_7
REMARK    3  A    between atoms: N_9  and  C_10
REMARK    4  A    between atoms: C_10  and  C_11
REMARK    5  A    between atoms: N_13  and  C_14
REMARK    6  A    between atoms: C_14  and  C_15
REMARK    7  A    between atoms: C_18  and  C_19
REMARK                            x       y       z     vdW  Elec       q    Type
REMARK                         _______ _______ _______ _____ _____    ______ ____
ROOT
ATOM      1  C   UNL     1       7.591  -2.312  -0.709  0.00  0.00    +0.000 C 
ATOM      2  O   UNL     1       7.814  -2.790  -1.819  0.00  0.00    +0.000 OA
ATOM      3  N   UNL     1       7.842  -2.978   0.469  0.00  0.00    +0.000 N 
ATOM      4  H   UNL     1       7.490  -2.579   1.335  0.00  0.00    +0.000 HD
ENDROOT
BRANCH   1   5
ATOM      5  C   UNL     1       6.919  -0.945  -0.532  0.00  0.00    +0.000 C 
BRANCH   5   8
ATOM      6  C   UNL     1       4.726  -1.303   0.537  0.00  0.00    +0.000 C 
ATOM      7  O   UNL     1       5.241  -1.456   1.640  0.00  0.00    +0.000 OA
ATOM      8  N   UNL     1       5.467  -1.035  -0.594  0.00  0.00    +0.000 N 
ATOM      9  H   UNL     1       5.046  -1.122  -1.510  0.00  0.00    +0.000 HD
BRANCH   6  13
ATOM     10  C   UNL     1       0.451  -1.811   0.141  0.00  0.00    +0.000 A 
ATOM     11  C   UNL     1       1.139  -0.977  -0.752  0.00  0.00    +0.000 A 
ATOM     12  C   UNL     1       2.529  -0.795  -0.640  0.00  0.00    +0.000 A 
ATOM     13  C   UNL     1       3.247  -1.452   0.368  0.00  0.00    +0.000 A 
ATOM     14  C   UNL     1       2.553  -2.263   1.277  0.00  0.00    +0.000 A 
ATOM     15  C   UNL     1       1.167  -2.447   1.161  0.00  0.00    +0.000 A 
BRANCH  10  17
ATOM     16  N   UNL     1      -2.115  -2.171  -0.104  0.00  0.00    +0.000 NA
ATOM     17  C   UNL     1      -0.973  -2.007   0.010  0.00  0.00    +0.000 C 
ENDBRANCH  10  17
ENDBRANCH   6  13
ENDBRANCH   5   8
ENDBRANCH   1   5
BRANCH   3  18
ATOM     18  C   UNL     1       8.396  -4.314   0.512  0.00  0.00    +0.000 C 
BRANCH  18  19
ATOM     19  C   UNL     1       9.889  -4.311   0.677  0.00  0.00    +0.000 A 
ATOM     20  C   UNL     1      10.744  -4.311  -0.430  0.00  0.00    +0.000 A 
ATOM     21  C   UNL     1      12.135  -4.322  -0.253  0.00  0.00    +0.000 A 
ATOM     22  C   UNL     1      12.721  -4.339   1.027  0.00  0.00    +0.000 A 
ATOM     23  C   UNL     1      11.847  -4.328   2.127  0.00  0.00    +0.000 A 
ATOM     24  C   UNL     1      10.463  -4.309   1.947  0.00  0.00    +0.000 A 
ATOM     25  F   UNL     1       9.675  -4.313   3.033  0.00  0.00    +0.000 F 
BRANCH  22  26
ATOM     26  C   UNL     1      14.191  -4.402   1.207  0.00  0.00    +0.000 A 
ATOM     27  C   UNL     1      14.832  -3.791   2.301  0.00  0.00    +0.000 A 
ATOM     28  C   UNL     1      16.213  -3.906   2.496  0.00  0.00    +0.000 A 
ATOM     29  C   UNL     1      16.988  -4.625   1.591  0.00  0.00    +0.000 A 
ATOM     30  C   UNL     1      16.386  -5.216   0.487  0.00  0.00    +0.000 A 
ATOM     31  C   UNL     1      15.006  -5.105   0.299  0.00  0.00    +0.000 A 
ENDBRANCH  22  26
ENDBRANCH  18  19
ENDBRANCH   3  18
TORSDOF 7
