REMARK  Name = 
REMARK  5 active torsions:
REMARK  status: ('A' for Active; 'I' for Inactive)
REMARK    1  A    between atoms: C_2  and  C_17
REMARK    2  A    between atoms: N_3  and  C_4
REMARK    3  A    between atoms: C_7  and  O_8
REMARK    4  A    between atoms: O_8  and  C_9
REMARK    5  A    between atoms: N_21  and  C_22
REMARK                            x       y       z     vdW  Elec       q    Type
REMARK                         _______ _______ _______ _____ _____    ______ ____
ROOT
ATOM      1  O   UNL     1       1.065  -0.306   0.218  0.00  0.00    +0.000 OA
ATOM      2  C   UNL     1       2.241  -0.084  -0.042  0.00  0.00    +0.000 C 
ATOM      3  N   UNL     1       2.867   1.136   0.129  0.00  0.00    +0.000 N 
ATOM      4  H   UNL     1       3.803   1.234  -0.243  0.00  0.00    +0.000 HD
ENDROOT
BRANCH   3   5
ATOM      5  C   UNL     1       2.238   2.323   0.567  0.00  0.00    +0.000 A 
ATOM      6  C   UNL     1       0.989   2.373   1.187  0.00  0.00    +0.000 A 
ATOM      7  C   UNL     1       0.438   3.602   1.546  0.00  0.00    +0.000 A 
ATOM      8  C   UNL     1       1.167   4.748   1.288  0.00  0.00    +0.000 A 
ATOM      9  N   UNL     1       2.376   4.741   0.679  0.00  0.00    +0.000 NA
ATOM     10  C   UNL     1       2.888   3.535   0.355  0.00  0.00    +0.000 A 
BRANCH   8  11
ATOM     11  O   UNL     1       0.612   5.955   1.692  0.00  0.00    +0.000 OA
BRANCH  11  12
ATOM     12  C   UNL     1       1.489   6.942   2.079  0.00  0.00    +0.000 A 
ATOM     13  C   UNL     1       1.175   8.253   1.723  0.00  0.00    +0.000 A 
ATOM     14  C   UNL     1       2.039   9.293   2.075  0.00  0.00    +0.000 A 
ATOM     15  C   UNL     1       3.207   9.021   2.789  0.00  0.00    +0.000 A 
ATOM     16  C   UNL     1       3.503   7.717   3.177  0.00  0.00    +0.000 A 
ATOM     17  C   UNL     1       2.632   6.682   2.843  0.00  0.00    +0.000 A 
ENDBRANCH  11  12
ENDBRANCH   8  11
ENDBRANCH   3   5
BRANCH   2  18
ATOM     18  C   UNL     1       3.075  -1.093  -0.621  0.00  0.00    +0.000 A 
ATOM     19  C   UNL     1       4.376  -1.449  -0.341  0.00  0.00    +0.000 A 
ATOM     20  N   UNL     1       4.683  -2.616  -0.967  0.00  0.00    +0.000 NA
ATOM     21  N   UNL     1       3.607  -3.015  -1.628  0.00  0.00    +0.000 NA
ATOM     22  N   UNL     1       2.654  -2.053  -1.526  0.00  0.00    +0.000 N 
BRANCH  22  23
ATOM     23  C   UNL     1       1.498  -2.090  -2.349  0.00  0.00    +0.000 A 
ATOM     24  C   UNL     1       0.847  -0.910  -2.734  0.00  0.00    +0.000 A 
ATOM     25  C   UNL     1      -0.277  -0.982  -3.553  0.00  0.00    +0.000 A 
ATOM     26  F   UNL     1      -0.882   0.147  -3.934  0.00  0.00    +0.000 F 
ATOM     27  C   UNL     1      -0.771  -2.205  -3.991  0.00  0.00    +0.000 A 
ATOM     28  C   UNL     1      -0.121  -3.381  -3.620  0.00  0.00    +0.000 A 
ATOM     29  C   UNL     1       1.022  -3.326  -2.816  0.00  0.00    +0.000 A 
ENDBRANCH  22  23
ENDBRANCH   2  18
TORSDOF 5
