REMARK  Name = 
REMARK  8 active torsions:
REMARK  status: ('A' for Active; 'I' for Inactive)
REMARK    1  A    between atoms: C_1  and  O_2
REMARK    2  A    between atoms: O_2  and  C_3
REMARK    3  A    between atoms: C_7  and  C_8
REMARK    4  A    between atoms: C_8  and  C_9
REMARK    5  A    between atoms: C_9  and  N_10
REMARK    6  A    between atoms: C_9  and  C_24
REMARK    7  A    between atoms: C_11  and  C_13
REMARK    8  A    between atoms: C_16  and  N_17
REMARK                            x       y       z     vdW  Elec       q    Type
REMARK                         _______ _______ _______ _____ _____    ______ ____
ROOT
ATOM      1  C   UNL     1       7.392  -1.567   3.050  0.00  0.00    +0.000 C 
ENDROOT
BRANCH   1   2
ATOM      2  C   UNL     1       8.819  -1.105   3.303  0.00  0.00    +0.000 A 
ATOM      3  C   UNL     1       9.370  -1.220   4.591  0.00  0.00    +0.000 A 
ATOM      4  C   UNL     1      10.694  -0.859   4.838  0.00  0.00    +0.000 A 
ATOM      5  C   UNL     1      11.489  -0.383   3.798  0.00  0.00    +0.000 A 
ATOM      6  C   UNL     1      10.959  -0.267   2.514  0.00  0.00    +0.000 A 
ATOM      7  C   UNL     1       9.632  -0.626   2.267  0.00  0.00    +0.000 A 
ENDBRANCH   1   2
BRANCH   1   8
ATOM      8  N   UNL     1       7.397  -2.713   2.143  0.00  0.00    +0.000 N 
ATOM      9  C   UNL     1       7.617  -3.988   2.616  0.00  0.00    +0.000 C 
ATOM     10  O   UNL     1       7.767  -4.244   3.810  0.00  0.00    +0.000 OA
ATOM     11  H   UNL     1       7.307  -2.589   1.139  0.00  0.00    +0.000 HD
BRANCH   9  12
ATOM     12  C   UNL     1       7.646  -5.089   1.605  0.00  0.00    +0.000 A 
ATOM     13  C   UNL     1       7.892  -6.377   2.061  0.00  0.00    +0.000 A 
ATOM     14  C   UNL     1       7.851  -7.431   1.155  0.00  0.00    +0.000 A 
ATOM     15  C   UNL     1       7.574  -7.176  -0.191  0.00  0.00    +0.000 A 
ATOM     16  C   UNL     1       7.369  -5.845  -0.565  0.00  0.00    +0.000 A 
ATOM     17  N   UNL     1       7.396  -4.791   0.300  0.00  0.00    +0.000 NA
BRANCH  15  18
ATOM     18  N   UNL     1       7.507  -8.244  -1.125  0.00  0.00    +0.000 N 
ATOM     19  C   UNL     1       7.605  -9.595  -0.844  0.00  0.00    +0.000 A 
ATOM     20  C   UNL     1       7.502 -10.249  -2.047  0.00  0.00    +0.000 A 
ATOM     21  N   UNL     1       7.324  -9.357  -3.064  0.00  0.00    +0.000 NA
ATOM     22  C   UNL     1       7.323  -8.174  -2.489  0.00  0.00    +0.000 A 
ENDBRANCH  15  18
ENDBRANCH   9  12
ENDBRANCH   1   8
BRANCH   1  23
ATOM     23  C   UNL     1       6.462  -0.428   2.565  0.00  0.00    +0.000 C 
BRANCH  23  28
ATOM     24  C   UNL     1       2.998  -0.605   0.959  0.00  0.00    +0.000 A 
ATOM     25  C   UNL     1       2.432  -1.691   1.624  0.00  0.00    +0.000 A 
ATOM     26  C   UNL     1       3.114  -2.291   2.680  0.00  0.00    +0.000 A 
ATOM     27  C   UNL     1       4.385  -1.845   3.039  0.00  0.00    +0.000 A 
ATOM     28  C   UNL     1       5.021  -0.835   2.306  0.00  0.00    +0.000 A 
ATOM     29  C   UNL     1       4.291  -0.189   1.293  0.00  0.00    +0.000 A 
BRANCH  24  31
ATOM     30  C   UNL     1       0.973   0.037  -0.069  0.00  0.00    +0.000 C 
ATOM     31  O   UNL     1       2.397   0.088  -0.058  0.00  0.00    +0.000 OA
ENDBRANCH  24  31
ENDBRANCH  23  28
ENDBRANCH   1  23
TORSDOF 7
