REMARK  Name = 
REMARK  7 active torsions:
REMARK  status: ('A' for Active; 'I' for Inactive)
REMARK    1  A    between atoms: C_2  and  C_14
REMARK    2  A    between atoms: N_3  and  C_4
REMARK    3  A    between atoms: C_7  and  C_8
REMARK    4  A    between atoms: C_8  and  O_9
REMARK    5  A    between atoms: C_11  and  C_12
REMARK    6  A    between atoms: C_12  and  O_13
REMARK    7  A    between atoms: C_17  and  N_18
REMARK                            x       y       z     vdW  Elec       q    Type
REMARK                         _______ _______ _______ _____ _____    ______ ____
ROOT
ATOM      1  O   UNL     1       1.015  -0.502   0.247  0.00  0.00    +0.000 OA
ATOM      2  C   UNL     1       2.208  -0.262   0.241  0.00  0.00    +0.000 C 
ATOM      3  N   UNL     1       2.888   0.470   1.197  0.00  0.00    +0.000 N 
ATOM      4  H   UNL     1       3.908   0.639   1.013  0.00  0.00    +0.000 HD
ENDROOT
BRANCH   3   5
ATOM      5  C   UNL     1       2.367   1.100   2.315  0.00  0.00    +0.000 A 
ATOM      6  C   UNL     1       1.046   0.889   2.724  0.00  0.00    +0.000 A 
ATOM      7  C   UNL     1       0.516   1.531   3.837  0.00  0.00    +0.000 A 
ATOM      8  C   UNL     1       1.291   2.402   4.583  0.00  0.00    +0.000 A 
ATOM      9  C   UNL     1       2.622   2.625   4.193  0.00  0.00    +0.000 A 
ATOM     10  C   UNL     1       3.179   1.982   3.066  0.00  0.00    +0.000 A 
BRANCH   8  11
ATOM     11  C   UNL     1       0.710   3.103   5.784  0.00  0.00    +0.000 C 
BRANCH  11  12
ATOM     12  O   UNL     1       1.372   2.671   6.963  0.00  0.00    +0.000 OA
ATOM     13  H   UNL     1       1.431   1.701   6.911  0.00  0.00    +0.000 HD
ENDBRANCH  11  12
ENDBRANCH   8  11
BRANCH  10  14
ATOM     14  C   UNL     1       4.581   2.377   2.667  0.00  0.00    +0.000 C 
BRANCH  14  15
ATOM     15  O   UNL     1       5.284   1.295   2.058  0.00  0.00    +0.000 OA
ATOM     16  H   UNL     1       6.077   1.146   2.604  0.00  0.00    +0.000 HD
ENDBRANCH  14  15
ENDBRANCH  10  14
ENDBRANCH   3   5
BRANCH   2  17
ATOM     17  C   UNL     1       2.978  -0.707  -0.945  0.00  0.00    +0.000 A 
ATOM     18  C   UNL     1       2.353  -0.522  -2.164  0.00  0.00    +0.000 A 
ATOM     19  C   UNL     1       2.978  -0.931  -3.325  0.00  0.00    +0.000 A 
ATOM     20  C   UNL     1       4.232  -1.550  -3.280  0.00  0.00    +0.000 A 
ATOM     21  C   UNL     1       4.859  -1.774  -2.038  0.00  0.00    +0.000 A 
ATOM     22  C   UNL     1       4.227  -1.342  -0.862  0.00  0.00    +0.000 A 
BRANCH  20  23
ATOM     23  N   UNL     1       4.847  -1.892  -4.506  0.00  0.00    +0.000 N 
ATOM     24  C   UNL     1       4.654  -1.170  -5.681  0.00  0.00    +0.000 A 
ATOM     25  C   UNL     1       5.652  -1.562  -6.517  0.00  0.00    +0.000 A 
ATOM     26  C   UNL     1       5.774  -2.925  -6.234  0.00  0.00    +0.000 A 
ATOM     27  C   UNL     1       6.019  -4.097  -6.971  0.00  0.00    +0.000 A 
ATOM     28  C   UNL     1       6.227  -5.284  -6.276  0.00  0.00    +0.000 A 
ATOM     29  C   UNL     1       6.353  -5.275  -4.887  0.00  0.00    +0.000 A 
ATOM     30  C   UNL     1       6.070  -4.126  -4.135  0.00  0.00    +0.000 A 
ATOM     31  C   UNL     1       5.622  -3.003  -4.840  0.00  0.00    +0.000 A 
ENDBRANCH  20  23
ENDBRANCH   2  17
TORSDOF 7
