REMARK  Name = 
REMARK  8 active torsions:
REMARK  status: ('A' for Active; 'I' for Inactive)
REMARK    1  A    between atoms: C_1  and  O_2
REMARK    2  A    between atoms: O_2  and  C_3
REMARK    3  A    between atoms: C_3  and  C_5
REMARK    4  A    between atoms: C_7  and  C_8
REMARK    5  A    between atoms: C_11  and  C_12
REMARK    6  A    between atoms: N_14  and  C_15
REMARK    7  A    between atoms: C_18  and  C_19
REMARK    8  A    between atoms: C_21  and  O_22
REMARK                            x       y       z     vdW  Elec       q    Type
REMARK                         _______ _______ _______ _____ _____    ______ ____
ROOT
ATOM      1  C   UNL     1      10.171  -1.355   3.575  0.00  0.00    +0.000 C 
ATOM      2  O   UNL     1      10.047  -2.249   4.410  0.00  0.00    +0.000 OA
ATOM      3  N   UNL     1      11.339  -0.630   3.387  0.00  0.00    +0.000 N 
ATOM      4  H   UNL     1      11.286   0.162   2.761  0.00  0.00    +0.000 HD
ENDROOT
BRANCH   1  11
ATOM      5  C   UNL     1       4.694  -0.114   1.335  0.00  0.00    +0.000 A 
ATOM      6  C   UNL     1       5.369   0.771   0.484  0.00  0.00    +0.000 A 
ATOM      7  C   UNL     1       6.777   0.879   0.486  0.00  0.00    +0.000 A 
ATOM      8  C   UNL     1       7.441   1.869  -0.429  0.00  0.00    +0.000 C 
ATOM      9  C   UNL     1       7.508   0.066   1.387  0.00  0.00    +0.000 A 
ATOM     10  C   UNL     1       8.898  -0.061   1.704  0.00  0.00    +0.000 A 
ATOM     11  C   UNL     1       9.035  -0.948   2.759  0.00  0.00    +0.000 A 
ATOM     12  N   UNL     1       7.771  -1.465   2.979  0.00  0.00    +0.000 N 
ATOM     13  C   UNL     1       6.824  -0.821   2.213  0.00  0.00    +0.000 A 
ATOM     14  C   UNL     1       5.425  -0.943   2.204  0.00  0.00    +0.000 A 
ATOM     15  H   UNL     1       7.572  -2.171   3.678  0.00  0.00    +0.000 HD
BRANCH   5  16
ATOM     16  C   UNL     1       3.202  -0.186   1.374  0.00  0.00    +0.000 C 
ATOM     17  O   UNL     1       2.582  -0.945   2.102  0.00  0.00    +0.000 OA
BRANCH  16  19
ATOM     18  C   UNL     1       1.222   0.745   0.521  0.00  0.00    +0.000 C 
ATOM     19  O   UNL     1       2.650   0.717   0.521  0.00  0.00    +0.000 OA
ENDBRANCH  16  19
ENDBRANCH   5  16
ENDBRANCH   1  11
BRANCH   3  20
ATOM     20  C   UNL     1      12.543  -0.785   4.118  0.00  0.00    +0.000 A 
ATOM     21  C   UNL     1      12.864  -1.847   4.946  0.00  0.00    +0.000 A 
ATOM     22  N   UNL     1      14.011  -1.939   5.664  0.00  0.00    +0.000 NA
ATOM     23  C   UNL     1      14.890  -0.922   5.559  0.00  0.00    +0.000 A 
ATOM     24  N   UNL     1      14.697   0.144   4.755  0.00  0.00    +0.000 NA
ATOM     25  C   UNL     1      13.536   0.176   4.055  0.00  0.00    +0.000 A 
BRANCH  23  26
ATOM     26  C   UNL     1      16.097  -0.951   6.418  0.00  0.00    +0.000 A 
ATOM     27  C   UNL     1      16.368  -2.046   7.269  0.00  0.00    +0.000 A 
ATOM     28  C   UNL     1      17.483  -2.048   8.111  0.00  0.00    +0.000 A 
ATOM     29  C   UNL     1      18.355  -0.967   8.141  0.00  0.00    +0.000 A 
ATOM     30  C   UNL     1      18.124   0.115   7.305  0.00  0.00    +0.000 A 
ATOM     31  C   UNL     1      17.016   0.118   6.448  0.00  0.00    +0.000 A 
BRANCH  28  32
ATOM     32  O   UNL     1      17.757  -3.104   8.928  0.00  0.00    +0.000 OA
ATOM     33  H   UNL     1      17.132  -3.820   8.727  0.00  0.00    +0.000 HD
ENDBRANCH  28  32
ENDBRANCH  23  26
ENDBRANCH   3  20
TORSDOF 6
