REMARK  Name = 
REMARK  3 active torsions:
REMARK  status: ('A' for Active; 'I' for Inactive)
REMARK    1  A    between atoms: C_2  and  C_17
REMARK    2  A    between atoms: N_3  and  C_4
REMARK    3  A    between atoms: C_7  and  N_8
REMARK                            x       y       z     vdW  Elec       q    Type
REMARK                         _______ _______ _______ _____ _____    ______ ____
ROOT
ATOM      1  O   UNL     1       1.134  -0.283  -0.061  0.00  0.00    +0.000 OA
ATOM      2  C   UNL     1       2.318   0.008  -0.161  0.00  0.00    +0.000 C 
ATOM      3  N   UNL     1       2.925   1.188   0.230  0.00  0.00    +0.000 N 
ATOM      4  H   UNL     1       3.887   1.328  -0.052  0.00  0.00    +0.000 HD
ENDROOT
BRANCH   2   5
ATOM      5  C   UNL     1       3.213  -0.949  -0.860  0.00  0.00    +0.000 A 
ATOM      6  C   UNL     1       4.484  -1.285  -0.363  0.00  0.00    +0.000 A 
ATOM      7  C   UNL     1       5.271  -2.211  -1.059  0.00  0.00    +0.000 A 
ATOM      8  C   UNL     1       4.821  -2.698  -2.294  0.00  0.00    +0.000 A 
ATOM      9  N   UNL     1       5.646  -3.577  -3.039  0.00  0.00    +0.000 N 
ATOM     10  C   UNL     1       6.467  -4.426  -2.330  0.00  0.00    +0.000 A 
ATOM     11  O   UNL     1       6.785  -5.542  -2.721  0.00  0.00    +0.000 OA
ATOM     12  C   UNL     1       7.052  -3.852  -1.092  0.00  0.00    +0.000 A 
ATOM     13  C   UNL     1       6.515  -2.764  -0.517  0.00  0.00    +0.000 A 
ATOM     14  C   UNL     1       3.550  -2.380  -2.764  0.00  0.00    +0.000 A 
ATOM     15  F   UNL     1       3.089  -2.920  -3.901  0.00  0.00    +0.000 F 
ATOM     16  C   UNL     1       2.726  -1.541  -2.032  0.00  0.00    +0.000 A 
ATOM     17  H   UNL     1       6.264  -3.004  -3.612  0.00  0.00    +0.000 HD
ENDBRANCH   2   5
BRANCH   3  18
ATOM     18  C   UNL     1       2.290   2.298   0.830  0.00  0.00    +0.000 A 
ATOM     19  C   UNL     1       0.984   2.284   1.317  0.00  0.00    +0.000 A 
ATOM     20  C   UNL     1       0.415   3.435   1.889  0.00  0.00    +0.000 A 
ATOM     21  C   UNL     1       1.131   4.642   1.996  0.00  0.00    +0.000 A 
ATOM     22  C   UNL     1       2.443   4.623   1.493  0.00  0.00    +0.000 A 
ATOM     23  F   UNL     1       3.195   5.738   1.522  0.00  0.00    +0.000 F 
ATOM     24  C   UNL     1       3.021   3.481   0.930  0.00  0.00    +0.000 A 
BRANCH  21  25
ATOM     25  N   UNL     1       0.542   5.796   2.558  0.00  0.00    +0.000 N 
ATOM     26  C   UNL     1      -0.685   5.993   3.121  0.00  0.00    +0.000 A 
ATOM     27  C   UNL     1      -0.777   7.176   3.739  0.00  0.00    +0.000 A 
ATOM     28  C   UNL     1       0.543   7.808   3.534  0.00  0.00    +0.000 A 
ATOM     29  O   UNL     1       0.832   8.943   3.842  0.00  0.00    +0.000 OA
ATOM     30  N   UNL     1       1.338   6.872   2.899  0.00  0.00    +0.000 N 
ATOM     31  H   UNL     1       2.186   7.099   2.395  0.00  0.00    +0.000 HD
ENDBRANCH  21  25
ENDBRANCH   3  18
TORSDOF 3
