REMARK  Name = 
REMARK  5 active torsions:
REMARK  status: ('A' for Active; 'I' for Inactive)
REMARK    1  A    between atoms: C_2  and  C_20
REMARK    2  A    between atoms: N_3  and  C_4
REMARK    3  A    between atoms: C_4  and  C_5
REMARK    4  A    between atoms: C_7  and  O_8
REMARK    5  A    between atoms: O_8  and  C_9
REMARK                            x       y       z     vdW  Elec       q    Type
REMARK                         _______ _______ _______ _____ _____    ______ ____
ROOT
ATOM      1  O   UNL     1       3.069  -1.642  -1.839  0.00  0.00    +0.000 OA
ATOM      2  C   UNL     1       3.378  -0.761  -1.043  0.00  0.00    +0.000 C 
ATOM      3  N   UNL     1       2.987   0.550  -1.178  0.00  0.00    +0.000 N 
ATOM      4  H   UNL     1       3.454   1.273  -0.645  0.00  0.00    +0.000 HD
ENDROOT
BRANCH   2   5
ATOM      5  C   UNL     1       4.278  -1.013   0.124  0.00  0.00    +0.000 A 
ATOM      6  C   UNL     1       3.988  -0.354   1.262  0.00  0.00    +0.000 A 
ATOM      7  C   UNL     1       4.839  -0.443   2.463  0.00  0.00    +0.000 A 
ATOM      8  O   UNL     1       4.553   0.181   3.475  0.00  0.00    +0.000 OA
ATOM      9  N   UNL     1       5.954  -1.216   2.364  0.00  0.00    +0.000 N 
ATOM     10  C   UNL     1       6.289  -1.958   1.226  0.00  0.00    +0.000 A 
ATOM     11  C   UNL     1       7.462  -2.719   1.245  0.00  0.00    +0.000 A 
ATOM     12  C   UNL     1       7.800  -3.483   0.134  0.00  0.00    +0.000 A 
ATOM     13  C   UNL     1       6.946  -3.502  -0.967  0.00  0.00    +0.000 A 
ATOM     14  F   UNL     1       7.263  -4.260  -2.021  0.00  0.00    +0.000 F 
ATOM     15  C   UNL     1       5.781  -2.739  -0.992  0.00  0.00    +0.000 A 
ATOM     16  C   UNL     1       5.445  -1.930   0.099  0.00  0.00    +0.000 A 
ATOM     17  H   UNL     1       6.537  -1.253   3.192  0.00  0.00    +0.000 HD
ENDBRANCH   2   5
BRANCH   3  18
ATOM     18  C   UNL     1       2.234   1.010  -2.317  0.00  0.00    +0.000 C 
BRANCH  18  19
ATOM     19  C   UNL     1       3.148   1.580  -3.374  0.00  0.00    +0.000 A 
ATOM     20  C   UNL     1       3.712   0.733  -4.319  0.00  0.00    +0.000 A 
ATOM     21  C   UNL     1       4.445   1.289  -5.364  0.00  0.00    +0.000 A 
ATOM     22  C   UNL     1       4.724   2.649  -5.351  0.00  0.00    +0.000 A 
ATOM     23  C   UNL     1       4.192   3.411  -4.327  0.00  0.00    +0.000 A 
ATOM     24  N   UNL     1       3.400   2.914  -3.352  0.00  0.00    +0.000 NA
BRANCH  21  25
ATOM     25  O   UNL     1       4.941   0.564  -6.425  0.00  0.00    +0.000 OA
BRANCH  25  26
ATOM     26  C   UNL     1       4.247  -0.546  -6.862  0.00  0.00    +0.000 A 
ATOM     27  C   UNL     1       2.848  -0.646  -6.861  0.00  0.00    +0.000 A 
ATOM     28  C   UNL     1       2.228  -1.840  -7.237  0.00  0.00    +0.000 A 
ATOM     29  C   UNL     1       3.007  -2.900  -7.683  0.00  0.00    +0.000 A 
ATOM     30  F   UNL     1       2.410  -4.046  -8.042  0.00  0.00    +0.000 F 
ATOM     31  C   UNL     1       4.389  -2.770  -7.768  0.00  0.00    +0.000 A 
ATOM     32  F   UNL     1       5.131  -3.784  -8.239  0.00  0.00    +0.000 F 
ATOM     33  C   UNL     1       5.018  -1.599  -7.358  0.00  0.00    +0.000 A 
ENDBRANCH  25  26
ENDBRANCH  21  25
ENDBRANCH  18  19
ENDBRANCH   3  18
TORSDOF 5
