REMARK  Name = 
REMARK  10 active torsions:
REMARK  status: ('A' for Active; 'I' for Inactive)
REMARK    1  A    between atoms: C_2  and  C_4
REMARK    2  A    between atoms: C_4  and  N_5
REMARK    3  A    between atoms: N_5  and  C_6
REMARK    4  A    between atoms: C_6  and  C_7
REMARK    5  A    between atoms: C_10  and  C_11
REMARK    6  A    between atoms: C_19  and  C_21
REMARK    7  A    between atoms: C_21  and  C_22
REMARK    8  A    between atoms: C_22  and  O_23
REMARK    9  A    between atoms: C_22  and  C_24
REMARK   10  A    between atoms: C_22  and  C_30
REMARK                            x       y       z     vdW  Elec       q    Type
REMARK                         _______ _______ _______ _____ _____    ______ ____
ROOT
ATOM      1  N   UNL     1       4.672  -1.047  -0.496  0.00  0.00    +0.000 N 
ATOM      2  C   UNL     1       5.507  -2.134  -0.733  0.00  0.00    +0.000 C 
ATOM      3  O   UNL     1       5.075  -3.168  -1.237  0.00  0.00    +0.000 OA
ENDROOT
BRANCH   2   4
ATOM      4  C   UNL     1       6.977  -1.984  -0.356  0.00  0.00    +0.000 C 
BRANCH   4   5
ATOM      5  C   UNL     1       7.796  -3.285  -0.534  0.00  0.00    +0.000 C 
BRANCH   5   6
ATOM      6  C   UNL     1       9.292  -3.081  -0.207  0.00  0.00    +0.000 A 
ATOM      7  C   UNL     1       9.739  -2.183   0.777  0.00  0.00    +0.000 A 
ATOM      8  C   UNL     1      11.096  -2.087   1.100  0.00  0.00    +0.000 A 
ATOM      9  C   UNL     1      12.033  -2.887   0.452  0.00  0.00    +0.000 A 
ATOM     10  C   UNL     1      11.616  -3.781  -0.527  0.00  0.00    +0.000 A 
ATOM     11  C   UNL     1      10.261  -3.881  -0.850  0.00  0.00    +0.000 A 
ENDBRANCH   5   6
BRANCH   5  12
ATOM     12  C   UNL     1       7.198  -4.428   0.371  0.00  0.00    +0.000 C 
ATOM     13  F   UNL     1       6.211  -3.968   1.184  0.00  0.00    +0.000 F 
ATOM     14  F   UNL     1       6.695  -5.459  -0.344  0.00  0.00    +0.000 F 
ATOM     15  F   UNL     1       8.128  -4.962   1.205  0.00  0.00    +0.000 F 
ENDBRANCH   5  12
BRANCH   5  16
ATOM     16  O   UNL     1       7.755  -3.598  -1.952  0.00  0.00    +0.000 OA
ATOM     17  H   UNL     1       8.251  -2.912  -2.429  0.00  0.00    +0.000 HD
ENDBRANCH   5  16
ENDBRANCH   4   5
ENDBRANCH   2   4
BRANCH   1  18
ATOM     18  C   UNL     1       5.115   0.235   0.064  0.00  0.00    +0.000 C 
BRANCH  18  19
ATOM     19  C   UNL     1       4.564   0.554   1.433  0.00  0.00    +0.000 A 
ATOM     20  C   UNL     1       4.162  -0.427   2.346  0.00  0.00    +0.000 A 
ATOM     21  C   UNL     1       3.480  -0.070   3.517  0.00  0.00    +0.000 A 
ATOM     22  C   UNL     1       3.231   1.274   3.844  0.00  0.00    +0.000 A 
ATOM     23  C   UNL     1       3.782   2.245   2.991  0.00  0.00    +0.000 A 
ATOM     24  C   UNL     1       4.431   1.895   1.805  0.00  0.00    +0.000 A 
BRANCH  22  25
ATOM     25  C   UNL     1       2.399   1.663   5.010  0.00  0.00    +0.000 A 
ATOM     26  C   UNL     1       2.332   0.879   6.175  0.00  0.00    +0.000 A 
ATOM     27  C   UNL     1       1.544   1.258   7.268  0.00  0.00    +0.000 A 
ATOM     28  C   UNL     1       0.805   2.437   7.223  0.00  0.00    +0.000 A 
ATOM     29  C   UNL     1       0.837   3.224   6.080  0.00  0.00    +0.000 A 
ATOM     30  C   UNL     1       1.616   2.836   4.987  0.00  0.00    +0.000 A 
ENDBRANCH  22  25
ENDBRANCH  18  19
ENDBRANCH   1  18
BRANCH   1  31
ATOM     31  C   UNL     1       3.223  -1.243  -0.735  0.00  0.00    +0.000 C 
BRANCH  31  33
ATOM     32  N   UNL     1       3.486  -0.190  -2.966  0.00  0.00    +0.000 N 
ATOM     33  C   UNL     1       2.650  -0.819  -2.099  0.00  0.00    +0.000 C 
ATOM     34  O   UNL     1       1.466  -0.981  -2.394  0.00  0.00    +0.000 OA
ATOM     35  H   UNL     1       3.107  -0.044  -3.889  0.00  0.00    +0.000 HD
ATOM     36  H   UNL     1       4.483  -0.326  -2.883  0.00  0.00    +0.000 HD
ENDBRANCH  31  33
ENDBRANCH   1  31
TORSDOF 10
