REMARK  Name = 
REMARK  8 active torsions:
REMARK  status: ('A' for Active; 'I' for Inactive)
REMARK    1  A    between atoms: C_2  and  C_4
REMARK    2  A    between atoms: C_4  and  N_5
REMARK    3  A    between atoms: N_5  and  C_6
REMARK    4  A    between atoms: C_6  and  C_7
REMARK    5  A    between atoms: C_10  and  C_11
REMARK    6  A    between atoms: C_19  and  C_21
REMARK    7  A    between atoms: N_23  and  C_24
REMARK    8  A    between atoms: C_32  and  O_33
REMARK                            x       y       z     vdW  Elec       q    Type
REMARK                         _______ _______ _______ _____ _____    ______ ____
ROOT
ATOM      1  N   UNL     1       4.716   0.629  -1.002  0.00  0.00    +0.000 N 
ATOM      2  C   UNL     1       5.604   1.461  -1.719  0.00  0.00    +0.000 C 
ATOM      3  O   UNL     1       5.145   2.305  -2.498  0.00  0.00    +0.000 OA
ENDROOT
BRANCH   2   4
ATOM      4  C   UNL     1       7.062   1.354  -1.496  0.00  0.00    +0.000 A 
ATOM      5  N   UNL     1       7.680   0.202  -1.177  0.00  0.00    +0.000 NA
ATOM      6  N   UNL     1       8.982   0.518  -0.983  0.00  0.00    +0.000 N 
ATOM      7  C   UNL     1       9.234   1.837  -1.283  0.00  0.00    +0.000 A 
ATOM      8  C   UNL     1       8.026   2.384  -1.616  0.00  0.00    +0.000 A 
BRANCH   6   9
ATOM      9  C   UNL     1       9.902  -0.470  -0.534  0.00  0.00    +0.000 A 
ATOM     10  C   UNL     1       9.449  -1.777  -0.276  0.00  0.00    +0.000 A 
ATOM     11  C   UNL     1      10.341  -2.764   0.148  0.00  0.00    +0.000 A 
ATOM     12  C   UNL     1      11.687  -2.449   0.326  0.00  0.00    +0.000 A 
ATOM     13  C   UNL     1      12.126  -1.154   0.083  0.00  0.00    +0.000 A 
ATOM     14  F   UNL     1      13.420  -0.855   0.259  0.00  0.00    +0.000 F 
ATOM     15  C   UNL     1      11.252  -0.162  -0.344  0.00  0.00    +0.000 A 
ENDBRANCH   6   9
BRANCH   8  16
ATOM     16  O   UNL     1       7.853   3.672  -1.950  0.00  0.00    +0.000 OA
ATOM     17  H   UNL     1       8.709   4.124  -2.041  0.00  0.00    +0.000 HD
ENDBRANCH   8  16
ENDBRANCH   2   4
BRANCH   1  18
ATOM     18  C   UNL     1       5.114  -0.226   0.128  0.00  0.00    +0.000 C 
BRANCH  18  19
ATOM     19  C   UNL     1       5.517   0.513   1.392  0.00  0.00    +0.000 A 
ATOM     20  C   UNL     1       5.377   1.896   1.552  0.00  0.00    +0.000 A 
ATOM     21  C   UNL     1       5.867   2.549   2.688  0.00  0.00    +0.000 A 
ATOM     22  C   UNL     1       6.485   1.851   3.738  0.00  0.00    +0.000 A 
ATOM     23  C   UNL     1       6.557   0.453   3.602  0.00  0.00    +0.000 A 
ATOM     24  C   UNL     1       6.090  -0.203   2.455  0.00  0.00    +0.000 A 
BRANCH  22  25
ATOM     25  C   UNL     1       7.029   2.557   4.924  0.00  0.00    +0.000 A 
ATOM     26  C   UNL     1       6.457   3.753   5.397  0.00  0.00    +0.000 A 
ATOM     27  C   UNL     1       6.957   4.414   6.524  0.00  0.00    +0.000 A 
ATOM     28  C   UNL     1       8.044   3.888   7.214  0.00  0.00    +0.000 A 
ATOM     29  C   UNL     1       8.642   2.716   6.763  0.00  0.00    +0.000 A 
ATOM     30  C   UNL     1       8.146   2.065   5.628  0.00  0.00    +0.000 A 
ENDBRANCH  22  25
ENDBRANCH  18  19
ENDBRANCH   1  18
BRANCH   1  31
ATOM     31  C   UNL     1       3.288   0.933  -1.127  0.00  0.00    +0.000 C 
BRANCH  31  33
ATOM     32  N   UNL     1       2.627   1.341  -3.455  0.00  0.00    +0.000 N 
ATOM     33  C   UNL     1       2.638   0.435  -2.427  0.00  0.00    +0.000 C 
ATOM     34  O   UNL     1       2.164  -0.685  -2.563  0.00  0.00    +0.000 OA
ATOM     35  H   UNL     1       2.258   1.015  -4.339  0.00  0.00    +0.000 HD
ATOM     36  H   UNL     1       3.389   2.015  -3.502  0.00  0.00    +0.000 HD
ENDBRANCH  31  33
ENDBRANCH   1  31
TORSDOF 8
