REMARK  Name = 
REMARK  5 active torsions:
REMARK  status: ('A' for Active; 'I' for Inactive)
REMARK    1  A    between atoms: C_2  and  C_17
REMARK    2  A    between atoms: N_3  and  C_4
REMARK    3  A    between atoms: C_9  and  C_10
REMARK    4  A    between atoms: N_19  and  C_20
REMARK    5  A    between atoms: C_29  and  O_30
REMARK                            x       y       z     vdW  Elec       q    Type
REMARK                         _______ _______ _______ _____ _____    ______ ____
ROOT
ATOM      1  O   UNL     1       0.998   0.294  -0.179  0.00  0.00    +0.000 OA
ATOM      2  C   UNL     1       2.203   0.203   0.024  0.00  0.00    +0.000 C 
ATOM      3  N   UNL     1       2.821  -0.338   1.143  0.00  0.00    +0.000 N 
ATOM      4  H   UNL     1       3.820  -0.176   1.221  0.00  0.00    +0.000 HD
ENDROOT
BRANCH   3   5
ATOM      5  C   UNL     1       2.157  -0.963   2.227  0.00  0.00    +0.000 A 
ATOM      6  C   UNL     1       0.786  -1.234   2.226  0.00  0.00    +0.000 A 
ATOM      7  C   UNL     1       0.171  -1.815   3.331  0.00  0.00    +0.000 A 
ATOM      8  C   UNL     1       0.923  -2.137   4.454  0.00  0.00    +0.000 A 
ATOM      9  F   UNL     1       0.261  -2.661   5.497  0.00  0.00    +0.000 F 
ATOM     10  C   UNL     1       2.311  -1.919   4.508  0.00  0.00    +0.000 A 
ATOM     11  C   UNL     1       2.907  -1.328   3.365  0.00  0.00    +0.000 A 
BRANCH  10  12
ATOM     12  C   UNL     1       3.112  -2.288   5.707  0.00  0.00    +0.000 A 
ATOM     13  C   UNL     1       2.775  -3.394   6.513  0.00  0.00    +0.000 A 
ATOM     14  C   UNL     1       3.513  -3.733   7.653  0.00  0.00    +0.000 A 
ATOM     15  C   UNL     1       4.626  -2.982   8.008  0.00  0.00    +0.000 A 
ATOM     16  C   UNL     1       4.993  -1.889   7.229  0.00  0.00    +0.000 A 
ATOM     17  C   UNL     1       4.240  -1.543   6.101  0.00  0.00    +0.000 A 
ENDBRANCH  10  12
ENDBRANCH   3   5
BRANCH   2  18
ATOM     18  C   UNL     1       3.137   0.830  -1.012  0.00  0.00    +0.000 A 
ATOM     19  N   UNL     1       4.160   1.513  -0.589  0.00  0.00    +0.000 NA
ATOM     20  N   UNL     1       4.874   2.249  -1.541  0.00  0.00    +0.000 N 
ATOM     21  C   UNL     1       4.550   2.258  -2.905  0.00  0.00    +0.000 A 
ATOM     22  O   UNL     1       5.119   2.868  -3.809  0.00  0.00    +0.000 OA
ATOM     23  C   UNL     1       3.425   1.398  -3.318  0.00  0.00    +0.000 A 
ATOM     24  C   UNL     1       2.742   0.674  -2.436  0.00  0.00    +0.000 A 
BRANCH  20  25
ATOM     25  C   UNL     1       5.862   3.129  -0.977  0.00  0.00    +0.000 A 
ATOM     26  C   UNL     1       6.273   4.302  -1.631  0.00  0.00    +0.000 A 
ATOM     27  C   UNL     1       7.194   5.179  -1.047  0.00  0.00    +0.000 A 
ATOM     28  C   UNL     1       7.735   4.891   0.199  0.00  0.00    +0.000 A 
ATOM     29  C   UNL     1       7.357   3.727   0.861  0.00  0.00    +0.000 A 
ATOM     30  C   UNL     1       6.422   2.859   0.282  0.00  0.00    +0.000 A 
ENDBRANCH  20  25
BRANCH  24  31
ATOM     31  O   UNL     1       1.722  -0.176  -2.802  0.00  0.00    +0.000 OA
ATOM     32  H   UNL     1       1.479  -0.013  -3.730  0.00  0.00    +0.000 HD
ENDBRANCH  24  31
ENDBRANCH   2  18
TORSDOF 5
