REMARK  Name = 
REMARK  4 active torsions:
REMARK  status: ('A' for Active; 'I' for Inactive)
REMARK    1  A    between atoms: C_2  and  C_10
REMARK    2  A    between atoms: N_3  and  C_4
REMARK    3  A    between atoms: C_13  and  N_14
REMARK    4  A    between atoms: C_15  and  C_17
REMARK                            x       y       z     vdW  Elec       q    Type
REMARK                         _______ _______ _______ _____ _____    ______ ____
ROOT
ATOM      1  N   UNL     1       4.865  -3.632  -3.841  0.00  0.00    +0.000 N 
ATOM      2  C   UNL     1       4.429  -3.891  -5.135  0.00  0.00    +0.000 C 
ATOM      3  O   UNL     1       3.434  -3.421  -5.677  0.00  0.00    +0.000 OA
ATOM      4  H   UNL     1       5.680  -4.126  -3.502  0.00  0.00    +0.000 HD
ENDROOT
BRANCH   2   5
ATOM      5  C   UNL     1       5.286  -4.774  -5.975  0.00  0.00    +0.000 A 
ATOM      6  C   UNL     1       5.991  -5.880  -5.476  0.00  0.00    +0.000 A 
ATOM      7  C   UNL     1       6.864  -6.584  -6.322  0.00  0.00    +0.000 A 
ATOM      8  C   UNL     1       7.017  -6.175  -7.655  0.00  0.00    +0.000 A 
ATOM      9  N   UNL     1       8.005  -6.767  -8.456  0.00  0.00    +0.000 N 
ATOM     10  C   UNL     1       8.882  -7.708  -7.994  0.00  0.00    +0.000 A 
ATOM     11  O   UNL     1       9.834  -8.109  -8.652  0.00  0.00    +0.000 OA
ATOM     12  C   UNL     1       8.614  -8.242  -6.634  0.00  0.00    +0.000 A 
ATOM     13  C   UNL     1       7.655  -7.725  -5.852  0.00  0.00    +0.000 A 
ATOM     14  C   UNL     1       6.242  -5.139  -8.164  0.00  0.00    +0.000 A 
ATOM     15  F   UNL     1       6.362  -4.777  -9.449  0.00  0.00    +0.000 F 
ATOM     16  C   UNL     1       5.378  -4.440  -7.336  0.00  0.00    +0.000 A 
ATOM     17  H   UNL     1       8.165  -6.410  -9.392  0.00  0.00    +0.000 HD
ENDBRANCH   2   5
BRANCH   1  21
ATOM     18  C   UNL     1       3.057  -1.011  -1.027  0.00  0.00    +0.000 A 
ATOM     19  C   UNL     1       2.623  -1.021  -2.354  0.00  0.00    +0.000 A 
ATOM     20  C   UNL     1       3.230  -1.854  -3.297  0.00  0.00    +0.000 A 
ATOM     21  C   UNL     1       4.274  -2.708  -2.937  0.00  0.00    +0.000 A 
ATOM     22  C   UNL     1       4.751  -2.651  -1.617  0.00  0.00    +0.000 A 
ATOM     23  C   UNL     1       4.145  -1.810  -0.660  0.00  0.00    +0.000 A 
BRANCH  18  25
ATOM     24  O   UNL     1       1.034  -0.197  -0.229  0.00  0.00    +0.000 OA
ATOM     25  C   UNL     1       2.246  -0.230  -0.053  0.00  0.00    +0.000 C 
ATOM     26  N   UNL     1       2.941   0.444   0.939  0.00  0.00    +0.000 N 
ATOM     27  H   UNL     1       3.950   0.485   0.855  0.00  0.00    +0.000 HD
BRANCH  26  28
ATOM     28  C   UNL     1       2.352   1.231   1.959  0.00  0.00    +0.000 A 
ATOM     29  C   UNL     1       0.991   1.225   2.267  0.00  0.00    +0.000 A 
ATOM     30  C   UNL     1       0.494   2.049   3.277  0.00  0.00    +0.000 A 
ATOM     31  C   UNL     1       1.383   2.860   3.961  0.00  0.00    +0.000 A 
ATOM     32  N   UNL     1       2.710   2.886   3.713  0.00  0.00    +0.000 NA
ATOM     33  C   UNL     1       3.157   2.072   2.724  0.00  0.00    +0.000 A 
ENDBRANCH  26  28
ENDBRANCH  18  25
ENDBRANCH   1  21
TORSDOF 4
