REMARK  Name = 
REMARK  5 active torsions:
REMARK  status: ('A' for Active; 'I' for Inactive)
REMARK    1  A    between atoms: C_2  and  C_20
REMARK    2  A    between atoms: N_3  and  C_4
REMARK    3  A    between atoms: C_7  and  N_8
REMARK    4  A    between atoms: C_9  and  C_11
REMARK    5  A    between atoms: C_13  and  O_14
REMARK                            x       y       z     vdW  Elec       q    Type
REMARK                         _______ _______ _______ _____ _____    ______ ____
ROOT
ATOM      1  C   UNL     1       2.186  -1.659   1.596  0.00  0.00    +0.000 A 
ATOM      2  C   UNL     1       1.076  -2.352   1.121  0.00  0.00    +0.000 A 
ATOM      3  C   UNL     1       0.496  -3.369   1.883  0.00  0.00    +0.000 A 
ATOM      4  C   UNL     1       1.045  -3.697   3.115  0.00  0.00    +0.000 A 
ATOM      5  N   UNL     1       2.136  -3.065   3.579  0.00  0.00    +0.000 NA
ATOM      6  C   UNL     1       2.685  -2.079   2.823  0.00  0.00    +0.000 A 
ENDROOT
BRANCH   1   9
ATOM      7  O   UNL     1       1.083  -0.068  -0.578  0.00  0.00    +0.000 OA
ATOM      8  C   UNL     1       2.227   0.094  -0.165  0.00  0.00    +0.000 C 
ATOM      9  N   UNL     1       2.807  -0.589   0.898  0.00  0.00    +0.000 N 
ATOM     10  H   UNL     1       3.653  -0.217   1.308  0.00  0.00    +0.000 HD
BRANCH   8  11
ATOM     11  C   UNL     1       3.027   1.159  -0.814  0.00  0.00    +0.000 A 
ATOM     12  C   UNL     1       4.406   1.141  -0.878  0.00  0.00    +0.000 A 
ATOM     13  N   UNL     1       5.143   2.124  -1.449  0.00  0.00    +0.000 NA
ATOM     14  C   UNL     1       4.502   3.175  -2.018  0.00  0.00    +0.000 A 
ATOM     15  C   UNL     1       5.201   4.250  -2.569  0.00  0.00    +0.000 A 
ATOM     16  F   UNL     1       6.545   4.259  -2.533  0.00  0.00    +0.000 F 
ATOM     17  C   UNL     1       4.562   5.348  -3.149  0.00  0.00    +0.000 A 
ATOM     18  C   UNL     1       3.176   5.374  -3.232  0.00  0.00    +0.000 A 
ATOM     19  C   UNL     1       2.442   4.317  -2.697  0.00  0.00    +0.000 A 
ATOM     20  C   UNL     1       3.093   3.239  -2.066  0.00  0.00    +0.000 A 
ATOM     21  C   UNL     1       2.365   2.213  -1.449  0.00  0.00    +0.000 A 
ENDBRANCH   8  11
ENDBRANCH   1   9
BRANCH   4  22
ATOM     22  N   UNL     1       0.403  -4.692   3.874  0.00  0.00    +0.000 N 
ATOM     23  C   UNL     1       0.851  -5.147   5.100  0.00  0.00    +0.000 C 
ATOM     24  O   UNL     1       1.903  -4.854   5.658  0.00  0.00    +0.000 OA
ATOM     25  H   UNL     1      -0.417  -5.117   3.465  0.00  0.00    +0.000 HD
BRANCH  23  26
ATOM     26  C   UNL     1      -0.038  -6.118   5.802  0.00  0.00    +0.000 A 
ATOM     27  C   UNL     1       0.558  -7.054   6.663  0.00  0.00    +0.000 A 
ATOM     28  C   UNL     1      -0.243  -7.917   7.404  0.00  0.00    +0.000 A 
ATOM     29  C   UNL     1      -1.627  -7.868   7.299  0.00  0.00    +0.000 A 
ATOM     30  C   UNL     1      -2.226  -6.939   6.448  0.00  0.00    +0.000 A 
ATOM     31  C   UNL     1      -1.435  -6.061   5.700  0.00  0.00    +0.000 A 
BRANCH  28  32
ATOM     32  O   UNL     1       0.296  -8.822   8.269  0.00  0.00    +0.000 OA
ATOM     33  H   UNL     1       1.256  -8.675   8.319  0.00  0.00    +0.000 HD
ENDBRANCH  28  32
ENDBRANCH  23  26
ENDBRANCH   4  22
TORSDOF 5
