REMARK  Name = 
REMARK  5 active torsions:
REMARK  status: ('A' for Active; 'I' for Inactive)
REMARK    1  A    between atoms: C_2  and  C_17
REMARK    2  A    between atoms: N_3  and  C_4
REMARK    3  A    between atoms: C_4  and  C_5
REMARK    4  A    between atoms: C_8  and  C_9
REMARK    5  A    between atoms: N_19  and  C_20
REMARK                            x       y       z     vdW  Elec       q    Type
REMARK                         _______ _______ _______ _____ _____    ______ ____
ROOT
ATOM      1  O   UNL     1       0.933  -0.329  -0.153  0.00  0.00    +0.000 OA
ATOM      2  C   UNL     1       2.150  -0.194  -0.127  0.00  0.00    +0.000 C 
ATOM      3  N   UNL     1       2.824   0.714  -0.908  0.00  0.00    +0.000 N 
ATOM      4  H   UNL     1       3.831   0.699  -0.956  0.00  0.00    +0.000 HD
ENDROOT
BRANCH   2   5
ATOM      5  C   UNL     1       3.016  -1.025   0.778  0.00  0.00    +0.000 A 
ATOM      6  C   UNL     1       2.492  -2.172   1.245  0.00  0.00    +0.000 A 
ATOM      7  N   UNL     1       3.147  -2.958   2.194  0.00  0.00    +0.000 N 
ATOM      8  C   UNL     1       4.400  -2.586   2.711  0.00  0.00    +0.000 A 
ATOM      9  O   UNL     1       5.056  -3.206   3.545  0.00  0.00    +0.000 OA
ATOM     10  C   UNL     1       4.985  -1.338   2.153  0.00  0.00    +0.000 A 
ATOM     11  C   UNL     1       4.317  -0.604   1.254  0.00  0.00    +0.000 A 
BRANCH   7  12
ATOM     12  C   UNL     1       2.512  -4.129   2.712  0.00  0.00    +0.000 A 
ATOM     13  C   UNL     1       2.335  -4.284   4.092  0.00  0.00    +0.000 A 
ATOM     14  C   UNL     1       1.662  -5.399   4.574  0.00  0.00    +0.000 A 
ATOM     15  F   UNL     1       1.440  -5.518   5.892  0.00  0.00    +0.000 F 
ATOM     16  C   UNL     1       1.194  -6.390   3.715  0.00  0.00    +0.000 A 
ATOM     17  C   UNL     1       1.391  -6.253   2.343  0.00  0.00    +0.000 A 
ATOM     18  C   UNL     1       2.032  -5.117   1.842  0.00  0.00    +0.000 A 
ENDBRANCH   7  12
ENDBRANCH   2   5
BRANCH   3  19
ATOM     19  C   UNL     1       2.139   1.633  -1.789  0.00  0.00    +0.000 C 
BRANCH  19  20
ATOM     20  C   UNL     1       2.583   1.425  -3.212  0.00  0.00    +0.000 A 
ATOM     21  C   UNL     1       1.920   0.509  -4.032  0.00  0.00    +0.000 A 
ATOM     22  C   UNL     1       2.357   0.278  -5.343  0.00  0.00    +0.000 A 
ATOM     23  C   UNL     1       3.472   0.949  -5.876  0.00  0.00    +0.000 A 
ATOM     24  C   UNL     1       4.121   1.874  -5.036  0.00  0.00    +0.000 A 
ATOM     25  C   UNL     1       3.693   2.103  -3.723  0.00  0.00    +0.000 A 
BRANCH  23  26
ATOM     26  C   UNL     1       3.956   0.686  -7.246  0.00  0.00    +0.000 A 
ATOM     27  C   UNL     1       3.133   0.321  -8.301  0.00  0.00    +0.000 A 
ATOM     28  N   UNL     1       3.552   0.066  -9.562  0.00  0.00    +0.000 NA
ATOM     29  C   UNL     1       4.868   0.192  -9.773  0.00  0.00    +0.000 A 
ATOM     30  N   UNL     1       5.777   0.539  -8.854  0.00  0.00    +0.000 NA
ATOM     31  C   UNL     1       5.292   0.771  -7.613  0.00  0.00    +0.000 A 
ENDBRANCH  23  26
ENDBRANCH  19  20
ENDBRANCH   3  19
TORSDOF 5
