REMARK  Name = 
REMARK  5 active torsions:
REMARK  status: ('A' for Active; 'I' for Inactive)
REMARK    1  A    between atoms: C_2  and  C_3
REMARK    2  A    between atoms: C_8  and  O_9
REMARK    3  A    between atoms: O_9  and  C_10
REMARK    4  A    between atoms: C_13  and  N_14
REMARK    5  A    between atoms: C_15  and  C_17
REMARK                            x       y       z     vdW  Elec       q    Type
REMARK                         _______ _______ _______ _____ _____    ______ ____
ROOT
ATOM      1  C   UNL     1      -1.853   2.485  -0.080  0.00  0.00    +0.000 A 
ATOM      2  C   UNL     1      -2.512   3.029  -1.180  0.00  0.00    +0.000 A 
ATOM      3  C   UNL     1      -3.904   3.123  -1.189  0.00  0.00    +0.000 A 
ATOM      4  C   UNL     1      -4.650   2.653  -0.105  0.00  0.00    +0.000 A 
ATOM      5  C   UNL     1      -3.984   2.178   1.027  0.00  0.00    +0.000 A 
ATOM      6  C   UNL     1      -2.592   2.156   1.055  0.00  0.00    +0.000 A 
ATOM      7  F   UNL     1      -1.986   1.743   2.178  0.00  0.00    +0.000 F 
ENDROOT
BRANCH   4   8
ATOM      8  N   UNL     1      -6.057   2.583  -0.123  0.00  0.00    +0.000 N 
ATOM      9  C   UNL     1      -6.891   3.273  -0.990  0.00  0.00    +0.000 C 
ATOM     10  O   UNL     1      -6.542   4.159  -1.758  0.00  0.00    +0.000 OA
ATOM     11  H   UNL     1      -6.463   1.957   0.560  0.00  0.00    +0.000 HD
BRANCH   9  12
ATOM     12  C   UNL     1      -8.336   2.924  -0.924  0.00  0.00    +0.000 A 
ATOM     13  C   UNL     1      -8.897   2.591   0.324  0.00  0.00    +0.000 A 
ATOM     14  C   UNL     1     -10.245   2.255   0.434  0.00  0.00    +0.000 A 
ATOM     15  C   UNL     1     -11.056   2.276  -0.695  0.00  0.00    +0.000 A 
ATOM     16  C   UNL     1     -10.514   2.631  -1.936  0.00  0.00    +0.000 A 
ATOM     17  C   UNL     1      -9.163   2.954  -2.063  0.00  0.00    +0.000 A 
ATOM     18  C   UNL     1      -8.700   3.275  -3.423  0.00  0.00    +0.000 A 
ATOM     19  N   UNL     1      -9.462   3.280  -4.478  0.00  0.00    +0.000 NA
ATOM     20  N   UNL     1     -10.775   2.974  -4.314  0.00  0.00    +0.000 N 
ATOM     21  C   UNL     1     -11.382   2.648  -3.127  0.00  0.00    +0.000 A 
ATOM     22  O   UNL     1     -12.575   2.379  -3.048  0.00  0.00    +0.000 OA
ATOM     23  H   UNL     1     -11.351   2.983  -5.150  0.00  0.00    +0.000 HD
ENDBRANCH   9  12
ENDBRANCH   4   8
BRANCH   1  24
ATOM     24  O   UNL     1      -0.500   2.330  -0.233  0.00  0.00    +0.000 OA
BRANCH  24  30
ATOM     25  C   UNL     1      -0.233  -0.001   0.640  0.00  0.00    +0.000 A 
ATOM     26  C   UNL     1       0.630  -0.881   1.317  0.00  0.00    +0.000 A 
ATOM     27  C   UNL     1       1.917  -0.486   1.681  0.00  0.00    +0.000 A 
ATOM     28  C   UNL     1       2.357   0.798   1.377  0.00  0.00    +0.000 A 
ATOM     29  C   UNL     1       1.496   1.693   0.744  0.00  0.00    +0.000 A 
ATOM     30  C   UNL     1       0.188   1.318   0.399  0.00  0.00    +0.000 A 
BRANCH  25  32
ATOM     31  N   UNL     1      -2.527  -0.997  -0.060  0.00  0.00    +0.000 NA
ATOM     32  C   UNL     1      -1.503  -0.535   0.226  0.00  0.00    +0.000 C 
ENDBRANCH  25  32
ENDBRANCH  24  30
ENDBRANCH   1  24
TORSDOF 5
