REMARK  Name = 
REMARK  5 active torsions:
REMARK  status: ('A' for Active; 'I' for Inactive)
REMARK    1  A    between atoms: C_2  and  C_17
REMARK    2  A    between atoms: N_3  and  C_4
REMARK    3  A    between atoms: C_9  and  O_10
REMARK    4  A    between atoms: O_10  and  C_11
REMARK    5  A    between atoms: N_19  and  C_20
REMARK                            x       y       z     vdW  Elec       q    Type
REMARK                         _______ _______ _______ _____ _____    ______ ____
ROOT
ATOM      1  O   UNL     1       0.977  -0.255   0.521  0.00  0.00    +0.000 OA
ATOM      2  C   UNL     1       2.196  -0.320   0.430  0.00  0.00    +0.000 C 
ATOM      3  N   UNL     1       2.892  -1.024  -0.541  0.00  0.00    +0.000 N 
ATOM      4  H   UNL     1       3.793  -1.388  -0.242  0.00  0.00    +0.000 HD
ENDROOT
BRANCH   2   5
ATOM      5  C   UNL     1       3.046   0.280   1.528  0.00  0.00    +0.000 A 
ATOM      6  N   UNL     1       4.233  -0.231   1.731  0.00  0.00    +0.000 NA
ATOM      7  N   UNL     1       4.981   0.290   2.770  0.00  0.00    +0.000 N 
ATOM      8  C   UNL     1       4.419   1.119   3.724  0.00  0.00    +0.000 A 
ATOM      9  C   UNL     1       3.225   1.700   3.625  0.00  0.00    +0.000 A 
ATOM     10  C   UNL     1       2.526   1.434   2.368  0.00  0.00    +0.000 A 
ATOM     11  O   UNL     1       1.599   2.128   1.996  0.00  0.00    +0.000 OA
BRANCH   7  12
ATOM     12  C   UNL     1       6.383  -0.006   2.712  0.00  0.00    +0.000 A 
ATOM     13  C   UNL     1       6.843  -1.131   2.001  0.00  0.00    +0.000 A 
ATOM     14  C   UNL     1       8.208  -1.408   1.865  0.00  0.00    +0.000 A 
ATOM     15  C   UNL     1       9.152  -0.559   2.435  0.00  0.00    +0.000 A 
ATOM     16  C   UNL     1       8.727   0.554   3.153  0.00  0.00    +0.000 A 
ATOM     17  C   UNL     1       7.365   0.820   3.290  0.00  0.00    +0.000 A 
ATOM     18  F   UNL     1       7.030   1.938   3.954  0.00  0.00    +0.000 F 
ENDBRANCH   7  12
ENDBRANCH   2   5
BRANCH   3  19
ATOM     19  C   UNL     1       2.193  -1.698  -1.570  0.00  0.00    +0.000 A 
ATOM     20  C   UNL     1       1.234  -1.016  -2.324  0.00  0.00    +0.000 A 
ATOM     21  N   UNL     1       0.589  -1.530  -3.398  0.00  0.00    +0.000 NA
ATOM     22  C   UNL     1       0.888  -2.799  -3.730  0.00  0.00    +0.000 A 
ATOM     23  C   UNL     1       1.786  -3.581  -3.025  0.00  0.00    +0.000 A 
ATOM     24  C   UNL     1       2.438  -3.033  -1.916  0.00  0.00    +0.000 A 
BRANCH  24  25
ATOM     25  O   UNL     1       3.300  -3.905  -1.290  0.00  0.00    +0.000 OA
BRANCH  25  26
ATOM     26  C   UNL     1       3.434  -3.940   0.078  0.00  0.00    +0.000 A 
ATOM     27  C   UNL     1       2.470  -3.547   1.009  0.00  0.00    +0.000 A 
ATOM     28  C   UNL     1       2.798  -3.487   2.366  0.00  0.00    +0.000 A 
ATOM     29  C   UNL     1       4.054  -3.906   2.803  0.00  0.00    +0.000 A 
ATOM     30  C   UNL     1       4.973  -4.414   1.888  0.00  0.00    +0.000 A 
ATOM     31  C   UNL     1       4.664  -4.427   0.528  0.00  0.00    +0.000 A 
ENDBRANCH  25  26
ENDBRANCH  24  25
ENDBRANCH   3  19
TORSDOF 5
