REMARK  Name = 
REMARK  7 active torsions:
REMARK  status: ('A' for Active; 'I' for Inactive)
REMARK    1  A    between atoms: C_1  and  C_2
REMARK    2  A    between atoms: C_7  and  C_8
REMARK    3  A    between atoms: N_10  and  C_11
REMARK    4  A    between atoms: N_10  and  C_15
REMARK    5  A    between atoms: C_11  and  C_12
REMARK    6  A    between atoms: C_15  and  C_16
REMARK    7  A    between atoms: C_19  and  C_20
REMARK                            x       y       z     vdW  Elec       q    Type
REMARK                         _______ _______ _______ _____ _____    ______ ____
ROOT
ATOM      1  C   UNL     1       3.723  -1.928   0.836  0.00  0.00    +0.000 C 
ATOM      2  O   UNL     1       2.642  -1.339   0.934  0.00  0.00    +0.000 OA
ATOM      3  N   UNL     1       4.889  -1.224   0.534  0.00  0.00    +0.000 N 
ENDROOT
BRANCH   1  10
ATOM      4  C   UNL     1       5.128  -9.601   2.449  0.00  0.00    +0.000 C 
ATOM      5  C   UNL     1       5.073  -8.127   2.169  0.00  0.00    +0.000 A 
ATOM      6  C   UNL     1       6.162  -7.297   2.469  0.00  0.00    +0.000 A 
ATOM      7  C   UNL     1       6.094  -5.923   2.221  0.00  0.00    +0.000 A 
ATOM      8  C   UNL     1       4.929  -5.370   1.694  0.00  0.00    +0.000 A 
ATOM      9  O   UNL     1       4.923  -4.017   1.481  0.00  0.00    +0.000 OA
ATOM     10  C   UNL     1       3.758  -3.419   1.044  0.00  0.00    +0.000 A 
ATOM     11  C   UNL     1       2.616  -4.083   0.819  0.00  0.00    +0.000 A 
ATOM     12  C   UNL     1       2.597  -5.551   0.947  0.00  0.00    +0.000 A 
ATOM     13  O   UNL     1       1.589  -6.195   0.682  0.00  0.00    +0.000 OA
ATOM     14  C   UNL     1       3.837  -6.184   1.415  0.00  0.00    +0.000 A 
ATOM     15  C   UNL     1       3.910  -7.564   1.623  0.00  0.00    +0.000 A 
ENDBRANCH   1  10
BRANCH   3  16
ATOM     16  C   UNL     1       4.729   0.193   0.156  0.00  0.00    +0.000 C 
BRANCH  16  17
ATOM     17  C   UNL     1       4.537   1.196   1.300  0.00  0.00    +0.000 C 
ATOM     18  N   UNL     1       3.669   0.836   2.291  0.00  0.00    +0.000 N 
ATOM     19  O   UNL     1       4.998   2.334   1.269  0.00  0.00    +0.000 OA
ATOM     20  H   UNL     1       2.980   0.115   2.080  0.00  0.00    +0.000 HD
ATOM     21  H   UNL     1       3.378   1.577   2.914  0.00  0.00    +0.000 HD
ENDBRANCH  16  17
ENDBRANCH   3  16
BRANCH   3  22
ATOM     22  C   UNL     1       6.218  -1.810   0.295  0.00  0.00    +0.000 C 
BRANCH  22  23
ATOM     23  C   UNL     1       7.107  -2.006   1.507  0.00  0.00    +0.000 A 
ATOM     24  C   UNL     1       6.725  -1.666   2.806  0.00  0.00    +0.000 A 
ATOM     25  C   UNL     1       7.559  -1.956   3.896  0.00  0.00    +0.000 A 
ATOM     26  C   UNL     1       8.805  -2.594   3.742  0.00  0.00    +0.000 A 
ATOM     27  C   UNL     1       9.202  -2.886   2.429  0.00  0.00    +0.000 A 
ATOM     28  C   UNL     1       8.370  -2.595   1.333  0.00  0.00    +0.000 A 
BRANCH  26  29
ATOM     29  C   UNL     1       9.633  -2.937   4.926  0.00  0.00    +0.000 A 
ATOM     30  C   UNL     1       9.031  -3.337   6.136  0.00  0.00    +0.000 A 
ATOM     31  C   UNL     1       9.785  -3.598   7.286  0.00  0.00    +0.000 A 
ATOM     32  C   UNL     1      11.169  -3.487   7.248  0.00  0.00    +0.000 A 
ATOM     33  C   UNL     1      11.796  -3.129   6.057  0.00  0.00    +0.000 A 
ATOM     34  C   UNL     1      11.037  -2.856   4.910  0.00  0.00    +0.000 A 
ENDBRANCH  26  29
ENDBRANCH  22  23
ENDBRANCH   3  22
TORSDOF 6
