REMARK  Name = 
REMARK  6 active torsions:
REMARK  status: ('A' for Active; 'I' for Inactive)
REMARK    1  A    between atoms: C_2  and  C_4
REMARK    2  A    between atoms: C_4  and  N_5
REMARK    3  A    between atoms: N_5  and  C_6
REMARK    4  A    between atoms: C_6  and  C_7
REMARK    5  A    between atoms: C_10  and  C_11
REMARK    6  A    between atoms: C_19  and  C_21
REMARK                            x       y       z     vdW  Elec       q    Type
REMARK                         _______ _______ _______ _____ _____    ______ ____
ROOT
ATOM      1  N   UNL     1       4.790   0.768  -0.746  0.00  0.00    +0.000 N 
ATOM      2  C   UNL     1       5.718   1.400  -1.586  0.00  0.00    +0.000 C 
ATOM      3  O   UNL     1       6.928   1.185  -1.514  0.00  0.00    +0.000 OA
ENDROOT
BRANCH   2   4
ATOM      4  C   UNL     1       5.215   2.485  -2.509  0.00  0.00    +0.000 A 
ATOM      5  C   UNL     1       5.935   3.608  -2.658  0.00  0.00    +0.000 A 
ATOM      6  C   UNL     1       5.263   4.775  -3.226  0.00  0.00    +0.000 A 
ATOM      7  C   UNL     1       5.849   6.045  -3.182  0.00  0.00    +0.000 A 
ATOM      8  C   UNL     1       5.097   7.180  -3.507  0.00  0.00    +0.000 A 
ATOM      9  C   UNL     1       3.764   7.055  -3.900  0.00  0.00    +0.000 A 
ATOM     10  C   UNL     1       3.192   5.792  -4.007  0.00  0.00    +0.000 A 
ATOM     11  C   UNL     1       3.943   4.658  -3.671  0.00  0.00    +0.000 A 
ATOM     12  C   UNL     1       3.304   3.330  -3.748  0.00  0.00    +0.000 A 
ATOM     13  O   UNL     1       2.239   3.158  -4.317  0.00  0.00    +0.000 OA
ATOM     14  O   UNL     1       3.958   2.315  -3.122  0.00  0.00    +0.000 OA
ENDBRANCH   2   4
BRANCH   1  15
ATOM     15  C   UNL     1       3.336   1.016  -0.735  0.00  0.00    +0.000 C 
BRANCH  15  17
ATOM     16  N   UNL     1       3.851   3.153   0.403  0.00  0.00    +0.000 N 
ATOM     17  C   UNL     1       2.884   2.348  -0.122  0.00  0.00    +0.000 C 
ATOM     18  O   UNL     1       1.706   2.693  -0.084  0.00  0.00    +0.000 OA
ATOM     19  H   UNL     1       3.540   3.962   0.924  0.00  0.00    +0.000 HD
ATOM     20  H   UNL     1       4.762   2.773   0.635  0.00  0.00    +0.000 HD
ENDBRANCH  15  17
ENDBRANCH   1  15
BRANCH   1  21
ATOM     21  C   UNL     1       5.283  -0.199   0.243  0.00  0.00    +0.000 C 
BRANCH  21  22
ATOM     22  C   UNL     1       5.642   0.455   1.558  0.00  0.00    +0.000 A 
ATOM     23  C   UNL     1       4.686   0.692   2.551  0.00  0.00    +0.000 A 
ATOM     24  C   UNL     1       5.022   1.411   3.710  0.00  0.00    +0.000 A 
ATOM     25  C   UNL     1       6.324   1.898   3.926  0.00  0.00    +0.000 A 
ATOM     26  C   UNL     1       7.284   1.590   2.946  0.00  0.00    +0.000 A 
ATOM     27  C   UNL     1       6.950   0.894   1.779  0.00  0.00    +0.000 A 
BRANCH  25  28
ATOM     28  C   UNL     1       6.670   2.725   5.110  0.00  0.00    +0.000 A 
ATOM     29  C   UNL     1       6.037   2.551   6.354  0.00  0.00    +0.000 A 
ATOM     30  C   UNL     1       6.362   3.348   7.460  0.00  0.00    +0.000 A 
ATOM     31  C   UNL     1       7.337   4.333   7.351  0.00  0.00    +0.000 A 
ATOM     32  C   UNL     1       7.981   4.530   6.135  0.00  0.00    +0.000 A 
ATOM     33  C   UNL     1       7.644   3.741   5.030  0.00  0.00    +0.000 A 
ENDBRANCH  25  28
ENDBRANCH  21  22
ENDBRANCH   1  21
TORSDOF 6
