REMARK  Name = 
REMARK  8 active torsions:
REMARK  status: ('A' for Active; 'I' for Inactive)
REMARK    1  A    between atoms: C_2  and  C_4
REMARK    2  A    between atoms: C_7  and  C_8
REMARK    3  A    between atoms: C_8  and  S_9
REMARK    4  A    between atoms: S_9  and  C_10
REMARK    5  A    between atoms: C_15  and  C_16
REMARK    6  A    between atoms: N_18  and  C_19
REMARK    7  A    between atoms: C_19  and  C_20
REMARK    8  A    between atoms: C_21  and  C_22
REMARK                            x       y       z     vdW  Elec       q    Type
REMARK                         _______ _______ _______ _____ _____    ______ ____
ROOT
ATOM      1  C   UNL     1       5.397   5.051   5.940  0.00  0.00    +0.000 A 
ATOM      2  N   UNL     1       5.147   6.381   5.820  0.00  0.00    +0.000 NA
ATOM      3  C   UNL     1       5.761   7.228   6.677  0.00  0.00    +0.000 A 
ATOM      4  C   UNL     1       6.627   6.821   7.671  0.00  0.00    +0.000 A 
ATOM      5  C   UNL     1       6.918   5.467   7.762  0.00  0.00    +0.000 A 
ATOM      6  C   UNL     1       6.302   4.556   6.888  0.00  0.00    +0.000 A 
ENDROOT
BRANCH   6   7
ATOM      7  C   UNL     1       6.712   3.134   7.039  0.00  0.00    +0.000 C 
ATOM      8  O   UNL     1       7.836   2.870   7.446  0.00  0.00    +0.000 OA
ATOM      9  N   UNL     1       5.784   2.183   6.709  0.00  0.00    +0.000 N 
ATOM     10  H   UNL     1       4.845   2.444   6.446  0.00  0.00    +0.000 HD
BRANCH   9  11
ATOM     11  C   UNL     1       6.073   0.782   6.831  0.00  0.00    +0.000 C 
BRANCH  11  12
ATOM     12  C   UNL     1       5.711   0.267   8.179  0.00  0.00    +0.000 A 
ATOM     13  C   UNL     1       5.893  -1.024   8.639  0.00  0.00    +0.000 A 
ATOM     14  O   UNL     1       5.414  -1.084   9.919  0.00  0.00    +0.000 OA
ATOM     15  C   UNL     1       4.995   0.190  10.168  0.00  0.00    +0.000 A 
ATOM     16  N   UNL     1       5.113   1.028   9.165  0.00  0.00    +0.000 NA
BRANCH  13  17
ATOM     17  C   UNL     1       6.465  -2.226   8.058  0.00  0.00    +0.000 A 
ATOM     18  C   UNL     1       7.545  -2.118   7.165  0.00  0.00    +0.000 A 
ATOM     19  C   UNL     1       8.043  -3.228   6.493  0.00  0.00    +0.000 A 
ATOM     20  C   UNL     1       7.495  -4.480   6.736  0.00  0.00    +0.000 A 
ATOM     21  C   UNL     1       6.449  -4.616   7.652  0.00  0.00    +0.000 A 
ATOM     22  C   UNL     1       5.934  -3.494   8.310  0.00  0.00    +0.000 A 
ENDBRANCH  13  17
ENDBRANCH  11  12
ENDBRANCH   9  11
ENDBRANCH   6   7
BRANCH   1  23
ATOM     23  S   UNL     1       4.383   4.010   4.885  0.00  0.00    +0.000 S 
BRANCH  23  24
ATOM     24  C   UNL     1       3.912   5.170   3.568  0.00  0.00    +0.000 C 
BRANCH  24  28
ATOM     25  C   UNL     1       1.080   3.378   0.825  0.00  0.00    +0.000 A 
ATOM     26  C   UNL     1       0.629   4.131   1.914  0.00  0.00    +0.000 A 
ATOM     27  C   UNL     1       1.547   4.703   2.801  0.00  0.00    +0.000 A 
ATOM     28  C   UNL     1       2.926   4.537   2.608  0.00  0.00    +0.000 A 
ATOM     29  C   UNL     1       3.370   3.757   1.529  0.00  0.00    +0.000 A 
ATOM     30  C   UNL     1       2.453   3.177   0.645  0.00  0.00    +0.000 A 
BRANCH  25  32
ATOM     31  N   UNL     1      -1.090   3.371  -0.279  0.00  0.00    +0.000 N 
ATOM     32  C   UNL     1       0.121   2.750  -0.122  0.00  0.00    +0.000 C 
ATOM     33  O   UNL     1       0.400   1.740  -0.753  0.00  0.00    +0.000 OA
ATOM     34  H   UNL     1      -1.723   2.975  -0.962  0.00  0.00    +0.000 HD
ATOM     35  H   UNL     1      -1.260   4.317   0.029  0.00  0.00    +0.000 HD
ENDBRANCH  25  32
ENDBRANCH  24  28
ENDBRANCH  23  24
ENDBRANCH   1  23
TORSDOF 8
