REMARK  Name = 
REMARK  5 active torsions:
REMARK  status: ('A' for Active; 'I' for Inactive)
REMARK    1  A    between atoms: C_2  and  C_3
REMARK    2  A    between atoms: C_5  and  C_6
REMARK    3  A    between atoms: C_6  and  C_7
REMARK    4  A    between atoms: C_12  and  C_14
REMARK    5  A    between atoms: N_16  and  C_17
REMARK                            x       y       z     vdW  Elec       q    Type
REMARK                         _______ _______ _______ _____ _____    ______ ____
ROOT
ATOM      1  C   UNL     1       1.199  -3.726  -0.043  0.00  0.00    +0.000 A 
ATOM      2  C   UNL     1       0.621  -4.123  -1.232  0.00  0.00    +0.000 A 
ATOM      3  N   UNL     1      -0.198  -5.227  -1.155  0.00  0.00    +0.000 NA
ATOM      4  C   UNL     1      -0.235  -5.670   0.075  0.00  0.00    +0.000 A 
ATOM      5  N   UNL     1      -0.995  -6.699   0.568  0.00  0.00    +0.000 N 
ATOM      6  C   UNL     1      -2.079  -7.151  -0.160  0.00  0.00    +0.000 C 
ATOM      7  O   UNL     1      -2.536  -6.681  -1.192  0.00  0.00    +0.000 OA
ATOM      8  S   UNL     1       0.766  -4.850   1.193  0.00  0.00    +0.000 S 
ATOM      9  H   UNL     1      -0.853  -7.014   1.518  0.00  0.00    +0.000 HD
ENDROOT
BRANCH   6  10
ATOM     10  C   UNL     1      -2.835  -8.306   0.469  0.00  0.00    +0.000 A 
ATOM     11  N   UNL     1      -2.878  -8.359   1.776  0.00  0.00    +0.000 NA
ATOM     12  N   UNL     1      -3.595  -9.390   2.353  0.00  0.00    +0.000 N 
ATOM     13  C   UNL     1      -4.300 -10.314   1.605  0.00  0.00    +0.000 A 
ATOM     14  C   UNL     1      -4.341 -10.354   0.276  0.00  0.00    +0.000 A 
ATOM     15  C   UNL     1      -3.541  -9.333  -0.403  0.00  0.00    +0.000 A 
ATOM     16  O   UNL     1      -3.442  -9.338  -1.619  0.00  0.00    +0.000 OA
BRANCH  12  17
ATOM     17  C   UNL     1      -3.708  -9.343   3.779  0.00  0.00    +0.000 A 
ATOM     18  C   UNL     1      -3.840 -10.515   4.544  0.00  0.00    +0.000 A 
ATOM     19  C   UNL     1      -4.000 -10.445   5.924  0.00  0.00    +0.000 A 
ATOM     20  F   UNL     1      -4.123 -11.579   6.627  0.00  0.00    +0.000 F 
ATOM     21  C   UNL     1      -4.036  -9.225   6.582  0.00  0.00    +0.000 A 
ATOM     22  C   UNL     1      -3.895  -8.051   5.848  0.00  0.00    +0.000 A 
ATOM     23  C   UNL     1      -3.723  -8.112   4.461  0.00  0.00    +0.000 A 
ENDBRANCH  12  17
ENDBRANCH   6  10
BRANCH   1  24
ATOM     24  C   UNL     1       2.015  -2.499   0.224  0.00  0.00    +0.000 C 
BRANCH  24  27
ATOM     25  C   UNL     1       5.730  -3.151   0.830  0.00  0.00    +0.000 A 
ATOM     26  C   UNL     1       4.349  -3.033   1.036  0.00  0.00    +0.000 A 
ATOM     27  C   UNL     1       3.497  -2.670  -0.018  0.00  0.00    +0.000 A 
ATOM     28  C   UNL     1       4.050  -2.446  -1.288  0.00  0.00    +0.000 A 
ATOM     29  C   UNL     1       5.427  -2.567  -1.497  0.00  0.00    +0.000 A 
ATOM     30  C   UNL     1       6.267  -2.915  -0.439  0.00  0.00    +0.000 A 
BRANCH  25  32
ATOM     31  N   UNL     1       7.285  -3.779   2.811  0.00  0.00    +0.000 NA
ATOM     32  C   UNL     1       6.591  -3.498   1.921  0.00  0.00    +0.000 C 
ENDBRANCH  25  32
ENDBRANCH  24  27
ENDBRANCH   1  24
TORSDOF 5
