REMARK  Name = 
REMARK  5 active torsions:
REMARK  status: ('A' for Active; 'I' for Inactive)
REMARK    1  A    between atoms: C_2  and  C_16
REMARK    2  A    between atoms: N_3  and  C_4
REMARK    3  A    between atoms: C_7  and  C_8
REMARK    4  A    between atoms: C_19  and  O_20
REMARK    5  A    between atoms: O_20  and  C_21
REMARK                            x       y       z     vdW  Elec       q    Type
REMARK                         _______ _______ _______ _____ _____    ______ ____
ROOT
ATOM      1  O   UNL     1       0.880  -0.207  -0.061  0.00  0.00    +0.000 OA
ATOM      2  C   UNL     1       2.098  -0.027  -0.033  0.00  0.00    +0.000 C 
ATOM      3  N   UNL     1       2.775   0.883   0.761  0.00  0.00    +0.000 N 
ATOM      4  H   UNL     1       3.768   0.975   0.566  0.00  0.00    +0.000 HD
ENDROOT
BRANCH   3   5
ATOM      5  C   UNL     1       2.195   1.702   1.751  0.00  0.00    +0.000 A 
ATOM      6  C   UNL     1       0.881   1.533   2.192  0.00  0.00    +0.000 A 
ATOM      7  C   UNL     1       0.327   2.383   3.151  0.00  0.00    +0.000 A 
ATOM      8  C   UNL     1       1.075   3.424   3.704  0.00  0.00    +0.000 A 
ATOM      9  C   UNL     1       2.401   3.583   3.281  0.00  0.00    +0.000 A 
ATOM     10  C   UNL     1       2.961   2.721   2.322  0.00  0.00    +0.000 A 
BRANCH   8  11
ATOM     11  C   UNL     1       0.449   4.320   4.675  0.00  0.00    +0.000 A 
ATOM     12  C   UNL     1      -0.510   4.038   5.575  0.00  0.00    +0.000 A 
ATOM     13  N   UNL     1      -0.837   5.187   6.247  0.00  0.00    +0.000 N 
ATOM     14  C   UNL     1      -0.063   6.244   5.754  0.00  0.00    +0.000 A 
ATOM     15  O   UNL     1      -0.095   7.411   6.095  0.00  0.00    +0.000 OA
ATOM     16  N   UNL     1       0.746   5.658   4.775  0.00  0.00    +0.000 N 
ATOM     17  H   UNL     1      -1.538   5.297   6.964  0.00  0.00    +0.000 HD
ATOM     18  H   UNL     1       1.386   6.180   4.199  0.00  0.00    +0.000 HD
ENDBRANCH   8  11
ENDBRANCH   3   5
BRANCH   2  19
ATOM     19  C   UNL     1       2.949  -0.867  -0.922  0.00  0.00    +0.000 A 
ATOM     20  C   UNL     1       2.368  -1.984  -1.518  0.00  0.00    +0.000 A 
ATOM     21  C   UNL     1       3.165  -2.814  -2.293  0.00  0.00    +0.000 A 
ATOM     22  C   UNL     1       4.521  -2.523  -2.421  0.00  0.00    +0.000 A 
ATOM     23  C   UNL     1       5.000  -1.351  -1.841  0.00  0.00    +0.000 A 
ATOM     24  N   UNL     1       4.254  -0.515  -1.071  0.00  0.00    +0.000 NA
BRANCH  22  25
ATOM     25  O   UNL     1       5.408  -3.309  -3.115  0.00  0.00    +0.000 OA
BRANCH  25  26
ATOM     26  C   UNL     1       5.291  -4.682  -3.024  0.00  0.00    +0.000 A 
ATOM     27  C   UNL     1       4.857  -5.361  -1.883  0.00  0.00    +0.000 A 
ATOM     28  C   UNL     1       4.752  -6.747  -1.910  0.00  0.00    +0.000 A 
ATOM     29  F   UNL     1       4.285  -7.391  -0.833  0.00  0.00    +0.000 F 
ATOM     30  C   UNL     1       5.119  -7.475  -3.036  0.00  0.00    +0.000 A 
ATOM     31  C   UNL     1       5.605  -6.804  -4.157  0.00  0.00    +0.000 A 
ATOM     32  C   UNL     1       5.691  -5.408  -4.150  0.00  0.00    +0.000 A 
ENDBRANCH  25  26
ENDBRANCH  22  25
ENDBRANCH   2  19
TORSDOF 5
