REMARK  Name = 
REMARK  6 active torsions:
REMARK  status: ('A' for Active; 'I' for Inactive)
REMARK    1  A    between atoms: C_1  and  N_2
REMARK    2  A    between atoms: N_2  and  C_3
REMARK    3  A    between atoms: C_3  and  C_4
REMARK    4  A    between atoms: C_11  and  C_13
REMARK    5  A    between atoms: C_16  and  N_17
REMARK    6  A    between atoms: C_21  and  C_22
REMARK                            x       y       z     vdW  Elec       q    Type
REMARK                         _______ _______ _______ _____ _____    ______ ____
ROOT
ATOM      1  C   UNL     1       4.630   1.238   0.712  0.00  0.00    +0.000 A 
ATOM      2  C   UNL     1       5.372   1.482  -0.448  0.00  0.00    +0.000 A 
ATOM      3  C   UNL     1       6.768   1.515  -0.406  0.00  0.00    +0.000 A 
ATOM      4  C   UNL     1       7.436   1.329   0.809  0.00  0.00    +0.000 A 
ATOM      5  C   UNL     1       6.699   1.242   1.995  0.00  0.00    +0.000 A 
ATOM      6  C   UNL     1       5.304   1.174   1.940  0.00  0.00    +0.000 A 
ENDROOT
BRANCH   4   7
ATOM      7  N   UNL     1       8.852   1.171   0.798  0.00  0.00    +0.000 N 
ATOM      8  N   UNL     1       9.575   1.815  -0.158  0.00  0.00    +0.000 NA
ATOM      9  C   UNL     1      10.841   1.614   0.186  0.00  0.00    +0.000 A 
ATOM     10  C   UNL     1      10.963   0.743   1.276  0.00  0.00    +0.000 A 
ATOM     11  C   UNL     1       9.668   0.375   1.616  0.00  0.00    +0.000 A 
BRANCH  11  12
ATOM     12  C   UNL     1       9.238  -0.672   2.564  0.00  0.00    +0.000 A 
ATOM     13  C   UNL     1      10.018  -0.967   3.695  0.00  0.00    +0.000 A 
ATOM     14  C   UNL     1       9.597  -1.915   4.634  0.00  0.00    +0.000 A 
ATOM     15  C   UNL     1       8.378  -2.559   4.460  0.00  0.00    +0.000 A 
ATOM     16  F   UNL     1       7.949  -3.428   5.384  0.00  0.00    +0.000 F 
ATOM     17  C   UNL     1       7.607  -2.324   3.333  0.00  0.00    +0.000 A 
ATOM     18  C   UNL     1       8.064  -1.422   2.369  0.00  0.00    +0.000 A 
ENDBRANCH  11  12
ENDBRANCH   4   7
BRANCH   1  21
ATOM     19  C   UNL     1       0.983   0.495  -0.155  0.00  0.00    +0.000 C 
ATOM     20  N   UNL     1       2.431   0.521  -0.317  0.00  0.00    +0.000 N 
ATOM     21  C   UNL     1       3.148   1.124   0.729  0.00  0.00    +0.000 C 
ATOM     22  O   UNL     1       2.567   1.574   1.719  0.00  0.00    +0.000 OA
BRANCH  20  23
ATOM     23  C   UNL     1       2.988  -0.337  -1.372  0.00  0.00    +0.000 C 
BRANCH  23  24
ATOM     24  C   UNL     1       3.014   0.337  -2.721  0.00  0.00    +0.000 A 
ATOM     25  C   UNL     1       2.575   1.574  -3.039  0.00  0.00    +0.000 A 
ATOM     26  C   UNL     1       2.707   2.102  -4.379  0.00  0.00    +0.000 A 
ATOM     27  C   UNL     1       3.278   1.368  -5.332  0.00  0.00    +0.000 A 
ATOM     28  N   UNL     1       3.738   0.105  -5.045  0.00  0.00    +0.000 N 
ATOM     29  C   UNL     1       3.648  -0.476  -3.804  0.00  0.00    +0.000 A 
ATOM     30  O   UNL     1       4.073  -1.603  -3.591  0.00  0.00    +0.000 OA
ATOM     31  H   UNL     1       4.174  -0.453  -5.767  0.00  0.00    +0.000 HD
ENDBRANCH  23  24
ENDBRANCH  20  23
ENDBRANCH   1  21
TORSDOF 5
