REMARK  Name = 
REMARK  4 active torsions:
REMARK  status: ('A' for Active; 'I' for Inactive)
REMARK    1  A    between atoms: C_2  and  C_16
REMARK    2  A    between atoms: N_3  and  C_4
REMARK    3  A    between atoms: C_7  and  C_8
REMARK    4  A    between atoms: N_18  and  C_19
REMARK                            x       y       z     vdW  Elec       q    Type
REMARK                         _______ _______ _______ _____ _____    ______ ____
ROOT
ATOM      1  O   UNL     1       0.935  -0.090   0.061  0.00  0.00    +0.000 OA
ATOM      2  C   UNL     1       2.158   0.045   0.022  0.00  0.00    +0.000 C 
ATOM      3  N   UNL     1       2.831   1.254   0.028  0.00  0.00    +0.000 N 
ATOM      4  H   UNL     1       3.808   1.257  -0.228  0.00  0.00    +0.000 HD
ENDROOT
BRANCH   2   5
ATOM      5  C   UNL     1       3.018  -1.175  -0.105  0.00  0.00    +0.000 A 
ATOM      6  C   UNL     1       2.421  -2.261  -0.626  0.00  0.00    +0.000 A 
ATOM      7  N   UNL     1       3.065  -3.489  -0.741  0.00  0.00    +0.000 N 
ATOM      8  C   UNL     1       4.378  -3.663  -0.275  0.00  0.00    +0.000 A 
ATOM      9  O   UNL     1       5.023  -4.709  -0.281  0.00  0.00    +0.000 OA
ATOM     10  C   UNL     1       5.015  -2.458   0.335  0.00  0.00    +0.000 A 
ATOM     11  C   UNL     1       4.365  -1.288   0.406  0.00  0.00    +0.000 A 
BRANCH   7  12
ATOM     12  C   UNL     1       2.367  -4.626  -1.266  0.00  0.00    +0.000 A 
ATOM     13  C   UNL     1       2.964  -5.437  -2.241  0.00  0.00    +0.000 A 
ATOM     14  C   UNL     1       2.282  -6.542  -2.760  0.00  0.00    +0.000 A 
ATOM     15  C   UNL     1       1.010  -6.867  -2.291  0.00  0.00    +0.000 A 
ATOM     16  C   UNL     1       0.407  -6.074  -1.318  0.00  0.00    +0.000 A 
ATOM     17  C   UNL     1       1.076  -4.954  -0.827  0.00  0.00    +0.000 A 
ATOM     18  F   UNL     1       0.475  -4.231   0.131  0.00  0.00    +0.000 F 
ENDBRANCH   7  12
ENDBRANCH   2   5
BRANCH   3  19
ATOM     19  C   UNL     1       2.215   2.517   0.197  0.00  0.00    +0.000 A 
ATOM     20  C   UNL     1       0.912   2.666   0.672  0.00  0.00    +0.000 A 
ATOM     21  C   UNL     1       0.314   3.924   0.762  0.00  0.00    +0.000 A 
ATOM     22  C   UNL     1       1.012   5.080   0.393  0.00  0.00    +0.000 A 
ATOM     23  C   UNL     1       2.339   4.936  -0.036  0.00  0.00    +0.000 A 
ATOM     24  C   UNL     1       2.940   3.669  -0.123  0.00  0.00    +0.000 A 
BRANCH  22  25
ATOM     25  C   UNL     1       0.339   6.375   0.425  0.00  0.00    +0.000 A 
ATOM     26  C   UNL     1      -0.651   6.793   1.234  0.00  0.00    +0.000 A 
ATOM     27  N   UNL     1      -1.011   8.067   0.873  0.00  0.00    +0.000 N 
ATOM     28  C   UNL     1      -0.227   8.477  -0.210  0.00  0.00    +0.000 A 
ATOM     29  O   UNL     1      -0.278   9.532  -0.809  0.00  0.00    +0.000 OA
ATOM     30  N   UNL     1       0.620   7.391  -0.459  0.00  0.00    +0.000 N 
ATOM     31  H   UNL     1      -1.739   8.634   1.280  0.00  0.00    +0.000 HD
ATOM     32  H   UNL     1       1.275   7.365  -1.223  0.00  0.00    +0.000 HD
ENDBRANCH  22  25
ENDBRANCH   3  19
TORSDOF 4
