REMARK  Name = 
REMARK  6 active torsions:
REMARK  status: ('A' for Active; 'I' for Inactive)
REMARK    1  A    between atoms: C_1  and  N_2
REMARK    2  A    between atoms: C_8  and  C_9
REMARK    3  A    between atoms: N_11  and  C_12
REMARK    4  A    between atoms: C_15  and  O_16
REMARK    5  A    between atoms: O_16  and  C_17
REMARK    6  A    between atoms: C_23  and  C_24
REMARK                            x       y       z     vdW  Elec       q    Type
REMARK                         _______ _______ _______ _____ _____    ______ ____
ROOT
ATOM      1  C   UNL     1       7.442   3.649  -0.120  0.00  0.00    +0.000 C 
ATOM      2  O   UNL     1       6.760   4.577   0.299  0.00  0.00    +0.000 OA
ATOM      3  N   UNL     1       8.771   3.721  -0.524  0.00  0.00    +0.000 N 
ATOM      4  H   UNL     1       9.133   2.957  -1.080  0.00  0.00    +0.000 HD
ENDROOT
BRANCH   1  12
ATOM      5  C   UNL     1       7.297  -3.772   0.132  0.00  0.00    +0.000 C 
ATOM      6  N   UNL     1       6.681  -2.492  -0.142  0.00  0.00    +0.000 N 
ATOM      7  C   UNL     1       5.358  -2.413  -0.499  0.00  0.00    +0.000 A 
ATOM      8  N   UNL     1       4.715  -1.315  -0.714  0.00  0.00    +0.000 NA
ATOM      9  C   UNL     1       5.417  -0.112  -0.564  0.00  0.00    +0.000 A 
ATOM     10  C   UNL     1       4.734   1.093  -0.726  0.00  0.00    +0.000 A 
ATOM     11  C   UNL     1       5.405   2.310  -0.581  0.00  0.00    +0.000 A 
ATOM     12  C   UNL     1       6.778   2.333  -0.291  0.00  0.00    +0.000 A 
ATOM     13  C   UNL     1       7.469   1.136  -0.109  0.00  0.00    +0.000 A 
ATOM     14  C   UNL     1       6.777  -0.073  -0.244  0.00  0.00    +0.000 A 
ATOM     15  C   UNL     1       7.464  -1.355  -0.017  0.00  0.00    +0.000 A 
ATOM     16  O   UNL     1       8.659  -1.365   0.266  0.00  0.00    +0.000 OA
ENDBRANCH   1  12
BRANCH   3  17
ATOM     17  C   UNL     1       9.568   4.886  -0.441  0.00  0.00    +0.000 A 
ATOM     18  C   UNL     1       9.258   5.941   0.414  0.00  0.00    +0.000 A 
ATOM     19  C   UNL     1      10.003   7.117   0.394  0.00  0.00    +0.000 A 
ATOM     20  C   UNL     1      11.034   7.281  -0.534  0.00  0.00    +0.000 A 
ATOM     21  C   UNL     1      11.428   6.191  -1.319  0.00  0.00    +0.000 A 
ATOM     22  C   UNL     1      10.700   4.986  -1.257  0.00  0.00    +0.000 A 
BRANCH  21  23
ATOM     23  C   UNL     1      12.541   6.290  -2.220  0.00  0.00    +0.000 C 
ATOM     24  N   UNL     1      13.434   6.325  -2.958  0.00  0.00    +0.000 NA
ENDBRANCH  21  23
BRANCH  20  25
ATOM     25  O   UNL     1      11.691   8.488  -0.687  0.00  0.00    +0.000 OA
BRANCH  25  26
ATOM     26  C   UNL     1      10.958   9.652  -0.584  0.00  0.00    +0.000 A 
ATOM     27  C   UNL     1      11.612  10.759  -0.041  0.00  0.00    +0.000 A 
ATOM     28  C   UNL     1      10.915  11.953   0.160  0.00  0.00    +0.000 A 
ATOM     29  C   UNL     1       9.565  12.043  -0.183  0.00  0.00    +0.000 A 
ATOM     30  C   UNL     1       8.923  10.955  -0.770  0.00  0.00    +0.000 A 
ATOM     31  C   UNL     1       9.626   9.773  -1.002  0.00  0.00    +0.000 A 
ENDBRANCH  25  26
ENDBRANCH  20  25
ENDBRANCH   3  17
TORSDOF 5
