REMARK  Name = 
REMARK  6 active torsions:
REMARK  status: ('A' for Active; 'I' for Inactive)
REMARK    1  A    between atoms: C_2  and  C_16
REMARK    2  A    between atoms: N_3  and  C_4
REMARK    3  A    between atoms: C_7  and  C_8
REMARK    4  A    between atoms: C_18  and  C_19
REMARK    5  A    between atoms: C_19  and  C_20
REMARK    6  A    between atoms: C_28  and  O_29
REMARK                            x       y       z     vdW  Elec       q    Type
REMARK                         _______ _______ _______ _____ _____    ______ ____
ROOT
ATOM      1  O   UNL     1       1.069  -0.190  -0.151  0.00  0.00    +0.000 OA
ATOM      2  C   UNL     1       2.171   0.249   0.167  0.00  0.00    +0.000 C 
ATOM      3  N   UNL     1       2.706   1.456  -0.244  0.00  0.00    +0.000 N 
ATOM      4  H   UNL     1       3.667   1.633   0.038  0.00  0.00    +0.000 HD
ENDROOT
BRANCH   2   5
ATOM      5  C   UNL     1       3.064  -0.615   1.002  0.00  0.00    +0.000 A 
ATOM      6  C   UNL     1       2.650  -1.943   1.220  0.00  0.00    +0.000 A 
ATOM      7  C   UNL     1       3.473  -2.863   1.885  0.00  0.00    +0.000 A 
ATOM      8  C   UNL     1       4.700  -2.419   2.393  0.00  0.00    +0.000 A 
ATOM      9  C   UNL     1       5.107  -1.095   2.225  0.00  0.00    +0.000 A 
ATOM     10  C   UNL     1       4.294  -0.198   1.528  0.00  0.00    +0.000 A 
BRANCH  10  11
ATOM     11  O   UNL     1       4.734   1.090   1.361  0.00  0.00    +0.000 OA
ATOM     12  H   UNL     1       5.410   1.273   2.039  0.00  0.00    +0.000 HD
ENDBRANCH  10  11
BRANCH   7  13
ATOM     13  C   UNL     1       3.060  -4.313   2.010  0.00  0.00    +0.000 C 
BRANCH  13  14
ATOM     14  C   UNL     1       2.291  -4.640   3.268  0.00  0.00    +0.000 A 
ATOM     15  C   UNL     1       0.890  -4.588   3.278  0.00  0.00    +0.000 A 
ATOM     16  C   UNL     1       0.179  -4.855   4.449  0.00  0.00    +0.000 A 
ATOM     17  C   UNL     1       0.860  -5.183   5.620  0.00  0.00    +0.000 A 
ATOM     18  C   UNL     1       2.251  -5.258   5.617  0.00  0.00    +0.000 A 
ATOM     19  C   UNL     1       2.964  -4.987   4.448  0.00  0.00    +0.000 A 
ENDBRANCH  13  14
ENDBRANCH   7  13
ENDBRANCH   2   5
BRANCH   3  20
ATOM     20  C   UNL     1       2.114   2.389  -1.110  0.00  0.00    +0.000 A 
ATOM     21  C   UNL     1       0.761   2.366  -1.438  0.00  0.00    +0.000 A 
ATOM     22  C   UNL     1       0.235   3.282  -2.350  0.00  0.00    +0.000 A 
ATOM     23  C   UNL     1       1.055   4.239  -2.956  0.00  0.00    +0.000 A 
ATOM     24  C   UNL     1       2.410   4.278  -2.606  0.00  0.00    +0.000 A 
ATOM     25  C   UNL     1       2.933   3.370  -1.677  0.00  0.00    +0.000 A 
BRANCH  23  26
ATOM     26  C   UNL     1       0.500   5.158  -3.944  0.00  0.00    +0.000 A 
ATOM     27  C   UNL     1      -0.752   5.639  -4.037  0.00  0.00    +0.000 A 
ATOM     28  N   UNL     1      -0.833   6.446  -5.141  0.00  0.00    +0.000 N 
ATOM     29  C   UNL     1       0.408   6.467  -5.783  0.00  0.00    +0.000 A 
ATOM     30  O   UNL     1       0.701   7.065  -6.795  0.00  0.00    +0.000 OA
ATOM     31  N   UNL     1       1.225   5.653  -5.006  0.00  0.00    +0.000 N 
ATOM     32  H   UNL     1      -1.640   6.943  -5.474  0.00  0.00    +0.000 HD
ATOM     33  H   UNL     1       2.179   5.437  -5.238  0.00  0.00    +0.000 HD
ENDBRANCH  23  26
ENDBRANCH   3  20
TORSDOF 6
