REMARK  Name = 
REMARK  7 active torsions:
REMARK  status: ('A' for Active; 'I' for Inactive)
REMARK    1  A    between atoms: C_2  and  C_4
REMARK    2  A    between atoms: C_4  and  N_5
REMARK    3  A    between atoms: N_5  and  C_6
REMARK    4  A    between atoms: C_6  and  C_7
REMARK    5  A    between atoms: C_10  and  C_11
REMARK    6  A    between atoms: C_19  and  C_21
REMARK    7  A    between atoms: C_21  and  N_22
REMARK                            x       y       z     vdW  Elec       q    Type
REMARK                         _______ _______ _______ _____ _____    ______ ____
ROOT
ATOM      1  N   UNL     1       4.784   1.152   0.149  0.00  0.00    +0.000 N 
ATOM      2  C   UNL     1       5.696   2.163   0.469  0.00  0.00    +0.000 C 
ATOM      3  O   UNL     1       5.295   3.295   0.762  0.00  0.00    +0.000 OA
ENDROOT
BRANCH   1   4
ATOM      4  C   UNL     1       5.061  -0.256  -0.214  0.00  0.00    +0.000 C 
BRANCH   4   5
ATOM      5  C   UNL     1       6.140  -0.546  -1.232  0.00  0.00    +0.000 A 
ATOM      6  C   UNL     1       6.883  -1.737  -1.162  0.00  0.00    +0.000 A 
ATOM      7  C   UNL     1       7.892  -2.018  -2.099  0.00  0.00    +0.000 A 
ATOM      8  C   UNL     1       8.187  -1.120  -3.141  0.00  0.00    +0.000 A 
ATOM      9  C   UNL     1       7.446   0.075  -3.175  0.00  0.00    +0.000 A 
ATOM     10  C   UNL     1       6.419   0.345  -2.271  0.00  0.00    +0.000 A 
BRANCH   8  11
ATOM     11  C   UNL     1       9.148  -1.421  -4.231  0.00  0.00    +0.000 A 
ATOM     12  C   UNL     1       9.304  -2.721  -4.743  0.00  0.00    +0.000 A 
ATOM     13  C   UNL     1      10.051  -2.962  -5.903  0.00  0.00    +0.000 A 
ATOM     14  C   UNL     1      10.660  -1.909  -6.578  0.00  0.00    +0.000 A 
ATOM     15  C   UNL     1      10.564  -0.621  -6.067  0.00  0.00    +0.000 A 
ATOM     16  C   UNL     1       9.838  -0.386  -4.897  0.00  0.00    +0.000 A 
ENDBRANCH   8  11
ENDBRANCH   4   5
ENDBRANCH   1   4
BRANCH   1  17
ATOM     17  C   UNL     1       3.384   1.420   0.512  0.00  0.00    +0.000 C 
BRANCH  17  19
ATOM     18  N   UNL     1       3.149   3.200  -1.160  0.00  0.00    +0.000 N 
ATOM     19  C   UNL     1       2.592   2.067  -0.617  0.00  0.00    +0.000 C 
ATOM     20  O   UNL     1       1.480   1.685  -0.972  0.00  0.00    +0.000 OA
ATOM     21  H   UNL     1       2.568   3.746  -1.781  0.00  0.00    +0.000 HD
ATOM     22  H   UNL     1       3.881   3.679  -0.639  0.00  0.00    +0.000 HD
ENDBRANCH  17  19
ENDBRANCH   1  17
BRANCH   2  23
ATOM     23  C   UNL     1       7.193   1.890   0.332  0.00  0.00    +0.000 C 
BRANCH  23  24
ATOM     24  N   UNL     1       8.047   2.256   1.470  0.00  0.00    +0.000 N 
ATOM     25  N   UNL     1       9.376   2.451   1.038  0.00  0.00    +0.000 NA
ATOM     26  C   UNL     1      10.159   1.414   1.074  0.00  0.00    +0.000 A 
ATOM     27  C   UNL     1       9.726   0.116   1.579  0.00  0.00    +0.000 A 
ATOM     28  C   UNL     1      10.304  -1.073   1.149  0.00  0.00    +0.000 A 
ATOM     29  C   UNL     1       9.771  -2.281   1.607  0.00  0.00    +0.000 A 
ATOM     30  C   UNL     1       8.709  -2.288   2.521  0.00  0.00    +0.000 A 
ATOM     31  C   UNL     1       8.135  -1.093   2.945  0.00  0.00    +0.000 A 
ATOM     32  C   UNL     1       8.629   0.113   2.434  0.00  0.00    +0.000 A 
ATOM     33  C   UNL     1       7.831   1.353   2.535  0.00  0.00    +0.000 A 
ATOM     34  O   UNL     1       6.888   1.413   3.315  0.00  0.00    +0.000 OA
ENDBRANCH  23  24
ENDBRANCH   2  23
TORSDOF 7
