REMARK  Name = 
REMARK  3 active torsions:
REMARK  status: ('A' for Active; 'I' for Inactive)
REMARK    1  A    between atoms: C_2  and  C_18
REMARK    2  A    between atoms: C_6  and  C_7
REMARK    3  A    between atoms: N_20  and  C_21
REMARK                            x       y       z     vdW  Elec       q    Type
REMARK                         _______ _______ _______ _____ _____    ______ ____
ROOT
ATOM      1  O   UNL     1       1.028   0.242   0.219  0.00  0.00    +0.000 OA
ATOM      2  C   UNL     1       2.203   0.017  -0.047  0.00  0.00    +0.000 C 
ATOM      3  N   UNL     1       2.817   0.175  -1.265  0.00  0.00    +0.000 N 
ATOM      4  C   UNL     1       2.183   0.633  -2.406  0.00  0.00    +0.000 A 
ATOM      5  N   UNL     1       2.852   0.467  -3.559  0.00  0.00    +0.000 NA
ATOM      6  C   UNL     1       2.231   0.854  -4.701  0.00  0.00    +0.000 A 
ATOM      7  C   UNL     1       0.967   1.417  -4.687  0.00  0.00    +0.000 A 
ATOM      8  C   UNL     1       0.385   1.574  -3.458  0.00  0.00    +0.000 A 
ATOM      9  N   UNL     1       0.973   1.190  -2.320  0.00  0.00    +0.000 NA
ATOM     10  H   UNL     1       3.765  -0.157  -1.372  0.00  0.00    +0.000 HD
ENDROOT
BRANCH   6  11
ATOM     11  C   UNL     1       2.967   0.613  -5.960  0.00  0.00    +0.000 A 
ATOM     12  C   UNL     1       3.850  -0.474  -6.089  0.00  0.00    +0.000 A 
ATOM     13  C   UNL     1       4.527  -0.711  -7.287  0.00  0.00    +0.000 A 
ATOM     14  F   UNL     1       5.353  -1.761  -7.378  0.00  0.00    +0.000 F 
ATOM     15  C   UNL     1       4.354   0.115  -8.386  0.00  0.00    +0.000 A 
ATOM     16  C   UNL     1       3.493   1.192  -8.271  0.00  0.00    +0.000 A 
ATOM     17  F   UNL     1       3.310   2.006  -9.319  0.00  0.00    +0.000 F 
ATOM     18  C   UNL     1       2.808   1.447  -7.084  0.00  0.00    +0.000 A 
ENDBRANCH   6  11
BRANCH   2  19
ATOM     19  C   UNL     1       3.093  -0.549   0.982  0.00  0.00    +0.000 A 
ATOM     20  N   UNL     1       4.413  -0.749   0.798  0.00  0.00    +0.000 NA
ATOM     21  N   UNL     1       4.844  -1.319   1.958  0.00  0.00    +0.000 N 
ATOM     22  C   UNL     1       3.818  -1.468   2.862  0.00  0.00    +0.000 A 
ATOM     23  C   UNL     1       2.687  -0.970   2.270  0.00  0.00    +0.000 A 
BRANCH  21  24
ATOM     24  C   UNL     1       6.195  -1.700   2.129  0.00  0.00    +0.000 A 
ATOM     25  C   UNL     1       6.621  -2.434   3.241  0.00  0.00    +0.000 A 
ATOM     26  C   UNL     1       7.962  -2.779   3.341  0.00  0.00    +0.000 A 
ATOM     27  F   UNL     1       8.393  -3.493   4.388  0.00  0.00    +0.000 F 
ATOM     28  C   UNL     1       8.840  -2.379   2.350  0.00  0.00    +0.000 A 
ATOM     29  N   UNL     1       8.462  -1.667   1.262  0.00  0.00    +0.000 NA
ATOM     30  C   UNL     1       7.145  -1.346   1.173  0.00  0.00    +0.000 A 
ENDBRANCH  21  24
ENDBRANCH   2  19
TORSDOF 3
