REMARK  Name = 
REMARK  4 active torsions:
REMARK  status: ('A' for Active; 'I' for Inactive)
REMARK    1  A    between atoms: C_2  and  C_16
REMARK    2  A    between atoms: N_3  and  C_4
REMARK    3  A    between atoms: C_7  and  C_8
REMARK    4  A    between atoms: N_18  and  C_19
REMARK                            x       y       z     vdW  Elec       q    Type
REMARK                         _______ _______ _______ _____ _____    ______ ____
ROOT
ATOM      1  O   UNL     1       0.995  -0.061  -0.470  0.00  0.00    +0.000 OA
ATOM      2  C   UNL     1       2.168  -0.008  -0.118  0.00  0.00    +0.000 C 
ATOM      3  N   UNL     1       2.806  -0.897   0.732  0.00  0.00    +0.000 N 
ATOM      4  H   UNL     1       3.753  -0.633   0.995  0.00  0.00    +0.000 HD
ENDROOT
BRANCH   3   5
ATOM      5  C   UNL     1       2.199  -2.011   1.350  0.00  0.00    +0.000 A 
ATOM      6  C   UNL     1       0.960  -2.503   0.963  0.00  0.00    +0.000 A 
ATOM      7  C   UNL     1       0.373  -3.556   1.655  0.00  0.00    +0.000 A 
ATOM      8  C   UNL     1       1.040  -4.135   2.731  0.00  0.00    +0.000 A 
ATOM      9  N   UNL     1       2.267  -3.696   3.115  0.00  0.00    +0.000 NA
ATOM     10  C   UNL     1       2.816  -2.663   2.415  0.00  0.00    +0.000 A 
BRANCH   8  11
ATOM     11  C   UNL     1       0.418  -5.211   3.523  0.00  0.00    +0.000 A 
ATOM     12  C   UNL     1      -0.466  -6.135   2.941  0.00  0.00    +0.000 A 
ATOM     13  C   UNL     1      -1.101  -7.072   3.740  0.00  0.00    +0.000 A 
ATOM     14  N   UNL     1      -0.913  -7.169   5.069  0.00  0.00    +0.000 NA
ATOM     15  C   UNL     1      -0.041  -6.297   5.618  0.00  0.00    +0.000 A 
ATOM     16  C   UNL     1       0.639  -5.323   4.900  0.00  0.00    +0.000 A 
ENDBRANCH   8  11
ENDBRANCH   3   5
BRANCH   2  17
ATOM     17  C   UNL     1       3.007   1.117  -0.549  0.00  0.00    +0.000 A 
ATOM     18  N   UNL     1       4.314   1.230  -0.249  0.00  0.00    +0.000 NA
ATOM     19  N   UNL     1       4.677   2.445  -0.750  0.00  0.00    +0.000 N 
ATOM     20  C   UNL     1       3.633   3.058  -1.402  0.00  0.00    +0.000 A 
ATOM     21  C   UNL     1       2.550   2.227  -1.295  0.00  0.00    +0.000 A 
BRANCH  19  22
ATOM     22  C   UNL     1       5.979   2.967  -0.530  0.00  0.00    +0.000 A 
ATOM     23  C   UNL     1       6.962   2.158   0.055  0.00  0.00    +0.000 A 
ATOM     24  C   UNL     1       8.224   2.689   0.313  0.00  0.00    +0.000 A 
ATOM     25  F   UNL     1       9.160   1.913   0.873  0.00  0.00    +0.000 F 
ATOM     26  C   UNL     1       8.527   4.008   0.009  0.00  0.00    +0.000 A 
ATOM     27  C   UNL     1       7.550   4.799  -0.577  0.00  0.00    +0.000 A 
ATOM     28  F   UNL     1       7.822   6.077  -0.869  0.00  0.00    +0.000 F 
ATOM     29  C   UNL     1       6.283   4.295  -0.859  0.00  0.00    +0.000 A 
ENDBRANCH  19  22
ENDBRANCH   2  17
TORSDOF 4
