REMARK  Name = 
REMARK  5 active torsions:
REMARK  status: ('A' for Active; 'I' for Inactive)
REMARK    1  A    between atoms: C_2  and  C_19
REMARK    2  A    between atoms: N_3  and  C_4
REMARK    3  A    between atoms: C_4  and  C_5
REMARK    4  A    between atoms: C_8  and  O_9
REMARK    5  A    between atoms: O_9  and  C_10
REMARK                            x       y       z     vdW  Elec       q    Type
REMARK                         _______ _______ _______ _____ _____    ______ ____
ROOT
ATOM      1  O   UNL     1       1.094  -0.210   0.022  0.00  0.00    +0.000 OA
ATOM      2  C   UNL     1       2.311  -0.068   0.026  0.00  0.00    +0.000 C 
ATOM      3  N   UNL     1       2.951   0.927  -0.670  0.00  0.00    +0.000 N 
ATOM      4  H   UNL     1       3.962   1.003  -0.638  0.00  0.00    +0.000 HD
ENDROOT
BRANCH   2   5
ATOM      5  C   UNL     1       3.168  -0.994   0.821  0.00  0.00    +0.000 A 
ATOM      6  C   UNL     1       4.558  -0.854   0.874  0.00  0.00    +0.000 A 
ATOM      7  F   UNL     1       5.211   0.102   0.196  0.00  0.00    +0.000 F 
ATOM      8  C   UNL     1       5.269  -1.726   1.663  0.00  0.00    +0.000 A 
ATOM      9  C   UNL     1       4.644  -2.732   2.390  0.00  0.00    +0.000 A 
ATOM     10  C   UNL     1       3.282  -2.919   2.359  0.00  0.00    +0.000 A 
ATOM     11  C   UNL     1       2.539  -2.034   1.561  0.00  0.00    +0.000 A 
ATOM     12  N   UNL     1       5.628  -3.425   3.089  0.00  0.00    +0.000 N 
ATOM     13  C   UNL     1       6.877  -2.852   2.803  0.00  0.00    +0.000 A 
ATOM     14  O   UNL     1       7.958  -3.201   3.244  0.00  0.00    +0.000 OA
ATOM     15  N   UNL     1       6.639  -1.799   1.908  0.00  0.00    +0.000 N 
ATOM     16  H   UNL     1       5.504  -4.203   3.715  0.00  0.00    +0.000 HD
ATOM     17  H   UNL     1       7.356  -1.200   1.528  0.00  0.00    +0.000 HD
ENDBRANCH   2   5
BRANCH   3  18
ATOM     18  C   UNL     1       2.237   1.921  -1.431  0.00  0.00    +0.000 C 
BRANCH  18  19
ATOM     19  C   UNL     1       3.210   2.868  -2.084  0.00  0.00    +0.000 A 
ATOM     20  C   UNL     1       3.785   2.545  -3.320  0.00  0.00    +0.000 A 
ATOM     21  C   UNL     1       4.721   3.395  -3.914  0.00  0.00    +0.000 A 
ATOM     22  C   UNL     1       5.054   4.606  -3.304  0.00  0.00    +0.000 A 
ATOM     23  C   UNL     1       4.531   4.907  -2.045  0.00  0.00    +0.000 A 
ATOM     24  C   UNL     1       3.618   4.041  -1.435  0.00  0.00    +0.000 A 
BRANCH  22  25
ATOM     25  O   UNL     1       5.938   5.524  -3.826  0.00  0.00    +0.000 OA
BRANCH  25  26
ATOM     26  C   UNL     1       6.022   5.712  -5.189  0.00  0.00    +0.000 A 
ATOM     27  C   UNL     1       4.958   5.557  -6.079  0.00  0.00    +0.000 A 
ATOM     28  C   UNL     1       5.174   5.738  -7.441  0.00  0.00    +0.000 A 
ATOM     29  F   UNL     1       4.169   5.522  -8.299  0.00  0.00    +0.000 F 
ATOM     30  C   UNL     1       6.415   6.132  -7.928  0.00  0.00    +0.000 A 
ATOM     31  C   UNL     1       7.461   6.357  -7.036  0.00  0.00    +0.000 A 
ATOM     32  C   UNL     1       7.263   6.146  -5.668  0.00  0.00    +0.000 A 
ENDBRANCH  25  26
ENDBRANCH  22  25
ENDBRANCH  18  19
ENDBRANCH   3  18
TORSDOF 5
