REMARK  Name = 
REMARK  5 active torsions:
REMARK  status: ('A' for Active; 'I' for Inactive)
REMARK    1  A    between atoms: C_2  and  C_18
REMARK    2  A    between atoms: N_3  and  C_4
REMARK    3  A    between atoms: C_4  and  C_5
REMARK    4  A    between atoms: C_8  and  C_9
REMARK    5  A    between atoms: C_23  and  C_24
REMARK                            x       y       z     vdW  Elec       q    Type
REMARK                         _______ _______ _______ _____ _____    ______ ____
ROOT
ATOM      1  O   UNL     1       1.015  -0.293   0.186  0.00  0.00    +0.000 OA
ATOM      2  C   UNL     1       2.198   0.000   0.069  0.00  0.00    +0.000 C 
ATOM      3  N   UNL     1       2.873   0.754   1.007  0.00  0.00    +0.000 N 
ATOM      4  H   UNL     1       3.873   0.888   0.955  0.00  0.00    +0.000 HD
ENDROOT
BRANCH   2   5
ATOM      5  C   UNL     1       2.975  -0.428  -1.121  0.00  0.00    +0.000 A 
ATOM      6  C   UNL     1       4.291  -0.888  -0.943  0.00  0.00    +0.000 A 
ATOM      7  C   UNL     1       5.023  -1.342  -2.034  0.00  0.00    +0.000 A 
ATOM      8  C   UNL     1       4.408  -1.347  -3.269  0.00  0.00    +0.000 A 
ATOM      9  N   UNL     1       3.148  -0.910  -3.478  0.00  0.00    +0.000 NA
ATOM     10  C   UNL     1       2.426  -0.436  -2.415  0.00  0.00    +0.000 A 
BRANCH  10  11
ATOM     11  C   UNL     1       1.099   0.093  -2.820  0.00  0.00    +0.000 A 
ATOM     12  C   UNL     1       0.369  -0.524  -3.849  0.00  0.00    +0.000 A 
ATOM     13  C   UNL     1      -0.853   0.001  -4.237  0.00  0.00    +0.000 A 
ATOM     14  N   UNL     1      -1.415   1.093  -3.679  0.00  0.00    +0.000 NA
ATOM     15  C   UNL     1      -0.709   1.685  -2.697  0.00  0.00    +0.000 A 
ATOM     16  C   UNL     1       0.534   1.248  -2.261  0.00  0.00    +0.000 A 
ENDBRANCH  10  11
ENDBRANCH   2   5
BRANCH   3  17
ATOM     17  C   UNL     1       2.189   1.307   2.162  0.00  0.00    +0.000 C 
BRANCH  17  18
ATOM     18  C   UNL     1       2.092   0.284   3.236  0.00  0.00    +0.000 A 
ATOM     19  N   UNL     1       3.027   0.185   4.191  0.00  0.00    +0.000 NA
ATOM     20  O   UNL     1       2.627  -0.874   4.990  0.00  0.00    +0.000 OA
ATOM     21  C   UNL     1       1.466  -1.411   4.509  0.00  0.00    +0.000 A 
ATOM     22  C   UNL     1       1.081  -0.686   3.407  0.00  0.00    +0.000 A 
BRANCH  21  23
ATOM     23  C   UNL     1       0.939  -2.580   5.206  0.00  0.00    +0.000 A 
ATOM     24  C   UNL     1       1.550  -3.071   6.371  0.00  0.00    +0.000 A 
ATOM     25  C   UNL     1       1.065  -4.224   6.999  0.00  0.00    +0.000 A 
ATOM     26  C   UNL     1      -0.035  -4.888   6.466  0.00  0.00    +0.000 A 
ATOM     27  F   UNL     1      -0.484  -6.001   7.060  0.00  0.00    +0.000 F 
ATOM     28  C   UNL     1      -0.668  -4.415   5.329  0.00  0.00    +0.000 A 
ATOM     29  C   UNL     1      -0.181  -3.269   4.710  0.00  0.00    +0.000 A 
ATOM     30  F   UNL     1      -0.816  -2.844   3.608  0.00  0.00    +0.000 F 
ENDBRANCH  21  23
ENDBRANCH  17  18
ENDBRANCH   3  17
TORSDOF 5
