
     RDKit          3D

 54 62  0  0  0  0  0  0  0  0999 V2000
  132.5407  137.5808  133.1502 C   0  0  2  0  0  0  0  0  0  0  0  0
  131.3629  137.2916  132.2069 C   0  0  2  0  0  0  0  0  0  0  0  0
  132.0490  136.8637  130.5948 S   0  0  0  0  0  0  0  0  0  0  0  0
  131.6427  138.0192  129.3011 C   0  0  0  0  0  0  0  0  0  0  0  0
  132.7133  138.1362  128.2420 C   0  0  1  0  0  0  0  0  0  0  0  0
  132.9577  136.7865  127.7624 N   0  0  0  0  0  0  0  0  0  0  0  0
  131.8078  136.1776  127.1877 C   0  0  0  0  0  0  0  0  0  0  0  0
  131.0049  136.9937  126.2508 C   0  0  0  0  0  0  0  0  0  0  0  0
  131.3552  138.4343  126.2048 C   0  0  0  0  0  0  0  0  0  0  0  0
  132.1672  138.9843  127.1509 C   0  0  0  0  0  0  0  0  0  0  0  0
  132.4712  140.3294  127.0750 C   0  0  0  0  0  0  0  0  0  0  0  0
  131.9847  141.1545  126.0722 C   0  0  0  0  0  0  0  0  0  0  0  0
  132.2931  142.5093  125.9990 O   0  0  0  0  0  0  0  0  0  0  0  0
  132.7166  143.2614  127.1012 C   0  0  0  0  0  0  0  0  0  0  0  0
  131.1636  140.5937  125.1171 C   0  0  0  0  0  0  0  0  0  0  0  0
  130.6500  141.3870  124.0877 O   0  0  0  0  0  0  0  0  0  0  0  0
  130.8624  139.2518  125.1957 C   0  0  0  0  0  0  0  0  0  0  0  0
  134.0063  138.6436  128.7621 C   0  0  0  0  0  0  0  0  0  0  0  0
  134.9376  138.7040  127.8874 O   0  0  0  0  0  0  0  0  0  0  0  0
  134.1194  138.9951  130.0676 O   0  0  0  0  0  0  0  0  0  0  0  0
  133.5933  140.0746  130.7662 C   0  0  0  0  0  0  0  0  0  0  0  0
  132.9662  139.6165  132.0833 C   0  0  2  0  0  0  0  0  0  0  0  0
  133.4779  138.3109  132.3569 N   0  0  0  0  0  0  0  0  0  0  0  0
  134.8258  138.3149  132.8389 C   0  0  1  0  0  0  0  0  0  0  0  0
  135.0624  139.1689  133.8854 O   0  0  0  0  0  0  0  0  0  0  0  0
  135.2011  136.8946  133.2117 C   0  0  2  0  0  0  0  0  0  0  0  0
  135.0698  135.9499  132.0673 C   0  0  0  0  0  0  0  0  0  0  0  0
  134.0217  134.9232  132.2394 C   0  0  0  0  0  0  0  0  0  0  0  0
  134.0237  133.7399  131.5324 C   0  0  0  0  0  0  0  0  0  0  0  0
  133.0404  132.7674  131.7051 C   0  0  0  0  0  0  0  0  0  0  0  0
  133.1056  131.5200  130.9112 C   0  0  0  0  0  0  0  0  0  0  0  0
  132.0317  132.9966  132.6139 C   0  0  0  0  0  0  0  0  0  0  0  0
  131.0623  132.0268  132.7778 O   0  0  0  0  0  0  0  0  0  0  0  0
  131.1668  130.9560  133.6841 C   0  0  0  0  0  0  0  0  0  0  0  0
  131.9902  134.1643  133.3418 C   0  0  0  0  0  0  0  0  0  0  0  0
  130.9680  134.3799  134.2554 O   0  0  0  0  0  0  0  0  0  0  0  0
  132.9787  135.1138  133.1505 C   0  0  0  0  0  0  0  0  0  0  0  0
  133.0227  136.4006  133.8818 C   0  0  1  0  0  0  0  0  0  0  0  0
  134.3794  136.5712  134.3624 N   0  0  0  0  0  0  0  0  0  0  0  0
  134.8735  135.4572  135.0974 C   0  0  0  0  0  0  0  0  0  0  0  0
  131.4994  139.7116  132.0408 C   0  0  0  0  0  0  0  0  0  0  0  0
  130.8942  140.9383  131.9469 C   0  0  0  0  0  0  0  0  0  0  0  0
  131.3364  142.2455  131.8723 O   0  0  0  0  0  0  0  0  0  0  0  0
  130.2494  143.1160  132.1380 C   0  0  0  0  0  0  0  0  0  0  0  0
  129.1081  142.3463  131.8134 O   0  0  0  0  0  0  0  0  0  0  0  0
  129.5000  141.0181  131.9089 C   0  0  0  0  0  0  0  0  0  0  0  0
  128.6996  139.8967  131.9632 C   0  0  0  0  0  0  0  0  0  0  0  0
  127.2039  139.9925  131.9218 C   0  0  0  0  0  0  0  0  0  0  0  0
  129.3095  138.6566  132.0581 C   0  0  0  0  0  0  0  0  0  0  0  0
  128.5190  137.5222  132.1155 O   0  0  0  0  0  0  0  0  0  0  0  0
  128.4929  136.6198  131.0802 C   0  0  0  0  0  0  0  0  0  0  0  0
  127.6373  135.3872  131.1643 C   0  0  0  0  0  0  0  0  0  0  0  0
  129.1659  136.7682  130.0288 O   0  0  0  0  0  0  0  0  0  0  0  0
  130.6676  138.6012  132.0934 C   0  0  0  0  0  0  0  0  0  0  0  0
  1  2  1  0
  2  3  1  6
  3  4  1  0
  4  5  1  0
  5  6  1  6
  6  7  1  0
  7  8  1  0
  8  9  1  0
  9 10  2  0
 10 11  1  0
 11 12  2  0
 12 13  1  0
 13 14  1  0
 12 15  1  0
 15 16  1  0
 15 17  2  0
  5 18  1  0
 18 19  2  0
 18 20  1  0
 20 21  1  0
 22 21  1  6
 22 23  1  0
 23 24  1  0
 24 25  1  1
 24 26  1  0
 26 27  1  6
 27 28  1  0
 28 29  2  0
 29 30  1  0
 30 31  1  0
 30 32  2  0
 32 33  1  0
 33 34  1  0
 32 35  1  0
 35 36  1  0
 35 37  2  0
 38 37  1  6
 38 39  1  0
 39 40  1  0
 22 41  1  0
 41 42  2  0
 42 43  1  0
 43 44  1  0
 44 45  1  0
 45 46  1  0
 46 47  2  0
 47 48  1  0
 47 49  1  0
 49 50  1  0
 50 51  1  0
 51 52  1  0
 51 53  2  0
 49 54  2  0
  1 23  1  6
 39 26  1  0
 54 41  1  0
 38  1  1  0
 46 42  1  0
 54  2  1  0
 10  5  1  0
 37 28  1  0
 17  9  1  0
M  END
$$$$
