
     RDKit          3D

 54 62  0  0  0  0  0  0  0  0999 V2000
  188.2565  160.0801  135.5709 C   0  0  2  0  0  0  0  0  0  0  0  0
  187.2280  159.7171  134.4887 C   0  0  2  0  0  0  0  0  0  0  0  0
  186.1391  161.1386  134.2738 S   0  0  0  0  0  0  0  0  0  0  0  0
  184.4436  160.8316  134.7270 C   0  0  0  0  0  0  0  0  0  0  0  0
  183.7349  162.0525  135.2642 C   0  0  1  0  0  0  0  0  0  0  0  0
  183.8906  163.0875  134.2563 N   0  0  0  0  0  0  0  0  0  0  0  0
  183.3188  162.7399  133.0011 C   0  0  0  0  0  0  0  0  0  0  0  0
  181.9682  162.1367  133.0147 C   0  0  0  0  0  0  0  0  0  0  0  0
  181.4645  161.7406  134.3524 C   0  0  0  0  0  0  0  0  0  0  0  0
  182.3012  161.6974  135.4271 C   0  0  0  0  0  0  0  0  0  0  0  0
  181.7957  161.3240  136.6570 C   0  0  0  0  0  0  0  0  0  0  0  0
  180.4646  160.9878  136.8517 C   0  0  0  0  0  0  0  0  0  0  0  0
  179.9588  160.6120  138.0924 O   0  0  0  0  0  0  0  0  0  0  0  0
  179.7970  159.2777  138.4837 C   0  0  0  0  0  0  0  0  0  0  0  0
  179.6216  161.0330  135.7616 C   0  0  0  0  0  0  0  0  0  0  0  0
  178.2720  160.7025  135.9108 O   0  0  0  0  0  0  0  0  0  0  0  0
  180.1290  161.4058  134.5365 C   0  0  0  0  0  0  0  0  0  0  0  0
  184.3340  162.5817  136.5136 C   0  0  0  0  0  0  0  0  0  0  0  0
  183.7746  163.6434  136.9563 O   0  0  0  0  0  0  0  0  0  0  0  0
  185.3858  161.9419  137.0835 O   0  0  0  0  0  0  0  0  0  0  0  0
  185.4556  160.7250  137.7502 C   0  0  0  0  0  0  0  0  0  0  0  0
  186.6382  159.8965  137.2475 C   0  0  2  0  0  0  0  0  0  0  0  0
  187.5137  160.7931  136.5612 N   0  0  0  0  0  0  0  0  0  0  0  0
  188.2863  161.6201  137.4377 C   0  0  1  0  0  0  0  0  0  0  0  0
  188.9474  160.9473  138.4331 O   0  0  0  0  0  0  0  0  0  0  0  0
  189.2587  162.4239  136.5977 C   0  0  2  0  0  0  0  0  0  0  0  0
  188.5727  163.2627  135.5754 C   0  0  0  0  0  0  0  0  0  0  0  0
  188.8499  162.8718  134.1781 C   0  0  0  0  0  0  0  0  0  0  0  0
  188.6777  163.7390  133.1205 C   0  0  0  0  0  0  0  0  0  0  0  0
  188.9512  163.3719  131.8042 C   0  0  0  0  0  0  0  0  0  0  0  0
  188.7429  164.3553  130.7178 C   0  0  0  0  0  0  0  0  0  0  0  0
  189.4098  162.0984  131.5512 C   0  0  0  0  0  0  0  0  0  0  0  0
  189.6781  161.7445  130.2436 O   0  0  0  0  0  0  0  0  0  0  0  0
  190.4326  160.6164  129.8734 C   0  0  0  0  0  0  0  0  0  0  0  0
  189.5963  161.1993  132.5768 C   0  0  0  0  0  0  0  0  0  0  0  0
  190.0609  159.9199  132.3061 O   0  0  0  0  0  0  0  0  0  0  0  0
  189.3164  161.5894  133.8748 C   0  0  0  0  0  0  0  0  0  0  0  0
  189.4823  160.6980  135.0455 C   0  0  1  0  0  0  0  0  0  0  0  0
  190.1920  161.4531  136.0588 N   0  0  0  0  0  0  0  0  0  0  0  0
  191.3986  162.0473  135.5935 C   0  0  0  0  0  0  0  0  0  0  0  0
  186.1867  158.7426  136.4556 C   0  0  0  0  0  0  0  0  0  0  0  0
  185.4768  157.7346  137.0557 C   0  0  0  0  0  0  0  0  0  0  0  0
  185.0226  157.4849  138.3368 O   0  0  0  0  0  0  0  0  0  0  0  0
  184.6446  156.1220  138.4345 C   0  0  0  0  0  0  0  0  0  0  0  0
  184.3585  155.7503  137.1002 O   0  0  0  0  0  0  0  0  0  0  0  0
  185.0540  156.6418  136.2950 C   0  0  0  0  0  0  0  0  0  0  0  0
  185.3267  156.5369  134.9476 C   0  0  0  0  0  0  0  0  0  0  0  0
  184.8686  155.3599  134.1395 C   0  0  0  0  0  0  0  0  0  0  0  0
  186.0439  157.5543  134.3398 C   0  0  0  0  0  0  0  0  0  0  0  0
  186.3269  157.4618  132.9884 O   0  0  0  0  0  0  0  0  0  0  0  0
  187.4250  156.7711  132.5368 C   0  0  0  0  0  0  0  0  0  0  0  0
  188.0676  157.1322  131.2272 C   0  0  0  0  0  0  0  0  0  0  0  0
  187.9434  155.8208  133.1761 O   0  0  0  0  0  0  0  0  0  0  0  0
  186.4457  158.6090  135.0981 C   0  0  0  0  0  0  0  0  0  0  0  0
  1  2  1  0
  2  3  1  1
  3  4  1  0
  4  5  1  0
  5  6  1  6
  6  7  1  0
  7  8  1  0
  8  9  1  0
  9 10  2  0
 10 11  1  0
 11 12  2  0
 12 13  1  0
 13 14  1  0
 12 15  1  0
 15 16  1  0
 15 17  2  0
  5 18  1  0
 18 19  2  0
 18 20  1  0
 20 21  1  0
 22 21  1  6
 22 23  1  0
 23 24  1  0
 24 25  1  1
 24 26  1  0
 26 27  1  6
 27 28  1  0
 28 29  2  0
 29 30  1  0
 30 31  1  0
 30 32  2  0
 32 33  1  0
 33 34  1  0
 32 35  1  0
 35 36  1  0
 35 37  2  0
 38 37  1  6
 38 39  1  0
 39 40  1  0
 22 41  1  0
 41 42  2  0
 42 43  1  0
 43 44  1  0
 44 45  1  0
 45 46  1  0
 46 47  2  0
 47 48  1  0
 47 49  1  0
 49 50  1  0
 50 51  1  0
 51 52  1  0
 51 53  2  0
 49 54  2  0
  1 23  1  1
 39 26  1  0
 54 41  1  0
 38  1  1  0
 46 42  1  0
 54  2  1  0
 10  5  1  0
 37 28  1  0
 17  9  1  0
M  END
$$$$
