
     RDKit          3D

 54 62  0  0  0  0  0  0  0  0999 V2000
  190.6520  158.0764  123.1747 C   0  0  2  0  0  0  0  0  0  0  0  0
  189.5228  158.4271  124.1558 C   0  0  2  0  0  0  0  0  0  0  0  0
  190.0009  159.9366  125.0191 S   0  0  0  0  0  0  0  0  0  0  0  0
  190.2487  159.7258  126.7707 C   0  0  0  0  0  0  0  0  0  0  0  0
  191.2964  160.6502  127.3447 C   0  0  1  0  0  0  0  0  0  0  0  0
  190.8978  161.9964  126.9703 N   0  0  0  0  0  0  0  0  0  0  0  0
  189.6251  162.3690  127.4848 C   0  0  0  0  0  0  0  0  0  0  0  0
  189.3470  162.0508  128.9024 C   0  0  0  0  0  0  0  0  0  0  0  0
  190.3368  161.1621  129.5585 C   0  0  0  0  0  0  0  0  0  0  0  0
  191.2667  160.4915  128.8219 C   0  0  0  0  0  0  0  0  0  0  0  0
  192.1723  159.6730  129.4681 C   0  0  0  0  0  0  0  0  0  0  0  0
  192.1800  159.4997  130.8439 C   0  0  0  0  0  0  0  0  0  0  0  0
  193.0939  158.6742  131.4916 O   0  0  0  0  0  0  0  0  0  0  0  0
  192.7983  157.3653  131.8905 C   0  0  0  0  0  0  0  0  0  0  0  0
  191.2374  160.1802  131.5852 C   0  0  0  0  0  0  0  0  0  0  0  0
  191.2075  160.0360  132.9748 O   0  0  0  0  0  0  0  0  0  0  0  0
  190.3357  160.9957  130.9375 C   0  0  0  0  0  0  0  0  0  0  0  0
  192.6499  160.4341  126.7779 C   0  0  0  0  0  0  0  0  0  0  0  0
  193.5396  161.2403  127.2189 O   0  0  0  0  0  0  0  0  0  0  0  0
  192.8539  159.4454  125.8714 O   0  0  0  0  0  0  0  0  0  0  0  0
  192.8668  158.0643  126.0216 C   0  0  0  0  0  0  0  0  0  0  0  0
  192.0367  157.3906  124.9285 C   0  0  2  0  0  0  0  0  0  0  0  0
  191.8588  158.3529  123.8874 N   0  0  0  0  0  0  0  0  0  0  0  0
  193.0250  158.5423  123.0791 C   0  0  1  0  0  0  0  0  0  0  0  0
  193.5869  157.3884  122.5964 O   0  0  0  0  0  0  0  0  0  0  0  0
  192.6682  159.4800  121.9431 C   0  0  2  0  0  0  0  0  0  0  0  0
  192.1610  160.7950  122.4256 C   0  0  0  0  0  0  0  0  0  0  0  0
  190.7458  161.0622  122.0967 C   0  0  0  0  0  0  0  0  0  0  0  0
  190.2229  162.3372  122.0653 C   0  0  0  0  0  0  0  0  0  0  0  0
  188.8903  162.5879  121.7430 C   0  0  0  0  0  0  0  0  0  0  0  0
  188.3968  163.9832  121.7291 C   0  0  0  0  0  0  0  0  0  0  0  0
  188.0674  161.5248  121.4454 C   0  0  0  0  0  0  0  0  0  0  0  0
  186.7488  161.7837  121.1272 O   0  0  0  0  0  0  0  0  0  0  0  0
  185.9315  160.9081  120.3894 C   0  0  0  0  0  0  0  0  0  0  0  0
  188.5472  160.2346  121.4646 C   0  0  0  0  0  0  0  0  0  0  0  0
  187.7059  159.1736  121.1605 O   0  0  0  0  0  0  0  0  0  0  0  0
  189.8744  160.0134  121.7886 C   0  0  0  0  0  0  0  0  0  0  0  0
  190.4856  158.6656  121.8384 C   0  0  1  0  0  0  0  0  0  0  0  0
  191.7382  158.7388  121.1129 N   0  0  0  0  0  0  0  0  0  0  0  0
  191.6134  159.2824  119.8036 C   0  0  0  0  0  0  0  0  0  0  0  0
  190.7918  156.8264  125.4711 C   0  0  0  0  0  0  0  0  0  0  0  0
  190.8417  155.7813  126.3573 C   0  0  0  0  0  0  0  0  0  0  0  0
  191.8511  155.0386  126.9399 O   0  0  0  0  0  0  0  0  0  0  0  0
  191.2918  153.8662  127.5081 C   0  0  0  0  0  0  0  0  0  0  0  0
  189.9391  154.2096  127.7376 O   0  0  0  0  0  0  0  0  0  0  0  0
  189.6534  155.2512  126.8657 C   0  0  0  0  0  0  0  0  0  0  0  0
  188.4173  155.7448  126.5058 C   0  0  0  0  0  0  0  0  0  0  0  0
  187.1472  155.1691  127.0569 C   0  0  0  0  0  0  0  0  0  0  0  0
  188.3652  156.8006  125.6105 C   0  0  0  0  0  0  0  0  0  0  0  0
  187.1315  157.3052  125.2385 O   0  0  0  0  0  0  0  0  0  0  0  0
  185.9774  156.5906  125.4488 C   0  0  0  0  0  0  0  0  0  0  0  0
  184.6470  157.1497  125.0294 C   0  0  0  0  0  0  0  0  0  0  0  0
  185.9667  155.4562  125.9905 O   0  0  0  0  0  0  0  0  0  0  0  0
  189.5333  157.3018  125.1279 C   0  0  0  0  0  0  0  0  0  0  0  0
  1  2  1  0
  2  3  1  1
  3  4  1  0
  4  5  1  0
  5  6  1  1
  6  7  1  0
  7  8  1  0
  8  9  1  0
  9 10  2  0
 10 11  1  0
 11 12  2  0
 12 13  1  0
 13 14  1  0
 12 15  1  0
 15 16  1  0
 15 17  2  0
  5 18  1  0
 18 19  2  0
 18 20  1  0
 20 21  1  0
 22 21  1  1
 22 23  1  0
 23 24  1  0
 24 25  1  6
 24 26  1  0
 26 27  1  1
 27 28  1  0
 28 29  2  0
 29 30  1  0
 30 31  1  0
 30 32  2  0
 32 33  1  0
 33 34  1  0
 32 35  1  0
 35 36  1  0
 35 37  2  0
 38 37  1  1
 38 39  1  0
 39 40  1  0
 22 41  1  0
 41 42  2  0
 42 43  1  0
 43 44  1  0
 44 45  1  0
 45 46  1  0
 46 47  2  0
 47 48  1  0
 47 49  1  0
 49 50  1  0
 50 51  1  0
 51 52  1  0
 51 53  2  0
 49 54  2  0
  1 23  1  1
 39 26  1  0
 54 41  1  0
 38  1  1  0
 46 42  1  0
 54  2  1  0
 10  5  1  0
 37 28  1  0
 17  9  1  0
M  END
$$$$
