
     RDKit          3D

 54 62  0  0  0  0  0  0  0  0999 V2000
  132.0358  164.0851  154.6149 C   0  0  2  0  0  0  0  0  0  0  0  0
  131.6705  163.0994  155.7355 C   0  0  2  0  0  0  0  0  0  0  0  0
  132.4314  161.5139  155.3354 S   0  0  0  0  0  0  0  0  0  0  0  0
  131.2641  160.2051  155.0217 C   0  0  0  0  0  0  0  0  0  0  0  0
  131.7586  159.1860  154.0226 C   0  0  1  0  0  0  0  0  0  0  0  0
  133.0396  158.7169  154.5227 N   0  0  0  0  0  0  0  0  0  0  0  0
  132.9519  158.1008  155.8018 C   0  0  0  0  0  0  0  0  0  0  0  0
  131.8525  157.1344  156.0152 C   0  0  0  0  0  0  0  0  0  0  0  0
  130.8229  157.1000  154.9482 C   0  0  0  0  0  0  0  0  0  0  0  0
  130.7723  158.0747  153.9973 C   0  0  0  0  0  0  0  0  0  0  0  0
  129.7993  158.0089  153.0193 C   0  0  0  0  0  0  0  0  0  0  0  0
  128.8625  156.9882  152.9588 C   0  0  0  0  0  0  0  0  0  0  0  0
  127.8836  156.9251  151.9720 O   0  0  0  0  0  0  0  0  0  0  0  0
  127.3709  155.7211  151.4745 C   0  0  0  0  0  0  0  0  0  0  0  0
  128.9175  156.0040  153.9229 C   0  0  0  0  0  0  0  0  0  0  0  0
  127.9937  154.9558  153.9013 O   0  0  0  0  0  0  0  0  0  0  0  0
  129.8893  156.0728  154.8968 C   0  0  0  0  0  0  0  0  0  0  0  0
  132.0096  159.7527  152.6751 C   0  0  0  0  0  0  0  0  0  0  0  0
  132.4736  158.9126  151.8294 O   0  0  0  0  0  0  0  0  0  0  0  0
  131.7463  161.0611  152.4315 O   0  0  0  0  0  0  0  0  0  0  0  0
  130.5387  161.7389  152.3204 C   0  0  0  0  0  0  0  0  0  0  0  0
  130.5641  163.0326  153.1351 C   0  0  2  0  0  0  0  0  0  0  0  0
  131.9354  163.3259  153.4089 N   0  0  0  0  0  0  0  0  0  0  0  0
  132.6420  163.8571  152.2829 C   0  0  1  0  0  0  0  0  0  0  0  0
  132.0251  164.9108  151.6587 O   0  0  0  0  0  0  0  0  0  0  0  0
  134.0353  164.2447  152.7364 C   0  0  2  0  0  0  0  0  0  0  0  0
  134.7870  163.0971  153.3171 C   0  0  0  0  0  0  0  0  0  0  0  0
  135.0915  163.2316  154.7564 C   0  0  0  0  0  0  0  0  0  0  0  0
  136.1072  162.5261  155.3654 C   0  0  0  0  0  0  0  0  0  0  0  0
  136.4005  162.6635  156.7209 C   0  0  0  0  0  0  0  0  0  0  0  0
  137.5059  161.8737  157.3083 C   0  0  0  0  0  0  0  0  0  0  0  0
  135.6497  163.5345  157.4783 C   0  0  0  0  0  0  0  0  0  0  0  0
  135.9484  163.6637  158.8203 O   0  0  0  0  0  0  0  0  0  0  0  0
  135.6918  164.8228  159.5750 C   0  0  0  0  0  0  0  0  0  0  0  0
  134.6257  164.2594  156.9116 C   0  0  0  0  0  0  0  0  0  0  0  0
  133.8790  165.1347  157.6876 O   0  0  0  0  0  0  0  0  0  0  0  0
  134.3549  164.1036  155.5633 C   0  0  0  0  0  0  0  0  0  0  0  0
  133.2759  164.8348  154.8608 C   0  0  1  0  0  0  0  0  0  0  0  0
  133.8464  165.3648  153.6383 N   0  0  0  0  0  0  0  0  0  0  0  0
  135.0368  166.1184  153.8387 C   0  0  0  0  0  0  0  0  0  0  0  0
  129.7013  162.9362  154.3220 C   0  0  0  0  0  0  0  0  0  0  0  0
  128.3432  162.8190  154.1748 C   0  0  0  0  0  0  0  0  0  0  0  0
  127.4760  162.7596  153.1004 O   0  0  0  0  0  0  0  0  0  0  0  0
  126.1543  162.9845  153.5615 C   0  0  0  0  0  0  0  0  0  0  0  0
  126.2020  162.6188  154.9270 O   0  0  0  0  0  0  0  0  0  0  0  0
  127.5320  162.7299  155.3086 C   0  0  0  0  0  0  0  0  0  0  0  0
  128.0514  162.7557  156.5856 C   0  0  0  0  0  0  0  0  0  0  0  0
  127.1725  162.6595  157.7966 C   0  0  0  0  0  0  0  0  0  0  0  0
  129.4234  162.8741  156.7361 C   0  0  0  0  0  0  0  0  0  0  0  0
  129.9589  162.9035  158.0117 O   0  0  0  0  0  0  0  0  0  0  0  0
  130.2272  164.0930  158.6438 C   0  0  0  0  0  0  0  0  0  0  0  0
  129.8291  165.3982  158.0139 C   0  0  0  0  0  0  0  0  0  0  0  0
  130.8066  164.1582  159.7576 O   0  0  0  0  0  0  0  0  0  0  0  0
  130.1947  162.9592  155.6196 C   0  0  0  0  0  0  0  0  0  0  0  0
  1  2  1  0
  2  3  1  6
  3  4  1  0
  4  5  1  0
  5  6  1  1
  6  7  1  0
  7  8  1  0
  8  9  1  0
  9 10  2  0
 10 11  1  0
 11 12  2  0
 12 13  1  0
 13 14  1  0
 12 15  1  0
 15 16  1  0
 15 17  2  0
  5 18  1  0
 18 19  2  0
 18 20  1  0
 20 21  1  0
 22 21  1  1
 22 23  1  0
 23 24  1  0
 24 25  1  1
 24 26  1  0
 26 27  1  1
 27 28  1  0
 28 29  2  0
 29 30  1  0
 30 31  1  0
 30 32  2  0
 32 33  1  0
 33 34  1  0
 32 35  1  0
 35 36  1  0
 35 37  2  0
 38 37  1  6
 38 39  1  0
 39 40  1  0
 22 41  1  0
 41 42  2  0
 42 43  1  0
 43 44  1  0
 44 45  1  0
 45 46  1  0
 46 47  2  0
 47 48  1  0
 47 49  1  0
 49 50  1  0
 50 51  1  0
 51 52  1  0
 51 53  2  0
 49 54  2  0
  1 23  1  6
 39 26  1  0
 54 41  1  0
 38  1  1  0
 46 42  1  0
 54  2  1  0
 10  5  1  0
 37 28  1  0
 17  9  1  0
M  END
$$$$
