
     RDKit          3D

 54 62  0  0  0  0  0  0  0  0999 V2000
  119.2509  165.0260  143.9888 C   0  0  2  0  0  0  0  0  0  0  0  0
  119.1766  165.0304  145.5235 C   0  0  2  0  0  0  0  0  0  0  0  0
  117.8475  166.1521  146.0009 S   0  0  0  0  0  0  0  0  0  0  0  0
  118.3941  167.5818  146.9127 C   0  0  0  0  0  0  0  0  0  0  0  0
  117.5433  168.8070  146.6753 C   0  0  1  0  0  0  0  0  0  0  0  0
  116.1762  168.4144  146.9718 N   0  0  0  0  0  0  0  0  0  0  0  0
  115.9944  167.9823  148.3148 C   0  0  0  0  0  0  0  0  0  0  0  0
  116.6104  168.8027  149.3805 C   0  0  0  0  0  0  0  0  0  0  0  0
  117.5515  169.8486  148.9110 C   0  0  0  0  0  0  0  0  0  0  0  0
  118.0003  169.8551  147.6244 C   0  0  0  0  0  0  0  0  0  0  0  0
  118.8760  170.8452  147.2238 C   0  0  0  0  0  0  0  0  0  0  0  0
  119.3243  171.8422  148.0769 C   0  0  0  0  0  0  0  0  0  0  0  0
  120.2067  172.8381  147.6698 O   0  0  0  0  0  0  0  0  0  0  0  0
  120.0041  174.1982  147.9325 C   0  0  0  0  0  0  0  0  0  0  0  0
  118.8676  171.8317  149.3778 C   0  0  0  0  0  0  0  0  0  0  0  0
  119.2927  172.8170  150.2730 O   0  0  0  0  0  0  0  0  0  0  0  0
  117.9944  170.8428  149.7740 C   0  0  0  0  0  0  0  0  0  0  0  0
  117.5565  169.2720  145.2669 C   0  0  0  0  0  0  0  0  0  0  0  0
  116.8038  170.2808  145.0392 O   0  0  0  0  0  0  0  0  0  0  0  0
  118.3260  168.6328  144.3505 O   0  0  0  0  0  0  0  0  0  0  0  0
  119.7055  168.5987  144.1883 C   0  0  0  0  0  0  0  0  0  0  0  0
  120.1926  167.1653  143.9740 C   0  0  2  0  0  0  0  0  0  0  0  0
  119.0516  166.3879  143.6061 N   0  0  0  0  0  0  0  0  0  0  0  0
  118.6309  166.5952  142.2536 C   0  0  1  0  0  0  0  0  0  0  0  0
  119.6262  166.4884  141.3163 O   0  0  0  0  0  0  0  0  0  0  0  0
  117.5056  165.6255  141.9524 C   0  0  2  0  0  0  0  0  0  0  0  0
  116.3496  165.7866  142.8782 C   0  0  0  0  0  0  0  0  0  0  0  0
  116.1084  164.6276  143.7619 C   0  0  0  0  0  0  0  0  0  0  0  0
  114.8880  164.3960  144.3596 C   0  0  0  0  0  0  0  0  0  0  0  0
  114.6591  163.2953  145.1834 C   0  0  0  0  0  0  0  0  0  0  0  0
  113.3229  163.1096  145.7923 C   0  0  0  0  0  0  0  0  0  0  0  0
  115.6879  162.4082  145.4081 C   0  0  0  0  0  0  0  0  0  0  0  0
  115.4510  161.3208  146.2256 O   0  0  0  0  0  0  0  0  0  0  0  0
  116.2663  160.1751  146.2662 C   0  0  0  0  0  0  0  0  0  0  0  0
  116.9233  162.6003  144.8317 C   0  0  0  0  0  0  0  0  0  0  0  0
  117.9498  161.6963  145.0661 O   0  0  0  0  0  0  0  0  0  0  0  0
  117.1240  163.7019  144.0182 C   0  0  0  0  0  0  0  0  0  0  0  0
  118.4138  163.9980  143.3540 C   0  0  1  0  0  0  0  0  0  0  0  0
  118.1183  164.3110  141.9700 N   0  0  0  0  0  0  0  0  0  0  0  0
  117.3287  163.3256  141.3136 C   0  0  0  0  0  0  0  0  0  0  0  0
  120.9304  166.6687  145.1450 C   0  0  0  0  0  0  0  0  0  0  0  0
  122.1286  167.2374  145.4924 C   0  0  0  0  0  0  0  0  0  0  0  0
  122.9110  168.2585  144.9874 O   0  0  0  0  0  0  0  0  0  0  0  0
  124.2063  168.1719  145.5572 C   0  0  0  0  0  0  0  0  0  0  0  0
  124.0002  167.4736  146.7698 O   0  0  0  0  0  0  0  0  0  0  0  0
  122.8226  166.7572  146.6056 C   0  0  0  0  0  0  0  0  0  0  0  0
  122.3428  165.7204  147.3776 C   0  0  0  0  0  0  0  0  0  0  0  0
  123.0951  165.2118  148.5708 C   0  0  0  0  0  0  0  0  0  0  0  0
  121.1324  165.1446  147.0279 C   0  0  0  0  0  0  0  0  0  0  0  0
  120.6392  164.1017  147.7923 O   0  0  0  0  0  0  0  0  0  0  0  0
  119.3130  163.7479  147.7423 C   0  0  0  0  0  0  0  0  0  0  0  0
  118.7979  162.8745  146.6330 C   0  0  0  0  0  0  0  0  0  0  0  0
  118.4739  164.1241  148.5995 O   0  0  0  0  0  0  0  0  0  0  0  0
  120.4730  165.6271  145.9411 C   0  0  0  0  0  0  0  0  0  0  0  0
  1  2  1  0
  2  3  1  6
  3  4  1  0
  4  5  1  0
  5  6  1  1
  6  7  1  0
  7  8  1  0
  8  9  1  0
  9 10  2  0
 10 11  1  0
 11 12  2  0
 12 13  1  0
 13 14  1  0
 12 15  1  0
 15 16  1  0
 15 17  2  0
  5 18  1  0
 18 19  2  0
 18 20  1  0
 20 21  1  0
 22 21  1  1
 22 23  1  0
 23 24  1  0
 24 25  1  6
 24 26  1  0
 26 27  1  1
 27 28  1  0
 28 29  2  0
 29 30  1  0
 30 31  1  0
 30 32  2  0
 32 33  1  0
 33 34  1  0
 32 35  1  0
 35 36  1  0
 35 37  2  0
 38 37  1  1
 38 39  1  0
 39 40  1  0
 22 41  1  0
 41 42  2  0
 42 43  1  0
 43 44  1  0
 44 45  1  0
 45 46  1  0
 46 47  2  0
 47 48  1  0
 47 49  1  0
 49 50  1  0
 50 51  1  0
 51 52  1  0
 51 53  2  0
 49 54  2  0
  1 23  1  6
 39 26  1  0
 54 41  1  0
 38  1  1  0
 46 42  1  0
 54  2  1  0
 10  5  1  0
 37 28  1  0
 17  9  1  0
M  END
$$$$
