
     RDKit          3D

 54 62  0  0  0  0  0  0  0  0999 V2000
  187.2284  161.2086  140.0390 C   0  0  2  0  0  0  0  0  0  0  0  0
  185.7120  160.9982  139.9090 C   0  0  2  0  0  0  0  0  0  0  0  0
  184.9140  162.5870  140.2120 S   0  0  0  0  0  0  0  0  0  0  0  0
  183.8848  162.6188  141.6659 C   0  0  0  0  0  0  0  0  0  0  0  0
  183.8347  163.9711  142.3369 C   0  0  1  0  0  0  0  0  0  0  0  0
  183.4255  164.9167  141.3123 N   0  0  0  0  0  0  0  0  0  0  0  0
  182.1458  164.6296  140.7616 C   0  0  0  0  0  0  0  0  0  0  0  0
  181.0612  164.2885  141.7080 C   0  0  0  0  0  0  0  0  0  0  0  0
  181.4927  164.0484  143.1066 C   0  0  0  0  0  0  0  0  0  0  0  0
  182.8118  163.8952  143.4121 C   0  0  0  0  0  0  0  0  0  0  0  0
  183.1754  163.6732  144.7259 C   0  0  0  0  0  0  0  0  0  0  0  0
  182.2529  163.5982  145.7585 C   0  0  0  0  0  0  0  0  0  0  0  0
  182.6228  163.3743  147.0811 O   0  0  0  0  0  0  0  0  0  0  0  0
  181.7392  163.5068  148.1588 C   0  0  0  0  0  0  0  0  0  0  0  0
  180.9193  163.7538  145.4448 C   0  0  0  0  0  0  0  0  0  0  0  0
  179.9542  163.6858  146.4532 O   0  0  0  0  0  0  0  0  0  0  0  0
  180.5602  163.9751  144.1335 C   0  0  0  0  0  0  0  0  0  0  0  0
  185.1524  164.4312  142.8387 C   0  0  0  0  0  0  0  0  0  0  0  0
  185.1362  165.5957  143.3678 O   0  0  0  0  0  0  0  0  0  0  0  0
  186.2411  163.6315  142.7129 O   0  0  0  0  0  0  0  0  0  0  0  0
  186.5809  162.4515  143.3627 C   0  0  0  0  0  0  0  0  0  0  0  0
  187.0578  161.3978  142.3625 C   0  0  2  0  0  0  0  0  0  0  0  0
  187.3844  162.0874  141.1545 N   0  0  0  0  0  0  0  0  0  0  0  0
  188.6288  162.7922  141.2175 C   0  0  1  0  0  0  0  0  0  0  0  0
  189.6908  162.0502  141.6669 O   0  0  0  0  0  0  0  0  0  0  0  0
  188.9194  163.3662  139.8451 C   0  0  2  0  0  0  0  0  0  0  0  0
  187.8405  164.2747  139.3658 C   0  0  0  0  0  0  0  0  0  0  0  0
  187.1076  163.7817  138.1816 C   0  0  0  0  0  0  0  0  0  0  0  0
  186.3986  164.6214  137.3495 C   0  0  0  0  0  0  0  0  0  0  0  0
  185.7178  164.1557  136.2260 C   0  0  0  0  0  0  0  0  0  0  0  0
  184.9764  165.1150  135.3770 C   0  0  0  0  0  0  0  0  0  0  0  0
  185.7549  162.8100  135.9371 C   0  0  0  0  0  0  0  0  0  0  0  0
  185.0773  162.3586  134.8216 O   0  0  0  0  0  0  0  0  0  0  0  0
  183.7062  162.0442  134.8083 C   0  0  0  0  0  0  0  0  0  0  0  0
  186.4506  161.9350  136.7406 C   0  0  0  0  0  0  0  0  0  0  0  0
  186.4801  160.5816  136.4352 O   0  0  0  0  0  0  0  0  0  0  0  0
  187.1174  162.4236  137.8506 C   0  0  0  0  0  0  0  0  0  0  0  0
  187.8914  161.5661  138.7769 C   0  0  1  0  0  0  0  0  0  0  0  0
  189.1677  162.2177  138.9947 N   0  0  0  0  0  0  0  0  0  0  0  0
  189.8519  162.5580  137.7942 C   0  0  0  0  0  0  0  0  0  0  0  0
  186.0732  160.3160  142.2126 C   0  0  0  0  0  0  0  0  0  0  0  0
  185.8037  159.4829  143.2677 C   0  0  0  0  0  0  0  0  0  0  0  0
  186.2533  159.3750  144.5701 O   0  0  0  0  0  0  0  0  0  0  0  0
  185.8714  158.1111  145.0865 C   0  0  0  0  0  0  0  0  0  0  0  0
  184.7546  157.7440  144.3002 O   0  0  0  0  0  0  0  0  0  0  0  0
  184.8679  158.4570  143.1146 C   0  0  0  0  0  0  0  0  0  0  0  0
  184.1970  158.2477  141.9284 C   0  0  0  0  0  0  0  0  0  0  0  0
  183.1942  157.1437  141.7736 C   0  0  0  0  0  0  0  0  0  0  0  0
  184.4681  159.0884  140.8613 C   0  0  0  0  0  0  0  0  0  0  0  0
  183.8038  158.8892  139.6638 O   0  0  0  0  0  0  0  0  0  0  0  0
  183.0362  159.8801  139.1023 C   0  0  0  0  0  0  0  0  0  0  0  0
  182.4132  159.6875  137.7483 C   0  0  0  0  0  0  0  0  0  0  0  0
  182.8154  160.9781  139.6734 O   0  0  0  0  0  0  0  0  0  0  0  0
  185.3820  160.0806  141.0316 C   0  0  0  0  0  0  0  0  0  0  0  0
  1  2  1  0
  2  3  1  1
  3  4  1  0
  4  5  1  0
  5  6  1  6
  6  7  1  0
  7  8  1  0
  8  9  1  0
  9 10  2  0
 10 11  1  0
 11 12  2  0
 12 13  1  0
 13 14  1  0
 12 15  1  0
 15 16  1  0
 15 17  2  0
  5 18  1  0
 18 19  2  0
 18 20  1  0
 20 21  1  0
 22 21  1  1
 22 23  1  0
 23 24  1  0
 24 25  1  6
 24 26  1  0
 26 27  1  6
 27 28  1  0
 28 29  2  0
 29 30  1  0
 30 31  1  0
 30 32  2  0
 32 33  1  0
 33 34  1  0
 32 35  1  0
 35 36  1  0
 35 37  2  0
 38 37  1  1
 38 39  1  0
 39 40  1  0
 22 41  1  0
 41 42  2  0
 42 43  1  0
 43 44  1  0
 44 45  1  0
 45 46  1  0
 46 47  2  0
 47 48  1  0
 47 49  1  0
 49 50  1  0
 50 51  1  0
 51 52  1  0
 51 53  2  0
 49 54  2  0
  1 23  1  1
 39 26  1  0
 54 41  1  0
 38  1  1  0
 46 42  1  0
 54  2  1  0
 10  5  1  0
 37 28  1  0
 17  9  1  0
M  END
$$$$
