
     RDKit          3D

 54 62  0  0  0  0  0  0  0  0999 V2000
  175.4162  164.7719  111.3032 C   0  0  2  0  0  0  0  0  0  0  0  0
  175.1586  163.4815  110.5099 C   0  0  2  0  0  0  0  0  0  0  0  0
  173.9605  163.8666  109.2181 S   0  0  0  0  0  0  0  0  0  0  0  0
  172.4058  163.0137  109.3899 C   0  0  0  0  0  0  0  0  0  0  0  0
  171.2279  163.8004  108.8654 C   0  0  1  0  0  0  0  0  0  0  0  0
  171.5527  164.1494  107.4929 N   0  0  0  0  0  0  0  0  0  0  0  0
  171.7561  163.0157  106.6580 C   0  0  0  0  0  0  0  0  0  0  0  0
  170.7777  161.9113  106.7637 C   0  0  0  0  0  0  0  0  0  0  0  0
  169.8328  162.0085  107.9028 C   0  0  0  0  0  0  0  0  0  0  0  0
  170.0425  162.9052  108.9073 C   0  0  0  0  0  0  0  0  0  0  0  0
  169.1406  162.9668  109.9515 C   0  0  0  0  0  0  0  0  0  0  0  0
  168.0214  162.1516  110.0269 C   0  0  0  0  0  0  0  0  0  0  0  0
  167.1149  162.2164  111.0806 O   0  0  0  0  0  0  0  0  0  0  0  0
  165.9525  162.9959  111.0470 C   0  0  0  0  0  0  0  0  0  0  0  0
  167.8131  161.2459  109.0084 C   0  0  0  0  0  0  0  0  0  0  0  0
  166.6983  160.4040  109.0423 O   0  0  0  0  0  0  0  0  0  0  0  0
  168.7145  161.1871  107.9684 C   0  0  0  0  0  0  0  0  0  0  0  0
  171.0011  165.0764  109.5866 C   0  0  0  0  0  0  0  0  0  0  0  0
  170.0360  165.7773  109.1244 O   0  0  0  0  0  0  0  0  0  0  0  0
  171.7900  165.4082  110.6393 O   0  0  0  0  0  0  0  0  0  0  0  0
  171.8641  164.8777  111.9212 C   0  0  0  0  0  0  0  0  0  0  0  0
  173.3180  164.6281  112.3233 C   0  0  2  0  0  0  0  0  0  0  0  0
  174.1340  165.3887  111.4304 N   0  0  0  0  0  0  0  0  0  0  0  0
  174.1478  166.7900  111.7224 C   0  0  1  0  0  0  0  0  0  0  0  0
  174.4173  167.1050  113.0295 O   0  0  0  0  0  0  0  0  0  0  0  0
  175.1425  167.4586  110.7946 C   0  0  2  0  0  0  0  0  0  0  0  0
  174.8198  167.2387  109.3569 C   0  0  0  0  0  0  0  0  0  0  0  0
  175.8151  166.4296  108.6240 C   0  0  0  0  0  0  0  0  0  0  0  0
  175.9330  166.4698  107.2512 C   0  0  0  0  0  0  0  0  0  0  0  0
  176.8808  165.7147  106.5627 C   0  0  0  0  0  0  0  0  0  0  0  0
  176.9505  165.8075  105.0871 C   0  0  0  0  0  0  0  0  0  0  0  0
  177.7291  164.9002  107.2788 C   0  0  0  0  0  0  0  0  0  0  0  0
  178.6647  164.1562  106.5873 O   0  0  0  0  0  0  0  0  0  0  0  0
  178.5105  162.7933  106.2748 C   0  0  0  0  0  0  0  0  0  0  0  0
  177.6468  164.8289  108.6511 C   0  0  0  0  0  0  0  0  0  0  0  0
  178.5101  164.0046  109.3591 O   0  0  0  0  0  0  0  0  0  0  0  0
  176.6962  165.5887  109.3101 C   0  0  0  0  0  0  0  0  0  0  0  0
  176.5262  165.5815  110.7810 C   0  0  1  0  0  0  0  0  0  0  0  0
  176.4423  166.9644  111.2069 N   0  0  0  0  0  0  0  0  0  0  0  0
  177.5143  167.7759  110.7404 C   0  0  0  0  0  0  0  0  0  0  0  0
  173.6226  163.1902  112.3696 C   0  0  0  0  0  0  0  0  0  0  0  0
  173.0164  162.3906  113.3040 C   0  0  0  0  0  0  0  0  0  0  0  0
  172.1002  162.5918  114.3189 O   0  0  0  0  0  0  0  0  0  0  0  0
  172.1048  161.4617  115.1750 C   0  0  0  0  0  0  0  0  0  0  0  0
  172.5920  160.4156  114.3572 O   0  0  0  0  0  0  0  0  0  0  0  0
  173.3138  161.0262  113.3410 C   0  0  0  0  0  0  0  0  0  0  0  0
  174.2046  160.4460  112.4630 C   0  0  0  0  0  0  0  0  0  0  0  0
  174.5175  158.9803  112.5104 C   0  0  0  0  0  0  0  0  0  0  0  0
  174.8180  161.2524  111.5183 C   0  0  0  0  0  0  0  0  0  0  0  0
  175.7160  160.6844  110.6317 O   0  0  0  0  0  0  0  0  0  0  0  0
  176.9271  161.2763  110.3683 C   0  0  0  0  0  0  0  0  0  0  0  0
  177.9105  161.5274  111.4767 C   0  0  0  0  0  0  0  0  0  0  0  0
  177.2751  161.6335  109.2143 O   0  0  0  0  0  0  0  0  0  0  0  0
  174.5143  162.5776  111.4994 C   0  0  0  0  0  0  0  0  0  0  0  0
  1  2  1  0
  2  3  1  6
  3  4  1  0
  4  5  1  0
  5  6  1  6
  6  7  1  0
  7  8  1  0
  8  9  1  0
  9 10  2  0
 10 11  1  0
 11 12  2  0
 12 13  1  0
 13 14  1  0
 12 15  1  0
 15 16  1  0
 15 17  2  0
  5 18  1  0
 18 19  2  0
 18 20  1  0
 20 21  1  0
 22 21  1  6
 22 23  1  0
 23 24  1  0
 24 25  1  1
 24 26  1  0
 26 27  1  6
 27 28  1  0
 28 29  2  0
 29 30  1  0
 30 31  1  0
 30 32  2  0
 32 33  1  0
 33 34  1  0
 32 35  1  0
 35 36  1  0
 35 37  2  0
 38 37  1  6
 38 39  1  0
 39 40  1  0
 22 41  1  0
 41 42  2  0
 42 43  1  0
 43 44  1  0
 44 45  1  0
 45 46  1  0
 46 47  2  0
 47 48  1  0
 47 49  1  0
 49 50  1  0
 50 51  1  0
 51 52  1  0
 51 53  2  0
 49 54  2  0
  1 23  1  6
 39 26  1  0
 54 41  1  0
 38  1  1  0
 46 42  1  0
 54  2  1  0
 10  5  1  0
 37 28  1  0
 17  9  1  0
M  END
$$$$
