
     RDKit          3D

 54 62  0  0  0  0  0  0  0  0999 V2000
  127.9342  140.3419  134.9248 C   0  0  2  0  0  0  0  0  0  0  0  0
  127.3972  141.4165  135.8826 C   0  0  2  0  0  0  0  0  0  0  0  0
  126.5656  142.6681  134.8853 S   0  0  0  0  0  0  0  0  0  0  0  0
  127.3363  144.2734  134.9413 C   0  0  0  0  0  0  0  0  0  0  0  0
  127.1790  145.0602  133.6615 C   0  0  1  0  0  0  0  0  0  0  0  0
  125.7528  145.1077  133.3880 N   0  0  0  0  0  0  0  0  0  0  0  0
  125.0047  145.7471  134.4150 C   0  0  0  0  0  0  0  0  0  0  0  0
  125.5387  147.0177  134.9523 C   0  0  0  0  0  0  0  0  0  0  0  0
  126.9191  147.3551  134.5273 C   0  0  0  0  0  0  0  0  0  0  0  0
  127.7055  146.4268  133.9134 C   0  0  0  0  0  0  0  0  0  0  0  0
  128.9856  146.7779  133.5319 C   0  0  0  0  0  0  0  0  0  0  0  0
  129.5135  148.0422  133.7461 C   0  0  0  0  0  0  0  0  0  0  0  0
  130.8037  148.3924  133.3604 O   0  0  0  0  0  0  0  0  0  0  0  0
  131.7339  147.4711  132.8646 C   0  0  0  0  0  0  0  0  0  0  0  0
  128.7143  148.9782  134.3675 C   0  0  0  0  0  0  0  0  0  0  0  0
  129.2043  150.2654  134.6040 O   0  0  0  0  0  0  0  0  0  0  0  0
  127.4381  148.6247  134.7467 C   0  0  0  0  0  0  0  0  0  0  0  0
  127.8161  144.4140  132.4883 C   0  0  0  0  0  0  0  0  0  0  0  0
  127.6517  145.0440  131.3873 O   0  0  0  0  0  0  0  0  0  0  0  0
  128.4998  143.2526  132.6438 O   0  0  0  0  0  0  0  0  0  0  0  0
  129.7208  142.9923  133.2534 C   0  0  0  0  0  0  0  0  0  0  0  0
  129.6206  141.7759  134.1743 C   0  0  2  0  0  0  0  0  0  0  0  0
  128.4373  141.0671  133.8016 N   0  0  0  0  0  0  0  0  0  0  0  0
  128.5792  140.3144  132.5922 C   0  0  1  0  0  0  0  0  0  0  0  0
  129.6805  139.4987  132.5455 O   0  0  0  0  0  0  0  0  0  0  0  0
  127.3102  139.5132  132.3800 C   0  0  2  0  0  0  0  0  0  0  0  0
  126.0965  140.3740  132.3074 C   0  0  0  0  0  0  0  0  0  0  0  0
  125.1428  140.1807  133.4189 C   0  0  0  0  0  0  0  0  0  0  0  0
  123.8151  140.5391  133.3236 C   0  0  0  0  0  0  0  0  0  0  0  0
  122.9144  140.3448  134.3693 C   0  0  0  0  0  0  0  0  0  0  0  0
  121.5025  140.7540  134.1969 C   0  0  0  0  0  0  0  0  0  0  0  0
  123.3665  139.7748  135.5384 C   0  0  0  0  0  0  0  0  0  0  0  0
  122.4662  139.5864  136.5684 O   0  0  0  0  0  0  0  0  0  0  0  0
  122.3136  138.3753  137.2676 C   0  0  0  0  0  0  0  0  0  0  0  0
  124.6843  139.4017  135.6775 C   0  0  0  0  0  0  0  0  0  0  0  0
  125.1245  138.8267  136.8614 O   0  0  0  0  0  0  0  0  0  0  0  0
  125.5580  139.6064  134.6238 C   0  0  0  0  0  0  0  0  0  0  0  0
  126.9922  139.2417  134.6742 C   0  0  1  0  0  0  0  0  0  0  0  0
  127.2945  138.5314  133.4475 N   0  0  0  0  0  0  0  0  0  0  0  0
  126.4174  137.4424  133.1825 C   0  0  0  0  0  0  0  0  0  0  0  0
  129.6891  142.1677  135.5900 C   0  0  0  0  0  0  0  0  0  0  0  0
  130.8428  142.7080  136.0969 C   0  0  0  0  0  0  0  0  0  0  0  0
  132.0878  143.0172  135.5829 O   0  0  0  0  0  0  0  0  0  0  0  0
  132.9886  143.2349  136.6558 C   0  0  0  0  0  0  0  0  0  0  0  0
  132.1513  143.5958  137.7370 O   0  0  0  0  0  0  0  0  0  0  0  0
  130.8984  143.0753  137.4436 C   0  0  0  0  0  0  0  0  0  0  0  0
  129.8243  142.9130  138.2927 C   0  0  0  0  0  0  0  0  0  0  0  0
  129.8935  143.3103  139.7369 C   0  0  0  0  0  0  0  0  0  0  0  0
  128.6579  142.3672  137.7822 C   0  0  0  0  0  0  0  0  0  0  0  0
  127.5722  142.1965  138.6231 O   0  0  0  0  0  0  0  0  0  0  0  0
  126.6089  143.1677  138.7477 C   0  0  0  0  0  0  0  0  0  0  0  0
  125.2205  142.8112  139.1992 C   0  0  0  0  0  0  0  0  0  0  0  0
  126.8265  144.3804  138.4978 O   0  0  0  0  0  0  0  0  0  0  0  0
  128.6249  142.0168  136.4689 C   0  0  0  0  0  0  0  0  0  0  0  0
  1  2  1  0
  2  3  1  6
  3  4  1  0
  4  5  1  0
  5  6  1  6
  6  7  1  0
  7  8  1  0
  8  9  1  0
  9 10  2  0
 10 11  1  0
 11 12  2  0
 12 13  1  0
 13 14  1  0
 12 15  1  0
 15 16  1  0
 15 17  2  0
  5 18  1  0
 18 19  2  0
 18 20  1  0
 20 21  1  0
 22 21  1  6
 22 23  1  0
 23 24  1  0
 24 25  1  1
 24 26  1  0
 26 27  1  1
 27 28  1  0
 28 29  2  0
 29 30  1  0
 30 31  1  0
 30 32  2  0
 32 33  1  0
 33 34  1  0
 32 35  1  0
 35 36  1  0
 35 37  2  0
 38 37  1  6
 38 39  1  0
 39 40  1  0
 22 41  1  0
 41 42  2  0
 42 43  1  0
 43 44  1  0
 44 45  1  0
 45 46  1  0
 46 47  2  0
 47 48  1  0
 47 49  1  0
 49 50  1  0
 50 51  1  0
 51 52  1  0
 51 53  2  0
 49 54  2  0
  1 23  1  6
 39 26  1  0
 54 41  1  0
 38  1  1  0
 46 42  1  0
 54  2  1  0
 10  5  1  0
 37 28  1  0
 17  9  1  0
M  END
$$$$
