
     RDKit          3D

 54 62  0  0  0  0  0  0  0  0999 V2000
  127.9654  138.6497  136.6918 C   0  0  2  0  0  0  0  0  0  0  0  0
  127.4726  138.6788  135.2368 C   0  0  2  0  0  0  0  0  0  0  0  0
  128.6741  139.6177  134.2738 S   0  0  0  0  0  0  0  0  0  0  0  0
  128.0319  141.1293  133.5835 C   0  0  0  0  0  0  0  0  0  0  0  0
  129.0690  142.2202  133.4573 C   0  0  1  0  0  0  0  0  0  0  0  0
  130.1655  141.6502  132.6931 N   0  0  0  0  0  0  0  0  0  0  0  0
  129.7823  141.2279  131.3899 C   0  0  0  0  0  0  0  0  0  0  0  0
  128.9369  142.1493  130.5996 C   0  0  0  0  0  0  0  0  0  0  0  0
  128.3849  143.3037  131.3498 C   0  0  0  0  0  0  0  0  0  0  0  0
  128.4436  143.3426  132.7106 C   0  0  0  0  0  0  0  0  0  0  0  0
  127.9191  144.4342  133.3744 C   0  0  0  0  0  0  0  0  0  0  0  0
  127.3299  145.5026  132.7154 C   0  0  0  0  0  0  0  0  0  0  0  0
  126.8024  146.6008  133.3875 O   0  0  0  0  0  0  0  0  0  0  0  0
  126.8335  146.7365  134.7805 C   0  0  0  0  0  0  0  0  0  0  0  0
  127.2727  145.4591  131.3385 C   0  0  0  0  0  0  0  0  0  0  0  0
  126.6879  146.5135  130.6322 O   0  0  0  0  0  0  0  0  0  0  0  0
  127.7968  144.3688  130.6796 C   0  0  0  0  0  0  0  0  0  0  0  0
  129.6358  142.6504  134.7587 C   0  0  0  0  0  0  0  0  0  0  0  0
  130.5495  143.5406  134.6657 O   0  0  0  0  0  0  0  0  0  0  0  0
  129.1757  142.1024  135.9113 O   0  0  0  0  0  0  0  0  0  0  0  0
  127.9607  142.2545  136.5675 C   0  0  0  0  0  0  0  0  0  0  0  0
  127.3954  140.8972  136.9871 C   0  0  2  0  0  0  0  0  0  0  0  0
  128.4745  139.9621  136.9350 N   0  0  0  0  0  0  0  0  0  0  0  0
  129.3851  140.0788  138.0334 C   0  0  1  0  0  0  0  0  0  0  0  0
  128.7975  140.0885  139.2723 O   0  0  0  0  0  0  0  0  0  0  0  0
  130.3991  138.9570  137.9306 C   0  0  2  0  0  0  0  0  0  0  0  0
  131.1463  138.9786  136.6420 C   0  0  0  0  0  0  0  0  0  0  0  0
  130.8870  137.8179  135.7656 C   0  0  0  0  0  0  0  0  0  0  0  0
  131.7601  137.4344  134.7703 C   0  0  0  0  0  0  0  0  0  0  0  0
  131.5193  136.3318  133.9525 C   0  0  0  0  0  0  0  0  0  0  0  0
  132.5011  135.9780  132.9030 C   0  0  0  0  0  0  0  0  0  0  0  0
  130.3690  135.5999  134.1457 C   0  0  0  0  0  0  0  0  0  0  0  0
  130.1398  134.5091  133.3304 O   0  0  0  0  0  0  0  0  0  0  0  0
  129.6131  133.2859  133.7833 C   0  0  0  0  0  0  0  0  0  0  0  0
  129.4690  135.9468  135.1279 C   0  0  0  0  0  0  0  0  0  0  0  0
  128.3150  135.1982  135.3116 O   0  0  0  0  0  0  0  0  0  0  0  0
  129.7321  137.0467  135.9257 C   0  0  0  0  0  0  0  0  0  0  0  0
  128.8283  137.5022  137.0065 C   0  0  1  0  0  0  0  0  0  0  0  0
  129.6496  137.7399  138.1768 N   0  0  0  0  0  0  0  0  0  0  0  0
  130.4825  136.6406  138.5278 C   0  0  0  0  0  0  0  0  0  0  0  0
  126.2199  140.5336  136.1820 C   0  0  0  0  0  0  0  0  0  0  0  0
  125.0672  141.2695  136.2802 C   0  0  0  0  0  0  0  0  0  0  0  0
  124.6709  142.3767  137.0060 O   0  0  0  0  0  0  0  0  0  0  0  0
  123.2581  142.4820  136.9521 C   0  0  0  0  0  0  0  0  0  0  0  0
  122.9088  141.7898  135.7691 O   0  0  0  0  0  0  0  0  0  0  0  0
  123.9553  140.9147  135.5124 C   0  0  0  0  0  0  0  0  0  0  0  0
  123.9731  139.8397  134.6493 C   0  0  0  0  0  0  0  0  0  0  0  0
  122.7745  139.4667  133.8292 C   0  0  0  0  0  0  0  0  0  0  0  0
  125.1369  139.0951  134.5489 C   0  0  0  0  0  0  0  0  0  0  0  0
  125.1690  138.0120  133.6882 O   0  0  0  0  0  0  0  0  0  0  0  0
  125.1470  136.7237  134.1642 C   0  0  0  0  0  0  0  0  0  0  0  0
  125.0891  136.4576  135.6422 C   0  0  0  0  0  0  0  0  0  0  0  0
  125.1732  135.7176  133.4108 O   0  0  0  0  0  0  0  0  0  0  0  0
  126.2075  139.4575  135.3047 C   0  0  0  0  0  0  0  0  0  0  0  0
  1  2  1  0
  2  3  1  6
  3  4  1  0
  4  5  1  0
  5  6  1  6
  6  7  1  0
  7  8  1  0
  8  9  1  0
  9 10  2  0
 10 11  1  0
 11 12  2  0
 12 13  1  0
 13 14  1  0
 12 15  1  0
 15 16  1  0
 15 17  2  0
  5 18  1  0
 18 19  2  0
 18 20  1  0
 20 21  1  0
 22 21  1  6
 22 23  1  0
 23 24  1  0
 24 25  1  1
 24 26  1  0
 26 27  1  6
 27 28  1  0
 28 29  2  0
 29 30  1  0
 30 31  1  0
 30 32  2  0
 32 33  1  0
 33 34  1  0
 32 35  1  0
 35 36  1  0
 35 37  2  0
 38 37  1  6
 38 39  1  0
 39 40  1  0
 22 41  1  0
 41 42  2  0
 42 43  1  0
 43 44  1  0
 44 45  1  0
 45 46  1  0
 46 47  2  0
 47 48  1  0
 47 49  1  0
 49 50  1  0
 50 51  1  0
 51 52  1  0
 51 53  2  0
 49 54  2  0
  1 23  1  6
 39 26  1  0
 54 41  1  0
 38  1  1  0
 46 42  1  0
 54  2  1  0
 10  5  1  0
 37 28  1  0
 17  9  1  0
M  END
$$$$
