
     RDKit          3D

 54 62  0  0  0  0  0  0  0  0999 V2000
  117.7464  165.6398  146.2742 C   0  0  2  0  0  0  0  0  0  0  0  0
  118.7940  166.3765  145.4253 C   0  0  2  0  0  0  0  0  0  0  0  0
  117.9449  167.6982  144.5393 S   0  0  0  0  0  0  0  0  0  0  0  0
  117.9480  167.5058  142.7682 C   0  0  0  0  0  0  0  0  0  0  0  0
  116.7208  168.0790  142.0996 C   0  0  1  0  0  0  0  0  0  0  0  0
  116.6309  169.4622  142.5355 N   0  0  0  0  0  0  0  0  0  0  0  0
  117.7616  170.2423  142.1662 C   0  0  0  0  0  0  0  0  0  0  0  0
  118.2624  170.0977  140.7818 C   0  0  0  0  0  0  0  0  0  0  0  0
  117.6762  168.9752  140.0097 C   0  0  0  0  0  0  0  0  0  0  0  0
  116.9423  168.0102  140.6318 C   0  0  0  0  0  0  0  0  0  0  0  0
  116.4121  166.9803  139.8796 C   0  0  0  0  0  0  0  0  0  0  0  0
  116.5932  166.8808  138.5084 C   0  0  0  0  0  0  0  0  0  0  0  0
  116.0576  165.8417  137.7537 O   0  0  0  0  0  0  0  0  0  0  0  0
  115.4765  164.7011  138.3204 C   0  0  0  0  0  0  0  0  0  0  0  0
  117.3364  167.8595  137.8831 C   0  0  0  0  0  0  0  0  0  0  0  0
  117.5449  167.8001  136.5026 O   0  0  0  0  0  0  0  0  0  0  0  0
  117.8636  168.8852  138.6364 C   0  0  0  0  0  0  0  0  0  0  0  0
  115.4589  167.4192  142.5147 C   0  0  0  0  0  0  0  0  0  0  0  0
  114.4055  167.9239  141.9934 O   0  0  0  0  0  0  0  0  0  0  0  0
  115.4944  166.3737  143.3785 O   0  0  0  0  0  0  0  0  0  0  0  0
  115.9375  165.0683  143.2064 C   0  0  0  0  0  0  0  0  0  0  0  0
  116.8294  164.6385  144.3716 C   0  0  2  0  0  0  0  0  0  0  0  0
  116.5893  165.5556  145.4406 N   0  0  0  0  0  0  0  0  0  0  0  0
  115.3512  165.3275  146.1220 C   0  0  1  0  0  0  0  0  0  0  0  0
  115.1431  164.0330  146.5238 O   0  0  0  0  0  0  0  0  0  0  0  0
  115.2786  166.2732  147.3042 C   0  0  2  0  0  0  0  0  0  0  0  0
  115.3839  167.7030  146.8993 C   0  0  0  0  0  0  0  0  0  0  0  0
  116.6011  168.3868  147.3821 C   0  0  0  0  0  0  0  0  0  0  0  0
  116.6842  169.7587  147.4893 C   0  0  0  0  0  0  0  0  0  0  0  0
  117.8293  170.4011  147.9564 C   0  0  0  0  0  0  0  0  0  0  0  0
  117.8481  171.8784  148.0448 C   0  0  0  0  0  0  0  0  0  0  0  0
  118.9156  169.6390  148.3239 C   0  0  0  0  0  0  0  0  0  0  0  0
  120.0454  170.2850  148.7857 O   0  0  0  0  0  0  0  0  0  0  0  0
  120.4380  170.3139  150.1362 C   0  0  0  0  0  0  0  0  0  0  0  0
  118.8768  168.2658  148.2334 C   0  0  0  0  0  0  0  0  0  0  0  0
  119.9791  167.5113  148.6094 O   0  0  0  0  0  0  0  0  0  0  0  0
  117.7274  167.6531  147.7656 C   0  0  0  0  0  0  0  0  0  0  0  0
  117.5861  166.1854  147.6296 C   0  0  1  0  0  0  0  0  0  0  0  0
  116.3117  165.8238  148.2177 N   0  0  0  0  0  0  0  0  0  0  0  0
  116.1293  166.3144  149.5411 C   0  0  0  0  0  0  0  0  0  0  0  0
  118.2354  164.5234  143.9568 C   0  0  0  0  0  0  0  0  0  0  0  0
  118.6076  163.5606  143.0543 C   0  0  0  0  0  0  0  0  0  0  0  0
  117.9493  162.5666  142.3554 O   0  0  0  0  0  0  0  0  0  0  0  0
  118.9056  161.6600  141.8323 C   0  0  0  0  0  0  0  0  0  0  0  0
  120.0935  162.4236  141.7545 O   0  0  0  0  0  0  0  0  0  0  0  0
  119.9462  163.4583  142.6681 C   0  0  0  0  0  0  0  0  0  0  0  0
  120.9193  164.2986  143.1660 C   0  0  0  0  0  0  0  0  0  0  0  0
  122.3537  164.1810  142.7454 C   0  0  0  0  0  0  0  0  0  0  0  0
  120.5450  165.2718  144.0781 C   0  0  0  0  0  0  0  0  0  0  0  0
  121.5111  166.1213  144.5880 O   0  0  0  0  0  0  0  0  0  0  0  0
  122.2522  165.7754  145.6916 C   0  0  0  0  0  0  0  0  0  0  0  0
  122.0169  164.4646  146.3880 C   0  0  0  0  0  0  0  0  0  0  0  0
  123.1477  166.5159  146.1714 O   0  0  0  0  0  0  0  0  0  0  0  0
  119.2371  165.3544  144.4403 C   0  0  0  0  0  0  0  0  0  0  0  0
  1  2  1  0
  2  3  1  6
  3  4  1  0
  4  5  1  0
  5  6  1  1
  6  7  1  0
  7  8  1  0
  8  9  1  0
  9 10  2  0
 10 11  1  0
 11 12  2  0
 12 13  1  0
 13 14  1  0
 12 15  1  0
 15 16  1  0
 15 17  2  0
  5 18  1  0
 18 19  2  0
 18 20  1  0
 20 21  1  0
 22 21  1  6
 22 23  1  0
 23 24  1  0
 24 25  1  1
 24 26  1  0
 26 27  1  6
 27 28  1  0
 28 29  2  0
 29 30  1  0
 30 31  1  0
 30 32  2  0
 32 33  1  0
 33 34  1  0
 32 35  1  0
 35 36  1  0
 35 37  2  0
 38 37  1  6
 38 39  1  0
 39 40  1  0
 22 41  1  0
 41 42  2  0
 42 43  1  0
 43 44  1  0
 44 45  1  0
 45 46  1  0
 46 47  2  0
 47 48  1  0
 47 49  1  0
 49 50  1  0
 50 51  1  0
 51 52  1  0
 51 53  2  0
 49 54  2  0
  1 23  1  6
 39 26  1  0
 54 41  1  0
 38  1  1  0
 46 42  1  0
 54  2  1  0
 10  5  1  0
 37 28  1  0
 17  9  1  0
M  END
$$$$
