
     RDKit          3D

 54 62  0  0  0  0  0  0  0  0999 V2000
  152.7372  159.1334  117.4443 C   0  0  2  0  0  0  0  0  0  0  0  0
  153.9017  158.1332  117.3785 C   0  0  2  0  0  0  0  0  0  0  0  0
  153.1933  156.4831  117.2112 S   0  0  0  0  0  0  0  0  0  0  0  0
  153.5197  155.4075  118.5934 C   0  0  0  0  0  0  0  0  0  0  0  0
  152.4190  154.4048  118.8473 C   0  0  1  0  0  0  0  0  0  0  0  0
  152.2178  153.6982  117.5937 N   0  0  0  0  0  0  0  0  0  0  0  0
  153.3767  153.0046  117.1474 C   0  0  0  0  0  0  0  0  0  0  0  0
  154.1219  152.2131  118.1506 C   0  0  0  0  0  0  0  0  0  0  0  0
  153.7122  152.4290  119.5597 C   0  0  0  0  0  0  0  0  0  0  0  0
  152.9026  153.4717  119.8978 C   0  0  0  0  0  0  0  0  0  0  0  0
  152.5423  153.6405  121.2204 C   0  0  0  0  0  0  0  0  0  0  0  0
  152.9695  152.7913  122.2300 C   0  0  0  0  0  0  0  0  0  0  0  0
  152.6045  152.9645  123.5615 O   0  0  0  0  0  0  0  0  0  0  0  0
  151.5324  153.7689  123.9656 C   0  0  0  0  0  0  0  0  0  0  0  0
  153.7885  151.7377  121.8833 C   0  0  0  0  0  0  0  0  0  0  0  0
  154.2434  150.8562  122.8675 O   0  0  0  0  0  0  0  0  0  0  0  0
  154.1459  151.5722  120.5633 C   0  0  0  0  0  0  0  0  0  0  0  0
  151.1199  155.0291  119.1971 C   0  0  0  0  0  0  0  0  0  0  0  0
  150.1652  154.1953  119.3692 O   0  0  0  0  0  0  0  0  0  0  0  0
  151.0254  156.3779  119.3078 O   0  0  0  0  0  0  0  0  0  0  0  0
  151.5246  157.2473  120.2697 C   0  0  0  0  0  0  0  0  0  0  0  0
  152.2027  158.4513  119.6152 C   0  0  2  0  0  0  0  0  0  0  0  0
  151.7515  158.4983  118.2603 N   0  0  0  0  0  0  0  0  0  0  0  0
  150.4170  158.9970  118.1194 C   0  0  1  0  0  0  0  0  0  0  0  0
  150.1723  160.1821  118.7644 O   0  0  0  0  0  0  0  0  0  0  0  0
  150.1093  159.1190  116.6403 C   0  0  2  0  0  0  0  0  0  0  0  0
  150.2501  157.8232  115.9188 C   0  0  0  0  0  0  0  0  0  0  0  0
  151.3432  157.7925  114.9255 C   0  0  0  0  0  0  0  0  0  0  0  0
  151.3715  156.8872  113.8863 C   0  0  0  0  0  0  0  0  0  0  0  0
  152.3976  156.8678  112.9434 C   0  0  0  0  0  0  0  0  0  0  0  0
  152.3633  155.8668  111.8536 C   0  0  0  0  0  0  0  0  0  0  0  0
  153.4186  157.7849  113.0535 C   0  0  0  0  0  0  0  0  0  0  0  0
  154.4304  157.7576  112.1141 O   0  0  0  0  0  0  0  0  0  0  0  0
  155.7843  157.5329  112.4230 C   0  0  0  0  0  0  0  0  0  0  0  0
  153.4309  158.7073  114.0754 C   0  0  0  0  0  0  0  0  0  0  0  0
  154.4660  159.6266  114.1719 O   0  0  0  0  0  0  0  0  0  0  0  0
  152.4001  158.7045  114.9988 C   0  0  0  0  0  0  0  0  0  0  0  0
  152.3221  159.6527  116.1334 C   0  0  1  0  0  0  0  0  0  0  0  0
  150.9721  160.1797  116.1562 N   0  0  0  0  0  0  0  0  0  0  0  0
  150.5423  160.7143  114.9093 C   0  0  0  0  0  0  0  0  0  0  0  0
  153.6628  158.4006  119.7814 C   0  0  0  0  0  0  0  0  0  0  0  0
  154.2151  158.5148  121.0311 C   0  0  0  0  0  0  0  0  0  0  0  0
  153.7183  158.6806  122.3101 O   0  0  0  0  0  0  0  0  0  0  0  0
  154.7753  159.0772  123.1675 C   0  0  0  0  0  0  0  0  0  0  0  0
  155.9385  158.6014  122.5186 O   0  0  0  0  0  0  0  0  0  0  0  0
  155.6035  158.4672  121.1783 C   0  0  0  0  0  0  0  0  0  0  0  0
  156.4499  158.3080  120.1016 C   0  0  0  0  0  0  0  0  0  0  0  0
  157.9390  158.2580  120.2695 C   0  0  0  0  0  0  0  0  0  0  0  0
  155.8935  158.1925  118.8382 C   0  0  0  0  0  0  0  0  0  0  0  0
  156.7307  158.0342  117.7477 O   0  0  0  0  0  0  0  0  0  0  0  0
  156.4194  157.1636  116.7319 C   0  0  0  0  0  0  0  0  0  0  0  0
  155.0384  156.5809  116.6233 C   0  0  0  0  0  0  0  0  0  0  0  0
  157.2501  156.8122  115.8562 O   0  0  0  0  0  0  0  0  0  0  0  0
  154.5401  158.2412  118.7171 C   0  0  0  0  0  0  0  0  0  0  0  0
  1  2  1  0
  2  3  1  1
  3  4  1  0
  4  5  1  0
  5  6  1  6
  6  7  1  0
  7  8  1  0
  8  9  1  0
  9 10  2  0
 10 11  1  0
 11 12  2  0
 12 13  1  0
 13 14  1  0
 12 15  1  0
 15 16  1  0
 15 17  2  0
  5 18  1  0
 18 19  2  0
 18 20  1  0
 20 21  1  0
 22 21  1  6
 22 23  1  0
 23 24  1  0
 24 25  1  1
 24 26  1  0
 26 27  1  6
 27 28  1  0
 28 29  2  0
 29 30  1  0
 30 31  1  0
 30 32  2  0
 32 33  1  0
 33 34  1  0
 32 35  1  0
 35 36  1  0
 35 37  2  0
 38 37  1  6
 38 39  1  0
 39 40  1  0
 22 41  1  0
 41 42  2  0
 42 43  1  0
 43 44  1  0
 44 45  1  0
 45 46  1  0
 46 47  2  0
 47 48  1  0
 47 49  1  0
 49 50  1  0
 50 51  1  0
 51 52  1  0
 51 53  2  0
 49 54  2  0
  1 23  1  6
 39 26  1  0
 54 41  1  0
 38  1  1  0
 46 42  1  0
 54  2  1  0
 10  5  1  0
 37 28  1  0
 17  9  1  0
M  END
$$$$
