
     RDKit          3D

 54 62  0  0  0  0  0  0  0  0999 V2000
  130.1359  162.3087  156.0426 C   0  0  2  0  0  0  0  0  0  0  0  0
  130.9011  161.1149  155.4509 C   0  0  2  0  0  0  0  0  0  0  0  0
  131.1427  161.4402  153.6935 S   0  0  0  0  0  0  0  0  0  0  0  0
  130.3049  160.2923  152.6191 C   0  0  0  0  0  0  0  0  0  0  0  0
  129.8643  160.9059  151.3111 C   0  0  1  0  0  0  0  0  0  0  0  0
  131.0530  161.4962  150.7198 N   0  0  0  0  0  0  0  0  0  0  0  0
  132.0809  160.5480  150.4590 C   0  0  0  0  0  0  0  0  0  0  0  0
  131.6825  159.2742  149.8212 C   0  0  0  0  0  0  0  0  0  0  0  0
  130.2210  159.0322  149.7473 C   0  0  0  0  0  0  0  0  0  0  0  0
  129.3503  159.8050  150.4554 C   0  0  0  0  0  0  0  0  0  0  0  0
  127.9962  159.5497  150.3613 C   0  0  0  0  0  0  0  0  0  0  0  0
  127.4760  158.5345  149.5728 C   0  0  0  0  0  0  0  0  0  0  0  0
  126.1112  158.2800  149.4803 O   0  0  0  0  0  0  0  0  0  0  0  0
  125.3869  157.6051  150.4701 C   0  0  0  0  0  0  0  0  0  0  0  0
  128.3607  157.7551  148.8580 C   0  0  0  0  0  0  0  0  0  0  0  0
  127.8816  156.7204  148.0500 O   0  0  0  0  0  0  0  0  0  0  0  0
  129.7105  158.0125  148.9542 C   0  0  0  0  0  0  0  0  0  0  0  0
  128.8805  162.0038  151.4749 C   0  0  0  0  0  0  0  0  0  0  0  0
  128.5325  162.5658  150.3798 O   0  0  0  0  0  0  0  0  0  0  0  0
  128.4313  162.3308  152.7126 O   0  0  0  0  0  0  0  0  0  0  0  0
  127.5839  161.6523  153.5796 C   0  0  0  0  0  0  0  0  0  0  0  0
  128.1591  161.6301  154.9960 C   0  0  2  0  0  0  0  0  0  0  0  0
  129.1606  162.6474  155.0553 N   0  0  0  0  0  0  0  0  0  0  0  0
  128.6250  163.9720  155.1438 C   0  0  1  0  0  0  0  0  0  0  0  0
  127.6807  164.1490  156.1222 O   0  0  0  0  0  0  0  0  0  0  0  0
  129.7773  164.9387  155.3308 C   0  0  2  0  0  0  0  0  0  0  0  0
  130.7725  164.8621  154.2248 C   0  0  0  0  0  0  0  0  0  0  0  0
  132.1026  164.3656  154.6329 C   0  0  0  0  0  0  0  0  0  0  0  0
  133.2418  164.6165  153.8984 C   0  0  0  0  0  0  0  0  0  0  0  0
  134.4976  164.1573  154.2916 C   0  0  0  0  0  0  0  0  0  0  0  0
  135.6781  164.4642  153.4534 C   0  0  0  0  0  0  0  0  0  0  0  0
  134.6041  163.4276  155.4545 C   0  0  0  0  0  0  0  0  0  0  0  0
  135.8527  162.9774  155.8355 O   0  0  0  0  0  0  0  0  0  0  0  0
  136.1751  162.5649  157.1412 C   0  0  0  0  0  0  0  0  0  0  0  0
  133.4927  163.1533  156.2192 C   0  0  0  0  0  0  0  0  0  0  0  0
  133.6164  162.4182  157.3898 O   0  0  0  0  0  0  0  0  0  0  0  0
  132.2574  163.6207  155.8056 C   0  0  0  0  0  0  0  0  0  0  0  0
  131.0037  163.3785  156.5554 C   0  0  1  0  0  0  0  0  0  0  0  0
  130.3107  164.6481  156.6479 N   0  0  0  0  0  0  0  0  0  0  0  0
  131.1124  165.7047  157.1638 C   0  0  0  0  0  0  0  0  0  0  0  0
  128.6198  160.2837  155.3670 C   0  0  0  0  0  0  0  0  0  0  0  0
  127.7149  159.2625  155.5024 C   0  0  0  0  0  0  0  0  0  0  0  0
  126.3445  159.1441  155.3693 O   0  0  0  0  0  0  0  0  0  0  0  0
  125.9265  157.9284  155.9669 C   0  0  0  0  0  0  0  0  0  0  0  0
  127.0843  157.1167  155.9362 O   0  0  0  0  0  0  0  0  0  0  0  0
  128.1624  157.9875  155.8569 C   0  0  0  0  0  0  0  0  0  0  0  0
  129.4954  157.7136  156.0786 C   0  0  0  0  0  0  0  0  0  0  0  0
  129.9662  156.3417  156.4587 C   0  0  0  0  0  0  0  0  0  0  0  0
  130.4109  158.7443  155.9422 C   0  0  0  0  0  0  0  0  0  0  0  0
  131.7520  158.4848  156.1636 O   0  0  0  0  0  0  0  0  0  0  0  0
  132.7295  159.2985  155.6446 C   0  0  0  0  0  0  0  0  0  0  0  0
  132.7375  159.6432  154.1818 C   0  0  0  0  0  0  0  0  0  0  0  0
  133.6509  159.7897  156.3447 O   0  0  0  0  0  0  0  0  0  0  0  0
  129.9544  159.9775  155.5964 C   0  0  0  0  0  0  0  0  0  0  0  0
  1  2  1  0
  2  3  1  6
  3  4  1  0
  4  5  1  0
  5  6  1  6
  6  7  1  0
  7  8  1  0
  8  9  1  0
  9 10  2  0
 10 11  1  0
 11 12  2  0
 12 13  1  0
 13 14  1  0
 12 15  1  0
 15 16  1  0
 15 17  2  0
  5 18  1  0
 18 19  2  0
 18 20  1  0
 20 21  1  0
 22 21  1  6
 22 23  1  0
 23 24  1  0
 24 25  1  1
 24 26  1  0
 26 27  1  6
 27 28  1  0
 28 29  2  0
 29 30  1  0
 30 31  1  0
 30 32  2  0
 32 33  1  0
 33 34  1  0
 32 35  1  0
 35 36  1  0
 35 37  2  0
 38 37  1  6
 38 39  1  0
 39 40  1  0
 22 41  1  0
 41 42  2  0
 42 43  1  0
 43 44  1  0
 44 45  1  0
 45 46  1  0
 46 47  2  0
 47 48  1  0
 47 49  1  0
 49 50  1  0
 50 51  1  0
 51 52  1  0
 51 53  2  0
 49 54  2  0
  1 23  1  6
 39 26  1  0
 54 41  1  0
 38  1  1  0
 46 42  1  0
 54  2  1  0
 10  5  1  0
 37 28  1  0
 17  9  1  0
M  END
$$$$
