
     RDKit          3D

 54 62  0  0  0  0  0  0  0  0999 V2000
  184.1418  179.2352  146.0920 C   0  0  2  0  0  0  0  0  0  0  0  0
  182.9418  178.2784  146.0190 C   0  0  2  0  0  0  0  0  0  0  0  0
  181.7081  178.8615  147.1983 S   0  0  0  0  0  0  0  0  0  0  0  0
  181.3907  177.7309  148.5381 C   0  0  0  0  0  0  0  0  0  0  0  0
  181.0098  178.4193  149.8275 C   0  0  1  0  0  0  0  0  0  0  0  0
  179.8818  179.2784  149.5101 N   0  0  0  0  0  0  0  0  0  0  0  0
  178.7530  178.5652  149.0195 C   0  0  0  0  0  0  0  0  0  0  0  0
  178.3639  177.3329  149.7394 C   0  0  0  0  0  0  0  0  0  0  0  0
  179.3420  176.8508  150.7449 C   0  0  0  0  0  0  0  0  0  0  0  0
  180.6037  177.3633  150.7910 C   0  0  0  0  0  0  0  0  0  0  0  0
  181.4867  176.8894  151.7414 C   0  0  0  0  0  0  0  0  0  0  0  0
  181.1467  175.9075  152.6597 C   0  0  0  0  0  0  0  0  0  0  0  0
  182.0389  175.4325  153.6160 O   0  0  0  0  0  0  0  0  0  0  0  0
  181.7210  175.3205  154.9747 C   0  0  0  0  0  0  0  0  0  0  0  0
  179.8690  175.3918  152.6095 C   0  0  0  0  0  0  0  0  0  0  0  0
  179.4820  174.4006  153.5153 O   0  0  0  0  0  0  0  0  0  0  0  0
  178.9909  175.8667  151.6603 C   0  0  0  0  0  0  0  0  0  0  0  0
  182.0762  179.2986  150.3655 C   0  0  0  0  0  0  0  0  0  0  0  0
  181.7523  179.9257  151.4322 O   0  0  0  0  0  0  0  0  0  0  0  0
  183.2704  179.3821  149.7272 O   0  0  0  0  0  0  0  0  0  0  0  0
  184.3045  178.4615  149.6113 C   0  0  0  0  0  0  0  0  0  0  0  0
  184.7828  178.3603  148.1626 C   0  0  2  0  0  0  0  0  0  0  0  0
  184.3014  179.5210  147.4825 N   0  0  0  0  0  0  0  0  0  0  0  0
  185.0380  180.7095  147.7892 C   0  0  1  0  0  0  0  0  0  0  0  0
  186.3989  180.5931  147.6677 O   0  0  0  0  0  0  0  0  0  0  0  0
  184.5163  181.8309  146.9131 C   0  0  2  0  0  0  0  0  0  0  0  0
  183.0579  182.0704  147.0998 C   0  0  0  0  0  0  0  0  0  0  0  0
  182.2318  181.7661  145.9135 C   0  0  0  0  0  0  0  0  0  0  0  0
  180.9755  182.3034  145.7308 C   0  0  0  0  0  0  0  0  0  0  0  0
  180.2028  182.0244  144.6050 C   0  0  0  0  0  0  0  0  0  0  0  0
  178.8616  182.6368  144.4749 C   0  0  0  0  0  0  0  0  0  0  0  0
  180.7120  181.1828  143.6414 C   0  0  0  0  0  0  0  0  0  0  0  0
  179.9386  180.9128  142.5297 O   0  0  0  0  0  0  0  0  0  0  0  0
  179.6644  179.6160  142.0587 C   0  0  0  0  0  0  0  0  0  0  0  0
  181.9621  180.6237  143.7827 C   0  0  0  0  0  0  0  0  0  0  0  0
  182.4624  179.7788  142.8019 O   0  0  0  0  0  0  0  0  0  0  0  0
  182.7084  180.9168  144.9107 C   0  0  0  0  0  0  0  0  0  0  0  0
  184.0607  180.3661  145.1567 C   0  0  1  0  0  0  0  0  0  0  0  0
  184.9042  181.4729  145.5621 N   0  0  0  0  0  0  0  0  0  0  0  0
  184.8709  182.5791  144.6673 C   0  0  0  0  0  0  0  0  0  0  0  0
  184.3910  177.0790  147.5565 C   0  0  0  0  0  0  0  0  0  0  0  0
  184.9250  175.9067  148.0259 C   0  0  0  0  0  0  0  0  0  0  0  0
  185.8246  175.5686  149.0191 O   0  0  0  0  0  0  0  0  0  0  0  0
  186.2539  174.2327  148.8172 C   0  0  0  0  0  0  0  0  0  0  0  0
  185.2059  173.6463  148.0699 O   0  0  0  0  0  0  0  0  0  0  0  0
  184.5477  174.6949  147.4422 C   0  0  0  0  0  0  0  0  0  0  0  0
  183.6481  174.6321  146.3993 C   0  0  0  0  0  0  0  0  0  0  0  0
  183.2493  173.3265  145.7791 C   0  0  0  0  0  0  0  0  0  0  0  0
  183.1077  175.8157  145.9237 C   0  0  0  0  0  0  0  0  0  0  0  0
  182.2049  175.7685  144.8760 O   0  0  0  0  0  0  0  0  0  0  0  0
  182.6285  175.6231  143.5775 C   0  0  0  0  0  0  0  0  0  0  0  0
  181.6663  175.8013  142.4369 C   0  0  0  0  0  0  0  0  0  0  0  0
  183.8154  175.3397  143.2748 O   0  0  0  0  0  0  0  0  0  0  0  0
  183.4881  176.9840  146.5061 C   0  0  0  0  0  0  0  0  0  0  0  0
  1  2  1  0
  2  3  1  1
  3  4  1  0
  4  5  1  0
  5  6  1  6
  6  7  1  0
  7  8  1  0
  8  9  1  0
  9 10  2  0
 10 11  1  0
 11 12  2  0
 12 13  1  0
 13 14  1  0
 12 15  1  0
 15 16  1  0
 15 17  2  0
  5 18  1  0
 18 19  2  0
 18 20  1  0
 20 21  1  0
 22 21  1  1
 22 23  1  0
 23 24  1  0
 24 25  1  6
 24 26  1  0
 26 27  1  6
 27 28  1  0
 28 29  2  0
 29 30  1  0
 30 31  1  0
 30 32  2  0
 32 33  1  0
 33 34  1  0
 32 35  1  0
 35 36  1  0
 35 37  2  0
 38 37  1  1
 38 39  1  0
 39 40  1  0
 22 41  1  0
 41 42  2  0
 42 43  1  0
 43 44  1  0
 44 45  1  0
 45 46  1  0
 46 47  2  0
 47 48  1  0
 47 49  1  0
 49 50  1  0
 50 51  1  0
 51 52  1  0
 51 53  2  0
 49 54  2  0
  1 23  1  1
 39 26  1  0
 54 41  1  0
 38  1  1  0
 46 42  1  0
 54  2  1  0
 10  5  1  0
 37 28  1  0
 17  9  1  0
M  END
$$$$
