
     RDKit          3D

 54 62  0  0  0  0  0  0  0  0999 V2000
  188.2571  159.3565  125.3316 C   0  0  2  0  0  0  0  0  0  0  0  0
  189.3799  160.3392  124.9649 C   0  0  2  0  0  0  0  0  0  0  0  0
  189.6097  160.2610  123.1778 S   0  0  0  0  0  0  0  0  0  0  0  0
  191.2030  159.6421  122.6755 C   0  0  0  0  0  0  0  0  0  0  0  0
  191.1698  158.8905  121.3657 C   0  0  1  0  0  0  0  0  0  0  0  0
  190.5621  159.7887  120.3987 N   0  0  0  0  0  0  0  0  0  0  0  0
  191.2921  160.9959  120.2169 C   0  0  0  0  0  0  0  0  0  0  0  0
  192.7598  160.8852  120.0690 C   0  0  0  0  0  0  0  0  0  0  0  0
  193.3280  159.5486  120.3695 C   0  0  0  0  0  0  0  0  0  0  0  0
  192.5763  158.5950  120.9880 C   0  0  0  0  0  0  0  0  0  0  0  0
  193.1399  157.3619  121.2513 C   0  0  0  0  0  0  0  0  0  0  0  0
  194.4469  157.0454  120.9130 C   0  0  0  0  0  0  0  0  0  0  0  0
  195.0115  155.8019  121.1800 O   0  0  0  0  0  0  0  0  0  0  0  0
  194.8229  154.6813  120.3624 C   0  0  0  0  0  0  0  0  0  0  0  0
  195.2038  158.0132  120.2874 C   0  0  0  0  0  0  0  0  0  0  0  0
  196.5261  157.7387  119.9280 O   0  0  0  0  0  0  0  0  0  0  0  0
  194.6386  159.2419  120.0262 C   0  0  0  0  0  0  0  0  0  0  0  0
  190.3247  157.6722  121.4046 C   0  0  0  0  0  0  0  0  0  0  0  0
  190.2480  157.0497  120.2898 O   0  0  0  0  0  0  0  0  0  0  0  0
  189.7141  157.3089  122.5603 O   0  0  0  0  0  0  0  0  0  0  0  0
  190.2364  156.7949  123.7406 C   0  0  0  0  0  0  0  0  0  0  0  0
  189.6614  157.5265  124.9539 C   0  0  2  0  0  0  0  0  0  0  0  0
  188.4877  158.2103  124.5107 N   0  0  0  0  0  0  0  0  0  0  0  0
  187.3609  157.3478  124.3219 C   0  0  1  0  0  0  0  0  0  0  0  0
  187.0827  156.5210  125.3799 O   0  0  0  0  0  0  0  0  0  0  0  0
  186.1583  158.2053  123.9818 C   0  0  2  0  0  0  0  0  0  0  0  0
  186.3755  159.0371  122.7652 C   0  0  0  0  0  0  0  0  0  0  0  0
  186.4031  160.4925  123.0169 C   0  0  0  0  0  0  0  0  0  0  0  0
  186.1651  161.4185  122.0238 C   0  0  0  0  0  0  0  0  0  0  0  0
  186.1799  162.7909  122.2662 C   0  0  0  0  0  0  0  0  0  0  0  0
  185.9156  163.7279  121.1513 C   0  0  0  0  0  0  0  0  0  0  0  0
  186.4412  163.2375  123.5422 C   0  0  0  0  0  0  0  0  0  0  0  0
  186.4534  164.5991  123.7720 O   0  0  0  0  0  0  0  0  0  0  0  0
  187.0773  165.2043  124.8780 C   0  0  0  0  0  0  0  0  0  0  0  0
  186.6846  162.3483  124.5646 C   0  0  0  0  0  0  0  0  0  0  0  0
  186.9445  162.8138  125.8458 O   0  0  0  0  0  0  0  0  0  0  0  0
  186.6646  160.9907  124.2966 C   0  0  0  0  0  0  0  0  0  0  0  0
  186.9147  159.9551  125.3250 C   0  0  1  0  0  0  0  0  0  0  0  0
  185.8717  158.9580  125.1881 N   0  0  0  0  0  0  0  0  0  0  0  0
  184.5549  159.4977  125.2017 C   0  0  0  0  0  0  0  0  0  0  0  0
  190.6727  158.3808  125.5941 C   0  0  0  0  0  0  0  0  0  0  0  0
  191.7642  157.8145  126.2006 C   0  0  0  0  0  0  0  0  0  0  0  0
  192.2186  156.5234  126.3915 O   0  0  0  0  0  0  0  0  0  0  0  0
  193.2285  156.5323  127.3865 C   0  0  0  0  0  0  0  0  0  0  0  0
  193.7285  157.8550  127.3539 O   0  0  0  0  0  0  0  0  0  0  0  0
  192.7184  158.6347  126.8076 C   0  0  0  0  0  0  0  0  0  0  0  0
  192.6028  160.0085  126.8203 C   0  0  0  0  0  0  0  0  0  0  0  0
  193.6323  160.8806  127.4744 C   0  0  0  0  0  0  0  0  0  0  0  0
  191.5006  160.5823  126.2080 C   0  0  0  0  0  0  0  0  0  0  0  0
  191.3701  161.9599  126.2145 O   0  0  0  0  0  0  0  0  0  0  0  0
  190.4642  162.5852  127.0362 C   0  0  0  0  0  0  0  0  0  0  0  0
  189.6116  161.7849  127.9802 C   0  0  0  0  0  0  0  0  0  0  0  0
  190.2994  163.8315  127.0464 O   0  0  0  0  0  0  0  0  0  0  0  0
  190.5839  159.7660  125.6230 C   0  0  0  0  0  0  0  0  0  0  0  0
  1  2  1  0
  2  3  1  6
  3  4  1  0
  4  5  1  0
  5  6  1  6
  6  7  1  0
  7  8  1  0
  8  9  1  0
  9 10  2  0
 10 11  1  0
 11 12  2  0
 12 13  1  0
 13 14  1  0
 12 15  1  0
 15 16  1  0
 15 17  2  0
  5 18  1  0
 18 19  2  0
 18 20  1  0
 20 21  1  0
 22 21  1  6
 22 23  1  0
 23 24  1  0
 24 25  1  1
 24 26  1  0
 26 27  1  6
 27 28  1  0
 28 29  2  0
 29 30  1  0
 30 31  1  0
 30 32  2  0
 32 33  1  0
 33 34  1  0
 32 35  1  0
 35 36  1  0
 35 37  2  0
 38 37  1  6
 38 39  1  0
 39 40  1  0
 22 41  1  0
 41 42  2  0
 42 43  1  0
 43 44  1  0
 44 45  1  0
 45 46  1  0
 46 47  2  0
 47 48  1  0
 47 49  1  0
 49 50  1  0
 50 51  1  0
 51 52  1  0
 51 53  2  0
 49 54  2  0
  1 23  1  6
 39 26  1  0
 54 41  1  0
 38  1  1  0
 46 42  1  0
 54  2  1  0
 10  5  1  0
 37 28  1  0
 17  9  1  0
M  END
$$$$
