
     RDKit          3D

 54 62  0  0  0  0  0  0  0  0999 V2000
  204.7095  132.7209  135.9271 C   0  0  2  0  0  0  0  0  0  0  0  0
  204.0723  132.6071  134.5336 C   0  0  2  0  0  0  0  0  0  0  0  0
  204.9053  133.7891  133.4559 S   0  0  0  0  0  0  0  0  0  0  0  0
  203.8509  135.0920  132.8521 C   0  0  0  0  0  0  0  0  0  0  0  0
  204.5777  136.3965  132.6254 C   0  0  1  0  0  0  0  0  0  0  0  0
  205.6911  136.0918  131.7430 N   0  0  0  0  0  0  0  0  0  0  0  0
  205.2838  135.5684  130.4846 C   0  0  0  0  0  0  0  0  0  0  0  0
  204.1637  136.2480  129.7979 C   0  0  0  0  0  0  0  0  0  0  0  0
  203.4346  137.2498  130.6132 C   0  0  0  0  0  0  0  0  0  0  0  0
  203.6266  137.3245  131.9602 C   0  0  0  0  0  0  0  0  0  0  0  0
  202.9299  138.2706  132.6863 C   0  0  0  0  0  0  0  0  0  0  0  0
  202.0359  139.1562  132.1039 C   0  0  0  0  0  0  0  0  0  0  0  0
  201.3356  140.1081  132.8386 O   0  0  0  0  0  0  0  0  0  0  0  0
  201.1642  140.0340  134.2260 C   0  0  0  0  0  0  0  0  0  0  0  0
  201.8448  139.0771  130.7407 C   0  0  0  0  0  0  0  0  0  0  0  0
  200.9533  139.9495  130.1107 O   0  0  0  0  0  0  0  0  0  0  0  0
  202.5412  138.1324  130.0197 C   0  0  0  0  0  0  0  0  0  0  0  0
  205.1602  136.9714  133.8624 C   0  0  0  0  0  0  0  0  0  0  0  0
  205.8195  138.0523  133.6801 O   0  0  0  0  0  0  0  0  0  0  0  0
  204.9696  136.3490  135.0527 O   0  0  0  0  0  0  0  0  0  0  0  0
  203.8301  136.2179  135.8367 C   0  0  0  0  0  0  0  0  0  0  0  0
  203.6535  134.7722  136.3021 C   0  0  2  0  0  0  0  0  0  0  0  0
  204.9130  134.1208  136.1262 N   0  0  0  0  0  0  0  0  0  0  0  0
  205.8807  134.4698  137.1217 C   0  0  1  0  0  0  0  0  0  0  0  0
  205.4428  134.3600  138.4165 O   0  0  0  0  0  0  0  0  0  0  0  0
  207.1166  133.6208  136.9006 C   0  0  2  0  0  0  0  0  0  0  0  0
  207.6958  133.7983  135.5396 C   0  0  0  0  0  0  0  0  0  0  0  0
  207.6298  132.5947  134.6856 C   0  0  0  0  0  0  0  0  0  0  0  0
  208.4585  132.4138  133.5990 C   0  0  0  0  0  0  0  0  0  0  0  0
  208.4027  131.2720  132.8018 C   0  0  0  0  0  0  0  0  0  0  0  0
  209.3234  131.1450  131.6499 C   0  0  0  0  0  0  0  0  0  0  0  0
  207.4880  130.2902  133.1105 C   0  0  0  0  0  0  0  0  0  0  0  0
  207.4408  129.1626  132.3146 O   0  0  0  0  0  0  0  0  0  0  0  0
  207.6597  127.8562  132.7882 C   0  0  0  0  0  0  0  0  0  0  0  0
  206.6407  130.4288  134.1866 C   0  0  0  0  0  0  0  0  0  0  0  0
  205.7253  129.4297  134.4861 O   0  0  0  0  0  0  0  0  0  0  0  0
  206.7165  131.5730  134.9615 C   0  0  0  0  0  0  0  0  0  0  0  0
  205.8500  131.8178  136.1370 C   0  0  1  0  0  0  0  0  0  0  0  0
  206.7103  132.2643  137.2147 N   0  0  0  0  0  0  0  0  0  0  0  0
  207.8142  131.4016  137.4644 C   0  0  0  0  0  0  0  0  0  0  0  0
  202.5203  134.1250  135.6243 C   0  0  0  0  0  0  0  0  0  0  0  0
  201.2422  134.5662  135.8521 C   0  0  0  0  0  0  0  0  0  0  0  0
  200.6722  135.5590  136.6263 O   0  0  0  0  0  0  0  0  0  0  0  0
  199.2777  135.3233  136.7250 C   0  0  0  0  0  0  0  0  0  0  0  0
  198.9804  134.5479  135.5801 O   0  0  0  0  0  0  0  0  0  0  0  0
  200.1723  133.9435  135.2047 C   0  0  0  0  0  0  0  0  0  0  0  0
  200.3548  132.8894  134.3350 C   0  0  0  0  0  0  0  0  0  0  0  0
  199.2000  132.2274  133.6447 C   0  0  0  0  0  0  0  0  0  0  0  0
  201.6454  132.4424  134.1037 C   0  0  0  0  0  0  0  0  0  0  0  0
  201.8439  131.3839  133.2347 O   0  0  0  0  0  0  0  0  0  0  0  0
  202.7219  130.3713  133.5353 C   0  0  0  0  0  0  0  0  0  0  0  0
  202.3285  129.2786  134.4891 C   0  0  0  0  0  0  0  0  0  0  0  0
  203.8765  130.3010  133.0428 O   0  0  0  0  0  0  0  0  0  0  0  0
  202.6724  133.0624  134.7437 C   0  0  0  0  0  0  0  0  0  0  0  0
  1  2  1  0
  2  3  1  6
  3  4  1  0
  4  5  1  0
  5  6  1  6
  6  7  1  0
  7  8  1  0
  8  9  1  0
  9 10  2  0
 10 11  1  0
 11 12  2  0
 12 13  1  0
 13 14  1  0
 12 15  1  0
 15 16  1  0
 15 17  2  0
  5 18  1  0
 18 19  2  0
 18 20  1  0
 20 21  1  0
 22 21  1  6
 22 23  1  0
 23 24  1  0
 24 25  1  1
 24 26  1  0
 26 27  1  6
 27 28  1  0
 28 29  2  0
 29 30  1  0
 30 31  1  0
 30 32  2  0
 32 33  1  0
 33 34  1  0
 32 35  1  0
 35 36  1  0
 35 37  2  0
 38 37  1  6
 38 39  1  0
 39 40  1  0
 22 41  1  0
 41 42  2  0
 42 43  1  0
 43 44  1  0
 44 45  1  0
 45 46  1  0
 46 47  2  0
 47 48  1  0
 47 49  1  0
 49 50  1  0
 50 51  1  0
 51 52  1  0
 51 53  2  0
 49 54  2  0
  1 23  1  6
 39 26  1  0
 54 41  1  0
 38  1  1  0
 46 42  1  0
 54  2  1  0
 10  5  1  0
 37 28  1  0
 17  9  1  0
M  END
$$$$
