
     RDKit          3D

 54 62  0  0  0  0  0  0  0  0999 V2000
  189.3777  162.0904  122.6029 C   0  0  2  0  0  0  0  0  0  0  0  0
  190.0538  161.5150  121.3490 C   0  0  2  0  0  0  0  0  0  0  0  0
  189.9849  159.7168  121.4699 S   0  0  0  0  0  0  0  0  0  0  0  0
  191.5803  158.9346  121.6006 C   0  0  0  0  0  0  0  0  0  0  0  0
  191.5597  157.6597  122.4103 C   0  0  1  0  0  0  0  0  0  0  0  0
  190.5434  156.8138  121.8080 N   0  0  0  0  0  0  0  0  0  0  0  0
  190.8142  156.4906  120.4495 C   0  0  0  0  0  0  0  0  0  0  0  0
  192.1937  156.0757  120.1131 C   0  0  0  0  0  0  0  0  0  0  0  0
  193.1961  156.2775  121.1876 C   0  0  0  0  0  0  0  0  0  0  0  0
  192.9005  157.0318  122.2832 C   0  0  0  0  0  0  0  0  0  0  0  0
  193.8595  157.1970  123.2633 C   0  0  0  0  0  0  0  0  0  0  0  0
  195.1209  156.6263  123.1843 C   0  0  0  0  0  0  0  0  0  0  0  0
  196.0846  156.7950  124.1736 O   0  0  0  0  0  0  0  0  0  0  0  0
  196.3250  158.0178  124.8113 C   0  0  0  0  0  0  0  0  0  0  0  0
  195.4156  155.8638  122.0739 C   0  0  0  0  0  0  0  0  0  0  0  0
  196.6742  155.2693  121.9516 O   0  0  0  0  0  0  0  0  0  0  0  0
  194.4567  155.7011  121.0984 C   0  0  0  0  0  0  0  0  0  0  0  0
  191.1603  157.8638  123.8241 C   0  0  0  0  0  0  0  0  0  0  0  0
  191.0921  156.7874  124.5118 O   0  0  0  0  0  0  0  0  0  0  0  0
  190.9035  159.1152  124.2808 O   0  0  0  0  0  0  0  0  0  0  0  0
  191.7561  160.1833  124.5307 C   0  0  0  0  0  0  0  0  0  0  0  0
  191.1986  161.4756  123.9333 C   0  0  2  0  0  0  0  0  0  0  0  0
  189.8116  161.2506  123.6740 N   0  0  0  0  0  0  0  0  0  0  0  0
  188.9981  161.2798  124.8516 C   0  0  1  0  0  0  0  0  0  0  0  0
  189.1805  162.3779  125.6525 O   0  0  0  0  0  0  0  0  0  0  0  0
  187.5473  161.1601  124.4296 C   0  0  2  0  0  0  0  0  0  0  0  0
  187.2790  159.9174  123.6530 C   0  0  0  0  0  0  0  0  0  0  0  0
  186.8909  160.1476  122.2464 C   0  0  0  0  0  0  0  0  0  0  0  0
  186.2065  159.2077  121.5058 C   0  0  0  0  0  0  0  0  0  0  0  0
  185.8308  159.4318  120.1825 C   0  0  0  0  0  0  0  0  0  0  0  0
  185.0976  158.3770  119.4474 C   0  0  0  0  0  0  0  0  0  0  0  0
  186.1544  160.6340  119.5944 C   0  0  0  0  0  0  0  0  0  0  0  0
  185.7775  160.8463  118.2829 O   0  0  0  0  0  0  0  0  0  0  0  0
  186.5428  161.5727  117.3526 C   0  0  0  0  0  0  0  0  0  0  0  0
  186.8372  161.6014  120.2965 C   0  0  0  0  0  0  0  0  0  0  0  0
  187.1545  162.8089  119.6905 O   0  0  0  0  0  0  0  0  0  0  0  0
  187.1990  161.3530  121.6091 C   0  0  0  0  0  0  0  0  0  0  0  0
  187.9352  162.3263  122.4477 C   0  0  1  0  0  0  0  0  0  0  0  0
  187.2512  162.3922  123.7239 N   0  0  0  0  0  0  0  0  0  0  0  0
  185.8546  162.6437  123.6155 C   0  0  0  0  0  0  0  0  0  0  0  0
  191.9846  161.9114  122.7694 C   0  0  0  0  0  0  0  0  0  0  0  0
  193.2861  162.3111  122.9316 C   0  0  0  0  0  0  0  0  0  0  0  0
  194.1489  162.4257  124.0050 O   0  0  0  0  0  0  0  0  0  0  0  0
  195.2604  163.2174  123.6207 C   0  0  0  0  0  0  0  0  0  0  0  0
  195.3060  163.0823  122.2136 O   0  0  0  0  0  0  0  0  0  0  0  0
  194.0237  162.7250  121.8198 C   0  0  0  0  0  0  0  0  0  0  0  0
  193.4864  162.7473  120.5503 C   0  0  0  0  0  0  0  0  0  0  0  0
  194.2861  163.1933  119.3629 C   0  0  0  0  0  0  0  0  0  0  0  0
  192.1715  162.3439  120.3847 C   0  0  0  0  0  0  0  0  0  0  0  0
  191.6180  162.3629  119.1165 O   0  0  0  0  0  0  0  0  0  0  0  0
  190.9423  163.4646  118.6513 C   0  0  0  0  0  0  0  0  0  0  0  0
  190.1386  163.3873  117.3837 C   0  0  0  0  0  0  0  0  0  0  0  0
  190.9561  164.5735  119.2433 O   0  0  0  0  0  0  0  0  0  0  0  0
  191.4714  161.9446  121.4797 C   0  0  0  0  0  0  0  0  0  0  0  0
  1  2  1  0
  2  3  1  1
  3  4  1  0
  4  5  1  0
  5  6  1  6
  6  7  1  0
  7  8  1  0
  8  9  1  0
  9 10  2  0
 10 11  1  0
 11 12  2  0
 12 13  1  0
 13 14  1  0
 12 15  1  0
 15 16  1  0
 15 17  2  0
  5 18  1  0
 18 19  2  0
 18 20  1  0
 20 21  1  0
 22 21  1  6
 22 23  1  0
 23 24  1  0
 24 25  1  6
 24 26  1  0
 26 27  1  6
 27 28  1  0
 28 29  2  0
 29 30  1  0
 30 31  1  0
 30 32  2  0
 32 33  1  0
 33 34  1  0
 32 35  1  0
 35 36  1  0
 35 37  2  0
 38 37  1  6
 38 39  1  0
 39 40  1  0
 22 41  1  0
 41 42  2  0
 42 43  1  0
 43 44  1  0
 44 45  1  0
 45 46  1  0
 46 47  2  0
 47 48  1  0
 47 49  1  0
 49 50  1  0
 50 51  1  0
 51 52  1  0
 51 53  2  0
 49 54  2  0
  1 23  1  1
 39 26  1  0
 54 41  1  0
 38  1  1  0
 46 42  1  0
 54  2  1  0
 10  5  1  0
 37 28  1  0
 17  9  1  0
M  END
$$$$
