
     RDKit          3D

 54 62  0  0  0  0  0  0  0  0999 V2000
  189.8007  161.4067  130.1325 C   0  0  2  0  0  0  0  0  0  0  0  0
  190.9472  161.0498  129.1739 C   0  0  2  0  0  0  0  0  0  0  0  0
  190.2606  160.0168  127.8646 S   0  0  0  0  0  0  0  0  0  0  0  0
  190.9074  158.3571  127.8324 C   0  0  0  0  0  0  0  0  0  0  0  0
  189.9139  157.3348  127.3332 C   0  0  1  0  0  0  0  0  0  0  0  0
  189.4614  157.8093  126.0365 N   0  0  0  0  0  0  0  0  0  0  0  0
  190.5119  157.9314  125.0851 C   0  0  0  0  0  0  0  0  0  0  0  0
  191.4774  156.8145  124.9938 C   0  0  0  0  0  0  0  0  0  0  0  0
  191.3800  155.8026  126.0738 C   0  0  0  0  0  0  0  0  0  0  0  0
  190.6381  156.0451  127.1908 C   0  0  0  0  0  0  0  0  0  0  0  0
  190.5711  155.0787  128.1752 C   0  0  0  0  0  0  0  0  0  0  0  0
  191.2293  153.8619  128.0798 C   0  0  0  0  0  0  0  0  0  0  0  0
  191.1595  152.8905  129.0737 O   0  0  0  0  0  0  0  0  0  0  0  0
  190.4802  151.6768  128.9152 C   0  0  0  0  0  0  0  0  0  0  0  0
  191.9787  153.6208  126.9479 C   0  0  0  0  0  0  0  0  0  0  0  0
  192.6593  152.4082  126.8086 O   0  0  0  0  0  0  0  0  0  0  0  0
  192.0434  154.5868  125.9681 C   0  0  0  0  0  0  0  0  0  0  0  0
  188.7073  157.2167  128.1878 C   0  0  0  0  0  0  0  0  0  0  0  0
  187.8342  156.3890  127.7533 O   0  0  0  0  0  0  0  0  0  0  0  0
  188.6058  157.9558  129.3209 O   0  0  0  0  0  0  0  0  0  0  0  0
  189.2812  157.8596  130.5312 C   0  0  0  0  0  0  0  0  0  0  0  0
  189.7700  159.2332  130.9919 C   0  0  2  0  0  0  0  0  0  0  0  0
  189.0329  160.2079  130.2515 N   0  0  0  0  0  0  0  0  0  0  0  0
  187.6879  160.3778  130.7114 C   0  0  1  0  0  0  0  0  0  0  0  0
  187.5605  160.5810  132.0615 O   0  0  0  0  0  0  0  0  0  0  0  0
  187.0619  161.5202  129.9366 C   0  0  2  0  0  0  0  0  0  0  0  0
  187.0739  161.2869  128.4653 C   0  0  0  0  0  0  0  0  0  0  0  0
  187.9242  162.2254  127.7046 C   0  0  0  0  0  0  0  0  0  0  0  0
  187.7475  162.4558  126.3571 C   0  0  0  0  0  0  0  0  0  0  0  0
  188.5432  163.3507  125.6440 C   0  0  0  0  0  0  0  0  0  0  0  0
  188.2967  163.5483  124.1980 C   0  0  0  0  0  0  0  0  0  0  0  0
  189.5406  164.0284  126.3087 C   0  0  0  0  0  0  0  0  0  0  0  0
  190.3233  164.9129  125.5932 O   0  0  0  0  0  0  0  0  0  0  0  0
  190.1923  166.3119  125.6619 C   0  0  0  0  0  0  0  0  0  0  0  0
  189.7527  163.8292  127.6543 C   0  0  0  0  0  0  0  0  0  0  0  0
  190.7608  164.5211  128.3107 O   0  0  0  0  0  0  0  0  0  0  0  0
  188.9487  162.9344  128.3385 C   0  0  0  0  0  0  0  0  0  0  0  0
  189.0967  162.6490  129.7839 C   0  0  1  0  0  0  0  0  0  0  0  0
  187.7716  162.7093  130.3680 N   0  0  0  0  0  0  0  0  0  0  0  0
  187.0669  163.9099  130.0724 C   0  0  0  0  0  0  0  0  0  0  0  0
  191.2320  159.3467  130.8830 C   0  0  0  0  0  0  0  0  0  0  0  0
  192.0408  158.5711  131.6732 C   0  0  0  0  0  0  0  0  0  0  0  0
  191.8311  157.6106  132.6445 O   0  0  0  0  0  0  0  0  0  0  0  0
  193.0396  157.4028  133.3559 C   0  0  0  0  0  0  0  0  0  0  0  0
  194.0446  157.8154  132.4502 O   0  0  0  0  0  0  0  0  0  0  0  0
  193.4285  158.6876  131.5634 C   0  0  0  0  0  0  0  0  0  0  0  0
  194.0232  159.5636  130.6801 C   0  0  0  0  0  0  0  0  0  0  0  0
  195.5138  159.6816  130.5695 C   0  0  0  0  0  0  0  0  0  0  0  0
  193.2075  160.3480  129.8811 C   0  0  0  0  0  0  0  0  0  0  0  0
  193.7902  161.2332  128.9913 O   0  0  0  0  0  0  0  0  0  0  0  0
  193.8645  162.5763  129.2692 C   0  0  0  0  0  0  0  0  0  0  0  0
  194.5403  163.5170  128.3117 C   0  0  0  0  0  0  0  0  0  0  0  0
  193.3840  163.0843  130.3140 O   0  0  0  0  0  0  0  0  0  0  0  0
  191.8595  160.2188  130.0036 C   0  0  0  0  0  0  0  0  0  0  0  0
  1  2  1  0
  2  3  1  6
  3  4  1  0
  4  5  1  0
  5  6  1  6
  6  7  1  0
  7  8  1  0
  8  9  1  0
  9 10  2  0
 10 11  1  0
 11 12  2  0
 12 13  1  0
 13 14  1  0
 12 15  1  0
 15 16  1  0
 15 17  2  0
  5 18  1  0
 18 19  2  0
 18 20  1  0
 20 21  1  0
 22 21  1  6
 22 23  1  0
 23 24  1  0
 24 25  1  1
 24 26  1  0
 26 27  1  6
 27 28  1  0
 28 29  2  0
 29 30  1  0
 30 31  1  0
 30 32  2  0
 32 33  1  0
 33 34  1  0
 32 35  1  0
 35 36  1  0
 35 37  2  0
 38 37  1  6
 38 39  1  0
 39 40  1  0
 22 41  1  0
 41 42  2  0
 42 43  1  0
 43 44  1  0
 44 45  1  0
 45 46  1  0
 46 47  2  0
 47 48  1  0
 47 49  1  0
 49 50  1  0
 50 51  1  0
 51 52  1  0
 51 53  2  0
 49 54  2  0
  1 23  1  6
 39 26  1  0
 54 41  1  0
 38  1  1  0
 46 42  1  0
 54  2  1  0
 10  5  1  0
 37 28  1  0
 17  9  1  0
M  END
$$$$
