
     RDKit          3D

 54 62  0  0  0  0  0  0  0  0999 V2000
  142.4986  170.1509  160.9823 C   0  0  2  0  0  0  0  0  0  0  0  0
  141.2611  169.2687  161.2080 C   0  0  2  0  0  0  0  0  0  0  0  0
  140.5773  169.6927  162.8222 S   0  0  0  0  0  0  0  0  0  0  0  0
  140.6371  168.3655  164.0092 C   0  0  0  0  0  0  0  0  0  0  0  0
  140.7972  168.8407  165.4339 C   0  0  1  0  0  0  0  0  0  0  0  0
  139.7185  169.7852  165.6696 N   0  0  0  0  0  0  0  0  0  0  0  0
  138.4259  169.2106  165.5197 C   0  0  0  0  0  0  0  0  0  0  0  0
  138.1935  167.8908  166.1460 C   0  0  0  0  0  0  0  0  0  0  0  0
  139.4083  167.2072  166.6531 C   0  0  0  0  0  0  0  0  0  0  0  0
  140.6508  167.6541  166.3164 C   0  0  0  0  0  0  0  0  0  0  0  0
  141.7585  166.9917  166.8081 C   0  0  0  0  0  0  0  0  0  0  0  0
  141.6653  165.8831  167.6358 C   0  0  0  0  0  0  0  0  0  0  0  0
  142.7836  165.2182  168.1292 O   0  0  0  0  0  0  0  0  0  0  0  0
  143.1668  165.2542  169.4751 C   0  0  0  0  0  0  0  0  0  0  0  0
  140.4061  165.4345  167.9738 C   0  0  0  0  0  0  0  0  0  0  0  0
  140.2637  164.3206  168.8056 O   0  0  0  0  0  0  0  0  0  0  0  0
  139.3034  166.0974  167.4818 C   0  0  0  0  0  0  0  0  0  0  0  0
  142.0643  169.5734  165.6739 C   0  0  0  0  0  0  0  0  0  0  0  0
  142.1941  170.0236  166.8641 O   0  0  0  0  0  0  0  0  0  0  0  0
  142.9642  169.7160  164.6686 O   0  0  0  0  0  0  0  0  0  0  0  0
  143.7986  168.7879  164.0584 C   0  0  0  0  0  0  0  0  0  0  0  0
  143.7311  168.9140  162.5361 C   0  0  2  0  0  0  0  0  0  0  0  0
  143.1587  170.1912  162.2486 N   0  0  0  0  0  0  0  0  0  0  0  0
  144.0679  171.2805  162.4379 C   0  0  1  0  0  0  0  0  0  0  0  0
  145.2834  171.1323  161.8208 O   0  0  0  0  0  0  0  0  0  0  0  0
  143.3858  172.5536  161.9783 C   0  0  2  0  0  0  0  0  0  0  0  0
  142.1140  172.8159  162.7083 C   0  0  0  0  0  0  0  0  0  0  0  0
  140.9015  172.7495  161.8669 C   0  0  0  0  0  0  0  0  0  0  0  0
  139.7188  173.3594  162.2264 C   0  0  0  0  0  0  0  0  0  0  0  0
  138.5796  173.3056  161.4253 C   0  0  0  0  0  0  0  0  0  0  0  0
  137.3432  173.9840  161.8747 C   0  0  0  0  0  0  0  0  0  0  0  0
  138.6376  172.6194  160.2330 C   0  0  0  0  0  0  0  0  0  0  0  0
  137.5035  172.5721  159.4464 O   0  0  0  0  0  0  0  0  0  0  0  0
  137.2864  171.6173  158.4364 C   0  0  0  0  0  0  0  0  0  0  0  0
  139.7980  171.9952  159.8343 C   0  0  0  0  0  0  0  0  0  0  0  0
  139.8414  171.3090  158.6288 O   0  0  0  0  0  0  0  0  0  0  0  0
  140.9147  172.0636  160.6489 C   0  0  0  0  0  0  0  0  0  0  0  0
  142.2078  171.4260  160.3113 C   0  0  1  0  0  0  0  0  0  0  0  0
  143.2430  172.4140  160.5417 N   0  0  0  0  0  0  0  0  0  0  0  0
  143.0085  173.6559  159.8874 C   0  0  0  0  0  0  0  0  0  0  0  0
  143.0304  167.7702  161.9335 C   0  0  0  0  0  0  0  0  0  0  0  0
  143.5775  166.5151  162.0063 C   0  0  0  0  0  0  0  0  0  0  0  0
  144.7289  165.9786  162.5508 O   0  0  0  0  0  0  0  0  0  0  0  0
  144.9290  164.6800  162.0185 C   0  0  0  0  0  0  0  0  0  0  0  0
  143.6349  164.2704  161.6211 O   0  0  0  0  0  0  0  0  0  0  0  0
  142.9049  165.4353  161.4291 C   0  0  0  0  0  0  0  0  0  0  0  0
  141.6972  165.5855  160.7811 C   0  0  0  0  0  0  0  0  0  0  0  0
  140.9827  164.4203  160.1645 C   0  0  0  0  0  0  0  0  0  0  0  0
  141.1431  166.8529  160.7065 C   0  0  0  0  0  0  0  0  0  0  0  0
  139.9323  167.0193  160.0574 O   0  0  0  0  0  0  0  0  0  0  0  0
  138.7411  166.8071  160.7076 C   0  0  0  0  0  0  0  0  0  0  0  0
  138.4503  167.4964  162.0111 C   0  0  0  0  0  0  0  0  0  0  0  0
  137.8473  166.0435  160.2620 O   0  0  0  0  0  0  0  0  0  0  0  0
  141.8139  167.8900  161.2751 C   0  0  0  0  0  0  0  0  0  0  0  0
  1  2  1  0
  2  3  1  1
  3  4  1  0
  4  5  1  0
  5  6  1  1
  6  7  1  0
  7  8  1  0
  8  9  1  0
  9 10  2  0
 10 11  1  0
 11 12  2  0
 12 13  1  0
 13 14  1  0
 12 15  1  0
 15 16  1  0
 15 17  2  0
  5 18  1  0
 18 19  2  0
 18 20  1  0
 20 21  1  0
 22 21  1  1
 22 23  1  0
 23 24  1  0
 24 25  1  6
 24 26  1  0
 26 27  1  1
 27 28  1  0
 28 29  2  0
 29 30  1  0
 30 31  1  0
 30 32  2  0
 32 33  1  0
 33 34  1  0
 32 35  1  0
 35 36  1  0
 35 37  2  0
 38 37  1  1
 38 39  1  0
 39 40  1  0
 22 41  1  0
 41 42  2  0
 42 43  1  0
 43 44  1  0
 44 45  1  0
 45 46  1  0
 46 47  2  0
 47 48  1  0
 47 49  1  0
 49 50  1  0
 50 51  1  0
 51 52  1  0
 51 53  2  0
 49 54  2  0
  1 23  1  1
 39 26  1  0
 54 41  1  0
 38  1  1  0
 46 42  1  0
 54  2  1  0
 10  5  1  0
 37 28  1  0
 17  9  1  0
M  END
$$$$
