
     RDKit          3D

 54 62  0  0  0  0  0  0  0  0999 V2000
  129.7029  161.5330  152.1615 C   0  0  2  0  0  0  0  0  0  0  0  0
  129.0618  160.5922  153.1933 C   0  0  2  0  0  0  0  0  0  0  0  0
  129.8240  160.9363  154.7912 S   0  0  0  0  0  0  0  0  0  0  0  0
  130.7627  159.5766  155.4576 C   0  0  0  0  0  0  0  0  0  0  0  0
  131.9380  160.0136  156.2997 C   0  0  1  0  0  0  0  0  0  0  0  0
  131.4004  160.9035  157.3147 N   0  0  0  0  0  0  0  0  0  0  0  0
  130.4389  160.2792  158.1570 C   0  0  0  0  0  0  0  0  0  0  0  0
  130.7634  158.9319  158.6742 C   0  0  0  0  0  0  0  0  0  0  0  0
  131.9482  158.2853  158.0593 C   0  0  0  0  0  0  0  0  0  0  0  0
  132.5112  158.7950  156.9279 C   0  0  0  0  0  0  0  0  0  0  0  0
  133.6139  158.1655  156.3843 C   0  0  0  0  0  0  0  0  0  0  0  0
  134.1804  157.0287  156.9407 C   0  0  0  0  0  0  0  0  0  0  0  0
  135.2914  156.3971  156.3903 O   0  0  0  0  0  0  0  0  0  0  0  0
  135.9769  155.3558  157.0271 C   0  0  0  0  0  0  0  0  0  0  0  0
  133.6076  156.5165  158.0855 C   0  0  0  0  0  0  0  0  0  0  0  0
  134.1449  155.3723  158.6811 O   0  0  0  0  0  0  0  0  0  0  0  0
  132.5079  157.1468  158.6250 C   0  0  0  0  0  0  0  0  0  0  0  0
  132.9496  160.7919  155.5441 C   0  0  0  0  0  0  0  0  0  0  0  0
  133.9286  161.2100  156.2533 O   0  0  0  0  0  0  0  0  0  0  0  0
  132.7853  161.0040  154.2142 O   0  0  0  0  0  0  0  0  0  0  0  0
  132.8801  160.1317  153.1371 C   0  0  0  0  0  0  0  0  0  0  0  0
  131.6896  160.3021  152.1929 C   0  0  2  0  0  0  0  0  0  0  0  0
  131.0902  161.5620  152.5009 N   0  0  0  0  0  0  0  0  0  0  0  0
  131.8264  162.6827  151.9997 C   0  0  1  0  0  0  0  0  0  0  0  0
  132.1633  162.6057  150.6727 O   0  0  0  0  0  0  0  0  0  0  0  0
  131.0253  163.9392  152.2766 C   0  0  2  0  0  0  0  0  0  0  0  0
  130.7357  164.1242  153.7261 C   0  0  0  0  0  0  0  0  0  0  0  0
  129.3043  164.0323  154.0799 C   0  0  0  0  0  0  0  0  0  0  0  0
  128.7929  164.5798  155.2370 C   0  0  0  0  0  0  0  0  0  0  0  0
  127.4401  164.5023  155.5630 C   0  0  0  0  0  0  0  0  0  0  0  0
  126.9607  165.1131  156.8231 C   0  0  0  0  0  0  0  0  0  0  0  0
  126.5844  163.8566  154.6988 C   0  0  0  0  0  0  0  0  0  0  0  0
  125.2458  163.7855  155.0307 O   0  0  0  0  0  0  0  0  0  0  0  0
  124.2254  164.4540  154.3301 C   0  0  0  0  0  0  0  0  0  0  0  0
  127.0516  163.2952  153.5319 C   0  0  0  0  0  0  0  0  0  0  0  0
  126.1764  162.6492  152.6702 O   0  0  0  0  0  0  0  0  0  0  0  0
  128.3998  163.3858  153.2326 C   0  0  0  0  0  0  0  0  0  0  0  0
  129.0004  162.8147  152.0056 C   0  0  1  0  0  0  0  0  0  0  0  0
  129.8509  163.8383  151.4314 N   0  0  0  0  0  0  0  0  0  0  0  0
  129.1983  165.0888  151.2424 C   0  0  0  0  0  0  0  0  0  0  0  0
  130.7801  159.1487  152.2627 C   0  0  0  0  0  0  0  0  0  0  0  0
  131.2011  157.9164  151.8336 C   0  0  0  0  0  0  0  0  0  0  0  0
  132.3717  157.4129  151.2987 O   0  0  0  0  0  0  0  0  0  0  0  0
  132.1091  156.1411  150.7298 C   0  0  0  0  0  0  0  0  0  0  0  0
  130.9597  155.6893  151.4191 O   0  0  0  0  0  0  0  0  0  0  0  0
  130.3289  156.8274  151.9024 C   0  0  0  0  0  0  0  0  0  0  0  0
  129.0451  156.9460  152.3912 C   0  0  0  0  0  0  0  0  0  0  0  0
  128.1161  155.7711  152.4611 C   0  0  0  0  0  0  0  0  0  0  0  0
  128.6181  158.1903  152.8251 C   0  0  0  0  0  0  0  0  0  0  0  0
  127.3314  158.3250  153.3163 O   0  0  0  0  0  0  0  0  0  0  0  0
  126.4763  159.2783  152.8198 C   0  0  0  0  0  0  0  0  0  0  0  0
  126.8861  160.1402  151.6589 C   0  0  0  0  0  0  0  0  0  0  0  0
  125.3302  159.4806  153.2952 O   0  0  0  0  0  0  0  0  0  0  0  0
  129.4829  159.2369  152.7496 C   0  0  0  0  0  0  0  0  0  0  0  0
  1  2  1  0
  2  3  1  1
  3  4  1  0
  4  5  1  0
  5  6  1  1
  6  7  1  0
  7  8  1  0
  8  9  1  0
  9 10  2  0
 10 11  1  0
 11 12  2  0
 12 13  1  0
 13 14  1  0
 12 15  1  0
 15 16  1  0
 15 17  2  0
  5 18  1  0
 18 19  2  0
 18 20  1  0
 20 21  1  0
 22 21  1  1
 22 23  1  0
 23 24  1  0
 24 25  1  6
 24 26  1  0
 26 27  1  1
 27 28  1  0
 28 29  2  0
 29 30  1  0
 30 31  1  0
 30 32  2  0
 32 33  1  0
 33 34  1  0
 32 35  1  0
 35 36  1  0
 35 37  2  0
 38 37  1  1
 38 39  1  0
 39 40  1  0
 22 41  1  0
 41 42  2  0
 42 43  1  0
 43 44  1  0
 44 45  1  0
 45 46  1  0
 46 47  2  0
 47 48  1  0
 47 49  1  0
 49 50  1  0
 50 51  1  0
 51 52  1  0
 51 53  2  0
 49 54  2  0
  1 23  1  1
 39 26  1  0
 54 41  1  0
 38  1  1  0
 46 42  1  0
 54  2  1  0
 10  5  1  0
 37 28  1  0
 17  9  1  0
M  END
$$$$
