
     RDKit          3D

 54 62  0  0  0  0  0  0  0  0999 V2000
  119.5928  167.1086  143.4886 C   0  0  2  0  0  0  0  0  0  0  0  0
  118.3891  168.0481  143.6596 C   0  0  2  0  0  0  0  0  0  0  0  0
  117.2641  167.2817  144.8426 S   0  0  0  0  0  0  0  0  0  0  0  0
  115.6823  166.8327  144.1568 C   0  0  0  0  0  0  0  0  0  0  0  0
  115.0696  165.6147  144.8068 C   0  0  1  0  0  0  0  0  0  0  0  0
  115.0288  165.8936  146.2322 N   0  0  0  0  0  0  0  0  0  0  0  0
  114.2428  167.0330  146.5595 C   0  0  0  0  0  0  0  0  0  0  0  0
  112.9236  167.1585  145.9022 C   0  0  0  0  0  0  0  0  0  0  0  0
  112.6750  166.2056  144.7931 C   0  0  0  0  0  0  0  0  0  0  0  0
  113.6930  165.4687  144.2664 C   0  0  0  0  0  0  0  0  0  0  0  0
  113.4229  164.5915  143.2344 C   0  0  0  0  0  0  0  0  0  0  0  0
  112.1528  164.4237  142.7037 C   0  0  0  0  0  0  0  0  0  0  0  0
  111.8843  163.5390  141.6638 O   0  0  0  0  0  0  0  0  0  0  0  0
  110.9860  163.8212  140.6279 C   0  0  0  0  0  0  0  0  0  0  0  0
  111.1257  165.1714  143.2397 C   0  0  0  0  0  0  0  0  0  0  0  0
  109.8292  165.0352  142.7364 O   0  0  0  0  0  0  0  0  0  0  0  0
  111.3986  166.0452  144.2689 C   0  0  0  0  0  0  0  0  0  0  0  0
  115.8794  164.3837  144.6370 C   0  0  0  0  0  0  0  0  0  0  0  0
  115.3981  163.3529  145.2217 O   0  0  0  0  0  0  0  0  0  0  0  0
  117.0240  164.4218  143.9096 O   0  0  0  0  0  0  0  0  0  0  0  0
  117.2265  164.5562  142.5417 C   0  0  0  0  0  0  0  0  0  0  0  0
  118.3073  165.5982  142.2518 C   0  0  2  0  0  0  0  0  0  0  0  0
  119.0341  165.7940  143.4662 N   0  0  0  0  0  0  0  0  0  0  0  0
  119.9439  164.7301  143.7654 C   0  0  1  0  0  0  0  0  0  0  0  0
  120.7816  164.3802  142.7376 O   0  0  0  0  0  0  0  0  0  0  0  0
  120.7393  165.1174  144.9961 C   0  0  2  0  0  0  0  0  0  0  0  0
  119.8703  165.3941  146.1741 C   0  0  0  0  0  0  0  0  0  0  0  0
  119.8939  166.7975  146.6347 C   0  0  0  0  0  0  0  0  0  0  0  0
  119.5234  167.1621  147.9115 C   0  0  0  0  0  0  0  0  0  0  0  0
  119.5578  168.4854  148.3476 C   0  0  0  0  0  0  0  0  0  0  0  0
  119.1454  168.8042  149.7329 C   0  0  0  0  0  0  0  0  0  0  0  0
  119.9766  169.4627  147.4727 C   0  0  0  0  0  0  0  0  0  0  0  0
  120.0073  170.7707  147.9145 O   0  0  0  0  0  0  0  0  0  0  0  0
  118.8835  171.6162  147.9470 C   0  0  0  0  0  0  0  0  0  0  0  0
  120.3556  169.1439  146.1882 C   0  0  0  0  0  0  0  0  0  0  0  0
  120.7772  170.1399  145.3186 O   0  0  0  0  0  0  0  0  0  0  0  0
  120.3114  167.8221  145.7804 C   0  0  0  0  0  0  0  0  0  0  0  0
  120.6963  167.3771  144.4216 C   0  0  1  0  0  0  0  0  0  0  0  0
  121.5698  166.2314  144.5800 N   0  0  0  0  0  0  0  0  0  0  0  0
  122.6656  166.4608  145.4587 C   0  0  0  0  0  0  0  0  0  0  0  0
  117.7321  166.8198  141.6691 C   0  0  0  0  0  0  0  0  0  0  0  0
  117.1537  166.7803  140.4267 C   0  0  0  0  0  0  0  0  0  0  0  0
  116.9419  165.8002  139.4756 O   0  0  0  0  0  0  0  0  0  0  0  0
  116.6025  166.4174  138.2452 C   0  0  0  0  0  0  0  0  0  0  0  0
  116.0833  167.6766  138.6263 O   0  0  0  0  0  0  0  0  0  0  0  0
  116.6117  167.9466  139.8812 C   0  0  0  0  0  0  0  0  0  0  0  0
  116.6368  169.1506  140.5527 C   0  0  0  0  0  0  0  0  0  0  0  0
  116.0525  170.3972  139.9589 C   0  0  0  0  0  0  0  0  0  0  0  0
  117.2210  169.1922  141.8081 C   0  0  0  0  0  0  0  0  0  0  0  0
  117.2553  170.3941  142.4932 O   0  0  0  0  0  0  0  0  0  0  0  0
  118.3434  171.2284  142.4126 C   0  0  0  0  0  0  0  0  0  0  0  0
  119.4053  170.9988  141.3741 C   0  0  0  0  0  0  0  0  0  0  0  0
  118.5107  172.2077  143.1830 O   0  0  0  0  0  0  0  0  0  0  0  0
  117.7422  168.0458  142.3207 C   0  0  0  0  0  0  0  0  0  0  0  0
  1  2  1  0
  2  3  1  1
  3  4  1  0
  4  5  1  0
  5  6  1  1
  6  7  1  0
  7  8  1  0
  8  9  1  0
  9 10  2  0
 10 11  1  0
 11 12  2  0
 12 13  1  0
 13 14  1  0
 12 15  1  0
 15 16  1  0
 15 17  2  0
  5 18  1  0
 18 19  2  0
 18 20  1  0
 20 21  1  0
 22 21  1  1
 22 23  1  0
 23 24  1  0
 24 25  1  6
 24 26  1  0
 26 27  1  1
 27 28  1  0
 28 29  2  0
 29 30  1  0
 30 31  1  0
 30 32  2  0
 32 33  1  0
 33 34  1  0
 32 35  1  0
 35 36  1  0
 35 37  2  0
 38 37  1  1
 38 39  1  0
 39 40  1  0
 22 41  1  0
 41 42  2  0
 42 43  1  0
 43 44  1  0
 44 45  1  0
 45 46  1  0
 46 47  2  0
 47 48  1  0
 47 49  1  0
 49 50  1  0
 50 51  1  0
 51 52  1  0
 51 53  2  0
 49 54  2  0
  1 23  1  1
 39 26  1  0
 54 41  1  0
 38  1  1  0
 46 42  1  0
 54  2  1  0
 10  5  1  0
 37 28  1  0
 17  9  1  0
M  END
$$$$
