
     RDKit          3D

 54 62  0  0  0  0  0  0  0  0999 V2000
  147.3288  170.1035  131.1669 C   0  0  2  0  0  0  0  0  0  0  0  0
  148.2359  169.3230  132.1307 C   0  0  2  0  0  0  0  0  0  0  0  0
  148.5979  167.7296  131.3674 S   0  0  0  0  0  0  0  0  0  0  0  0
  147.9501  166.3308  132.2607 C   0  0  0  0  0  0  0  0  0  0  0  0
  147.5732  165.1711  131.3694 C   0  0  1  0  0  0  0  0  0  0  0  0
  148.7558  164.8636  130.5831 N   0  0  0  0  0  0  0  0  0  0  0  0
  149.8757  164.4884  131.3759 C   0  0  0  0  0  0  0  0  0  0  0  0
  149.6377  163.5256  132.4734 C   0  0  0  0  0  0  0  0  0  0  0  0
  148.2122  163.2471  132.7742 C   0  0  0  0  0  0  0  0  0  0  0  0
  147.2247  164.0279  132.2525 C   0  0  0  0  0  0  0  0  0  0  0  0
  145.9088  163.7375  132.5549 C   0  0  0  0  0  0  0  0  0  0  0  0
  145.5414  162.6791  133.3721 C   0  0  0  0  0  0  0  0  0  0  0  0
  144.2145  162.3896  133.6747 O   0  0  0  0  0  0  0  0  0  0  0  0
  143.7777  161.1225  134.0789 C   0  0  0  0  0  0  0  0  0  0  0  0
  146.5438  161.8917  133.8977 C   0  0  0  0  0  0  0  0  0  0  0  0
  146.2205  160.8140  134.7265 O   0  0  0  0  0  0  0  0  0  0  0  0
  147.8552  162.1841  133.5940 C   0  0  0  0  0  0  0  0  0  0  0  0
  146.4931  165.4932  130.4052 C   0  0  0  0  0  0  0  0  0  0  0  0
  146.1944  164.5359  129.6111 O   0  0  0  0  0  0  0  0  0  0  0  0
  145.9158  166.7208  130.4212 O   0  0  0  0  0  0  0  0  0  0  0  0
  145.0560  167.3080  131.3412 C   0  0  0  0  0  0  0  0  0  0  0  0
  145.5094  168.7285  131.6795 C   0  0  2  0  0  0  0  0  0  0  0  0
  146.4162  169.1326  130.6519 N   0  0  0  0  0  0  0  0  0  0  0  0
  145.7690  169.4822  129.4238 C   0  0  1  0  0  0  0  0  0  0  0  0
  144.7341  170.3730  129.5496 O   0  0  0  0  0  0  0  0  0  0  0  0
  146.8189  170.0128  128.4681 C   0  0  2  0  0  0  0  0  0  0  0  0
  147.9069  169.0282  128.2108 C   0  0  0  0  0  0  0  0  0  0  0  0
  149.2337  169.4382  128.7145 C   0  0  0  0  0  0  0  0  0  0  0  0
  150.4068  168.9057  128.2239 C   0  0  0  0  0  0  0  0  0  0  0  0
  151.6580  169.3027  128.6923 C   0  0  0  0  0  0  0  0  0  0  0  0
  152.8763  168.6877  128.1194 C   0  0  0  0  0  0  0  0  0  0  0  0
  151.7248  170.2604  129.6794 C   0  0  0  0  0  0  0  0  0  0  0  0
  152.9692  170.6471  130.1364 O   0  0  0  0  0  0  0  0  0  0  0  0
  153.1750  171.4467  131.2753 C   0  0  0  0  0  0  0  0  0  0  0  0
  150.5787  170.8193  130.1984 C   0  0  0  0  0  0  0  0  0  0  0  0
  150.6624  171.7848  131.1917 O   0  0  0  0  0  0  0  0  0  0  0  0
  149.3490  170.4067  129.7160 C   0  0  0  0  0  0  0  0  0  0  0  0
  148.0602  170.9443  130.2086 C   0  0  1  0  0  0  0  0  0  0  0  0
  147.2608  171.2686  129.0439 N   0  0  0  0  0  0  0  0  0  0  0  0
  147.9274  172.1025  128.1028 C   0  0  0  0  0  0  0  0  0  0  0  0
  146.0450  168.8095  133.0466 C   0  0  0  0  0  0  0  0  0  0  0  0
  145.2180  168.6022  134.1205 C   0  0  0  0  0  0  0  0  0  0  0  0
  143.8779  168.3056  134.2818 O   0  0  0  0  0  0  0  0  0  0  0  0
  143.5112  168.5472  135.6297 C   0  0  0  0  0  0  0  0  0  0  0  0
  144.7297  168.4402  136.3398 O   0  0  0  0  0  0  0  0  0  0  0  0
  145.7362  168.6831  135.4153 C   0  0  0  0  0  0  0  0  0  0  0  0
  147.0635  168.9670  135.6574 C   0  0  0  0  0  0  0  0  0  0  0  0
  147.6105  169.0517  137.0509 C   0  0  0  0  0  0  0  0  0  0  0  0
  147.9003  169.1768  134.5736 C   0  0  0  0  0  0  0  0  0  0  0  0
  149.2346  169.4646  134.8012 O   0  0  0  0  0  0  0  0  0  0  0  0
  150.2196  168.5540  134.5061 C   0  0  0  0  0  0  0  0  0  0  0  0
  149.8700  167.1248  134.1998 C   0  0  0  0  0  0  0  0  0  0  0  0
  151.4399  168.8548  134.4756 O   0  0  0  0  0  0  0  0  0  0  0  0
  147.3759  169.0932  133.3219 C   0  0  0  0  0  0  0  0  0  0  0  0
  1  2  1  0
  2  3  1  6
  3  4  1  0
  4  5  1  0
  5  6  1  6
  6  7  1  0
  7  8  1  0
  8  9  1  0
  9 10  2  0
 10 11  1  0
 11 12  2  0
 12 13  1  0
 13 14  1  0
 12 15  1  0
 15 16  1  0
 15 17  2  0
  5 18  1  0
 18 19  2  0
 18 20  1  0
 20 21  1  0
 22 21  1  6
 22 23  1  0
 23 24  1  0
 24 25  1  1
 24 26  1  0
 26 27  1  1
 27 28  1  0
 28 29  2  0
 29 30  1  0
 30 31  1  0
 30 32  2  0
 32 33  1  0
 33 34  1  0
 32 35  1  0
 35 36  1  0
 35 37  2  0
 38 37  1  6
 38 39  1  0
 39 40  1  0
 22 41  1  0
 41 42  2  0
 42 43  1  0
 43 44  1  0
 44 45  1  0
 45 46  1  0
 46 47  2  0
 47 48  1  0
 47 49  1  0
 49 50  1  0
 50 51  1  0
 51 52  1  0
 51 53  2  0
 49 54  2  0
  1 23  1  6
 39 26  1  0
 54 41  1  0
 38  1  1  0
 46 42  1  0
 54  2  1  0
 10  5  1  0
 37 28  1  0
 17  9  1  0
M  END
$$$$
