
     RDKit          3D

 54 62  0  0  0  0  0  0  0  0999 V2000
  188.2239  133.3598  126.8323 C   0  0  2  0  0  0  0  0  0  0  0  0
  188.4425  134.3330  128.0009 C   0  0  2  0  0  0  0  0  0  0  0  0
  186.8837  135.1917  128.2932 S   0  0  0  0  0  0  0  0  0  0  0  0
  186.9507  136.9456  127.9879 C   0  0  0  0  0  0  0  0  0  0  0  0
  185.6419  137.5210  127.5006 C   0  0  1  0  0  0  0  0  0  0  0  0
  184.6408  137.1379  128.4815 N   0  0  0  0  0  0  0  0  0  0  0  0
  184.9081  137.6436  129.7839 C   0  0  0  0  0  0  0  0  0  0  0  0
  185.3173  139.0612  129.8903 C   0  0  0  0  0  0  0  0  0  0  0  0
  185.6365  139.7269  128.6039 C   0  0  0  0  0  0  0  0  0  0  0  0
  185.7936  138.9987  127.4628 C   0  0  0  0  0  0  0  0  0  0  0  0
  186.0903  139.6538  126.2837 C   0  0  0  0  0  0  0  0  0  0  0  0
  186.2375  141.0305  126.2054 C   0  0  0  0  0  0  0  0  0  0  0  0
  186.5366  141.6871  125.0157 O   0  0  0  0  0  0  0  0  0  0  0  0
  185.5784  142.3584  124.2469 C   0  0  0  0  0  0  0  0  0  0  0  0
  186.0777  141.7633  127.3624 C   0  0  0  0  0  0  0  0  0  0  0  0
  186.2168  143.1534  127.3310 O   0  0  0  0  0  0  0  0  0  0  0  0
  185.7817  141.1067  128.5366 C   0  0  0  0  0  0  0  0  0  0  0  0
  185.1986  136.9626  126.1999 C   0  0  0  0  0  0  0  0  0  0  0  0
  184.0684  137.4047  125.7957 O   0  0  0  0  0  0  0  0  0  0  0  0
  185.9774  136.0621  125.5494 O   0  0  0  0  0  0  0  0  0  0  0  0
  187.1907  136.2190  124.8911 C   0  0  0  0  0  0  0  0  0  0  0  0
  188.1769  135.1245  125.3002 C   0  0  2  0  0  0  0  0  0  0  0  0
  187.4124  134.0778  125.9014 N   0  0  0  0  0  0  0  0  0  0  0  0
  186.6992  133.2751  124.9547 C   0  0  1  0  0  0  0  0  0  0  0  0
  187.4554  132.8010  123.9136 O   0  0  0  0  0  0  0  0  0  0  0  0
  186.0404  132.1327  125.7017 C   0  0  2  0  0  0  0  0  0  0  0  0
  185.1163  132.6061  126.7700 C   0  0  0  0  0  0  0  0  0  0  0  0
  185.5450  132.2681  128.1427 C   0  0  0  0  0  0  0  0  0  0  0  0
  184.6645  132.2277  129.2025 C   0  0  0  0  0  0  0  0  0  0  0  0
  185.0689  131.8969  130.4946 C   0  0  0  0  0  0  0  0  0  0  0  0
  184.0684  131.8736  131.5850 C   0  0  0  0  0  0  0  0  0  0  0  0
  186.3944  131.5999  130.7203 C   0  0  0  0  0  0  0  0  0  0  0  0
  186.7850  131.2731  132.0040 O   0  0  0  0  0  0  0  0  0  0  0  0
  188.1098  130.9742  132.3706 C   0  0  0  0  0  0  0  0  0  0  0  0
  187.3085  131.6279  129.6914 C   0  0  0  0  0  0  0  0  0  0  0  0
  188.6407  131.3242  129.9344 O   0  0  0  0  0  0  0  0  0  0  0  0
  186.8805  131.9602  128.4179 C   0  0  0  0  0  0  0  0  0  0  0  0
  187.7839  132.0199  127.2462 C   0  0  1  0  0  0  0  0  0  0  0  0
  187.1327  131.3009  126.1692 N   0  0  0  0  0  0  0  0  0  0  0  0
  186.7133  129.9884  126.5251 C   0  0  0  0  0  0  0  0  0  0  0  0
  189.2584  135.6630  126.1386 C   0  0  0  0  0  0  0  0  0  0  0  0
  190.1564  136.5544  125.6105 C   0  0  0  0  0  0  0  0  0  0  0  0
  190.3378  137.1461  124.3749 O   0  0  0  0  0  0  0  0  0  0  0  0
  191.6345  137.7168  124.3227 C   0  0  0  0  0  0  0  0  0  0  0  0
  191.9656  137.9372  125.6800 O   0  0  0  0  0  0  0  0  0  0  0  0
  191.1813  137.0587  126.4148 C   0  0  0  0  0  0  0  0  0  0  0  0
  191.3260  136.6897  127.7353 C   0  0  0  0  0  0  0  0  0  0  0  0
  192.4295  137.2365  128.5907 C   0  0  0  0  0  0  0  0  0  0  0  0
  190.4196  135.7890  128.2704 C   0  0  0  0  0  0  0  0  0  0  0  0
  190.5535  135.4078  129.5940 O   0  0  0  0  0  0  0  0  0  0  0  0
  191.4815  134.4690  129.9738 C   0  0  0  0  0  0  0  0  0  0  0  0
  192.1494  133.5980  128.9473 C   0  0  0  0  0  0  0  0  0  0  0  0
  191.8178  134.2881  131.1715 O   0  0  0  0  0  0  0  0  0  0  0  0
  189.4296  135.3105  127.4706 C   0  0  0  0  0  0  0  0  0  0  0  0
  1  2  1  0
  2  3  1  6
  3  4  1  0
  4  5  1  0
  5  6  1  1
  6  7  1  0
  7  8  1  0
  8  9  1  0
  9 10  2  0
 10 11  1  0
 11 12  2  0
 12 13  1  0
 13 14  1  0
 12 15  1  0
 15 16  1  0
 15 17  2  0
  5 18  1  0
 18 19  2  0
 18 20  1  0
 20 21  1  0
 22 21  1  1
 22 23  1  0
 23 24  1  0
 24 25  1  6
 24 26  1  0
 26 27  1  1
 27 28  1  0
 28 29  2  0
 29 30  1  0
 30 31  1  0
 30 32  2  0
 32 33  1  0
 33 34  1  0
 32 35  1  0
 35 36  1  0
 35 37  2  0
 38 37  1  1
 38 39  1  0
 39 40  1  0
 22 41  1  0
 41 42  2  0
 42 43  1  0
 43 44  1  0
 44 45  1  0
 45 46  1  0
 46 47  2  0
 47 48  1  0
 47 49  1  0
 49 50  1  0
 50 51  1  0
 51 52  1  0
 51 53  2  0
 49 54  2  0
  1 23  1  6
 39 26  1  0
 54 41  1  0
 38  1  1  0
 46 42  1  0
 54  2  1  0
 10  5  1  0
 37 28  1  0
 17  9  1  0
M  END
$$$$
