
     RDKit          3D

 54 62  0  0  0  0  0  0  0  0999 V2000
  191.6745  161.6445  120.6276 C   0  0  2  0  0  0  0  0  0  0  0  0
  191.0796  160.3351  120.0869 C   0  0  2  0  0  0  0  0  0  0  0  0
  189.7871  159.8112  121.2305 S   0  0  0  0  0  0  0  0  0  0  0  0
  190.1288  158.2715  122.0589 C   0  0  0  0  0  0  0  0  0  0  0  0
  189.5386  158.1922  123.4469 C   0  0  1  0  0  0  0  0  0  0  0  0
  188.1205  158.4732  123.3007 N   0  0  0  0  0  0  0  0  0  0  0  0
  187.4470  157.5428  122.4615 C   0  0  0  0  0  0  0  0  0  0  0  0
  187.7395  156.1076  122.6684 C   0  0  0  0  0  0  0  0  0  0  0  0
  188.8846  155.8170  123.5653 C   0  0  0  0  0  0  0  0  0  0  0  0
  189.7454  156.8052  123.9385 C   0  0  0  0  0  0  0  0  0  0  0  0
  190.8001  156.4964  124.7750 C   0  0  0  0  0  0  0  0  0  0  0  0
  191.0266  155.2163  125.2577 C   0  0  0  0  0  0  0  0  0  0  0  0
  192.0903  154.9089  126.1003 O   0  0  0  0  0  0  0  0  0  0  0  0
  192.1756  153.7142  126.8251 C   0  0  0  0  0  0  0  0  0  0  0  0
  190.1531  154.2196  124.8775 C   0  0  0  0  0  0  0  0  0  0  0  0
  190.3422  152.9144  125.3395 O   0  0  0  0  0  0  0  0  0  0  0  0
  189.1022  154.5310  124.0431 C   0  0  0  0  0  0  0  0  0  0  0  0
  190.0803  159.2112  124.3787 C   0  0  0  0  0  0  0  0  0  0  0  0
  189.5566  159.1881  125.5455 O   0  0  0  0  0  0  0  0  0  0  0  0
  191.0490  160.0639  123.9601 O   0  0  0  0  0  0  0  0  0  0  0  0
  192.3895  159.8431  123.6697 C   0  0  0  0  0  0  0  0  0  0  0  0
  192.7740  160.4998  122.3435 C   0  0  2  0  0  0  0  0  0  0  0  0
  191.7563  161.4561  122.0413 N   0  0  0  0  0  0  0  0  0  0  0  0
  191.8477  162.6534  122.8207 C   0  0  1  0  0  0  0  0  0  0  0  0
  193.0878  163.2384  122.8374 O   0  0  0  0  0  0  0  0  0  0  0  0
  190.8025  163.6286  122.3172 C   0  0  2  0  0  0  0  0  0  0  0  0
  189.4216  163.0745  122.3907 C   0  0  0  0  0  0  0  0  0  0  0  0
  188.7770  162.8638  121.0783 C   0  0  0  0  0  0  0  0  0  0  0  0
  187.4090  162.7765  120.9330 C   0  0  0  0  0  0  0  0  0  0  0  0
  186.8023  162.5897  119.6922 C   0  0  0  0  0  0  0  0  0  0  0  0
  185.3269  162.5048  119.6109 C   0  0  0  0  0  0  0  0  0  0  0  0
  187.5971  162.4891  118.5724 C   0  0  0  0  0  0  0  0  0  0  0  0
  186.9864  162.3043  117.3477 O   0  0  0  0  0  0  0  0  0  0  0  0
  187.6020  162.5782  116.1128 C   0  0  0  0  0  0  0  0  0  0  0  0
  188.9678  162.5706  118.6709 C   0  0  0  0  0  0  0  0  0  0  0  0
  189.7555  162.4692  117.5328 O   0  0  0  0  0  0  0  0  0  0  0  0
  189.5447  162.7556  119.9152 C   0  0  0  0  0  0  0  0  0  0  0  0
  191.0069  162.8545  120.1270 C   0  0  1  0  0  0  0  0  0  0  0  0
  191.2367  164.0005  120.9842 N   0  0  0  0  0  0  0  0  0  0  0  0
  190.6252  165.1984  120.5190 C   0  0  0  0  0  0  0  0  0  0  0  0
  193.0119  159.4951  121.2964 C   0  0  0  0  0  0  0  0  0  0  0  0
  194.0692  158.6289  121.4048 C   0  0  0  0  0  0  0  0  0  0  0  0
  195.0756  158.4226  122.3291 O   0  0  0  0  0  0  0  0  0  0  0  0
  196.0815  157.6136  121.7428 C   0  0  0  0  0  0  0  0  0  0  0  0
  195.4032  156.9149  120.7171 O   0  0  0  0  0  0  0  0  0  0  0  0
  194.2877  157.6792  120.4038 C   0  0  0  0  0  0  0  0  0  0  0  0
  193.4708  157.5786  119.2976 C   0  0  0  0  0  0  0  0  0  0  0  0
  193.7134  156.5559  118.2283 C   0  0  0  0  0  0  0  0  0  0  0  0
  192.4022  158.4532  119.1866 C   0  0  0  0  0  0  0  0  0  0  0  0
  191.5748  158.3655  118.0807 O   0  0  0  0  0  0  0  0  0  0  0  0
  190.8940  159.4627  117.6125 C   0  0  0  0  0  0  0  0  0  0  0  0
  190.2454  159.4364  116.2570 C   0  0  0  0  0  0  0  0  0  0  0  0
  190.7766  160.5258  118.2732 O   0  0  0  0  0  0  0  0  0  0  0  0
  192.2073  159.3696  120.1719 C   0  0  0  0  0  0  0  0  0  0  0  0
  1  2  1  0
  2  3  1  1
  3  4  1  0
  4  5  1  0
  5  6  1  6
  6  7  1  0
  7  8  1  0
  8  9  1  0
  9 10  2  0
 10 11  1  0
 11 12  2  0
 12 13  1  0
 13 14  1  0
 12 15  1  0
 15 16  1  0
 15 17  2  0
  5 18  1  0
 18 19  2  0
 18 20  1  0
 20 21  1  0
 22 21  1  1
 22 23  1  0
 23 24  1  0
 24 25  1  6
 24 26  1  0
 26 27  1  6
 27 28  1  0
 28 29  2  0
 29 30  1  0
 30 31  1  0
 30 32  2  0
 32 33  1  0
 33 34  1  0
 32 35  1  0
 35 36  1  0
 35 37  2  0
 38 37  1  1
 38 39  1  0
 39 40  1  0
 22 41  1  0
 41 42  2  0
 42 43  1  0
 43 44  1  0
 44 45  1  0
 45 46  1  0
 46 47  2  0
 47 48  1  0
 47 49  1  0
 49 50  1  0
 50 51  1  0
 51 52  1  0
 51 53  2  0
 49 54  2  0
  1 23  1  1
 39 26  1  0
 54 41  1  0
 38  1  1  0
 46 42  1  0
 54  2  1  0
 10  5  1  0
 37 28  1  0
 17  9  1  0
M  END
$$$$
