
     RDKit          3D

 54 62  0  0  0  0  0  0  0  0999 V2000
  162.4144  146.1739  124.1074 C   0  0  2  0  0  0  0  0  0  0  0  0
  161.4377  145.7988  125.2326 C   0  0  2  0  0  0  0  0  0  0  0  0
  160.1080  144.8270  124.4978 S   0  0  0  0  0  0  0  0  0  0  0  0
  158.5071  145.6045  124.5805 C   0  0  0  0  0  0  0  0  0  0  0  0
  157.6075  145.2523  123.4195 C   0  0  1  0  0  0  0  0  0  0  0  0
  157.5491  143.8010  123.3782 N   0  0  0  0  0  0  0  0  0  0  0  0
  157.0143  143.2262  124.5643 C   0  0  0  0  0  0  0  0  0  0  0  0
  155.7933  143.8439  125.1265 C   0  0  0  0  0  0  0  0  0  0  0  0
  155.4047  145.1422  124.5236 C   0  0  0  0  0  0  0  0  0  0  0  0
  156.2648  145.8181  123.7111 C   0  0  0  0  0  0  0  0  0  0  0  0
  155.8675  147.0243  123.1679 C   0  0  0  0  0  0  0  0  0  0  0  0
  154.6231  147.5852  123.4127 C   0  0  0  0  0  0  0  0  0  0  0  0
  154.2263  148.8006  122.8638 O   0  0  0  0  0  0  0  0  0  0  0  0
  153.8486  149.9054  123.6362 C   0  0  0  0  0  0  0  0  0  0  0  0
  153.7561  146.8977  124.2354 C   0  0  0  0  0  0  0  0  0  0  0  0
  152.4915  147.4249  124.5102 O   0  0  0  0  0  0  0  0  0  0  0  0
  154.1556  145.6951  124.7754 C   0  0  0  0  0  0  0  0  0  0  0  0
  158.1367  145.6944  122.1063 C   0  0  0  0  0  0  0  0  0  0  0  0
  157.4097  145.3624  121.1076 O   0  0  0  0  0  0  0  0  0  0  0  0
  159.3007  146.3885  122.0449 O   0  0  0  0  0  0  0  0  0  0  0  0
  159.6039  147.6888  122.4291 C   0  0  0  0  0  0  0  0  0  0  0  0
  160.9009  147.7284  123.2379 C   0  0  2  0  0  0  0  0  0  0  0  0
  161.5839  146.4980  122.9912 N   0  0  0  0  0  0  0  0  0  0  0  0
  162.2208  146.4449  121.7102 C   0  0  1  0  0  0  0  0  0  0  0  0
  163.0178  147.5214  121.4164 O   0  0  0  0  0  0  0  0  0  0  0  0
  163.0115  145.1546  121.6261 C   0  0  2  0  0  0  0  0  0  0  0  0
  162.1596  143.9486  121.8243 C   0  0  0  0  0  0  0  0  0  0  0  0
  162.4637  143.1801  123.0488 C   0  0  0  0  0  0  0  0  0  0  0  0
  162.1113  141.8556  123.1961 C   0  0  0  0  0  0  0  0  0  0  0  0
  162.4098  141.1292  124.3474 C   0  0  0  0  0  0  0  0  0  0  0  0
  162.0003  139.7096  124.4367 C   0  0  0  0  0  0  0  0  0  0  0  0
  163.0804  141.7563  125.3735 C   0  0  0  0  0  0  0  0  0  0  0  0
  163.3717  141.0277  126.5099 O   0  0  0  0  0  0  0  0  0  0  0  0
  163.5494  141.5963  127.7843 C   0  0  0  0  0  0  0  0  0  0  0  0
  163.4518  143.0778  125.2695 C   0  0  0  0  0  0  0  0  0  0  0  0
  164.1289  143.6954  126.3116 O   0  0  0  0  0  0  0  0  0  0  0  0
  163.1424  143.7764  124.1155 C   0  0  0  0  0  0  0  0  0  0  0  0
  163.4960  145.1990  123.9068 C   0  0  1  0  0  0  0  0  0  0  0  0
  164.0875  145.3018  122.5875 N   0  0  0  0  0  0  0  0  0  0  0  0
  165.1560  144.3889  122.3636 C   0  0  0  0  0  0  0  0  0  0  0  0
  160.6404  148.0200  124.6555 C   0  0  0  0  0  0  0  0  0  0  0  0
  160.1377  149.2414  125.0233 C   0  0  0  0  0  0  0  0  0  0  0  0
  159.7702  150.3919  124.3514 O   0  0  0  0  0  0  0  0  0  0  0  0
  159.6433  151.4508  125.2856 C   0  0  0  0  0  0  0  0  0  0  0  0
  159.3917  150.7951  126.5132 O   0  0  0  0  0  0  0  0  0  0  0  0
  159.8953  149.5092  126.3727 C   0  0  0  0  0  0  0  0  0  0  0  0
  160.1456  148.5808  127.3609 C   0  0  0  0  0  0  0  0  0  0  0  0
  159.8822  148.8775  128.8069 C   0  0  0  0  0  0  0  0  0  0  0  0
  160.6535  147.3463  126.9911 C   0  0  0  0  0  0  0  0  0  0  0  0
  160.9116  146.4050  127.9721 O   0  0  0  0  0  0  0  0  0  0  0  0
  162.0428  146.4772  128.7478 C   0  0  0  0  0  0  0  0  0  0  0  0
  161.9635  146.2664  130.2337 C   0  0  0  0  0  0  0  0  0  0  0  0
  163.1816  146.7178  128.2726 O   0  0  0  0  0  0  0  0  0  0  0  0
  160.8819  147.1060  125.6724 C   0  0  0  0  0  0  0  0  0  0  0  0
  1  2  1  0
  2  3  1  6
  3  4  1  0
  4  5  1  0
  5  6  1  6
  6  7  1  0
  7  8  1  0
  8  9  1  0
  9 10  2  0
 10 11  1  0
 11 12  2  0
 12 13  1  0
 13 14  1  0
 12 15  1  0
 15 16  1  0
 15 17  2  0
  5 18  1  0
 18 19  2  0
 18 20  1  0
 20 21  1  0
 22 21  1  6
 22 23  1  0
 23 24  1  0
 24 25  1  1
 24 26  1  0
 26 27  1  1
 27 28  1  0
 28 29  2  0
 29 30  1  0
 30 31  1  0
 30 32  2  0
 32 33  1  0
 33 34  1  0
 32 35  1  0
 35 36  1  0
 35 37  2  0
 38 37  1  6
 38 39  1  0
 39 40  1  0
 22 41  1  0
 41 42  2  0
 42 43  1  0
 43 44  1  0
 44 45  1  0
 45 46  1  0
 46 47  2  0
 47 48  1  0
 47 49  1  0
 49 50  1  0
 50 51  1  0
 51 52  1  0
 51 53  2  0
 49 54  2  0
  1 23  1  6
 39 26  1  0
 54 41  1  0
 38  1  1  0
 46 42  1  0
 54  2  1  0
 10  5  1  0
 37 28  1  0
 17  9  1  0
M  END
$$$$
