
     RDKit          3D

 54 62  0  0  0  0  0  0  0  0999 V2000
  164.7909  148.5179  125.3206 C   0  0  2  0  0  0  0  0  0  0  0  0
  165.7397  148.7171  126.5126 C   0  0  2  0  0  0  0  0  0  0  0  0
  165.7246  147.1955  127.4806 S   0  0  0  0  0  0  0  0  0  0  0  0
  165.0602  147.3842  129.1228 C   0  0  0  0  0  0  0  0  0  0  0  0
  164.3646  146.1454  129.6355 C   0  0  1  0  0  0  0  0  0  0  0  0
  165.3261  145.0625  129.5167 N   0  0  0  0  0  0  0  0  0  0  0  0
  166.5080  145.2743  130.2794 C   0  0  0  0  0  0  0  0  0  0  0  0
  166.3418  145.7579  131.6675 C   0  0  0  0  0  0  0  0  0  0  0  0
  164.9713  146.1977  132.0256 C   0  0  0  0  0  0  0  0  0  0  0  0
  164.0259  146.3852  131.0623 C   0  0  0  0  0  0  0  0  0  0  0  0
  162.7605  146.7950  131.4342 C   0  0  0  0  0  0  0  0  0  0  0  0
  162.4032  147.0270  132.7539 C   0  0  0  0  0  0  0  0  0  0  0  0
  161.1273  147.4400  133.1249 O   0  0  0  0  0  0  0  0  0  0  0  0
  160.7200  148.7793  133.1141 C   0  0  0  0  0  0  0  0  0  0  0  0
  163.3630  146.8360  133.7252 C   0  0  0  0  0  0  0  0  0  0  0  0
  163.0480  147.0577  135.0685 O   0  0  0  0  0  0  0  0  0  0  0  0
  164.6240  146.4272  133.3508 C   0  0  0  0  0  0  0  0  0  0  0  0
  163.1823  145.7550  128.8294 C   0  0  0  0  0  0  0  0  0  0  0  0
  162.6095  144.6809  129.2223 O   0  0  0  0  0  0  0  0  0  0  0  0
  162.7983  146.5202  127.7770 O   0  0  0  0  0  0  0  0  0  0  0  0
  162.2152  147.7805  127.7356 C   0  0  0  0  0  0  0  0  0  0  0  0
  162.9204  148.6728  126.7136 C   0  0  2  0  0  0  0  0  0  0  0  0
  163.6704  147.8113  125.8553 N   0  0  0  0  0  0  0  0  0  0  0  0
  162.8645  147.1150  124.8988 C   0  0  1  0  0  0  0  0  0  0  0  0
  162.0078  147.9077  124.1791 O   0  0  0  0  0  0  0  0  0  0  0  0
  163.7849  146.3439  123.9739 C   0  0  2  0  0  0  0  0  0  0  0  0
  164.6557  145.3821  124.7061 C   0  0  0  0  0  0  0  0  0  0  0  0
  166.0972  145.7010  124.6540 C   0  0  0  0  0  0  0  0  0  0  0  0
  167.0719  144.7531  124.8812 C   0  0  0  0  0  0  0  0  0  0  0  0
  168.4315  145.0535  124.8198 C   0  0  0  0  0  0  0  0  0  0  0  0
  169.4234  143.9851  125.0754 C   0  0  0  0  0  0  0  0  0  0  0  0
  168.8145  146.3420  124.5215 C   0  0  0  0  0  0  0  0  0  0  0  0
  170.1639  146.6293  124.4627 O   0  0  0  0  0  0  0  0  0  0  0  0
  170.8295  147.4688  125.3745 C   0  0  0  0  0  0  0  0  0  0  0  0
  167.8750  147.3206  124.2873 C   0  0  0  0  0  0  0  0  0  0  0  0
  168.2766  148.6144  123.9860 O   0  0  0  0  0  0  0  0  0  0  0  0
  166.5314  146.9957  124.3553 C   0  0  0  0  0  0  0  0  0  0  0  0
  165.4453  147.9746  124.1218 C   0  0  1  0  0  0  0  0  0  0  0  0
  164.4993  147.3534  123.2162 N   0  0  0  0  0  0  0  0  0  0  0  0
  165.0928  146.8361  122.0307 C   0  0  0  0  0  0  0  0  0  0  0  0
  163.7047  149.7276  127.3730 C   0  0  0  0  0  0  0  0  0  0  0  0
  163.0688  150.7082  128.0899 C   0  0  0  0  0  0  0  0  0  0  0  0
  161.7530  151.0030  128.3927 O   0  0  0  0  0  0  0  0  0  0  0  0
  161.6790  152.3315  128.8821 C   0  0  0  0  0  0  0  0  0  0  0  0
  162.9797  152.5868  129.3756 O   0  0  0  0  0  0  0  0  0  0  0  0
  163.8227  151.7068  128.7111 C   0  0  0  0  0  0  0  0  0  0  0  0
  165.1986  151.7444  128.6297 C   0  0  0  0  0  0  0  0  0  0  0  0
  165.9993  152.8204  129.3000 C   0  0  0  0  0  0  0  0  0  0  0  0
  165.8426  150.7544  127.9057 C   0  0  0  0  0  0  0  0  0  0  0  0
  167.2231  150.7802  127.8135 O   0  0  0  0  0  0  0  0  0  0  0  0
  167.8537  151.3418  126.7301 C   0  0  0  0  0  0  0  0  0  0  0  0
  167.0785  151.6819  125.4883 C   0  0  0  0  0  0  0  0  0  0  0  0
  169.0844  151.5976  126.7142 O   0  0  0  0  0  0  0  0  0  0  0  0
  165.0901  149.7917  127.3092 C   0  0  0  0  0  0  0  0  0  0  0  0
  1  2  1  0
  2  3  1  1
  3  4  1  0
  4  5  1  0
  5  6  1  1
  6  7  1  0
  7  8  1  0
  8  9  1  0
  9 10  2  0
 10 11  1  0
 11 12  2  0
 12 13  1  0
 13 14  1  0
 12 15  1  0
 15 16  1  0
 15 17  2  0
  5 18  1  0
 18 19  2  0
 18 20  1  0
 20 21  1  0
 22 21  1  1
 22 23  1  0
 23 24  1  0
 24 25  1  6
 24 26  1  0
 26 27  1  1
 27 28  1  0
 28 29  2  0
 29 30  1  0
 30 31  1  0
 30 32  2  0
 32 33  1  0
 33 34  1  0
 32 35  1  0
 35 36  1  0
 35 37  2  0
 38 37  1  1
 38 39  1  0
 39 40  1  0
 22 41  1  0
 41 42  2  0
 42 43  1  0
 43 44  1  0
 44 45  1  0
 45 46  1  0
 46 47  2  0
 47 48  1  0
 47 49  1  0
 49 50  1  0
 50 51  1  0
 51 52  1  0
 51 53  2  0
 49 54  2  0
  1 23  1  1
 39 26  1  0
 54 41  1  0
 38  1  1  0
 46 42  1  0
 54  2  1  0
 10  5  1  0
 37 28  1  0
 17  9  1  0
M  END
$$$$
