
     RDKit          3D

 54 62  0  0  0  0  0  0  0  0999 V2000
  171.9794  144.5121  123.2440 C   0  0  2  0  0  0  0  0  0  0  0  0
  172.4737  145.0115  124.6104 C   0  0  2  0  0  0  0  0  0  0  0  0
  173.6330  146.3601  124.3103 S   0  0  0  0  0  0  0  0  0  0  0  0
  175.3013  146.0151  124.8318 C   0  0  0  0  0  0  0  0  0  0  0  0
  176.3487  146.7001  123.9861 C   0  0  1  0  0  0  0  0  0  0  0  0
  176.0157  148.1144  123.9958 N   0  0  0  0  0  0  0  0  0  0  0  0
  176.0310  148.6863  125.2981 C   0  0  0  0  0  0  0  0  0  0  0  0
  177.1753  148.3500  126.1732 C   0  0  0  0  0  0  0  0  0  0  0  0
  178.0530  147.2615  125.6784 C   0  0  0  0  0  0  0  0  0  0  0  0
  177.6643  146.4716  124.6382 C   0  0  0  0  0  0  0  0  0  0  0  0
  178.5086  145.4681  124.2052 C   0  0  0  0  0  0  0  0  0  0  0  0
  179.7446  145.2238  124.7843 C   0  0  0  0  0  0  0  0  0  0  0  0
  180.5927  144.2117  124.3454 O   0  0  0  0  0  0  0  0  0  0  0  0
  180.5713  142.9122  124.8657 C   0  0  0  0  0  0  0  0  0  0  0  0
  180.1338  146.0254  125.8365 C   0  0  0  0  0  0  0  0  0  0  0  0
  181.3713  145.8158  126.4509 O   0  0  0  0  0  0  0  0  0  0  0  0
  179.2893  147.0254  126.2658 C   0  0  0  0  0  0  0  0  0  0  0  0
  176.3365  146.2698  122.5667 C   0  0  0  0  0  0  0  0  0  0  0  0
  177.1864  146.8748  121.8265 O   0  0  0  0  0  0  0  0  0  0  0  0
  175.4693  145.3099  122.1581 O   0  0  0  0  0  0  0  0  0  0  0  0
  175.4423  143.9438  122.4099 C   0  0  0  0  0  0  0  0  0  0  0  0
  174.0376  143.4924  122.8112 C   0  0  2  0  0  0  0  0  0  0  0  0
  173.1364  144.5247  122.4063 N   0  0  0  0  0  0  0  0  0  0  0  0
  172.8804  144.5396  120.9979 C   0  0  1  0  0  0  0  0  0  0  0  0
  172.5195  143.3293  120.4637 O   0  0  0  0  0  0  0  0  0  0  0  0
  171.8195  145.5855  120.7193 C   0  0  2  0  0  0  0  0  0  0  0  0
  172.2213  146.9438  121.1807 C   0  0  0  0  0  0  0  0  0  0  0  0
  171.3988  147.4829  122.2831 C   0  0  0  0  0  0  0  0  0  0  0  0
  171.3210  148.8320  122.5550 C   0  0  0  0  0  0  0  0  0  0  0  0
  170.5350  149.3394  123.5881 C   0  0  0  0  0  0  0  0  0  0  0  0
  170.4994  150.8003  123.8230 C   0  0  0  0  0  0  0  0  0  0  0  0
  169.8108  148.4624  124.3642 C   0  0  0  0  0  0  0  0  0  0  0  0
  169.0350  148.9751  125.3851 O   0  0  0  0  0  0  0  0  0  0  0  0
  167.9966  148.2659  126.0157 C   0  0  0  0  0  0  0  0  0  0  0  0
  169.8587  147.1069  124.1283 C   0  0  0  0  0  0  0  0  0  0  0  0
  169.1215  146.2358  124.9180 O   0  0  0  0  0  0  0  0  0  0  0  0
  170.6477  146.6294  123.0964 C   0  0  0  0  0  0  0  0  0  0  0  0
  170.7680  145.1917  122.7632 C   0  0  1  0  0  0  0  0  0  0  0  0
  170.6069  145.0722  121.3277 N   0  0  0  0  0  0  0  0  0  0  0  0
  169.4310  145.6980  120.8269 C   0  0  0  0  0  0  0  0  0  0  0  0
  173.9748  143.1381  124.2370 C   0  0  0  0  0  0  0  0  0  0  0  0
  174.6743  142.0562  124.7062 C   0  0  0  0  0  0  0  0  0  0  0  0
  175.5106  141.1113  124.1426 O   0  0  0  0  0  0  0  0  0  0  0  0
  175.6657  140.0330  125.0498 C   0  0  0  0  0  0  0  0  0  0  0  0
  175.3862  140.6059  126.3124 O   0  0  0  0  0  0  0  0  0  0  0  0
  174.6067  141.7268  126.0621 C   0  0  0  0  0  0  0  0  0  0  0  0
  173.8540  142.4570  126.9573 C   0  0  0  0  0  0  0  0  0  0  0  0
  173.7876  142.0956  128.4110 C   0  0  0  0  0  0  0  0  0  0  0  0
  173.1465  143.5502  126.4849 C   0  0  0  0  0  0  0  0  0  0  0  0
  172.3851  144.2914  127.3714 O   0  0  0  0  0  0  0  0  0  0  0  0
  172.0699  145.6034  127.1147 C   0  0  0  0  0  0  0  0  0  0  0  0
  172.4899  146.6888  128.0657 C   0  0  0  0  0  0  0  0  0  0  0  0
  171.4282  145.9641  126.0956 O   0  0  0  0  0  0  0  0  0  0  0  0
  173.2263  143.8537  125.1619 C   0  0  0  0  0  0  0  0  0  0  0  0
  1  2  1  0
  2  3  1  6
  3  4  1  0
  4  5  1  0
  5  6  1  6
  6  7  1  0
  7  8  1  0
  8  9  1  0
  9 10  2  0
 10 11  1  0
 11 12  2  0
 12 13  1  0
 13 14  1  0
 12 15  1  0
 15 16  1  0
 15 17  2  0
  5 18  1  0
 18 19  2  0
 18 20  1  0
 20 21  1  0
 22 21  1  1
 22 23  1  0
 23 24  1  0
 24 25  1  1
 24 26  1  0
 26 27  1  1
 27 28  1  0
 28 29  2  0
 29 30  1  0
 30 31  1  0
 30 32  2  0
 32 33  1  0
 33 34  1  0
 32 35  1  0
 35 36  1  0
 35 37  2  0
 38 37  1  6
 38 39  1  0
 39 40  1  0
 22 41  1  0
 41 42  2  0
 42 43  1  0
 43 44  1  0
 44 45  1  0
 45 46  1  0
 46 47  2  0
 47 48  1  0
 47 49  1  0
 49 50  1  0
 50 51  1  0
 51 52  1  0
 51 53  2  0
 49 54  2  0
  1 23  1  6
 39 26  1  0
 54 41  1  0
 38  1  1  0
 46 42  1  0
 54  2  1  0
 10  5  1  0
 37 28  1  0
 17  9  1  0
M  END
$$$$
