
     RDKit          3D

 34 38  0  0  0  0  0  0  0  0999 V2000
  104.6730  167.7328  161.2058 C   0  0  2  0  0  0  0  0  0  0  0  0
  103.1609  167.6040  161.2717 C   0  0  0  0  0  0  0  0  0  0  0  0
  102.5757  168.1774  162.5403 C   0  0  1  0  0  0  0  0  0  0  0  0
  102.7143  167.1708  163.6837 C   0  0  0  0  0  0  0  0  0  0  0  0
  103.2234  169.4809  162.8640 C   0  0  0  0  0  0  0  0  0  0  0  0
  103.8859  169.9872  161.6040 C   0  0  0  0  0  0  0  0  0  0  0  0
  105.1462  169.1245  161.4082 C   0  0  1  0  0  0  0  0  0  0  0  0
  105.8815  169.2651  162.7489 C   0  0  0  0  0  0  0  0  0  0  0  0
  105.9183  169.7477  160.3225 C   0  0  0  0  0  0  0  0  0  0  0  0
  106.2389  168.9434  159.1094 C   0  0  0  0  0  0  0  0  0  0  0  0
  106.4516  167.4746  159.4116 C   0  0  2  0  0  0  0  0  0  0  0  0
  107.6430  167.4131  160.2905 C   0  0  0  0  0  0  0  0  0  0  0  0
  106.5962  166.6984  158.1290 C   0  0  0  0  0  0  0  0  0  0  0  0
  106.7403  167.3410  156.9843 C   0  0  0  0  0  0  0  0  0  0  0  0
  106.8790  166.7136  155.6749 C   0  0  0  0  0  0  0  0  0  0  0  0
  106.8557  165.3974  155.6215 C   0  0  0  0  0  0  0  0  0  0  0  0
  106.9890  164.7606  154.3125 C   0  0  0  0  0  0  0  0  0  0  0  0
  107.1695  165.6064  153.1264 C   0  0  0  0  0  0  0  0  0  0  0  0
  106.9453  163.4391  154.2209 C   0  0  0  0  0  0  0  0  0  0  0  0
  107.0724  162.8184  152.9692 O   0  0  0  0  0  0  0  0  0  0  0  0
  106.7648  162.6258  155.4222 C   0  0  0  0  0  0  0  0  0  0  0  0
  106.7227  161.3539  155.3245 O   0  0  0  0  0  0  0  0  0  0  0  0
  106.6349  163.2730  156.7164 C   0  0  0  0  0  0  0  0  0  0  0  0
  106.6773  164.6130  156.8360 C   0  0  0  0  0  0  0  0  0  0  0  0
  106.6035  165.2010  158.1715 C   0  0  1  0  0  0  0  0  0  0  0  0
  107.7921  164.6854  159.0247 C   0  0  0  0  0  0  0  0  0  0  0  0
  105.3944  164.7292  158.9466 C   0  0  0  0  0  0  0  0  0  0  0  0
  105.2206  165.5160  160.2329 C   0  0  0  0  0  0  0  0  0  0  0  0
  105.1535  167.0088  160.0071 C   0  0  1  0  0  0  0  0  0  0  0  0
  104.0941  167.1777  158.9055 C   0  0  0  0  0  0  0  0  0  0  0  0
  101.1179  168.3911  162.3744 C   0  0  0  0  0  0  0  0  0  0  0  0
  100.4395  168.6685  163.3935 O   0  0  0  0  0  0  0  0  0  0  0  0
  100.4856  168.2950  161.1395 O   0  0  0  0  0  0  0  0  0  0  0  0
  100.0474  169.5036  160.5245 C   0  0  0  0  0  0  0  0  0  0  0  0
  1  2  1  6
  2  3  1  0
  3  4  1  1
  3  5  1  0
  5  6  1  0
  6  7  1  0
  7  8  1  1
  7  9  1  0
  9 10  1  0
 10 11  1  0
 11 12  1  1
 11 13  1  0
 13 14  2  0
 14 15  1  0
 15 16  2  0
 16 17  1  0
 17 18  1  0
 17 19  2  0
 19 20  1  0
 19 21  1  0
 21 22  2  0
 21 23  1  0
 23 24  2  0
 24 25  1  0
 25 26  1  1
 25 27  1  0
 27 28  1  0
 28 29  1  0
 29 30  1  6
  3 31  1  0
 31 32  2  0
 31 33  1  0
 33 34  1  0
  7  1  1  0
 29 11  1  0
 29  1  1  0
 25 13  1  0
 24 16  1  0
M  END
$$$$
