
     RDKit          3D

 34 38  0  0  0  0  0  0  0  0999 V2000
  130.5981  134.5438  132.1161 C   0  0  2  0  0  0  0  0  0  0  0  0
  130.0121  134.2753  133.4915 C   0  0  0  0  0  0  0  0  0  0  0  0
  129.7934  132.8057  133.7619 C   0  0  1  0  0  0  0  0  0  0  0  0
  128.4889  132.3412  133.1120 C   0  0  0  0  0  0  0  0  0  0  0  0
  130.9647  132.0141  133.2878 C   0  0  0  0  0  0  0  0  0  0  0  0
  132.1273  132.9665  133.1329 C   0  0  0  0  0  0  0  0  0  0  0  0
  131.8446  133.7815  131.8575 C   0  0  1  0  0  0  0  0  0  0  0  0
  131.6159  132.7000  130.7916 C   0  0  0  0  0  0  0  0  0  0  0  0
  133.0661  134.5480  131.5684 C   0  0  0  0  0  0  0  0  0  0  0  0
  132.9852  136.0341  131.4887 C   0  0  0  0  0  0  0  0  0  0  0  0
  131.6625  136.5267  130.9396 C   0  0  2  0  0  0  0  0  0  0  0  0
  131.5911  136.0212  129.5485 C   0  0  0  0  0  0  0  0  0  0  0  0
  131.5830  138.0268  131.0507 C   0  0  0  0  0  0  0  0  0  0  0  0
  132.6601  138.7203  131.3715 C   0  0  0  0  0  0  0  0  0  0  0  0
  132.7175  140.1698  131.5226 C   0  0  0  0  0  0  0  0  0  0  0  0
  131.6060  140.8499  131.3280 C   0  0  0  0  0  0  0  0  0  0  0  0
  131.6536  142.3026  131.4822 C   0  0  0  0  0  0  0  0  0  0  0  0
  132.9330  142.9397  131.8172 C   0  0  0  0  0  0  0  0  0  0  0  0
  130.5476  143.0142  131.3173 C   0  0  0  0  0  0  0  0  0  0  0  0
  130.5830  144.4091  131.4631 O   0  0  0  0  0  0  0  0  0  0  0  0
  129.2896  142.3484  130.9835 C   0  0  0  0  0  0  0  0  0  0  0  0
  128.2292  143.0415  130.8276 O   0  0  0  0  0  0  0  0  0  0  0  0
  129.2582  140.9039  130.8323 C   0  0  0  0  0  0  0  0  0  0  0  0
  130.3678  140.1592  130.9933 C   0  0  0  0  0  0  0  0  0  0  0  0
  130.2847  138.7181  130.7668 C   0  0  1  0  0  0  0  0  0  0  0  0
  129.8345  138.4544  129.3059 C   0  0  0  0  0  0  0  0  0  0  0  0
  129.1948  138.0645  131.5853 C   0  0  0  0  0  0  0  0  0  0  0  0
  129.2733  136.5509  131.5023 C   0  0  0  0  0  0  0  0  0  0  0  0
  130.6273  136.0076  131.8963 C   0  0  1  0  0  0  0  0  0  0  0  0
  130.9240  136.6755  133.2491 C   0  0  0  0  0  0  0  0  0  0  0  0
  129.6147  132.5792  135.2163 C   0  0  0  0  0  0  0  0  0  0  0  0
  128.8463  131.6567  135.5828 O   0  0  0  0  0  0  0  0  0  0  0  0
  130.2643  133.3477  136.1762 O   0  0  0  0  0  0  0  0  0  0  0  0
  129.7291  134.6364  136.4655 C   0  0  0  0  0  0  0  0  0  0  0  0
  1  2  1  1
  2  3  1  0
  3  4  1  6
  3  5  1  0
  5  6  1  0
  6  7  1  0
  7  8  1  6
  7  9  1  0
  9 10  1  0
 10 11  1  0
 11 12  1  6
 11 13  1  0
 13 14  2  0
 14 15  1  0
 15 16  2  0
 16 17  1  0
 17 18  1  0
 17 19  2  0
 19 20  1  0
 19 21  1  0
 21 22  2  0
 21 23  1  0
 23 24  2  0
 24 25  1  0
 25 26  1  6
 25 27  1  0
 27 28  1  0
 28 29  1  0
 29 30  1  1
  3 31  1  0
 31 32  2  0
 31 33  1  0
 33 34  1  0
  7  1  1  0
 29 11  1  0
 29  1  1  0
 25 13  1  0
 24 16  1  0
M  END
$$$$
