
     RDKit          3D

 34 38  0  0  0  0  0  0  0  0999 V2000
  138.8862  162.2970  157.1478 C   0  0  2  0  0  0  0  0  0  0  0  0
  138.9242  162.1170  158.6555 C   0  0  0  0  0  0  0  0  0  0  0  0
  140.3155  161.8587  159.1829 C   0  0  1  0  0  0  0  0  0  0  0  0
  140.6828  160.3858  158.9947 C   0  0  0  0  0  0  0  0  0  0  0  0
  141.2953  162.7663  158.5198 C   0  0  0  0  0  0  0  0  0  0  0  0
  140.5189  163.9120  157.9134 C   0  0  0  0  0  0  0  0  0  0  0  0
  139.8223  163.3417  156.6642 C   0  0  1  0  0  0  0  0  0  0  0  0
  140.9789  162.7177  155.8697 C   0  0  0  0  0  0  0  0  0  0  0  0
  139.2516  164.4880  155.9406 C   0  0  0  0  0  0  0  0  0  0  0  0
  137.7854  164.5180  155.6753 C   0  0  0  0  0  0  0  0  0  0  0  0
  137.1955  163.1412  155.4512 C   0  0  2  0  0  0  0  0  0  0  0  0
  137.8401  162.6226  154.2219 C   0  0  0  0  0  0  0  0  0  0  0  0
  135.6943  163.2295  155.3648 C   0  0  0  0  0  0  0  0  0  0  0  0
  135.1095  164.4099  155.2711 C   0  0  0  0  0  0  0  0  0  0  0  0
  133.6708  164.6359  155.1918 C   0  0  0  0  0  0  0  0  0  0  0  0
  132.8831  163.5801  155.2190 C   0  0  0  0  0  0  0  0  0  0  0  0
  131.4396  163.7980  155.1449 C   0  0  0  0  0  0  0  0  0  0  0  0
  130.9341  165.1702  155.0164 C   0  0  0  0  0  0  0  0  0  0  0  0
  130.6182  162.7589  155.1943 C   0  0  0  0  0  0  0  0  0  0  0  0
  129.2312  162.9576  155.1239 O   0  0  0  0  0  0  0  0  0  0  0  0
  131.1545  161.4050  155.3221 C   0  0  0  0  0  0  0  0  0  0  0  0
  130.3560  160.4104  155.3701 O   0  0  0  0  0  0  0  0  0  0  0  0
  132.5916  161.2041  155.3934 C   0  0  0  0  0  0  0  0  0  0  0  0
  133.4465  162.2426  155.3440 C   0  0  0  0  0  0  0  0  0  0  0  0
  134.8820  161.9708  155.3576 C   0  0  1  0  0  0  0  0  0  0  0  0
  135.2487  161.0923  154.1327 C   0  0  0  0  0  0  0  0  0  0  0  0
  135.2990  161.1145  156.5314 C   0  0  0  0  0  0  0  0  0  0  0  0
  136.8102  161.0321  156.6468 C   0  0  0  0  0  0  0  0  0  0  0  0
  137.4712  162.3891  156.7220 C   0  0  1  0  0  0  0  0  0  0  0  0
  136.6989  163.1253  157.8292 C   0  0  0  0  0  0  0  0  0  0  0  0
  140.3544  162.0934  160.6464 C   0  0  0  0  0  0  0  0  0  0  0  0
  139.2712  162.3179  161.2400 O   0  0  0  0  0  0  0  0  0  0  0  0
  141.5394  162.0729  161.3740 O   0  0  0  0  0  0  0  0  0  0  0  0
  142.1671  160.8104  161.5810 C   0  0  0  0  0  0  0  0  0  0  0  0
  1  2  1  1
  2  3  1  0
  3  4  1  1
  3  5  1  0
  5  6  1  0
  6  7  1  0
  7  8  1  6
  7  9  1  0
  9 10  1  0
 10 11  1  0
 11 12  1  6
 11 13  1  0
 13 14  2  0
 14 15  1  0
 15 16  2  0
 16 17  1  0
 17 18  1  0
 17 19  2  0
 19 20  1  0
 19 21  1  0
 21 22  2  0
 21 23  1  0
 23 24  2  0
 24 25  1  0
 25 26  1  6
 25 27  1  0
 27 28  1  0
 28 29  1  0
 29 30  1  1
  3 31  1  0
 31 32  2  0
 31 33  1  0
 33 34  1  0
  7  1  1  0
 29 11  1  0
 29  1  1  0
 25 13  1  0
 24 16  1  0
M  END
$$$$
