
     RDKit          3D

 34 38  0  0  0  0  0  0  0  0999 V2000
  146.6792  169.4501  129.0898 C   0  0  2  0  0  0  0  0  0  0  0  0
  147.5402  170.2972  128.1689 C   0  0  0  0  0  0  0  0  0  0  0  0
  146.7554  170.9264  127.0425 C   0  0  1  0  0  0  0  0  0  0  0  0
  146.5461  169.9111  125.9178 C   0  0  0  0  0  0  0  0  0  0  0  0
  145.4628  171.4665  127.5532 C   0  0  0  0  0  0  0  0  0  0  0  0
  145.5882  171.6108  129.0520 C   0  0  0  0  0  0  0  0  0  0  0  0
  145.5069  170.1845  129.6265 C   0  0  1  0  0  0  0  0  0  0  0  0
  144.1992  169.6399  129.0338 C   0  0  0  0  0  0  0  0  0  0  0  0
  145.3989  170.3245  131.0866 C   0  0  0  0  0  0  0  0  0  0  0  0
  146.4253  169.6784  131.9527 C   0  0  0  0  0  0  0  0  0  0  0  0
  146.9549  168.3815  131.3771 C   0  0  2  0  0  0  0  0  0  0  0  0
  145.7960  167.4594  131.3299 C   0  0  0  0  0  0  0  0  0  0  0  0
  148.1048  167.8777  132.2094 C   0  0  0  0  0  0  0  0  0  0  0  0
  148.3662  168.4371  133.3767 C   0  0  0  0  0  0  0  0  0  0  0  0
  149.4515  168.0544  134.2728 C   0  0  0  0  0  0  0  0  0  0  0  0
  150.2428  167.0726  133.8911 C   0  0  0  0  0  0  0  0  0  0  0  0
  151.3360  166.6860  134.7811 C   0  0  0  0  0  0  0  0  0  0  0  0
  151.4879  167.3833  136.0639 C   0  0  0  0  0  0  0  0  0  0  0  0
  152.1650  165.7184  134.4161 C   0  0  0  0  0  0  0  0  0  0  0  0
  153.2173  165.3400  135.2632 O   0  0  0  0  0  0  0  0  0  0  0  0
  151.9854  165.0437  133.1316 C   0  0  0  0  0  0  0  0  0  0  0  0
  152.7892  164.1138  132.7878 O   0  0  0  0  0  0  0  0  0  0  0  0
  150.8935  165.4382  132.2583 C   0  0  0  0  0  0  0  0  0  0  0  0
  150.0375  166.4169  132.6066 C   0  0  0  0  0  0  0  0  0  0  0  0
  148.9230  166.7250  131.7135 C   0  0  1  0  0  0  0  0  0  0  0  0
  148.0386  165.4619  131.5432 C   0  0  0  0  0  0  0  0  0  0  0  0
  149.3758  167.0199  130.3017 C   0  0  0  0  0  0  0  0  0  0  0  0
  148.2337  167.5497  129.4539 C   0  0  0  0  0  0  0  0  0  0  0  0
  147.5637  168.7623  130.0576 C   0  0  1  0  0  0  0  0  0  0  0  0
  148.7265  169.7142  130.3834 C   0  0  0  0  0  0  0  0  0  0  0  0
  147.5353  172.0330  126.4378 C   0  0  0  0  0  0  0  0  0  0  0  0
  148.2965  171.7656  125.4761 O   0  0  0  0  0  0  0  0  0  0  0  0
  147.4511  173.3429  126.8972 O   0  0  0  0  0  0  0  0  0  0  0  0
  146.5172  174.2094  126.2587 C   0  0  0  0  0  0  0  0  0  0  0  0
  1  2  1  1
  2  3  1  0
  3  4  1  6
  3  5  1  0
  5  6  1  0
  6  7  1  0
  7  8  1  6
  7  9  1  0
  9 10  1  0
 10 11  1  0
 11 12  1  6
 11 13  1  0
 13 14  2  0
 14 15  1  0
 15 16  2  0
 16 17  1  0
 17 18  1  0
 17 19  2  0
 19 20  1  0
 19 21  1  0
 21 22  2  0
 21 23  1  0
 23 24  2  0
 24 25  1  0
 25 26  1  6
 25 27  1  0
 27 28  1  0
 28 29  1  0
 29 30  1  1
  3 31  1  0
 31 32  2  0
 31 33  1  0
 33 34  1  0
  7  1  1  0
 29 11  1  0
 29  1  1  0
 25 13  1  0
 24 16  1  0
M  END
$$$$
