
     RDKit          3D

 34 38  0  0  0  0  0  0  0  0999 V2000
  132.6736  185.2560  150.4164 C   0  0  2  0  0  0  0  0  0  0  0  0
  133.9387  184.4636  150.6972 C   0  0  0  0  0  0  0  0  0  0  0  0
  135.1964  185.2815  150.5243 C   0  0  1  0  0  0  0  0  0  0  0  0
  135.5712  185.3609  149.0434 C   0  0  0  0  0  0  0  0  0  0  0  0
  135.0195  186.6336  151.1275 C   0  0  0  0  0  0  0  0  0  0  0  0
  133.8513  186.5584  152.0828 C   0  0  0  0  0  0  0  0  0  0  0  0
  132.5860  186.5087  151.2068 C   0  0  1  0  0  0  0  0  0  0  0  0
  132.7350  187.7405  150.3021 C   0  0  0  0  0  0  0  0  0  0  0  0
  131.4393  186.6644  152.1146 C   0  0  0  0  0  0  0  0  0  0  0  0
  130.3984  185.5985  152.1539 C   0  0  0  0  0  0  0  0  0  0  0  0
  130.1868  184.9273  150.8128 C   0  0  2  0  0  0  0  0  0  0  0  0
  129.6784  185.9857  149.9089 C   0  0  0  0  0  0  0  0  0  0  0  0
  129.2567  183.7522  150.9636 C   0  0  0  0  0  0  0  0  0  0  0  0
  128.5980  183.5760  152.0946 C   0  0  0  0  0  0  0  0  0  0  0  0
  127.6787  182.4788  152.3747 C   0  0  0  0  0  0  0  0  0  0  0  0
  127.4874  181.5837  151.4271 C   0  0  0  0  0  0  0  0  0  0  0  0
  126.5714  180.4782  151.7013 C   0  0  0  0  0  0  0  0  0  0  0  0
  125.8879  180.4275  152.9994 C   0  0  0  0  0  0  0  0  0  0  0  0
  126.3752  179.5473  150.7783 C   0  0  0  0  0  0  0  0  0  0  0  0
  125.4980  178.4823  151.0319 O   0  0  0  0  0  0  0  0  0  0  0  0
  127.0715  179.6278  149.4953 C   0  0  0  0  0  0  0  0  0  0  0  0
  126.8775  178.7265  148.6129 O   0  0  0  0  0  0  0  0  0  0  0  0
  127.9780  180.7333  149.2369 C   0  0  0  0  0  0  0  0  0  0  0  0
  128.1931  181.6917  150.1572 C   0  0  0  0  0  0  0  0  0  0  0  0
  129.0680  182.8104  149.8140 C   0  0  1  0  0  0  0  0  0  0  0  0
  128.4852  183.5585  148.5862 C   0  0  0  0  0  0  0  0  0  0  0  0
  130.4253  182.3568  149.3272 C   0  0  0  0  0  0  0  0  0  0  0  0
  131.3829  183.5264  149.1902 C   0  0  0  0  0  0  0  0  0  0  0  0
  131.5198  184.3294  150.4631 C   0  0  1  0  0  0  0  0  0  0  0  0
  131.8118  183.2766  151.5451 C   0  0  0  0  0  0  0  0  0  0  0  0
  136.3367  184.6034  151.1863 C   0  0  0  0  0  0  0  0  0  0  0  0
  136.8396  185.1437  152.2018 O   0  0  0  0  0  0  0  0  0  0  0  0
  136.8608  183.4014  150.7231 O   0  0  0  0  0  0  0  0  0  0  0  0
  138.2790  183.2650  150.6944 C   0  0  0  0  0  0  0  0  0  0  0  0
  1  2  1  1
  2  3  1  0
  3  4  1  6
  3  5  1  0
  5  6  1  0
  6  7  1  0
  7  8  1  6
  7  9  1  0
  9 10  1  0
 10 11  1  0
 11 12  1  6
 11 13  1  0
 13 14  2  0
 14 15  1  0
 15 16  2  0
 16 17  1  0
 17 18  1  0
 17 19  2  0
 19 20  1  0
 19 21  1  0
 21 22  2  0
 21 23  1  0
 23 24  2  0
 24 25  1  0
 25 26  1  6
 25 27  1  0
 27 28  1  0
 28 29  1  0
 29 30  1  1
  3 31  1  0
 31 32  2  0
 31 33  1  0
 33 34  1  0
  7  1  1  0
 29 11  1  0
 29  1  1  0
 25 13  1  0
 24 16  1  0
M  END
$$$$
