
     RDKit          3D

 34 38  0  0  0  0  0  0  0  0999 V2000
  187.7128  181.7907  130.9037 C   0  0  2  0  0  0  0  0  0  0  0  0
  186.8989  182.1759  129.6804 C   0  0  0  0  0  0  0  0  0  0  0  0
  185.7741  183.1321  129.9986 C   0  0  1  0  0  0  0  0  0  0  0  0
  184.5754  182.3643  130.5582 C   0  0  0  0  0  0  0  0  0  0  0  0
  186.2462  184.1896  130.9378 C   0  0  0  0  0  0  0  0  0  0  0  0
  187.7559  184.2110  130.8802 C   0  0  0  0  0  0  0  0  0  0  0  0
  188.2302  182.9644  131.6496 C   0  0  1  0  0  0  0  0  0  0  0  0
  187.5310  183.1026  133.0098 C   0  0  0  0  0  0  0  0  0  0  0  0
  189.6880  183.0908  131.7978 C   0  0  0  0  0  0  0  0  0  0  0  0
  190.5659  182.0168  131.2526 C   0  0  0  0  0  0  0  0  0  0  0  0
  189.9368  180.6413  131.3299 C   0  0  2  0  0  0  0  0  0  0  0  0
  189.7647  180.3582  132.7742 C   0  0  0  0  0  0  0  0  0  0  0  0
  190.7972  179.6378  130.6077 C   0  0  0  0  0  0  0  0  0  0  0  0
  192.0115  179.9757  130.2136 C   0  0  0  0  0  0  0  0  0  0  0  0
  192.9398  179.1074  129.4984 C   0  0  0  0  0  0  0  0  0  0  0  0
  192.5393  177.8846  129.2153 C   0  0  0  0  0  0  0  0  0  0  0  0
  193.4616  177.0093  128.4944 C   0  0  0  0  0  0  0  0  0  0  0  0
  194.7939  177.5161  128.1435 C   0  0  0  0  0  0  0  0  0  0  0  0
  193.0808  175.7811  128.1728 C   0  0  0  0  0  0  0  0  0  0  0  0
  193.9587  174.9333  127.4809 O   0  0  0  0  0  0  0  0  0  0  0  0
  191.7468  175.3072  128.5377 C   0  0  0  0  0  0  0  0  0  0  0  0
  191.3882  174.1234  128.2230 O   0  0  0  0  0  0  0  0  0  0  0  0
  190.8417  176.1883  129.2553 C   0  0  0  0  0  0  0  0  0  0  0  0
  191.2051  177.4392  129.5944 C   0  0  0  0  0  0  0  0  0  0  0  0
  190.2732  178.2547  130.3699 C   0  0  1  0  0  0  0  0  0  0  0  0
  189.9714  177.5468  131.7168 C   0  0  0  0  0  0  0  0  0  0  0  0
  188.9113  178.3539  129.7214 C   0  0  0  0  0  0  0  0  0  0  0  0
  188.0377  179.3773  130.4236 C   0  0  0  0  0  0  0  0  0  0  0  0
  188.6812  180.7418  130.5114 C   0  0  1  0  0  0  0  0  0  0  0  0
  189.1332  181.0403  129.0724 C   0  0  0  0  0  0  0  0  0  0  0  0
  185.2879  183.7744  128.7538 C   0  0  0  0  0  0  0  0  0  0  0  0
  184.9636  183.0351  127.7926 O   0  0  0  0  0  0  0  0  0  0  0  0
  185.1809  185.1544  128.6192 O   0  0  0  0  0  0  0  0  0  0  0  0
  186.2658  185.8457  128.0061 C   0  0  0  0  0  0  0  0  0  0  0  0
  1  2  1  6
  2  3  1  0
  3  4  1  1
  3  5  1  0
  5  6  1  0
  6  7  1  0
  7  8  1  1
  7  9  1  0
  9 10  1  0
 10 11  1  0
 11 12  1  1
 11 13  1  0
 13 14  2  0
 14 15  1  0
 15 16  2  0
 16 17  1  0
 17 18  1  0
 17 19  2  0
 19 20  1  0
 19 21  1  0
 21 22  2  0
 21 23  1  0
 23 24  2  0
 24 25  1  0
 25 26  1  1
 25 27  1  0
 27 28  1  0
 28 29  1  0
 29 30  1  6
  3 31  1  0
 31 32  2  0
 31 33  1  0
 33 34  1  0
  7  1  1  0
 29 11  1  0
 29  1  1  0
 25 13  1  0
 24 16  1  0
M  END
$$$$
