
     RDKit          3D

 34 38  0  0  0  0  0  0  0  0999 V2000
  202.6891  133.2757  133.2422 C   0  0  2  0  0  0  0  0  0  0  0  0
  201.2441  132.8277  133.3778 C   0  0  0  0  0  0  0  0  0  0  0  0
  201.1116  131.3675  133.7394 C   0  0  1  0  0  0  0  0  0  0  0  0
  201.2661  130.5011  132.4883 C   0  0  0  0  0  0  0  0  0  0  0  0
  202.1020  131.0052  134.7937 C   0  0  0  0  0  0  0  0  0  0  0  0
  202.5619  132.2870  135.4482 C   0  0  0  0  0  0  0  0  0  0  0  0
  203.5077  132.9656  134.4403 C   0  0  1  0  0  0  0  0  0  0  0  0
  204.5391  131.8705  134.1324 C   0  0  0  0  0  0  0  0  0  0  0  0
  204.1378  134.0913  135.1467 C   0  0  0  0  0  0  0  0  0  0  0  0
  203.9787  135.4684  134.5994 C   0  0  0  0  0  0  0  0  0  0  0  0
  203.9048  135.4999  133.0869 C   0  0  2  0  0  0  0  0  0  0  0  0
  205.2159  135.0009  132.6096 C   0  0  0  0  0  0  0  0  0  0  0  0
  203.5701  136.8904  132.6144 C   0  0  0  0  0  0  0  0  0  0  0  0
  203.5977  137.8989  133.4667 C   0  0  0  0  0  0  0  0  0  0  0  0
  203.2859  139.2866  133.1437 C   0  0  0  0  0  0  0  0  0  0  0  0
  202.9442  139.5639  131.9019 C   0  0  0  0  0  0  0  0  0  0  0  0
  202.6254  140.9515  131.5708 C   0  0  0  0  0  0  0  0  0  0  0  0
  202.7255  141.9731  132.6202 C   0  0  0  0  0  0  0  0  0  0  0  0
  202.2545  141.2605  130.3364 C   0  0  0  0  0  0  0  0  0  0  0  0
  201.9465  142.5893  130.0086 O   0  0  0  0  0  0  0  0  0  0  0  0
  202.1655  140.2188  129.3145 C   0  0  0  0  0  0  0  0  0  0  0  0
  201.8063  140.5252  128.1287 O   0  0  0  0  0  0  0  0  0  0  0  0
  202.4866  138.8443  129.6584 C   0  0  0  0  0  0  0  0  0  0  0  0
  202.8669  138.5053  130.9042 C   0  0  0  0  0  0  0  0  0  0  0  0
  203.2366  137.1172  131.1717 C   0  0  1  0  0  0  0  0  0  0  0  0
  204.4331  136.7222  130.2668 C   0  0  0  0  0  0  0  0  0  0  0  0
  202.1583  136.1407  130.7610 C   0  0  0  0  0  0  0  0  0  0  0  0
  202.4688  134.7370  131.2480 C   0  0  0  0  0  0  0  0  0  0  0  0
  202.7032  134.6682  132.7394 C   0  0  1  0  0  0  0  0  0  0  0  0
  201.4917  135.3946  133.3468 C   0  0  0  0  0  0  0  0  0  0  0  0
  199.7455  131.0928  134.2460 C   0  0  0  0  0  0  0  0  0  0  0  0
  198.9637  130.4350  133.5168 O   0  0  0  0  0  0  0  0  0  0  0  0
  199.3080  131.5359  135.4895 O   0  0  0  0  0  0  0  0  0  0  0  0
  198.5255  132.7262  135.5302 C   0  0  0  0  0  0  0  0  0  0  0  0
  1  2  1  1
  2  3  1  0
  3  4  1  6
  3  5  1  0
  5  6  1  0
  6  7  1  0
  7  8  1  6
  7  9  1  0
  9 10  1  0
 10 11  1  0
 11 12  1  6
 11 13  1  0
 13 14  2  0
 14 15  1  0
 15 16  2  0
 16 17  1  0
 17 18  1  0
 17 19  2  0
 19 20  1  0
 19 21  1  0
 21 22  2  0
 21 23  1  0
 23 24  2  0
 24 25  1  0
 25 26  1  6
 25 27  1  0
 27 28  1  0
 28 29  1  0
 29 30  1  1
  3 31  1  0
 31 32  2  0
 31 33  1  0
 33 34  1  0
  7  1  1  0
 29 11  1  0
 29  1  1  0
 25 13  1  0
 24 16  1  0
M  END
$$$$
