
     RDKit          3D

 34 38  0  0  0  0  0  0  0  0999 V2000
  182.3323  162.1161  140.8045 C   0  0  2  0  0  0  0  0  0  0  0  0
  182.0741  160.7735  141.4662 C   0  0  0  0  0  0  0  0  0  0  0  0
  180.9801  160.8299  142.5058 C   0  0  1  0  0  0  0  0  0  0  0  0
  181.5353  161.3756  143.8225 C   0  0  0  0  0  0  0  0  0  0  0  0
  179.8342  161.6422  142.0052 C   0  0  0  0  0  0  0  0  0  0  0  0
  179.9611  161.7337  140.5024 C   0  0  0  0  0  0  0  0  0  0  0  0
  181.1073  162.7253  140.2303 C   0  0  1  0  0  0  0  0  0  0  0  0
  180.6903  163.9722  141.0236 C   0  0  0  0  0  0  0  0  0  0  0  0
  181.0934  162.9982  138.7851 C   0  0  0  0  0  0  0  0  0  0  0  0
  182.3167  162.7113  137.9835 C   0  0  0  0  0  0  0  0  0  0  0  0
  183.5986  162.9309  138.7596 C   0  0  2  0  0  0  0  0  0  0  0  0
  183.6306  164.3767  139.0826 C   0  0  0  0  0  0  0  0  0  0  0  0
  184.7791  162.4576  137.9527 C   0  0  0  0  0  0  0  0  0  0  0  0
  184.6214  162.1409  136.6803 C   0  0  0  0  0  0  0  0  0  0  0  0
  185.6743  161.6609  135.7925 C   0  0  0  0  0  0  0  0  0  0  0  0
  186.8846  161.5262  136.2953 C   0  0  0  0  0  0  0  0  0  0  0  0
  187.9446  161.0410  135.4136 C   0  0  0  0  0  0  0  0  0  0  0  0
  187.6249  160.7534  134.0101 C   0  0  0  0  0  0  0  0  0  0  0  0
  189.1682  160.8711  135.8942 C   0  0  0  0  0  0  0  0  0  0  0  0
  190.1924  160.4059  135.0561 O   0  0  0  0  0  0  0  0  0  0  0  0
  189.4532  161.1674  137.2972 C   0  0  0  0  0  0  0  0  0  0  0  0
  190.6339  160.9998  137.7517 O   0  0  0  0  0  0  0  0  0  0  0  0
  188.3895  161.6501  138.1610 C   0  0  0  0  0  0  0  0  0  0  0  0
  187.1393  161.8321  137.6966 C   0  0  0  0  0  0  0  0  0  0  0  0
  186.1284  162.3789  138.5988 C   0  0  1  0  0  0  0  0  0  0  0  0
  186.5816  163.7798  139.0873 C   0  0  0  0  0  0  0  0  0  0  0  0
  186.0092  161.5896  139.8825 C   0  0  0  0  0  0  0  0  0  0  0  0
  184.8110  162.0390  140.6987 C   0  0  0  0  0  0  0  0  0  0  0  0
  183.5149  161.9849  139.9234 C   0  0  1  0  0  0  0  0  0  0  0  0
  183.4925  160.5700  139.3220 C   0  0  0  0  0  0  0  0  0  0  0  0
  180.5026  159.4604  142.8138 C   0  0  0  0  0  0  0  0  0  0  0  0
  180.6292  159.0386  143.9893 O   0  0  0  0  0  0  0  0  0  0  0  0
  179.9253  158.6379  141.8524 O   0  0  0  0  0  0  0  0  0  0  0  0
  178.8652  159.1789  141.0687 C   0  0  0  0  0  0  0  0  0  0  0  0
  1  2  1  6
  2  3  1  0
  3  4  1  1
  3  5  1  0
  5  6  1  0
  6  7  1  0
  7  8  1  1
  7  9  1  0
  9 10  1  0
 10 11  1  0
 11 12  1  1
 11 13  1  0
 13 14  2  0
 14 15  1  0
 15 16  2  0
 16 17  1  0
 17 18  1  0
 17 19  2  0
 19 20  1  0
 19 21  1  0
 21 22  2  0
 21 23  1  0
 23 24  2  0
 24 25  1  0
 25 26  1  1
 25 27  1  0
 27 28  1  0
 28 29  1  0
 29 30  1  6
  3 31  1  0
 31 32  2  0
 31 33  1  0
 33 34  1  0
  7  1  1  0
 29 11  1  0
 29  1  1  0
 25 13  1  0
 24 16  1  0
M  END
$$$$
