
     RDKit          3D

 34 38  0  0  0  0  0  0  0  0999 V2000
  186.3428  170.1384  120.7440 C   0  0  2  0  0  0  0  0  0  0  0  0
  186.1741  170.3737  119.2529 C   0  0  0  0  0  0  0  0  0  0  0  0
  185.5162  171.6955  118.9359 C   0  0  1  0  0  0  0  0  0  0  0  0
  183.9992  171.5772  119.0920 C   0  0  0  0  0  0  0  0  0  0  0  0
  186.0824  172.7732  119.7970 C   0  0  0  0  0  0  0  0  0  0  0  0
  187.4021  172.2774  120.3408 C   0  0  0  0  0  0  0  0  0  0  0  0
  187.0546  171.2454  121.4293 C   0  0  1  0  0  0  0  0  0  0  0  0
  186.1054  172.0177  122.3571 C   0  0  0  0  0  0  0  0  0  0  0  0
  188.3121  170.9237  122.1210 C   0  0  0  0  0  0  0  0  0  0  0  0
  188.7772  169.5082  122.1544 C   0  0  0  0  0  0  0  0  0  0  0  0
  187.6380  168.5112  122.2013 C   0  0  2  0  0  0  0  0  0  0  0  0
  186.9384  168.7599  123.4837 C   0  0  0  0  0  0  0  0  0  0  0  0
  188.1709  167.1099  122.0563 C   0  0  0  0  0  0  0  0  0  0  0  0
  189.4712  166.8904  122.1268 C   0  0  0  0  0  0  0  0  0  0  0  0
  190.1168  165.5894  121.9927 C   0  0  0  0  0  0  0  0  0  0  0  0
  189.3456  164.5426  121.7799 C   0  0  0  0  0  0  0  0  0  0  0  0
  189.9850  163.2356  121.6394 C   0  0  0  0  0  0  0  0  0  0  0  0
  191.4442  163.1414  121.7680 C   0  0  0  0  0  0  0  0  0  0  0  0
  189.2400  162.1657  121.4005 C   0  0  0  0  0  0  0  0  0  0  0  0
  189.8441  160.9069  121.2641 O   0  0  0  0  0  0  0  0  0  0  0  0
  187.7888  162.2943  121.2786 C   0  0  0  0  0  0  0  0  0  0  0  0
  187.0795  161.2588  121.0473 O   0  0  0  0  0  0  0  0  0  0  0  0
  187.1677  163.5997  121.4218 C   0  0  0  0  0  0  0  0  0  0  0  0
  187.9020  164.7010  121.6659 C   0  0  0  0  0  0  0  0  0  0  0  0
  187.2131  165.9746  121.8616 C   0  0  1  0  0  0  0  0  0  0  0  0
  186.2534  165.8567  123.0747 C   0  0  0  0  0  0  0  0  0  0  0  0
  186.2826  166.3119  120.7191 C   0  0  0  0  0  0  0  0  0  0  0  0
  185.7527  167.7293  120.8376 C   0  0  0  0  0  0  0  0  0  0  0  0
  186.8501  168.7625  120.9473 C   0  0  1  0  0  0  0  0  0  0  0  0
  187.7944  168.4371  119.7782 C   0  0  0  0  0  0  0  0  0  0  0  0
  185.7425  172.0459  117.5131 C   0  0  0  0  0  0  0  0  0  0  0  0
  185.4612  173.2100  117.1370 O   0  0  0  0  0  0  0  0  0  0  0  0
  186.2509  171.1359  116.5926 O   0  0  0  0  0  0  0  0  0  0  0  0
  185.3853  170.6957  115.5497 C   0  0  0  0  0  0  0  0  0  0  0  0
  1  2  1  6
  2  3  1  0
  3  4  1  6
  3  5  1  0
  5  6  1  0
  6  7  1  0
  7  8  1  1
  7  9  1  0
  9 10  1  0
 10 11  1  0
 11 12  1  1
 11 13  1  0
 13 14  2  0
 14 15  1  0
 15 16  2  0
 16 17  1  0
 17 18  1  0
 17 19  2  0
 19 20  1  0
 19 21  1  0
 21 22  2  0
 21 23  1  0
 23 24  2  0
 24 25  1  0
 25 26  1  1
 25 27  1  0
 27 28  1  0
 28 29  1  0
 29 30  1  6
  3 31  1  0
 31 32  2  0
 31 33  1  0
 33 34  1  0
  7  1  1  0
 29 11  1  0
 29  1  1  0
 25 13  1  0
 24 16  1  0
M  END
$$$$
