
     RDKit          3D

 34 38  0  0  0  0  0  0  0  0999 V2000
  117.4778  169.4546  146.8824 C   0  0  2  0  0  0  0  0  0  0  0  0
  117.3669  170.7529  146.1020 C   0  0  0  0  0  0  0  0  0  0  0  0
  117.1710  171.9589  146.9897 C   0  0  1  0  0  0  0  0  0  0  0  0
  115.7019  172.0759  147.3991 C   0  0  0  0  0  0  0  0  0  0  0  0
  118.0746  171.8804  148.1732 C   0  0  0  0  0  0  0  0  0  0  0  0
  119.1699  170.8921  147.8470 C   0  0  0  0  0  0  0  0  0  0  0  0
  118.5251  169.4964  147.9326 C   0  0  1  0  0  0  0  0  0  0  0  0
  117.8982  169.4833  149.3344 C   0  0  0  0  0  0  0  0  0  0  0  0
  119.6215  168.5201  147.8429 C   0  0  0  0  0  0  0  0  0  0  0  0
  119.5991  167.5064  146.7506 C   0  0  0  0  0  0  0  0  0  0  0  0
  118.1978  167.0731  146.3730 C   0  0  2  0  0  0  0  0  0  0  0  0
  117.6424  166.4132  147.5779 C   0  0  0  0  0  0  0  0  0  0  0  0
  118.2407  166.1880  145.1550 C   0  0  0  0  0  0  0  0  0  0  0  0
  119.3990  165.7322  144.7140 C   0  0  0  0  0  0  0  0  0  0  0  0
  119.5814  164.8794  143.5449 C   0  0  0  0  0  0  0  0  0  0  0  0
  118.5066  164.5342  142.8656 C   0  0  0  0  0  0  0  0  0  0  0  0
  118.6810  163.6837  141.6897 C   0  0  0  0  0  0  0  0  0  0  0  0
  120.0315  163.2312  141.3345 C   0  0  0  0  0  0  0  0  0  0  0  0
  117.6229  163.3380  140.9701 C   0  0  0  0  0  0  0  0  0  0  0  0
  117.7798  162.5220  139.8398 O   0  0  0  0  0  0  0  0  0  0  0  0
  116.2913  163.8055  141.3518 C   0  0  0  0  0  0  0  0  0  0  0  0
  115.2783  163.4687  140.6524 O   0  0  0  0  0  0  0  0  0  0  0  0
  116.1337  164.6494  142.5238 C   0  0  0  0  0  0  0  0  0  0  0  0
  117.1921  165.0131  143.2717 C   0  0  0  0  0  0  0  0  0  0  0  0
  116.9610  165.8112  144.4734 C   0  0  1  0  0  0  0  0  0  0  0  0
  116.0387  165.0245  145.4414 C   0  0  0  0  0  0  0  0  0  0  0  0
  116.1701  167.0683  144.1914 C   0  0  0  0  0  0  0  0  0  0  0  0
  116.1348  167.9828  145.4023 C   0  0  0  0  0  0  0  0  0  0  0  0
  117.5115  168.3302  145.9199 C   0  0  1  0  0  0  0  0  0  0  0  0
  118.2751  168.8073  144.6735 C   0  0  0  0  0  0  0  0  0  0  0  0
  117.4723  173.1985  146.2341 C   0  0  0  0  0  0  0  0  0  0  0  0
  116.7421  173.4885  145.2550 O   0  0  0  0  0  0  0  0  0  0  0  0
  118.5261  174.0406  146.5721 O   0  0  0  0  0  0  0  0  0  0  0  0
  119.8490  173.5224  146.4615 C   0  0  0  0  0  0  0  0  0  0  0  0
  1  2  1  6
  2  3  1  0
  3  4  1  1
  3  5  1  0
  5  6  1  0
  6  7  1  0
  7  8  1  1
  7  9  1  0
  9 10  1  0
 10 11  1  0
 11 12  1  1
 11 13  1  0
 13 14  2  0
 14 15  1  0
 15 16  2  0
 16 17  1  0
 17 18  1  0
 17 19  2  0
 19 20  1  0
 19 21  1  0
 21 22  2  0
 21 23  1  0
 23 24  2  0
 24 25  1  0
 25 26  1  1
 25 27  1  0
 27 28  1  0
 28 29  1  0
 29 30  1  6
  3 31  1  0
 31 32  2  0
 31 33  1  0
 33 34  1  0
  7  1  1  0
 29 11  1  0
 29  1  1  0
 25 13  1  0
 24 16  1  0
M  END
$$$$
