
     RDKit          3D

 34 38  0  0  0  0  0  0  0  0999 V2000
  162.3968  147.7744  126.0389 C   0  0  2  0  0  0  0  0  0  0  0  0
  162.1970  146.5242  126.8782 C   0  0  0  0  0  0  0  0  0  0  0  0
  161.0487  145.6694  126.3973 C   0  0  1  0  0  0  0  0  0  0  0  0
  159.7235  146.2319  126.9143 C   0  0  0  0  0  0  0  0  0  0  0  0
  161.0685  145.5682  124.9098 C   0  0  0  0  0  0  0  0  0  0  0  0
  162.4530  145.9542  124.4440 C   0  0  0  0  0  0  0  0  0  0  0  0
  162.5418  147.4844  124.5910 C   0  0  1  0  0  0  0  0  0  0  0  0
  161.3211  147.9853  123.8056 C   0  0  0  0  0  0  0  0  0  0  0  0
  163.7905  147.8986  123.9334 C   0  0  0  0  0  0  0  0  0  0  0  0
  164.8149  148.6359  124.7261 C   0  0  0  0  0  0  0  0  0  0  0  0
  164.2107  149.5336  125.7857 C   0  0  2  0  0  0  0  0  0  0  0  0
  163.4267  150.5533  125.0499 C   0  0  0  0  0  0  0  0  0  0  0  0
  165.2965  150.1079  126.6575 C   0  0  0  0  0  0  0  0  0  0  0  0
  166.5624  149.9711  126.3069 C   0  0  0  0  0  0  0  0  0  0  0  0
  167.7067  150.4676  127.0627 C   0  0  0  0  0  0  0  0  0  0  0  0
  167.4655  151.1029  128.1914 C   0  0  0  0  0  0  0  0  0  0  0  0
  168.6069  151.5995  128.9576 C   0  0  0  0  0  0  0  0  0  0  0  0
  169.9607  151.3955  128.4279 C   0  0  0  0  0  0  0  0  0  0  0  0
  168.4003  152.2216  130.1096 C   0  0  0  0  0  0  0  0  0  0  0  0
  169.4892  152.7019  130.8523 O   0  0  0  0  0  0  0  0  0  0  0  0
  167.0389  152.4087  130.6086 C   0  0  0  0  0  0  0  0  0  0  0  0
  166.8493  153.0080  131.7194 O   0  0  0  0  0  0  0  0  0  0  0  0
  165.9144  151.9107  129.8353 C   0  0  0  0  0  0  0  0  0  0  0  0
  166.0979  151.2769  128.6621 C   0  0  0  0  0  0  0  0  0  0  0  0
  164.9240  150.8548  127.9015 C   0  0  1  0  0  0  0  0  0  0  0  0
  164.0643  152.0984  127.5540 C   0  0  0  0  0  0  0  0  0  0  0  0
  163.9799  150.0020  128.7180 C   0  0  0  0  0  0  0  0  0  0  0  0
  162.8909  149.3971  127.8510 C   0  0  0  0  0  0  0  0  0  0  0  0
  163.4363  148.6098  126.6820 C   0  0  1  0  0  0  0  0  0  0  0  0
  164.4700  147.6624  127.3132 C   0  0  0  0  0  0  0  0  0  0  0  0
  161.1540  144.3078  126.9749 C   0  0  0  0  0  0  0  0  0  0  0  0
  160.8733  143.3289  126.2409 O   0  0  0  0  0  0  0  0  0  0  0  0
  161.5495  144.0836  128.2891 O   0  0  0  0  0  0  0  0  0  0  0  0
  162.2704  145.1205  128.9494 C   0  0  0  0  0  0  0  0  0  0  0  0
  1  2  1  1
  2  3  1  0
  3  4  1  6
  3  5  1  0
  5  6  1  0
  6  7  1  0
  7  8  1  6
  7  9  1  0
  9 10  1  0
 10 11  1  0
 11 12  1  6
 11 13  1  0
 13 14  2  0
 14 15  1  0
 15 16  2  0
 16 17  1  0
 17 18  1  0
 17 19  2  0
 19 20  1  0
 19 21  1  0
 21 22  2  0
 21 23  1  0
 23 24  2  0
 24 25  1  0
 25 26  1  6
 25 27  1  0
 27 28  1  0
 28 29  1  0
 29 30  1  1
  3 31  1  0
 31 32  2  0
 31 33  1  0
 33 34  1  0
  7  1  1  0
 29 11  1  0
 29  1  1  0
 25 13  1  0
 24 16  1  0
M  END
$$$$
