
     RDKit          3D

 34 38  0  0  0  0  0  0  0  0999 V2000
  104.4698  167.6678  161.2358 C   0  0  2  0  0  0  0  0  0  0  0  0
  104.8247  169.0866  161.6459 C   0  0  0  0  0  0  0  0  0  0  0  0
  104.0026  169.5862  162.8100 C   0  0  1  0  0  0  0  0  0  0  0  0
  102.6358  170.0667  162.3192 C   0  0  0  0  0  0  0  0  0  0  0  0
  103.8795  168.5233  163.8485 C   0  0  0  0  0  0  0  0  0  0  0  0
  104.9733  167.5114  163.5984 C   0  0  0  0  0  0  0  0  0  0  0  0
  104.5342  166.7047  162.3626 C   0  0  1  0  0  0  0  0  0  0  0  0
  103.1311  166.2112  162.7442 C   0  0  0  0  0  0  0  0  0  0  0  0
  105.4692  165.5756  162.2432 C   0  0  0  0  0  0  0  0  0  0  0  0
  106.2548  165.4174  160.9866 C   0  0  0  0  0  0  0  0  0  0  0  0
  105.5039  165.8817  159.7560 C   0  0  2  0  0  0  0  0  0  0  0  0
  104.3294  164.9858  159.6396 C   0  0  0  0  0  0  0  0  0  0  0  0
  106.4134  165.8580  158.5556 C   0  0  0  0  0  0  0  0  0  0  0  0
  107.5950  165.2738  158.6374 C   0  0  0  0  0  0  0  0  0  0  0  0
  108.5723  165.1898  157.5581 C   0  0  0  0  0  0  0  0  0  0  0  0
  108.2590  165.7435  156.4044 C   0  0  0  0  0  0  0  0  0  0  0  0
  109.2350  165.6682  155.3188 C   0  0  0  0  0  0  0  0  0  0  0  0
  110.5005  164.9608  155.5493 C   0  0  0  0  0  0  0  0  0  0  0  0
  108.9611  166.2360  154.1528 C   0  0  0  0  0  0  0  0  0  0  0  0
  109.8912  166.1692  153.1047 O   0  0  0  0  0  0  0  0  0  0  0  0
  107.6908  166.9325  153.9562 C   0  0  0  0  0  0  0  0  0  0  0  0
  107.4360  167.4774  152.8305 O   0  0  0  0  0  0  0  0  0  0  0  0
  106.7303  166.9980  155.0442 C   0  0  0  0  0  0  0  0  0  0  0  0
  106.9842  166.4283  156.2370 C   0  0  0  0  0  0  0  0  0  0  0  0
  105.9526  166.4749  157.2706 C   0  0  1  0  0  0  0  0  0  0  0  0
  104.6751  165.7640  156.7517 C   0  0  0  0  0  0  0  0  0  0  0  0
  105.4738  167.8814  157.5490 C   0  0  0  0  0  0  0  0  0  0  0  0
  104.5727  167.9275  158.7695 C   0  0  0  0  0  0  0  0  0  0  0  0
  105.2172  167.3356  160.0016 C   0  0  1  0  0  0  0  0  0  0  0  0
  106.5856  168.0320  160.0845 C   0  0  0  0  0  0  0  0  0  0  0  0
  104.6487  170.7769  163.4127 C   0  0  0  0  0  0  0  0  0  0  0  0
  104.2358  171.9122  163.0713 O   0  0  0  0  0  0  0  0  0  0  0  0
  105.6857  170.6768  164.3338 O   0  0  0  0  0  0  0  0  0  0  0  0
  107.0045  170.4880  163.8278 C   0  0  0  0  0  0  0  0  0  0  0  0
  1  2  1  1
  2  3  1  0
  3  4  1  6
  3  5  1  0
  5  6  1  0
  6  7  1  0
  7  8  1  1
  7  9  1  0
  9 10  1  0
 10 11  1  0
 11 12  1  6
 11 13  1  0
 13 14  2  0
 14 15  1  0
 15 16  2  0
 16 17  1  0
 17 18  1  0
 17 19  2  0
 19 20  1  0
 19 21  1  0
 21 22  2  0
 21 23  1  0
 23 24  2  0
 24 25  1  0
 25 26  1  6
 25 27  1  0
 27 28  1  0
 28 29  1  0
 29 30  1  1
  3 31  1  0
 31 32  2  0
 31 33  1  0
 33 34  1  0
  7  1  1  0
 29 11  1  0
 29  1  1  0
 25 13  1  0
 24 16  1  0
M  END
$$$$
