
     RDKit          3D

 34 38  0  0  0  0  0  0  0  0999 V2000
  174.0161  162.7043  113.9556 C   0  0  2  0  0  0  0  0  0  0  0  0
  175.0054  163.5340  114.7555 C   0  0  0  0  0  0  0  0  0  0  0  0
  175.3907  162.8896  116.0658 C   0  0  1  0  0  0  0  0  0  0  0  0
  174.3127  163.1550  117.1180 C   0  0  0  0  0  0  0  0  0  0  0  0
  175.6328  161.4311  115.8718 C   0  0  0  0  0  0  0  0  0  0  0  0
  175.8591  161.1978  114.3963 C   0  0  0  0  0  0  0  0  0  0  0  0
  174.4761  161.3119  113.7290 C   0  0  1  0  0  0  0  0  0  0  0  0
  173.6190  160.3144  114.5217 C   0  0  0  0  0  0  0  0  0  0  0  0
  174.6422  160.8656  112.3375 C   0  0  0  0  0  0  0  0  0  0  0  0
  174.2871  161.7994  111.2315 C   0  0  0  0  0  0  0  0  0  0  0  0
  173.1290  162.7126  111.5761 C   0  0  2  0  0  0  0  0  0  0  0  0
  171.9604  161.8231  111.7741 C   0  0  0  0  0  0  0  0  0  0  0  0
  172.9396  163.7397  110.4907 C   0  0  0  0  0  0  0  0  0  0  0  0
  173.5885  163.6151  109.3472 C   0  0  0  0  0  0  0  0  0  0  0  0
  173.5041  164.5404  108.2230 C   0  0  0  0  0  0  0  0  0  0  0  0
  172.7206  165.5916  108.3530 C   0  0  0  0  0  0  0  0  0  0  0  0
  172.6340  166.5266  107.2328 C   0  0  0  0  0  0  0  0  0  0  0  0
  173.3956  166.2428  106.0104 C   0  0  0  0  0  0  0  0  0  0  0  0
  171.8738  167.6070  107.3402 C   0  0  0  0  0  0  0  0  0  0  0  0
  171.7841  168.5105  106.2707 O   0  0  0  0  0  0  0  0  0  0  0  0
  171.1277  167.8598  108.5718 C   0  0  0  0  0  0  0  0  0  0  0  0
  170.3990  168.9033  108.6668 O   0  0  0  0  0  0  0  0  0  0  0  0
  171.2228  166.9208  109.6762 C   0  0  0  0  0  0  0  0  0  0  0  0
  171.9868  165.8159  109.5913 C   0  0  0  0  0  0  0  0  0  0  0  0
  171.9920  164.8786  110.7122 C   0  0  1  0  0  0  0  0  0  0  0  0
  170.5517  164.3519  110.9462 C   0  0  0  0  0  0  0  0  0  0  0  0
  172.3309  165.5467  112.0251 C   0  0  0  0  0  0  0  0  0  0  0  0
  172.5466  164.5246  113.1263 C   0  0  0  0  0  0  0  0  0  0  0  0
  173.5911  163.4904  112.7752 C   0  0  1  0  0  0  0  0  0  0  0  0
  174.8000  164.3173  112.3069 C   0  0  0  0  0  0  0  0  0  0  0  0
  176.6252  163.5173  116.5955 C   0  0  0  0  0  0  0  0  0  0  0  0
  177.2511  162.9197  117.5049 O   0  0  0  0  0  0  0  0  0  0  0  0
  177.1061  164.7332  116.1220 O   0  0  0  0  0  0  0  0  0  0  0  0
  178.2661  164.7093  115.2947 C   0  0  0  0  0  0  0  0  0  0  0  0
  1  2  1  6
  2  3  1  0
  3  4  1  1
  3  5  1  0
  5  6  1  0
  6  7  1  0
  7  8  1  1
  7  9  1  0
  9 10  1  0
 10 11  1  0
 11 12  1  1
 11 13  1  0
 13 14  2  0
 14 15  1  0
 15 16  2  0
 16 17  1  0
 17 18  1  0
 17 19  2  0
 19 20  1  0
 19 21  1  0
 21 22  2  0
 21 23  1  0
 23 24  2  0
 24 25  1  0
 25 26  1  1
 25 27  1  0
 27 28  1  0
 28 29  1  0
 29 30  1  6
  3 31  1  0
 31 32  2  0
 31 33  1  0
 33 34  1  0
  7  1  1  0
 29 11  1  0
 29  1  1  0
 25 13  1  0
 24 16  1  0
M  END
$$$$
