
     RDKit          3D

 34 38  0  0  0  0  0  0  0  0999 V2000
  173.8877  161.8302  118.1103 C   0  0  2  0  0  0  0  0  0  0  0  0
  172.9289  160.6526  118.0766 C   0  0  0  0  0  0  0  0  0  0  0  0
  172.5880  160.1312  119.4523 C   0  0  1  0  0  0  0  0  0  0  0  0
  173.7028  159.2131  119.9564 C   0  0  0  0  0  0  0  0  0  0  0  0
  172.3358  161.2659  120.3862 C   0  0  0  0  0  0  0  0  0  0  0  0
  172.0576  162.4930  119.5496 C   0  0  0  0  0  0  0  0  0  0  0  0
  173.4167  162.9375  118.9785 C   0  0  1  0  0  0  0  0  0  0  0  0
  174.2986  163.0682  120.2288 C   0  0  0  0  0  0  0  0  0  0  0  0
  173.2010  164.2511  118.3532 C   0  0  0  0  0  0  0  0  0  0  0  0
  173.5196  164.4246  116.9076 C   0  0  0  0  0  0  0  0  0  0  0  0
  174.6912  163.5791  116.4535 C   0  0  2  0  0  0  0  0  0  0  0  0
  175.8638  164.0767  117.2106 C   0  0  0  0  0  0  0  0  0  0  0  0
  174.8450  163.6692  114.9578 C   0  0  0  0  0  0  0  0  0  0  0  0
  174.1563  164.5687  114.2791 C   0  0  0  0  0  0  0  0  0  0  0  0
  174.2036  164.7541  112.8332 C   0  0  0  0  0  0  0  0  0  0  0  0
  174.9937  163.9597  112.1399 C   0  0  0  0  0  0  0  0  0  0  0  0
  175.0433  164.1356  110.6896 C   0  0  0  0  0  0  0  0  0  0  0  0
  174.2389  165.1987  110.0752 C   0  0  0  0  0  0  0  0  0  0  0  0
  175.8095  163.3371  109.9601 C   0  0  0  0  0  0  0  0  0  0  0  0
  175.8639  163.4978  108.5675 O   0  0  0  0  0  0  0  0  0  0  0  0
  176.5987  162.2882  110.6037 C   0  0  0  0  0  0  0  0  0  0  0  0
  177.3328  161.5231  109.8932 O   0  0  0  0  0  0  0  0  0  0  0  0
  176.5399  162.1264  112.0462 C   0  0  0  0  0  0  0  0  0  0  0  0
  175.7708  162.9252  112.8092 C   0  0  0  0  0  0  0  0  0  0  0  0
  175.8025  162.7527  114.2597 C   0  0  1  0  0  0  0  0  0  0  0  0
  177.2488  162.9826  114.7714 C   0  0  0  0  0  0  0  0  0  0  0  0
  175.5113  161.3304  114.6809 C   0  0  0  0  0  0  0  0  0  0  0  0
  175.3316  161.2247  116.1844 C   0  0  0  0  0  0  0  0  0  0  0  0
  174.2731  162.1611  116.7196 C   0  0  1  0  0  0  0  0  0  0  0  0
  173.0506  161.9018  115.8236 C   0  0  0  0  0  0  0  0  0  0  0  0
  171.3743  159.2821  119.3860 C   0  0  0  0  0  0  0  0  0  0  0  0
  171.5244  158.0408  119.2738 O   0  0  0  0  0  0  0  0  0  0  0  0
  170.0896  159.8114  119.4436 O   0  0  0  0  0  0  0  0  0  0  0  0
  169.4347  160.0947  118.2101 C   0  0  0  0  0  0  0  0  0  0  0  0
  1  2  1  6
  2  3  1  0
  3  4  1  1
  3  5  1  0
  5  6  1  0
  6  7  1  0
  7  8  1  1
  7  9  1  0
  9 10  1  0
 10 11  1  0
 11 12  1  1
 11 13  1  0
 13 14  2  0
 14 15  1  0
 15 16  2  0
 16 17  1  0
 17 18  1  0
 17 19  2  0
 19 20  1  0
 19 21  1  0
 21 22  2  0
 21 23  1  0
 23 24  2  0
 24 25  1  0
 25 26  1  1
 25 27  1  0
 27 28  1  0
 28 29  1  0
 29 30  1  6
  3 31  1  0
 31 32  2  0
 31 33  1  0
 33 34  1  0
  7  1  1  0
 29 11  1  0
 29  1  1  0
 25 13  1  0
 24 16  1  0
M  END
$$$$
