
     RDKit          3D

 34 38  0  0  0  0  0  0  0  0999 V2000
  128.9618  141.0928  134.9496 C   0  0  2  0  0  0  0  0  0  0  0  0
  127.6965  140.2755  135.1451 C   0  0  0  0  0  0  0  0  0  0  0  0
  127.9525  138.7872  135.1562 C   0  0  1  0  0  0  0  0  0  0  0  0
  128.0724  138.2648  133.7236 C   0  0  0  0  0  0  0  0  0  0  0  0
  129.1665  138.4787  135.9652 C   0  0  0  0  0  0  0  0  0  0  0  0
  129.4412  139.6721  136.8501 C   0  0  0  0  0  0  0  0  0  0  0  0
  130.0246  140.7605  135.9303 C   0  0  1  0  0  0  0  0  0  0  0  0
  131.2011  140.0497  135.2455 C   0  0  0  0  0  0  0  0  0  0  0  0
  130.5060  141.8387  136.8070 C   0  0  0  0  0  0  0  0  0  0  0  0
  129.9559  143.2128  136.6319 C   0  0  0  0  0  0  0  0  0  0  0  0
  129.6142  143.5351  135.1920 C   0  0  2  0  0  0  0  0  0  0  0  0
  130.8989  143.4936  134.4547 C   0  0  0  0  0  0  0  0  0  0  0  0
  128.9057  144.8619  135.1132 C   0  0  0  0  0  0  0  0  0  0  0  0
  128.8597  145.6468  136.1743 C   0  0  0  0  0  0  0  0  0  0  0  0
  128.2000  146.9461  136.2360 C   0  0  0  0  0  0  0  0  0  0  0  0
  127.5945  147.3772  135.1482 C   0  0  0  0  0  0  0  0  0  0  0  0
  126.9266  148.6763  135.2029 C   0  0  0  0  0  0  0  0  0  0  0  0
  126.9818  149.4514  136.4484 C   0  0  0  0  0  0  0  0  0  0  0  0
  126.2874  149.1284  134.1334 C   0  0  0  0  0  0  0  0  0  0  0  0
  125.6432  150.3739  134.1758 O   0  0  0  0  0  0  0  0  0  0  0  0
  126.2520  148.3314  132.9083 C   0  0  0  0  0  0  0  0  0  0  0  0
  125.6331  148.7741  131.8836 O   0  0  0  0  0  0  0  0  0  0  0  0
  126.9215  147.0427  132.8688 C   0  0  0  0  0  0  0  0  0  0  0  0
  127.5783  146.5622  133.9409 C   0  0  0  0  0  0  0  0  0  0  0  0
  128.2841  145.2887  133.8188 C   0  0  1  0  0  0  0  0  0  0  0  0
  129.3614  145.4045  132.7085 C   0  0  0  0  0  0  0  0  0  0  0  0
  127.3914  144.1770  133.3164 C   0  0  0  0  0  0  0  0  0  0  0  0
  128.0821  142.8286  133.4090 C   0  0  0  0  0  0  0  0  0  0  0  0
  128.5824  142.5161  134.8003 C   0  0  1  0  0  0  0  0  0  0  0  0
  127.3662  142.7710  135.7059 C   0  0  0  0  0  0  0  0  0  0  0  0
  126.7897  138.0774  135.7414 C   0  0  0  0  0  0  0  0  0  0  0  0
  126.9947  137.2928  136.6996 O   0  0  0  0  0  0  0  0  0  0  0  0
  125.4939  138.2514  135.2675 O   0  0  0  0  0  0  0  0  0  0  0  0
  125.1781  137.7073  133.9888 C   0  0  0  0  0  0  0  0  0  0  0  0
  1  2  1  1
  2  3  1  0
  3  4  1  6
  3  5  1  0
  5  6  1  0
  6  7  1  0
  7  8  1  6
  7  9  1  0
  9 10  1  0
 10 11  1  0
 11 12  1  6
 11 13  1  0
 13 14  2  0
 14 15  1  0
 15 16  2  0
 16 17  1  0
 17 18  1  0
 17 19  2  0
 19 20  1  0
 19 21  1  0
 21 22  2  0
 21 23  1  0
 23 24  2  0
 24 25  1  0
 25 26  1  6
 25 27  1  0
 27 28  1  0
 28 29  1  0
 29 30  1  1
  3 31  1  0
 31 32  2  0
 31 33  1  0
 33 34  1  0
  7  1  1  0
 29 11  1  0
 29  1  1  0
 25 13  1  0
 24 16  1  0
M  END
$$$$
