
     RDKit          3D

 34 38  0  0  0  0  0  0  0  0999 V2000
  147.3028  166.5827  130.1149 C   0  0  2  0  0  0  0  0  0  0  0  0
  148.5305  165.7646  129.7534 C   0  0  0  0  0  0  0  0  0  0  0  0
  148.4095  165.0826  128.4114 C   0  0  1  0  0  0  0  0  0  0  0  0
  147.5900  163.7982  128.5477 C   0  0  0  0  0  0  0  0  0  0  0  0
  147.8196  166.0163  127.4096 C   0  0  0  0  0  0  0  0  0  0  0  0
  147.9762  167.4201  127.9458 C   0  0  0  0  0  0  0  0  0  0  0  0
  146.9327  167.5673  129.0684 C   0  0  1  0  0  0  0  0  0  0  0  0
  145.6178  167.1707  128.3816 C   0  0  0  0  0  0  0  0  0  0  0  0
  146.9164  168.9892  129.4440 C   0  0  0  0  0  0  0  0  0  0  0  0
  147.2085  169.3675  130.8556 C   0  0  0  0  0  0  0  0  0  0  0  0
  146.7260  168.3385  131.8567 C   0  0  2  0  0  0  0  0  0  0  0  0
  145.2508  168.3062  131.7211 C   0  0  0  0  0  0  0  0  0  0  0  0
  147.2061  168.6966  133.2387 C   0  0  0  0  0  0  0  0  0  0  0  0
  147.7524  169.8786  133.4592 C   0  0  0  0  0  0  0  0  0  0  0  0
  148.2663  170.3458  134.7417 C   0  0  0  0  0  0  0  0  0  0  0  0
  148.1856  169.5248  135.7690 C   0  0  0  0  0  0  0  0  0  0  0  0
  148.7027  169.9832  137.0570 C   0  0  0  0  0  0  0  0  0  0  0  0
  149.2600  171.3376  137.1571 C   0  0  0  0  0  0  0  0  0  0  0  0
  148.6589  169.1729  138.1050 C   0  0  0  0  0  0  0  0  0  0  0  0
  149.1527  169.6036  139.3455 O   0  0  0  0  0  0  0  0  0  0  0  0
  148.0967  167.8300  137.9712 C   0  0  0  0  0  0  0  0  0  0  0  0
  148.0596  167.0561  138.9854 O   0  0  0  0  0  0  0  0  0  0  0  0
  147.5855  167.3889  136.6849 C   0  0  0  0  0  0  0  0  0  0  0  0
  147.6174  168.1933  135.6061 C   0  0  0  0  0  0  0  0  0  0  0  0
  147.0313  167.7146  134.3563 C   0  0  1  0  0  0  0  0  0  0  0  0
  145.5276  167.4060  134.5808 C   0  0  0  0  0  0  0  0  0  0  0  0
  147.5951  166.3798  133.9254 C   0  0  0  0  0  0  0  0  0  0  0  0
  147.1387  166.0128  132.5251 C   0  0  0  0  0  0  0  0  0  0  0  0
  147.4604  167.0771  131.5016 C   0  0  1  0  0  0  0  0  0  0  0  0
  148.9525  167.3758  131.7224 C   0  0  0  0  0  0  0  0  0  0  0  0
  149.7474  164.6513  127.9397 C   0  0  0  0  0  0  0  0  0  0  0  0
  150.5262  164.1211  128.7693 O   0  0  0  0  0  0  0  0  0  0  0  0
  150.1620  164.8138  126.6223 O   0  0  0  0  0  0  0  0  0  0  0  0
  150.4645  163.6394  125.8740 C   0  0  0  0  0  0  0  0  0  0  0  0
  1  2  1  6
  2  3  1  0
  3  4  1  1
  3  5  1  0
  5  6  1  0
  6  7  1  0
  7  8  1  6
  7  9  1  0
  9 10  1  0
 10 11  1  0
 11 12  1  1
 11 13  1  0
 13 14  2  0
 14 15  1  0
 15 16  2  0
 16 17  1  0
 17 18  1  0
 17 19  2  0
 19 20  1  0
 19 21  1  0
 21 22  2  0
 21 23  1  0
 23 24  2  0
 24 25  1  0
 25 26  1  1
 25 27  1  0
 27 28  1  0
 28 29  1  0
 29 30  1  6
  3 31  1  0
 31 32  2  0
 31 33  1  0
 33 34  1  0
  7  1  1  0
 29 11  1  0
 29  1  1  0
 25 13  1  0
 24 16  1  0
M  END
$$$$
