
     RDKit          3D

 34 38  0  0  0  0  0  0  0  0999 V2000
  166.1253  156.0773  124.8561 C   0  0  2  0  0  0  0  0  0  0  0  0
  164.8334  156.6637  124.3138 C   0  0  0  0  0  0  0  0  0  0  0  0
  165.0540  157.9015  123.4771 C   0  0  1  0  0  0  0  0  0  0  0  0
  165.2316  159.1217  124.3822 C   0  0  0  0  0  0  0  0  0  0  0  0
  166.2195  157.7082  122.5674 C   0  0  0  0  0  0  0  0  0  0  0  0
  166.4782  156.2231  122.4656 C   0  0  0  0  0  0  0  0  0  0  0  0
  167.1309  155.8111  123.7980 C   0  0  1  0  0  0  0  0  0  0  0  0
  168.3226  156.7720  123.9186 C   0  0  0  0  0  0  0  0  0  0  0  0
  167.5938  154.4253  123.6290 C   0  0  0  0  0  0  0  0  0  0  0  0
  167.0849  153.3750  124.5560 C   0  0  0  0  0  0  0  0  0  0  0  0
  166.8215  153.8956  125.9537 C   0  0  2  0  0  0  0  0  0  0  0  0
  168.1394  154.3243  126.4783 C   0  0  0  0  0  0  0  0  0  0  0  0
  166.1486  152.8333  126.7829 C   0  0  0  0  0  0  0  0  0  0  0  0
  166.0691  151.5961  126.3278 C   0  0  0  0  0  0  0  0  0  0  0  0
  165.4374  150.4797  127.0218 C   0  0  0  0  0  0  0  0  0  0  0  0
  164.8960  150.7184  128.1989 C   0  0  0  0  0  0  0  0  0  0  0  0
  164.2564  149.6060  128.8992 C   0  0  0  0  0  0  0  0  0  0  0  0
  164.2687  148.2755  128.2792 C   0  0  0  0  0  0  0  0  0  0  0  0
  163.6810  149.8175  130.0743 C   0  0  0  0  0  0  0  0  0  0  0  0
  163.0645  148.7564  130.7542 O   0  0  0  0  0  0  0  0  0  0  0  0
  163.6870  151.1551  130.6642 C   0  0  0  0  0  0  0  0  0  0  0  0
  163.1294  151.3498  131.7957 O   0  0  0  0  0  0  0  0  0  0  0  0
  164.3276  152.2505  129.9569 C   0  0  0  0  0  0  0  0  0  0  0  0
  164.9199  152.0612  128.7631 C   0  0  0  0  0  0  0  0  0  0  0  0
  165.6011  153.1888  128.1312 C   0  0  1  0  0  0  0  0  0  0  0  0
  166.7337  153.6914  129.0645 C   0  0  0  0  0  0  0  0  0  0  0  0
  164.7085  154.4008  127.9911 C   0  0  0  0  0  0  0  0  0  0  0  0
  165.3624  155.4737  127.1396 C   0  0  0  0  0  0  0  0  0  0  0  0
  165.7867  154.9704  125.7793 C   0  0  1  0  0  0  0  0  0  0  0  0
  164.5339  154.2705  125.2270 C   0  0  0  0  0  0  0  0  0  0  0  0
  163.8478  158.1840  122.6624 C   0  0  0  0  0  0  0  0  0  0  0  0
  163.2303  159.2572  122.8695 O   0  0  0  0  0  0  0  0  0  0  0  0
  163.3842  157.3077  121.6872 O   0  0  0  0  0  0  0  0  0  0  0  0
  164.3018  156.3478  121.1699 C   0  0  0  0  0  0  0  0  0  0  0  0
  1  2  1  6
  2  3  1  0
  3  4  1  1
  3  5  1  0
  5  6  1  0
  6  7  1  0
  7  8  1  1
  7  9  1  0
  9 10  1  0
 10 11  1  0
 11 12  1  1
 11 13  1  0
 13 14  2  0
 14 15  1  0
 15 16  2  0
 16 17  1  0
 17 18  1  0
 17 19  2  0
 19 20  1  0
 19 21  1  0
 21 22  2  0
 21 23  1  0
 23 24  2  0
 24 25  1  0
 25 26  1  1
 25 27  1  0
 27 28  1  0
 28 29  1  0
 29 30  1  6
  3 31  1  0
 31 32  2  0
 31 33  1  0
 33 34  1  0
  7  1  1  0
 29 11  1  0
 29  1  1  0
 25 13  1  0
 24 16  1  0
M  END
$$$$
