
     RDKit          3D

 34 38  0  0  0  0  0  0  0  0999 V2000
  131.2935  138.0408  134.3005 C   0  0  2  0  0  0  0  0  0  0  0  0
  130.6941  136.9765  133.3977 C   0  0  0  0  0  0  0  0  0  0  0  0
  131.4913  135.6938  133.3896 C   0  0  1  0  0  0  0  0  0  0  0  0
  132.6875  135.8255  132.4455 C   0  0  0  0  0  0  0  0  0  0  0  0
  131.9118  135.3391  134.7756 C   0  0  0  0  0  0  0  0  0  0  0  0
  131.0283  136.1063  135.7315 C   0  0  0  0  0  0  0  0  0  0  0  0
  131.5182  137.5654  135.6880 C   0  0  1  0  0  0  0  0  0  0  0  0
  133.0187  137.4426  135.9903 C   0  0  0  0  0  0  0  0  0  0  0  0
  130.8242  138.2748  136.7736 C   0  0  0  0  0  0  0  0  0  0  0  0
  129.9861  139.4616  136.4417 C   0  0  0  0  0  0  0  0  0  0  0  0
  130.5237  140.2578  135.2708 C   0  0  2  0  0  0  0  0  0  0  0  0
  131.8415  140.7758  135.7077 C   0  0  0  0  0  0  0  0  0  0  0  0
  129.5421  141.3318  134.8815 C   0  0  0  0  0  0  0  0  0  0  0  0
  128.5139  141.5986  135.6661 C   0  0  0  0  0  0  0  0  0  0  0  0
  127.4882  142.6015  135.4029 C   0  0  0  0  0  0  0  0  0  0  0  0
  127.5870  143.3005  134.2905 C   0  0  0  0  0  0  0  0  0  0  0  0
  126.5605  144.3044  134.0166 C   0  0  0  0  0  0  0  0  0  0  0  0
  125.4875  144.5089  134.9973 C   0  0  0  0  0  0  0  0  0  0  0  0
  126.6169  145.0080  132.8947 C   0  0  0  0  0  0  0  0  0  0  0  0
  125.6365  145.9738  132.6226 O   0  0  0  0  0  0  0  0  0  0  0  0
  127.6995  144.7798  131.9391 C   0  0  0  0  0  0  0  0  0  0  0  0
  127.7453  145.4611  130.8608 O   0  0  0  0  0  0  0  0  0  0  0  0
  128.7132  143.7794  132.2258 C   0  0  0  0  0  0  0  0  0  0  0  0
  128.6788  143.0529  133.3584 C   0  0  0  0  0  0  0  0  0  0  0  0
  129.7612  142.1066  133.6182 C   0  0  1  0  0  0  0  0  0  0  0  0
  131.1089  142.8727  133.6752 C   0  0  0  0  0  0  0  0  0  0  0  0
  129.9670  141.1342  132.4792 C   0  0  0  0  0  0  0  0  0  0  0  0
  130.9376  140.0317  132.8618 C   0  0  0  0  0  0  0  0  0  0  0  0
  130.5298  139.2958  134.1171 C   0  0  1  0  0  0  0  0  0  0  0  0
  129.0604  138.9148  133.8720 C   0  0  0  0  0  0  0  0  0  0  0  0
  130.6696  134.5900  132.8374 C   0  0  0  0  0  0  0  0  0  0  0  0
  131.1902  133.8345  131.9807 O   0  0  0  0  0  0  0  0  0  0  0  0
  129.3554  134.3678  133.2342 O   0  0  0  0  0  0  0  0  0  0  0  0
  128.3413  135.1812  132.6505 C   0  0  0  0  0  0  0  0  0  0  0  0
  1  2  1  6
  2  3  1  0
  3  4  1  6
  3  5  1  0
  5  6  1  0
  6  7  1  0
  7  8  1  1
  7  9  1  0
  9 10  1  0
 10 11  1  0
 11 12  1  1
 11 13  1  0
 13 14  2  0
 14 15  1  0
 15 16  2  0
 16 17  1  0
 17 18  1  0
 17 19  2  0
 19 20  1  0
 19 21  1  0
 21 22  2  0
 21 23  1  0
 23 24  2  0
 24 25  1  0
 25 26  1  1
 25 27  1  0
 27 28  1  0
 28 29  1  0
 29 30  1  6
  3 31  1  0
 31 32  2  0
 31 33  1  0
 33 34  1  0
  7  1  1  0
 29 11  1  0
 29  1  1  0
 25 13  1  0
 24 16  1  0
M  END
$$$$
