
     RDKit          3D

 34 38  0  0  0  0  0  0  0  0999 V2000
  117.1098  169.4009  145.7019 C   0  0  2  0  0  0  0  0  0  0  0  0
  115.9238  169.2052  146.6303 C   0  0  0  0  0  0  0  0  0  0  0  0
  115.3617  170.5069  147.1503 C   0  0  1  0  0  0  0  0  0  0  0  0
  116.2025  171.0093  148.3252 C   0  0  0  0  0  0  0  0  0  0  0  0
  115.2845  171.5112  146.0508 C   0  0  0  0  0  0  0  0  0  0  0  0
  115.3527  170.7609  144.7411 C   0  0  0  0  0  0  0  0  0  0  0  0
  116.8196  170.3227  144.5760 C   0  0  1  0  0  0  0  0  0  0  0  0
  117.5992  171.6370  144.7271 C   0  0  0  0  0  0  0  0  0  0  0  0
  116.9495  169.7939  143.2097 C   0  0  0  0  0  0  0  0  0  0  0  0
  117.4199  168.3926  143.0186 C   0  0  0  0  0  0  0  0  0  0  0  0
  118.4133  167.9521  144.0736 C   0  0  2  0  0  0  0  0  0  0  0  0
  119.5974  168.8261  143.9012 C   0  0  0  0  0  0  0  0  0  0  0  0
  118.7096  166.4830  143.9236 C   0  0  0  0  0  0  0  0  0  0  0  0
  118.2939  165.8346  142.8508 C   0  0  0  0  0  0  0  0  0  0  0  0
  118.5032  164.4155  142.5874 C   0  0  0  0  0  0  0  0  0  0  0  0
  119.1571  163.7152  143.4918 C   0  0  0  0  0  0  0  0  0  0  0  0
  119.3670  162.2911  143.2380 C   0  0  0  0  0  0  0  0  0  0  0  0
  118.8690  161.7121  141.9843 C   0  0  0  0  0  0  0  0  0  0  0  0
  119.9998  161.5528  144.1387 C   0  0  0  0  0  0  0  0  0  0  0  0
  120.2063  160.1851  143.9045 O   0  0  0  0  0  0  0  0  0  0  0  0
  120.4837  162.1609  145.3770 C   0  0  0  0  0  0  0  0  0  0  0  0
  121.0910  161.4421  146.2393 O   0  0  0  0  0  0  0  0  0  0  0  0
  120.2687  163.5778  145.6146 C   0  0  0  0  0  0  0  0  0  0  0  0
  119.6301  164.3492  144.7151 C   0  0  0  0  0  0  0  0  0  0  0  0
  119.5001  165.7794  144.9839 C   0  0  1  0  0  0  0  0  0  0  0  0
  120.9128  166.4062  145.1171 C   0  0  0  0  0  0  0  0  0  0  0  0
  118.8710  166.0616  146.3291 C   0  0  0  0  0  0  0  0  0  0  0  0
  118.5454  167.5355  146.4891 C   0  0  0  0  0  0  0  0  0  0  0  0
  117.6749  168.0718  145.3763 C   0  0  1  0  0  0  0  0  0  0  0  0
  116.5061  167.0759  145.2968 C   0  0  0  0  0  0  0  0  0  0  0  0
  114.0022  170.2881  147.7001 C   0  0  0  0  0  0  0  0  0  0  0  0
  113.8765  170.1775  148.9442 O   0  0  0  0  0  0  0  0  0  0  0  0
  112.8749  170.2028  146.8904 O   0  0  0  0  0  0  0  0  0  0  0  0
  113.0522  170.3832  145.4879 C   0  0  0  0  0  0  0  0  0  0  0  0
  1  2  1  6
  2  3  1  0
  3  4  1  1
  3  5  1  0
  5  6  1  0
  6  7  1  0
  7  8  1  6
  7  9  1  0
  9 10  1  0
 10 11  1  0
 11 12  1  1
 11 13  1  0
 13 14  2  0
 14 15  1  0
 15 16  2  0
 16 17  1  0
 17 18  1  0
 17 19  2  0
 19 20  1  0
 19 21  1  0
 21 22  2  0
 21 23  1  0
 23 24  2  0
 24 25  1  0
 25 26  1  1
 25 27  1  0
 27 28  1  0
 28 29  1  0
 29 30  1  6
  3 31  1  0
 31 32  2  0
 31 33  1  0
 33 34  1  0
  7  1  1  0
 29 11  1  0
 29  1  1  0
 25 13  1  0
 24 16  1  0
M  END
$$$$
