
     RDKit          3D

 34 38  0  0  0  0  0  0  0  0999 V2000
  123.9983  151.5176  149.9207 C   0  0  2  0  0  0  0  0  0  0  0  0
  122.7875  150.6207  150.1123 C   0  0  0  0  0  0  0  0  0  0  0  0
  122.7313  149.9921  151.4843 C   0  0  1  0  0  0  0  0  0  0  0  0
  123.6493  148.7698  151.5393 C   0  0  0  0  0  0  0  0  0  0  0  0
  123.0807  150.9986  152.5275 C   0  0  0  0  0  0  0  0  0  0  0  0
  122.9180  152.3692  151.9127 C   0  0  0  0  0  0  0  0  0  0  0  0
  124.1204  152.5597  150.9699 C   0  0  1  0  0  0  0  0  0  0  0  0
  125.3276  152.2854  151.8785 C   0  0  0  0  0  0  0  0  0  0  0  0
  124.1000  153.9663  150.5408 C   0  0  0  0  0  0  0  0  0  0  0  0
  124.0204  154.2771  149.0854 C   0  0  0  0  0  0  0  0  0  0  0  0
  124.7325  153.2567  148.2219 C   0  0  2  0  0  0  0  0  0  0  0  0
  126.1634  153.3403  148.5975 C   0  0  0  0  0  0  0  0  0  0  0  0
  124.4645  153.5341  146.7659 C   0  0  0  0  0  0  0  0  0  0  0  0
  123.8816  154.6639  146.4083 C   0  0  0  0  0  0  0  0  0  0  0  0
  123.5563  155.0505  145.0401 C   0  0  0  0  0  0  0  0  0  0  0  0
  123.8631  154.2062  144.0763 C   0  0  0  0  0  0  0  0  0  0  0  0
  123.5361  154.5837  142.7026 C   0  0  0  0  0  0  0  0  0  0  0  0
  122.9103  155.8882  142.4543 C   0  0  0  0  0  0  0  0  0  0  0  0
  123.8092  153.7467  141.7119 C   0  0  0  0  0  0  0  0  0  0  0  0
  123.4993  154.0997  140.3900 O   0  0  0  0  0  0  0  0  0  0  0  0
  124.4333  152.4550  141.9936 C   0  0  0  0  0  0  0  0  0  0  0  0
  124.6918  151.6547  141.0335 O   0  0  0  0  0  0  0  0  0  0  0  0
  124.7536  152.0943  143.3639 C   0  0  0  0  0  0  0  0  0  0  0  0
  124.4874  152.9273  144.3872 C   0  0  0  0  0  0  0  0  0  0  0  0
  124.8901  152.5336  145.7354 C   0  0  1  0  0  0  0  0  0  0  0  0
  126.4278  152.3328  145.7727 C   0  0  0  0  0  0  0  0  0  0  0  0
  124.3567  151.1741  146.1260 C   0  0  0  0  0  0  0  0  0  0  0  0
  124.5990  150.8867  147.5965 C   0  0  0  0  0  0  0  0  0  0  0  0
  124.0389  151.9550  148.5068 C   0  0  1  0  0  0  0  0  0  0  0  0
  122.5870  152.1330  148.0329 C   0  0  0  0  0  0  0  0  0  0  0  0
  121.3670  149.4758  151.7497 C   0  0  0  0  0  0  0  0  0  0  0  0
  120.8353  149.7458  152.8544 O   0  0  0  0  0  0  0  0  0  0  0  0
  120.6658  148.7108  150.8240 O   0  0  0  0  0  0  0  0  0  0  0  0
  121.1215  147.3824  150.5823 C   0  0  0  0  0  0  0  0  0  0  0  0
  1  2  1  1
  2  3  1  0
  3  4  1  6
  3  5  1  0
  5  6  1  0
  6  7  1  0
  7  8  1  1
  7  9  1  0
  9 10  1  0
 10 11  1  0
 11 12  1  6
 11 13  1  0
 13 14  2  0
 14 15  1  0
 15 16  2  0
 16 17  1  0
 17 18  1  0
 17 19  2  0
 19 20  1  0
 19 21  1  0
 21 22  2  0
 21 23  1  0
 23 24  2  0
 24 25  1  0
 25 26  1  6
 25 27  1  0
 27 28  1  0
 28 29  1  0
 29 30  1  6
  3 31  1  0
 31 32  2  0
 31 33  1  0
 33 34  1  0
  7  1  1  0
 29 11  1  0
 29  1  1  0
 25 13  1  0
 24 16  1  0
M  END
$$$$
