
     RDKit          3D

 34 38  0  0  0  0  0  0  0  0999 V2000
  137.5967  162.6525  155.6682 C   0  0  2  0  0  0  0  0  0  0  0  0
  138.1428  162.5650  157.0828 C   0  0  0  0  0  0  0  0  0  0  0  0
  139.6428  162.3954  157.1257 C   0  0  1  0  0  0  0  0  0  0  0  0
  140.0121  160.9300  156.8893 C   0  0  0  0  0  0  0  0  0  0  0  0
  140.2928  163.3006  156.1349 C   0  0  0  0  0  0  0  0  0  0  0  0
  139.2940  164.3753  155.7740 C   0  0  0  0  0  0  0  0  0  0  0  0
  138.2572  163.7034  154.8551 C   0  0  1  0  0  0  0  0  0  0  0  0
  139.1192  163.0802  153.7476 C   0  0  0  0  0  0  0  0  0  0  0  0
  137.4132  164.7800  154.3151 C   0  0  0  0  0  0  0  0  0  0  0  0
  135.9427  164.7346  154.5538 C   0  0  0  0  0  0  0  0  0  0  0  0
  135.3932  163.3241  154.5992 C   0  0  2  0  0  0  0  0  0  0  0  0
  135.6229  162.7591  153.2487 C   0  0  0  0  0  0  0  0  0  0  0  0
  133.9458  163.3461  155.0156 C   0  0  0  0  0  0  0  0  0  0  0  0
  133.2952  164.4940  155.0719 C   0  0  0  0  0  0  0  0  0  0  0  0
  131.9010  164.6563  155.4681 C   0  0  0  0  0  0  0  0  0  0  0  0
  131.2298  163.5730  155.8024 C   0  0  0  0  0  0  0  0  0  0  0  0
  129.8332  163.7273  156.2055 C   0  0  0  0  0  0  0  0  0  0  0  0
  129.2348  165.0677  156.1942 C   0  0  0  0  0  0  0  0  0  0  0  0
  129.1366  162.6607  156.5711 C   0  0  0  0  0  0  0  0  0  0  0  0
  127.7956  162.7983  156.9597 O   0  0  0  0  0  0  0  0  0  0  0  0
  129.7629  161.3396  156.5706 C   0  0  0  0  0  0  0  0  0  0  0  0
  129.0848  160.3182  156.9254 O   0  0  0  0  0  0  0  0  0  0  0  0
  131.1514  161.2019  156.1663 C   0  0  0  0  0  0  0  0  0  0  0  0
  131.8797  162.2693  155.7895 C   0  0  0  0  0  0  0  0  0  0  0  0
  133.2518  162.0573  155.3343 C   0  0  1  0  0  0  0  0  0  0  0  0
  133.2422  161.1224  154.0964 C   0  0  0  0  0  0  0  0  0  0  0  0
  134.0833  161.2906  156.3372 C   0  0  0  0  0  0  0  0  0  0  0  0
  135.5494  161.2767  155.9445 C   0  0  0  0  0  0  0  0  0  0  0  0
  136.1178  162.6614  155.7360 C   0  0  1  0  0  0  0  0  0  0  0  0
  135.7147  163.4308  157.0048 C   0  0  0  0  0  0  0  0  0  0  0  0
  140.1508  162.7189  158.4806 C   0  0  0  0  0  0  0  0  0  0  0  0
  140.5806  161.7788  159.1929 O   0  0  0  0  0  0  0  0  0  0  0  0
  140.1660  164.0162  158.9815 O   0  0  0  0  0  0  0  0  0  0  0  0
  139.0889  164.4120  159.8265 C   0  0  0  0  0  0  0  0  0  0  0  0
  1  2  1  1
  2  3  1  0
  3  4  1  6
  3  5  1  0
  5  6  1  0
  6  7  1  0
  7  8  1  6
  7  9  1  0
  9 10  1  0
 10 11  1  0
 11 12  1  6
 11 13  1  0
 13 14  2  0
 14 15  1  0
 15 16  2  0
 16 17  1  0
 17 18  1  0
 17 19  2  0
 19 20  1  0
 19 21  1  0
 21 22  2  0
 21 23  1  0
 23 24  2  0
 24 25  1  0
 25 26  1  6
 25 27  1  0
 27 28  1  0
 28 29  1  0
 29 30  1  1
  3 31  1  0
 31 32  2  0
 31 33  1  0
 33 34  1  0
  7  1  1  0
 29 11  1  0
 29  1  1  0
 25 13  1  0
 24 16  1  0
M  END
$$$$
