
     RDKit          3D

 34 38  0  0  0  0  0  0  0  0999 V2000
  108.9470  165.2647  156.1084 C   0  0  2  0  0  0  0  0  0  0  0  0
  108.8884  166.1508  154.8761 C   0  0  0  0  0  0  0  0  0  0  0  0
  109.9229  165.7856  153.8383 C   0  0  1  0  0  0  0  0  0  0  0  0
  111.2773  166.3900  154.2123 C   0  0  0  0  0  0  0  0  0  0  0  0
  109.9976  164.3044  153.6833 C   0  0  0  0  0  0  0  0  0  0  0  0
  108.7276  163.7205  154.2570 C   0  0  0  0  0  0  0  0  0  0  0  0
  108.8661  163.8183  155.7875 C   0  0  1  0  0  0  0  0  0  0  0  0
  110.2043  163.1183  156.0656 C   0  0  0  0  0  0  0  0  0  0  0  0
  107.7486  163.0531  156.3608 C   0  0  0  0  0  0  0  0  0  0  0  0
  106.7950  163.7421  157.2759 C   0  0  0  0  0  0  0  0  0  0  0  0
  107.4509  164.8212  158.1119 C   0  0  2  0  0  0  0  0  0  0  0  0
  108.4354  164.1220  158.9708 C   0  0  0  0  0  0  0  0  0  0  0  0
  106.4057  165.5885  158.8784 C   0  0  0  0  0  0  0  0  0  0  0  0
  105.1633  165.1430  158.9222 C   0  0  0  0  0  0  0  0  0  0  0  0
  104.0570  165.7923  159.6163 C   0  0  0  0  0  0  0  0  0  0  0  0
  104.3096  166.9188  160.2511 C   0  0  0  0  0  0  0  0  0  0  0  0
  103.2054  167.5787  160.9452 C   0  0  0  0  0  0  0  0  0  0  0  0
  101.8792  166.9495  160.9291 C   0  0  0  0  0  0  0  0  0  0  0  0
  103.4203  168.7259  161.5731 C   0  0  0  0  0  0  0  0  0  0  0  0
  102.3670  169.3671  162.2422 O   0  0  0  0  0  0  0  0  0  0  0  0
  104.7536  169.3256  161.5702 C   0  0  0  0  0  0  0  0  0  0  0  0
  104.9511  170.4312  162.1765 O   0  0  0  0  0  0  0  0  0  0  0  0
  105.8414  168.6573  160.8770 C   0  0  0  0  0  0  0  0  0  0  0  0
  105.6491  167.4910  160.2331 C   0  0  0  0  0  0  0  0  0  0  0  0
  106.7965  166.8372  159.6078 C   0  0  1  0  0  0  0  0  0  0  0  0
  107.8616  166.5249  160.6917 C   0  0  0  0  0  0  0  0  0  0  0  0
  107.5343  167.7487  158.6540 C   0  0  0  0  0  0  0  0  0  0  0  0
  108.5776  166.9872  157.8569 C   0  0  0  0  0  0  0  0  0  0  0  0
  108.0047  165.8007  157.1167 C   0  0  1  0  0  0  0  0  0  0  0  0
  106.7931  166.3738  156.3631 C   0  0  0  0  0  0  0  0  0  0  0  0
  109.5658  166.3899  152.5323 C   0  0  0  0  0  0  0  0  0  0  0  0
  110.4580  166.4720  151.6530 O   0  0  0  0  0  0  0  0  0  0  0  0
  108.2882  166.8633  152.2538 O   0  0  0  0  0  0  0  0  0  0  0  0
  108.1664  168.2043  151.7871 C   0  0  0  0  0  0  0  0  0  0  0  0
  1  2  1  6
  2  3  1  0
  3  4  1  1
  3  5  1  0
  5  6  1  0
  6  7  1  0
  7  8  1  1
  7  9  1  0
  9 10  1  0
 10 11  1  0
 11 12  1  1
 11 13  1  0
 13 14  2  0
 14 15  1  0
 15 16  2  0
 16 17  1  0
 17 18  1  0
 17 19  2  0
 19 20  1  0
 19 21  1  0
 21 22  2  0
 21 23  1  0
 23 24  2  0
 24 25  1  0
 25 26  1  1
 25 27  1  0
 27 28  1  0
 28 29  1  0
 29 30  1  6
  3 31  1  0
 31 32  2  0
 31 33  1  0
 33 34  1  0
  7  1  1  0
 29 11  1  0
 29  1  1  0
 25 13  1  0
 24 16  1  0
M  END
$$$$
