
     RDKit          3D

 34 38  0  0  0  0  0  0  0  0999 V2000
  129.5973  143.0618  134.4910 C   0  0  2  0  0  0  0  0  0  0  0  0
  129.7589  142.7786  133.0074 C   0  0  0  0  0  0  0  0  0  0  0  0
  130.4141  141.4465  132.7300 C   0  0  1  0  0  0  0  0  0  0  0  0
  131.9319  141.5681  132.8753 C   0  0  0  0  0  0  0  0  0  0  0  0
  129.8508  140.3977  133.6278 C   0  0  0  0  0  0  0  0  0  0  0  0
  128.5341  140.9121  134.1614 C   0  0  0  0  0  0  0  0  0  0  0  0
  128.8876  141.9782  135.2147 C   0  0  1  0  0  0  0  0  0  0  0  0
  129.8403  141.2351  136.1624 C   0  0  0  0  0  0  0  0  0  0  0  0
  127.6336  142.3233  135.9014 C   0  0  0  0  0  0  0  0  0  0  0  0
  127.1700  143.7397  135.8914 C   0  0  0  0  0  0  0  0  0  0  0  0
  128.3103  144.7364  135.9011 C   0  0  2  0  0  0  0  0  0  0  0  0
  129.0156  144.5283  137.1876 C   0  0  0  0  0  0  0  0  0  0  0  0
  127.7782  146.1329  135.7136 C   0  0  0  0  0  0  0  0  0  0  0  0
  126.4784  146.3561  135.7829 C   0  0  0  0  0  0  0  0  0  0  0  0
  125.8335  147.6528  135.6101 C   0  0  0  0  0  0  0  0  0  0  0  0
  126.6046  148.6913  135.3602 C   0  0  0  0  0  0  0  0  0  0  0  0
  125.9659  149.9938  135.1808 C   0  0  0  0  0  0  0  0  0  0  0  0
  124.5074  150.0938  135.3129 C   0  0  0  0  0  0  0  0  0  0  0  0
  126.7108  151.0547  134.9042 C   0  0  0  0  0  0  0  0  0  0  0  0
  126.1073  152.3092  134.7302 O   0  0  0  0  0  0  0  0  0  0  0  0
  128.1613  150.9207  134.7798 C   0  0  0  0  0  0  0  0  0  0  0  0
  128.8706  151.9474  134.5122 O   0  0  0  0  0  0  0  0  0  0  0  0
  128.7819  149.6198  134.9621 C   0  0  0  0  0  0  0  0  0  0  0  0
  128.0476  148.5277  135.2448 C   0  0  0  0  0  0  0  0  0  0  0  0
  128.7361  147.2603  135.4782 C   0  0  1  0  0  0  0  0  0  0  0  0
  129.7015  147.4160  136.6825 C   0  0  0  0  0  0  0  0  0  0  0  0
  129.6611  146.8854  134.3429 C   0  0  0  0  0  0  0  0  0  0  0  0
  130.1902  145.4720  134.5044 C   0  0  0  0  0  0  0  0  0  0  0  0
  129.0922  144.4441  134.6522 C   0  0  1  0  0  0  0  0  0  0  0  0
  128.1429  144.7328  133.4776 C   0  0  0  0  0  0  0  0  0  0  0  0
  130.1809  141.0509  131.3202 C   0  0  0  0  0  0  0  0  0  0  0  0
  131.1187  141.2010  130.4993 O   0  0  0  0  0  0  0  0  0  0  0  0
  128.9699  140.5248  130.8837 O   0  0  0  0  0  0  0  0  0  0  0  0
  128.9406  139.1485  130.5152 C   0  0  0  0  0  0  0  0  0  0  0  0
  1  2  1  6
  2  3  1  0
  3  4  1  6
  3  5  1  0
  5  6  1  0
  6  7  1  0
  7  8  1  1
  7  9  1  0
  9 10  1  0
 10 11  1  0
 11 12  1  1
 11 13  1  0
 13 14  2  0
 14 15  1  0
 15 16  2  0
 16 17  1  0
 17 18  1  0
 17 19  2  0
 19 20  1  0
 19 21  1  0
 21 22  2  0
 21 23  1  0
 23 24  2  0
 24 25  1  0
 25 26  1  1
 25 27  1  0
 27 28  1  0
 28 29  1  0
 29 30  1  6
  3 31  1  0
 31 32  2  0
 31 33  1  0
 33 34  1  0
  7  1  1  0
 29 11  1  0
 29  1  1  0
 25 13  1  0
 24 16  1  0
M  END
$$$$
