
     RDKit          3D

 34 38  0  0  0  0  0  0  0  0999 V2000
  165.8327  147.6594  124.7375 C   0  0  2  0  0  0  0  0  0  0  0  0
  164.4101  147.1765  124.9614 C   0  0  0  0  0  0  0  0  0  0  0  0
  163.8709  146.3743  123.8010 C   0  0  1  0  0  0  0  0  0  0  0  0
  163.3818  147.3129  122.6967 C   0  0  0  0  0  0  0  0  0  0  0  0
  164.9072  145.4234  123.3055 C   0  0  0  0  0  0  0  0  0  0  0  0
  165.9409  145.2653  124.3960 C   0  0  0  0  0  0  0  0  0  0  0  0
  166.7699  146.5628  124.3899 C   0  0  1  0  0  0  0  0  0  0  0  0
  167.2332  146.6781  122.9304 C   0  0  0  0  0  0  0  0  0  0  0  0
  167.9153  146.3345  125.2838 C   0  0  0  0  0  0  0  0  0  0  0  0
  168.1149  147.2419  126.4492 C   0  0  0  0  0  0  0  0  0  0  0  0
  167.6686  148.6633  126.1766 C   0  0  2  0  0  0  0  0  0  0  0  0
  168.5493  149.1609  125.0938 C   0  0  0  0  0  0  0  0  0  0  0  0
  167.7342  149.4776  127.4421 C   0  0  0  0  0  0  0  0  0  0  0  0
  168.3340  148.9850  128.5106 C   0  0  0  0  0  0  0  0  0  0  0  0
  168.4580  149.6612  129.7968 C   0  0  0  0  0  0  0  0  0  0  0  0
  167.9270  150.8616  129.9108 C   0  0  0  0  0  0  0  0  0  0  0  0
  168.0426  151.5444  131.1981 C   0  0  0  0  0  0  0  0  0  0  0  0
  168.7632  150.8812  132.2916 C   0  0  0  0  0  0  0  0  0  0  0  0
  167.4983  152.7429  131.3536 C   0  0  0  0  0  0  0  0  0  0  0  0
  167.6037  153.4064  132.5851 O   0  0  0  0  0  0  0  0  0  0  0  0
  166.7877  153.3758  130.2437 C   0  0  0  0  0  0  0  0  0  0  0  0
  166.2657  154.5296  130.4028 O   0  0  0  0  0  0  0  0  0  0  0  0
  166.6822  152.6853  128.9699 C   0  0  0  0  0  0  0  0  0  0  0  0
  167.2273  151.4683  128.7864 C   0  0  0  0  0  0  0  0  0  0  0  0
  167.1409  150.8530  127.4640 C   0  0  1  0  0  0  0  0  0  0  0  0
  167.8446  151.7670  126.4267 C   0  0  0  0  0  0  0  0  0  0  0  0
  165.7212  150.7800  126.9501 C   0  0  0  0  0  0  0  0  0  0  0  0
  165.6328  149.9443  125.6861 C   0  0  0  0  0  0  0  0  0  0  0  0
  166.2051  148.5559  125.8553 C   0  0  1  0  0  0  0  0  0  0  0  0
  165.5276  148.0198  127.1273 C   0  0  0  0  0  0  0  0  0  0  0  0
  162.6762  145.6067  124.2273 C   0  0  0  0  0  0  0  0  0  0  0  0
  161.6229  145.7273  123.5552 O   0  0  0  0  0  0  0  0  0  0  0  0
  162.6856  144.7668  125.3357 O   0  0  0  0  0  0  0  0  0  0  0  0
  161.5696  144.8254  126.2199 C   0  0  0  0  0  0  0  0  0  0  0  0
  1  2  1  1
  2  3  1  0
  3  4  1  6
  3  5  1  0
  5  6  1  0
  6  7  1  0
  7  8  1  6
  7  9  1  0
  9 10  1  0
 10 11  1  0
 11 12  1  6
 11 13  1  0
 13 14  2  0
 14 15  1  0
 15 16  2  0
 16 17  1  0
 17 18  1  0
 17 19  2  0
 19 20  1  0
 19 21  1  0
 21 22  2  0
 21 23  1  0
 23 24  2  0
 24 25  1  0
 25 26  1  6
 25 27  1  0
 27 28  1  0
 28 29  1  0
 29 30  1  1
  3 31  1  0
 31 32  2  0
 31 33  1  0
 33 34  1  0
  7  1  1  0
 29 11  1  0
 29  1  1  0
 25 13  1  0
 24 16  1  0
M  END
$$$$
