
     RDKit          3D

 34 38  0  0  0  0  0  0  0  0999 V2000
  188.0309  162.0776  136.2013 C   0  0  2  0  0  0  0  0  0  0  0  0
  187.1386  160.9256  135.7726 C   0  0  0  0  0  0  0  0  0  0  0  0
  187.8171  159.9825  134.8078 C   0  0  1  0  0  0  0  0  0  0  0  0
  187.7646  160.5548  133.3903 C   0  0  0  0  0  0  0  0  0  0  0  0
  189.2159  159.7125  135.2482 C   0  0  0  0  0  0  0  0  0  0  0  0
  189.3163  160.0898  136.7078 C   0  0  0  0  0  0  0  0  0  0  0  0
  189.3342  161.6289  136.7506 C   0  0  1  0  0  0  0  0  0  0  0  0
  190.4851  161.9945  135.8021 C   0  0  0  0  0  0  0  0  0  0  0  0
  189.6587  162.0076  138.1342 C   0  0  0  0  0  0  0  0  0  0  0  0
  188.7040  162.8654  138.8918 C   0  0  0  0  0  0  0  0  0  0  0  0
  187.9722  163.8574  138.0119 C   0  0  2  0  0  0  0  0  0  0  0  0
  189.0151  164.7586  137.4680 C   0  0  0  0  0  0  0  0  0  0  0  0
  186.9055  164.5645  138.8061 C   0  0  0  0  0  0  0  0  0  0  0  0
  186.8671  164.4319  140.1195 C   0  0  0  0  0  0  0  0  0  0  0  0
  185.8850  165.0506  141.0027 C   0  0  0  0  0  0  0  0  0  0  0  0
  184.9540  165.8022  140.4514 C   0  0  0  0  0  0  0  0  0  0  0  0
  183.9628  166.4221  141.3289 C   0  0  0  0  0  0  0  0  0  0  0  0
  184.0622  166.2053  142.7773 C   0  0  0  0  0  0  0  0  0  0  0  0
  182.9984  167.1646  140.8041 C   0  0  0  0  0  0  0  0  0  0  0  0
  182.0423  167.7638  141.6378 O   0  0  0  0  0  0  0  0  0  0  0  0
  182.9283  167.3608  139.3571 C   0  0  0  0  0  0  0  0  0  0  0  0
  181.9955  168.0764  138.8604 O   0  0  0  0  0  0  0  0  0  0  0  0
  183.9213  166.7393  138.4979 C   0  0  0  0  0  0  0  0  0  0  0  0
  184.9111  165.9820  139.0064 C   0  0  0  0  0  0  0  0  0  0  0  0
  185.9149  165.4357  138.0962 C   0  0  1  0  0  0  0  0  0  0  0  0
  186.6361  166.6012  137.3695 C   0  0  0  0  0  0  0  0  0  0  0  0
  185.3009  164.6502  136.9599 C   0  0  0  0  0  0  0  0  0  0  0  0
  186.3604  163.9130  136.1612 C   0  0  0  0  0  0  0  0  0  0  0  0
  187.2261  163.0162  137.0157 C   0  0  1  0  0  0  0  0  0  0  0  0
  186.2213  162.1833  137.8288 C   0  0  0  0  0  0  0  0  0  0  0  0
  187.0749  158.7005  134.7458 C   0  0  0  0  0  0  0  0  0  0  0  0
  187.6229  157.7249  134.1768 O   0  0  0  0  0  0  0  0  0  0  0  0
  185.8053  158.5464  135.2920 O   0  0  0  0  0  0  0  0  0  0  0  0
  184.6971  158.5293  134.3963 C   0  0  0  0  0  0  0  0  0  0  0  0
  1  2  1  1
  2  3  1  0
  3  4  1  6
  3  5  1  0
  5  6  1  0
  6  7  1  0
  7  8  1  6
  7  9  1  0
  9 10  1  0
 10 11  1  0
 11 12  1  6
 11 13  1  0
 13 14  2  0
 14 15  1  0
 15 16  2  0
 16 17  1  0
 17 18  1  0
 17 19  2  0
 19 20  1  0
 19 21  1  0
 21 22  2  0
 21 23  1  0
 23 24  2  0
 24 25  1  0
 25 26  1  6
 25 27  1  0
 27 28  1  0
 28 29  1  0
 29 30  1  1
  3 31  1  0
 31 32  2  0
 31 33  1  0
 33 34  1  0
  7  1  1  0
 29 11  1  0
 29  1  1  0
 25 13  1  0
 24 16  1  0
M  END
$$$$
