
     RDKit          3D

 34 38  0  0  0  0  0  0  0  0999 V2000
  174.5013  166.3319  109.8377 C   0  0  2  0  0  0  0  0  0  0  0  0
  175.9695  166.4429  109.4647 C   0  0  0  0  0  0  0  0  0  0  0  0
  176.2300  167.4829  108.4012 C   0  0  1  0  0  0  0  0  0  0  0  0
  175.9189  166.9084  107.0182 C   0  0  0  0  0  0  0  0  0  0  0  0
  175.4413  168.7168  108.6822 C   0  0  0  0  0  0  0  0  0  0  0  0
  175.0304  168.6753  110.1356 C   0  0  0  0  0  0  0  0  0  0  0  0
  173.9025  167.6314  110.2307 C   0  0  1  0  0  0  0  0  0  0  0  0
  172.8900  168.1098  109.1799 C   0  0  0  0  0  0  0  0  0  0  0  0
  173.3398  167.7421  111.5850 C   0  0  0  0  0  0  0  0  0  0  0  0
  173.3409  166.5419  112.4687 C   0  0  0  0  0  0  0  0  0  0  0  0
  173.1687  165.2447  111.7062 C   0  0  2  0  0  0  0  0  0  0  0  0
  171.8240  165.3170  111.0879 C   0  0  0  0  0  0  0  0  0  0  0  0
  173.3543  164.0717  112.6327 C   0  0  0  0  0  0  0  0  0  0  0  0
  173.4148  164.2675  113.9374 C   0  0  0  0  0  0  0  0  0  0  0  0
  173.6019  163.2252  114.9402 C   0  0  0  0  0  0  0  0  0  0  0  0
  173.7252  161.9837  114.5169 C   0  0  0  0  0  0  0  0  0  0  0  0
  173.9180  160.9335  115.5151 C   0  0  0  0  0  0  0  0  0  0  0  0
  173.9381  161.2997  116.9365 C   0  0  0  0  0  0  0  0  0  0  0  0
  174.0697  159.6770  115.1212 C   0  0  0  0  0  0  0  0  0  0  0  0
  174.2553  158.6618  116.0715 O   0  0  0  0  0  0  0  0  0  0  0  0
  174.0441  159.3461  113.6975 C   0  0  0  0  0  0  0  0  0  0  0  0
  174.1922  158.1337  113.3272 O   0  0  0  0  0  0  0  0  0  0  0  0
  173.8504  160.4007  112.7171 C   0  0  0  0  0  0  0  0  0  0  0  0
  173.6927  161.6839  113.0917 C   0  0  0  0  0  0  0  0  0  0  0  0
  173.4396  162.6893  112.0622 C   0  0  1  0  0  0  0  0  0  0  0  0
  172.1339  162.3301  111.3054 C   0  0  0  0  0  0  0  0  0  0  0  0
  174.4843  162.6761  110.9697 C   0  0  0  0  0  0  0  0  0  0  0  0
  174.3256  163.8642  110.0385 C   0  0  0  0  0  0  0  0  0  0  0  0
  174.3381  165.1893  110.7650 C   0  0  1  0  0  0  0  0  0  0  0  0
  175.5944  165.1243  111.6492 C   0  0  0  0  0  0  0  0  0  0  0  0
  177.6718  167.8280  108.3723 C   0  0  0  0  0  0  0  0  0  0  0  0
  178.5065  166.8997  108.5036 O   0  0  0  0  0  0  0  0  0  0  0  0
  178.1232  169.1328  108.2062 O   0  0  0  0  0  0  0  0  0  0  0  0
  177.1564  170.1787  108.2524 C   0  0  0  0  0  0  0  0  0  0  0  0
  1  2  1  1
  2  3  1  0
  3  4  1  6
  3  5  1  0
  5  6  1  0
  6  7  1  0
  7  8  1  6
  7  9  1  0
  9 10  1  0
 10 11  1  0
 11 12  1  6
 11 13  1  0
 13 14  2  0
 14 15  1  0
 15 16  2  0
 16 17  1  0
 17 18  1  0
 17 19  2  0
 19 20  1  0
 19 21  1  0
 21 22  2  0
 21 23  1  0
 23 24  2  0
 24 25  1  0
 25 26  1  6
 25 27  1  0
 27 28  1  0
 28 29  1  0
 29 30  1  1
  3 31  1  0
 31 32  2  0
 31 33  1  0
 33 34  1  0
  7  1  1  0
 29 11  1  0
 29  1  1  0
 25 13  1  0
 24 16  1  0
M  END
$$$$
