
     RDKit          3D

 34 38  0  0  0  0  0  0  0  0999 V2000
  188.9039  161.4643  135.8916 C   0  0  2  0  0  0  0  0  0  0  0  0
  187.5090  160.9342  136.1753 C   0  0  0  0  0  0  0  0  0  0  0  0
  187.2725  160.6530  137.6401 C   0  0  1  0  0  0  0  0  0  0  0  0
  187.8684  159.2954  138.0165 C   0  0  0  0  0  0  0  0  0  0  0  0
  187.8299  161.7565  138.4738 C   0  0  0  0  0  0  0  0  0  0  0  0
  188.0153  162.9580  137.5766 C   0  0  0  0  0  0  0  0  0  0  0  0
  189.2492  162.6550  136.7068 C   0  0  1  0  0  0  0  0  0  0  0  0
  190.3343  162.3176  137.7397 C   0  0  0  0  0  0  0  0  0  0  0  0
  189.5771  163.8989  135.9939 C   0  0  0  0  0  0  0  0  0  0  0  0
  189.6074  163.8916  134.5038 C   0  0  0  0  0  0  0  0  0  0  0  0
  190.0727  162.5707  133.9272 C   0  0  2  0  0  0  0  0  0  0  0  0
  191.4730  162.4040  134.3823 C   0  0  0  0  0  0  0  0  0  0  0  0
  189.9122  162.5750  132.4295 C   0  0  0  0  0  0  0  0  0  0  0  0
  189.6261  163.7014  131.8022 C   0  0  0  0  0  0  0  0  0  0  0  0
  189.4342  163.8416  130.3631 C   0  0  0  0  0  0  0  0  0  0  0  0
  189.5507  162.7587  129.6219 C   0  0  0  0  0  0  0  0  0  0  0  0
  189.3551  162.8895  128.1792 C   0  0  0  0  0  0  0  0  0  0  0  0
  189.0670  164.2154  127.6189 C   0  0  0  0  0  0  0  0  0  0  0  0
  189.4414  161.8152  127.4077 C   0  0  0  0  0  0  0  0  0  0  0  0
  189.2552  161.9304  126.0219 O   0  0  0  0  0  0  0  0  0  0  0  0
  189.7302  160.5092  127.9978 C   0  0  0  0  0  0  0  0  0  0  0  0
  189.8103  159.4800  127.2473 O   0  0  0  0  0  0  0  0  0  0  0  0
  189.9234  160.3952  129.4331 C   0  0  0  0  0  0  0  0  0  0  0  0
  189.8422  161.4712  130.2377 C   0  0  0  0  0  0  0  0  0  0  0  0
  190.1079  161.3020  131.6645 C   0  0  1  0  0  0  0  0  0  0  0  0
  191.5511  160.7666  131.8569 C   0  0  0  0  0  0  0  0  0  0  0  0
  189.2547  160.2216  132.2890 C   0  0  0  0  0  0  0  0  0  0  0  0
  189.3876  160.2169  133.8010 C   0  0  0  0  0  0  0  0  0  0  0  0
  189.0803  161.5587  134.4246 C   0  0  1  0  0  0  0  0  0  0  0  0
  187.7248  161.9566  133.8175 C   0  0  0  0  0  0  0  0  0  0  0  0
  185.8185  160.5353  137.9052 C   0  0  0  0  0  0  0  0  0  0  0  0
  185.4507  160.2114  139.0609 O   0  0  0  0  0  0  0  0  0  0  0  0
  184.8602  160.7699  136.9251 O   0  0  0  0  0  0  0  0  0  0  0  0
  184.2793  162.0698  136.8650 C   0  0  0  0  0  0  0  0  0  0  0  0
  1  2  1  6
  2  3  1  0
  3  4  1  1
  3  5  1  0
  5  6  1  0
  6  7  1  0
  7  8  1  1
  7  9  1  0
  9 10  1  0
 10 11  1  0
 11 12  1  6
 11 13  1  0
 13 14  2  0
 14 15  1  0
 15 16  2  0
 16 17  1  0
 17 18  1  0
 17 19  2  0
 19 20  1  0
 19 21  1  0
 21 22  2  0
 21 23  1  0
 23 24  2  0
 24 25  1  0
 25 26  1  6
 25 27  1  0
 27 28  1  0
 28 29  1  0
 29 30  1  6
  3 31  1  0
 31 32  2  0
 31 33  1  0
 33 34  1  0
  7  1  1  0
 29 11  1  0
 29  1  1  0
 25 13  1  0
 24 16  1  0
M  END
$$$$
