
     RDKit          3D

 34 38  0  0  0  0  0  0  0  0999 V2000
  174.0906  162.0907  114.6511 C   0  0  2  0  0  0  0  0  0  0  0  0
  175.1606  162.5586  115.6224 C   0  0  0  0  0  0  0  0  0  0  0  0
  175.1225  161.8220  116.9402 C   0  0  1  0  0  0  0  0  0  0  0  0
  174.0395  162.4163  117.8423 C   0  0  0  0  0  0  0  0  0  0  0  0
  174.9172  160.3632  116.7101 C   0  0  0  0  0  0  0  0  0  0  0  0
  175.2754  160.0728  115.2713 C   0  0  0  0  0  0  0  0  0  0  0  0
  174.1152  160.6248  114.4226 C   0  0  1  0  0  0  0  0  0  0  0  0
  172.8786  159.9524  115.0364 C   0  0  0  0  0  0  0  0  0  0  0  0
  174.3373  160.1517  113.0479 C   0  0  0  0  0  0  0  0  0  0  0  0
  174.4646  161.1524  111.9507 C   0  0  0  0  0  0  0  0  0  0  0  0
  173.6169  162.3874  112.1739 C   0  0  2  0  0  0  0  0  0  0  0  0
  172.2114  161.9182  112.1612 C   0  0  0  0  0  0  0  0  0  0  0  0
  173.9260  163.4233  111.1251 C   0  0  0  0  0  0  0  0  0  0  0  0
  174.6651  163.1001  110.0794 C   0  0  0  0  0  0  0  0  0  0  0  0
  175.0462  164.0060  109.0018 C   0  0  0  0  0  0  0  0  0  0  0  0
  174.6250  165.2524  109.0725 C   0  0  0  0  0  0  0  0  0  0  0  0
  175.0065  166.1683  107.9990 C   0  0  0  0  0  0  0  0  0  0  0  0
  175.8126  165.6582  106.8832 C   0  0  0  0  0  0  0  0  0  0  0  0
  174.6198  167.4349  108.0520 C   0  0  0  0  0  0  0  0  0  0  0  0
  174.9808  168.3218  107.0267 O   0  0  0  0  0  0  0  0  0  0  0  0
  173.8170  167.9106  109.1775 C   0  0  0  0  0  0  0  0  0  0  0  0
  173.4500  169.1322  109.2208 O   0  0  0  0  0  0  0  0  0  0  0  0
  173.4446  166.9882  110.2362 C   0  0  0  0  0  0  0  0  0  0  0  0
  173.8238  165.6971  110.2049 C   0  0  0  0  0  0  0  0  0  0  0  0
  173.3652  164.8051  111.2674 C   0  0  1  0  0  0  0  0  0  0  0  0
  171.8143  164.7666  111.2701 C   0  0  0  0  0  0  0  0  0  0  0  0
  173.6981  165.3270  112.6465 C   0  0  0  0  0  0  0  0  0  0  0  0
  173.4130  164.2873  113.7149 C   0  0  0  0  0  0  0  0  0  0  0  0
  174.1170  162.9740  113.4632 C   0  0  1  0  0  0  0  0  0  0  0  0
  175.5808  163.3715  113.2112 C   0  0  0  0  0  0  0  0  0  0  0  0
  176.3985  162.0206  117.6688 C   0  0  0  0  0  0  0  0  0  0  0  0
  176.5478  163.0799  118.3257 O   0  0  0  0  0  0  0  0  0  0  0  0
  177.4236  161.0810  117.6477 O   0  0  0  0  0  0  0  0  0  0  0  0
  178.0524  160.8156  116.3967 C   0  0  0  0  0  0  0  0  0  0  0  0
  1  2  1  1
  2  3  1  0
  3  4  1  1
  3  5  1  0
  5  6  1  0
  6  7  1  0
  7  8  1  1
  7  9  1  0
  9 10  1  0
 10 11  1  0
 11 12  1  1
 11 13  1  0
 13 14  2  0
 14 15  1  0
 15 16  2  0
 16 17  1  0
 17 18  1  0
 17 19  2  0
 19 20  1  0
 19 21  1  0
 21 22  2  0
 21 23  1  0
 23 24  2  0
 24 25  1  0
 25 26  1  1
 25 27  1  0
 27 28  1  0
 28 29  1  0
 29 30  1  6
  3 31  1  0
 31 32  2  0
 31 33  1  0
 33 34  1  0
  7  1  1  0
 29 11  1  0
 29  1  1  0
 25 13  1  0
 24 16  1  0
M  END
$$$$
