
     RDKit          3D

 34 38  0  0  0  0  0  0  0  0999 V2000
  131.1138  134.6522  130.6415 C   0  0  2  0  0  0  0  0  0  0  0  0
  129.8223  134.3057  129.9210 C   0  0  0  0  0  0  0  0  0  0  0  0
  129.8458  132.9298  129.2989 C   0  0  1  0  0  0  0  0  0  0  0  0
  130.5849  132.9718  127.9604 C   0  0  0  0  0  0  0  0  0  0  0  0
  130.4552  131.9480  130.2413 C   0  0  0  0  0  0  0  0  0  0  0  0
  130.4113  132.5545  131.6245 C   0  0  0  0  0  0  0  0  0  0  0  0
  131.5056  133.6375  131.6507 C   0  0  1  0  0  0  0  0  0  0  0  0
  132.7639  132.8779  131.2061 C   0  0  0  0  0  0  0  0  0  0  0  0
  131.6289  134.0771  133.0488 C   0  0  0  0  0  0  0  0  0  0  0  0
  131.4178  135.5159  133.3755 C   0  0  0  0  0  0  0  0  0  0  0  0
  131.8715  136.4471  132.2705 C   0  0  2  0  0  0  0  0  0  0  0  0
  133.3350  136.2477  132.1520 C   0  0  0  0  0  0  0  0  0  0  0  0
  131.4705  137.8632  132.5905 C   0  0  0  0  0  0  0  0  0  0  0  0
  131.0112  138.1609  133.7923 C   0  0  0  0  0  0  0  0  0  0  0  0
  130.5797  139.4843  134.2279 C   0  0  0  0  0  0  0  0  0  0  0  0
  130.6473  140.4683  133.3544 C   0  0  0  0  0  0  0  0  0  0  0  0
  130.2121  141.7968  133.7812 C   0  0  0  0  0  0  0  0  0  0  0  0
  129.7483  141.9829  135.1615 C   0  0  0  0  0  0  0  0  0  0  0  0
  130.2445  142.8035  132.9196 C   0  0  0  0  0  0  0  0  0  0  0  0
  129.8289  144.0824  133.3195 O   0  0  0  0  0  0  0  0  0  0  0  0
  130.7125  142.5843  131.5521 C   0  0  0  0  0  0  0  0  0  0  0  0
  130.7392  143.5592  130.7288 O   0  0  0  0  0  0  0  0  0  0  0  0
  131.1430  141.2585  131.1429 C   0  0  0  0  0  0  0  0  0  0  0  0
  131.1209  140.2202  131.9993 C   0  0  0  0  0  0  0  0  0  0  0  0
  131.6250  138.9259  131.5460 C   0  0  1  0  0  0  0  0  0  0  0  0
  133.1132  139.0720  131.1328 C   0  0  0  0  0  0  0  0  0  0  0  0
  130.9592  138.4583  130.2720 C   0  0  0  0  0  0  0  0  0  0  0  0
  131.3354  137.0244  129.9457 C   0  0  0  0  0  0  0  0  0  0  0  0
  131.0434  136.0656  131.0767 C   0  0  1  0  0  0  0  0  0  0  0  0
  129.5837  136.3631  131.4577 C   0  0  0  0  0  0  0  0  0  0  0  0
  128.4652  132.4959  128.9763 C   0  0  0  0  0  0  0  0  0  0  0  0
  127.6959  133.3238  128.4299 O   0  0  0  0  0  0  0  0  0  0  0  0
  128.0011  131.2154  129.2567 O   0  0  0  0  0  0  0  0  0  0  0  0
  127.8055  130.8670  130.6247 C   0  0  0  0  0  0  0  0  0  0  0  0
  1  2  1  1
  2  3  1  0
  3  4  1  6
  3  5  1  0
  5  6  1  0
  6  7  1  0
  7  8  1  6
  7  9  1  0
  9 10  1  0
 10 11  1  0
 11 12  1  6
 11 13  1  0
 13 14  2  0
 14 15  1  0
 15 16  2  0
 16 17  1  0
 17 18  1  0
 17 19  2  0
 19 20  1  0
 19 21  1  0
 21 22  2  0
 21 23  1  0
 23 24  2  0
 24 25  1  0
 25 26  1  6
 25 27  1  0
 27 28  1  0
 28 29  1  0
 29 30  1  1
  3 31  1  0
 31 32  2  0
 31 33  1  0
 33 34  1  0
  7  1  1  0
 29 11  1  0
 29  1  1  0
 25 13  1  0
 24 16  1  0
M  END
$$$$
