
     RDKit          3D

 34 38  0  0  0  0  0  0  0  0999 V2000
  164.4159  145.8814  124.7244 C   0  0  2  0  0  0  0  0  0  0  0  0
  165.0075  144.7122  125.4925 C   0  0  0  0  0  0  0  0  0  0  0  0
  164.8180  143.3892  124.7893 C   0  0  1  0  0  0  0  0  0  0  0  0
  163.4097  142.8528  125.0514 C   0  0  0  0  0  0  0  0  0  0  0  0
  165.0961  143.5353  123.3316 C   0  0  0  0  0  0  0  0  0  0  0  0
  165.8985  144.8018  123.1444 C   0  0  0  0  0  0  0  0  0  0  0  0
  164.9074  145.9660  123.3270 C   0  0  1  0  0  0  0  0  0  0  0  0
  163.7875  145.6351  122.3298 C   0  0  0  0  0  0  0  0  0  0  0  0
  165.6175  147.1899  122.9258 C   0  0  0  0  0  0  0  0  0  0  0  0
  165.7560  148.3008  123.9098 C   0  0  0  0  0  0  0  0  0  0  0  0
  164.5714  148.4132  124.8469 C   0  0  2  0  0  0  0  0  0  0  0  0
  163.4100  148.7465  123.9891 C   0  0  0  0  0  0  0  0  0  0  0  0
  164.8544  149.4338  125.9179 C   0  0  0  0  0  0  0  0  0  0  0  0
  165.9097  150.2209  125.8137 C   0  0  0  0  0  0  0  0  0  0  0  0
  166.3029  151.2392  126.7810 C   0  0  0  0  0  0  0  0  0  0  0  0
  165.5498  151.3894  127.8516 C   0  0  0  0  0  0  0  0  0  0  0  0
  165.9395  152.4044  128.8286 C   0  0  0  0  0  0  0  0  0  0  0  0
  167.1274  153.2254  128.5645 C   0  0  0  0  0  0  0  0  0  0  0  0
  165.2173  152.5646  129.9284 C   0  0  0  0  0  0  0  0  0  0  0  0
  165.5830  153.5361  130.8721 O   0  0  0  0  0  0  0  0  0  0  0  0
  164.0393  151.7305  130.1607 C   0  0  0  0  0  0  0  0  0  0  0  0
  163.3504  151.8909  131.2231 O   0  0  0  0  0  0  0  0  0  0  0  0
  163.6638  150.7267  129.1800 C   0  0  0  0  0  0  0  0  0  0  0  0
  164.3799  150.5455  128.0547 C   0  0  0  0  0  0  0  0  0  0  0  0
  163.9156  149.5630  127.0781 C   0  0  1  0  0  0  0  0  0  0  0  0
  162.4966  149.9568  126.5902 C   0  0  0  0  0  0  0  0  0  0  0  0
  163.7021  148.1961  127.6873 C   0  0  0  0  0  0  0  0  0  0  0  0
  163.4370  147.1501  126.6199 C   0  0  0  0  0  0  0  0  0  0  0  0
  164.5185  147.0953  125.5658 C   0  0  1  0  0  0  0  0  0  0  0  0
  165.8256  146.9953  126.3695 C   0  0  0  0  0  0  0  0  0  0  0  0
  165.7402  142.3767  125.3573 C   0  0  0  0  0  0  0  0  0  0  0  0
  165.3100  141.6273  126.2679 O   0  0  0  0  0  0  0  0  0  0  0  0
  167.0518  142.2327  124.9181 O   0  0  0  0  0  0  0  0  0  0  0  0
  167.2649  141.5629  123.6785 C   0  0  0  0  0  0  0  0  0  0  0  0
  1  2  1  1
  2  3  1  0
  3  4  1  6
  3  5  1  0
  5  6  1  0
  6  7  1  0
  7  8  1  6
  7  9  1  0
  9 10  1  0
 10 11  1  0
 11 12  1  6
 11 13  1  0
 13 14  2  0
 14 15  1  0
 15 16  2  0
 16 17  1  0
 17 18  1  0
 17 19  2  0
 19 20  1  0
 19 21  1  0
 21 22  2  0
 21 23  1  0
 23 24  2  0
 24 25  1  0
 25 26  1  6
 25 27  1  0
 27 28  1  0
 28 29  1  0
 29 30  1  1
  3 31  1  0
 31 32  2  0
 31 33  1  0
 33 34  1  0
  7  1  1  0
 29 11  1  0
 29  1  1  0
 25 13  1  0
 24 16  1  0
M  END
$$$$
