
     RDKit          3D

 34 38  0  0  0  0  0  0  0  0999 V2000
  106.8972  165.2579  158.2336 C   0  0  2  0  0  0  0  0  0  0  0  0
  106.8610  166.7350  158.5854 C   0  0  0  0  0  0  0  0  0  0  0  0
  106.1158  167.0169  159.8683 C   0  0  1  0  0  0  0  0  0  0  0  0
  104.6090  167.0392  159.6058 C   0  0  0  0  0  0  0  0  0  0  0  0
  106.4850  166.0157  160.9099 C   0  0  0  0  0  0  0  0  0  0  0  0
  107.7831  165.3706  160.4836 C   0  0  0  0  0  0  0  0  0  0  0  0
  107.4258  164.4124  159.3325 C   0  0  1  0  0  0  0  0  0  0  0  0
  106.3169  163.5369  159.9340 C   0  0  0  0  0  0  0  0  0  0  0  0
  108.6306  163.6138  159.0604 C   0  0  0  0  0  0  0  0  0  0  0  0
  109.2229  163.6418  157.6931 C   0  0  0  0  0  0  0  0  0  0  0  0
  108.1854  163.8002  156.6011 C   0  0  2  0  0  0  0  0  0  0  0  0
  107.3372  162.5873  156.6730 C   0  0  0  0  0  0  0  0  0  0  0  0
  108.8618  163.9963  155.2697 C   0  0  0  0  0  0  0  0  0  0  0  0
  110.1630  163.8002  155.1580 C   0  0  0  0  0  0  0  0  0  0  0  0
  110.9403  163.9650  153.9349 C   0  0  0  0  0  0  0  0  0  0  0  0
  110.2986  164.3441  152.8485 C   0  0  0  0  0  0  0  0  0  0  0  0
  111.0709  164.5164  151.6195 C   0  0  0  0  0  0  0  0  0  0  0  0
  112.5115  164.2353  151.6407 C   0  0  0  0  0  0  0  0  0  0  0  0
  110.4601  164.9203  150.5147 C   0  0  0  0  0  0  0  0  0  0  0  0
  111.1925  165.0887  149.3301 O   0  0  0  0  0  0  0  0  0  0  0  0
  109.0235  165.1912  150.5276 C   0  0  0  0  0  0  0  0  0  0  0  0
  108.4438  165.5810  149.4594 O   0  0  0  0  0  0  0  0  0  0  0  0
  108.2691  165.0143  151.7565 C   0  0  0  0  0  0  0  0  0  0  0  0
  108.8658  164.6039  152.8910 C   0  0  0  0  0  0  0  0  0  0  0  0
  108.0419  164.3850  154.0777 C   0  0  1  0  0  0  0  0  0  0  0  0
  106.9783  163.2986  153.7696 C   0  0  0  0  0  0  0  0  0  0  0  0
  107.2058  165.5929  154.4338 C   0  0  0  0  0  0  0  0  0  0  0  0
  106.5335  165.4216  155.7838 C   0  0  0  0  0  0  0  0  0  0  0  0
  107.5101  165.1096  156.8941 C   0  0  1  0  0  0  0  0  0  0  0  0
  108.5962  166.1895  156.7572 C   0  0  0  0  0  0  0  0  0  0  0  0
  106.4526  168.3736  160.3624 C   0  0  0  0  0  0  0  0  0  0  0  0
  105.7264  169.3327  160.0035 O   0  0  0  0  0  0  0  0  0  0  0  0
  107.5353  168.6145  161.2013 O   0  0  0  0  0  0  0  0  0  0  0  0
  108.2664  167.4882  161.6783 C   0  0  0  0  0  0  0  0  0  0  0  0
  1  2  1  1
  2  3  1  0
  3  4  1  6
  3  5  1  0
  5  6  1  0
  6  7  1  0
  7  8  1  1
  7  9  1  0
  9 10  1  0
 10 11  1  0
 11 12  1  6
 11 13  1  0
 13 14  2  0
 14 15  1  0
 15 16  2  0
 16 17  1  0
 17 18  1  0
 17 19  2  0
 19 20  1  0
 19 21  1  0
 21 22  2  0
 21 23  1  0
 23 24  2  0
 24 25  1  0
 25 26  1  6
 25 27  1  0
 27 28  1  0
 28 29  1  0
 29 30  1  1
  3 31  1  0
 31 32  2  0
 31 33  1  0
 33 34  1  0
  7  1  1  0
 29 11  1  0
 29  1  1  0
 25 13  1  0
 24 16  1  0
M  END
$$$$
