
     RDKit          3D

 49 55  0  0  0  0  0  0  0  0999 V2000
  174.5087  149.9223  119.9985 C   0  0  0  0  0  0  0  0  0  0  0  0
  173.9996  149.1343  118.8431 C   0  0  0  0  0  0  0  0  0  0  0  0
  173.9351  149.7652  117.6899 C   0  0  0  0  0  0  0  0  0  0  0  0
  173.6998  147.7412  118.9703 C   0  0  2  0  0  0  0  0  0  0  0  0
  173.4380  147.0022  117.6398 C   0  0  0  0  0  0  0  0  0  0  0  0
  172.8700  145.6476  118.0889 C   0  0  0  0  0  0  0  0  0  0  0  0
  172.9773  145.7072  119.6057 C   0  0  2  0  0  0  0  0  0  0  0  0
  172.0822  144.7561  120.2963 C   0  0  0  0  0  0  0  0  0  0  0  0
  172.0492  145.1775  121.7602 C   0  0  0  0  0  0  0  0  0  0  0  0
  171.4630  146.5672  121.8732 C   0  0  2  0  0  0  0  0  0  0  0  0
  170.0919  146.4512  121.3028 C   0  0  0  0  0  0  0  0  0  0  0  0
  172.2736  147.6155  121.1027 C   0  0  2  0  0  0  0  0  0  0  0  0
  171.3737  148.8593  121.1223 C   0  0  0  0  0  0  0  0  0  0  0  0
  171.1074  149.3165  122.5232 C   0  0  0  0  0  0  0  0  0  0  0  0
  170.6864  148.2379  123.4505 C   0  0  2  0  0  0  0  0  0  0  0  0
  170.4508  148.7050  124.8654 C   0  0  1  0  0  0  0  0  0  0  0  0
  171.4871  149.5674  125.4591 C   0  0  0  0  0  0  0  0  0  0  0  0
  169.2102  149.6195  124.7303 C   0  0  0  0  0  0  0  0  0  0  0  0
  168.6169  149.8863  126.0717 C   0  0  0  0  0  0  0  0  0  0  0  0
  168.7691  149.1391  127.1351 C   0  0  0  0  0  0  0  0  0  0  0  0
  168.1185  149.5342  128.3949 C   0  0  0  0  0  0  0  0  0  0  0  0
  167.1346  148.7524  128.9566 C   0  0  0  0  0  0  0  0  0  0  0  0
  166.4867  149.1033  130.1420 C   0  0  0  0  0  0  0  0  0  0  0  0
  166.8161  150.2660  130.8023 C   0  0  0  0  0  0  0  0  0  0  0  0
  167.7975  151.0352  130.2322 C   0  0  0  0  0  0  0  0  0  0  0  0
  168.4388  150.6925  129.0633 C   0  0  0  0  0  0  0  0  0  0  0  0
  166.1527  150.6558  132.0498 C   0  0  0  0  0  0  0  0  0  0  0  0
  166.3146  151.8853  132.6252 O   0  0  0  0  0  0  0  0  0  0  0  0
  165.4073  149.8077  132.5966 O   0  0  0  0  0  0  0  0  0  0  0  0
  169.5750  147.8809  127.1015 C   0  0  0  0  0  0  0  0  0  0  0  0
  170.7533  147.8906  128.0146 C   0  0  0  0  0  0  0  0  0  0  0  0
  168.6335  146.7717  127.5248 C   0  0  0  0  0  0  0  0  0  0  0  0
  169.9554  147.5578  125.6735 C   0  0  2  0  0  0  0  0  0  0  0  0
  170.8064  146.3362  125.6051 C   0  0  0  0  0  0  0  0  0  0  0  0
  171.0197  145.8721  124.1754 C   0  0  0  0  0  0  0  0  0  0  0  0
  171.5216  147.0120  123.3181 C   0  0  1  0  0  0  0  0  0  0  0  0
  172.9652  147.2440  123.7160 C   0  0  0  0  0  0  0  0  0  0  0  0
  172.5778  147.1940  119.7624 C   0  0  1  0  0  0  0  0  0  0  0  0
  174.3394  145.5365  119.9732 N   0  0  0  0  0  0  0  0  0  0  0  0
  175.2769  145.3060  118.9447 C   0  0  0  0  0  0  0  0  0  0  0  0
  175.7894  143.8651  119.0665 C   0  0  0  0  0  0  0  0  0  0  0  0
  176.5882  143.7215  120.2328 N   0  0  0  0  0  0  0  0  0  0  0  0
  177.2009  144.8920  120.7494 C   0  0  0  0  0  0  0  0  0  0  0  0
  177.2163  144.8549  122.2450 C   0  0  0  0  0  0  0  0  0  0  0  0
  177.1117  143.2118  122.8411 S   0  0  0  0  0  6  0  0  0  0  0  0
  178.0398  143.0396  124.0293 O   0  0  0  0  0  0  0  0  0  0  0  0
  175.7074  142.9876  123.3603 O   0  0  0  0  0  0  0  0  0  0  0  0
  177.4404  141.9825  121.6184 C   0  0  0  0  0  0  0  0  0  0  0  0
  177.4965  142.6142  120.2416 C   0  0  0  0  0  0  0  0  0  0  0  0
  1  2  1  0
  2  3  2  0
  4  2  1  6
  4  5  1  0
  5  6  1  0
  6  7  1  0
  7  8  1  0
  8  9  1  0
  9 10  1  0
 10 11  1  6
 10 12  1  0
 12 13  1  6
 13 14  1  0
 15 14  1  6
 15 16  1  0
 16 17  1  1
 16 18  1  0
 18 19  1  0
 19 20  2  0
 20 21  1  0
 21 22  2  0
 22 23  1  0
 23 24  2  0
 24 25  1  0
 25 26  2  0
 24 27  1  0
 27 28  1  0
 27 29  2  0
 20 30  1  0
 30 31  1  0
 30 32  1  0
 30 33  1  0
 33 34  1  1
 34 35  1  0
 35 36  1  0
 36 37  1  1
 12 38  1  0
  7 39  1  6
 39 40  1  0
 40 41  1  0
 41 42  1  0
 42 43  1  0
 43 44  1  0
 44 45  1  0
 45 46  2  0
 45 47  2  0
 45 48  1  0
 48 49  1  0
 38  4  1  1
 49 42  1  0
 38  7  1  0
 36 10  1  0
 36 15  1  0
 33 16  1  0
 26 21  1  0
M  END
$$$$
