
     RDKit          3D

 49 55  0  0  0  0  0  0  0  0999 V2000
  165.8159  144.5801  122.5629 C   0  0  0  0  0  0  0  0  0  0  0  0
  164.8856  144.6369  123.7232 C   0  0  0  0  0  0  0  0  0  0  0  0
  165.0491  143.7146  124.6477 C   0  0  0  0  0  0  0  0  0  0  0  0
  163.9401  145.7014  123.8640 C   0  0  2  0  0  0  0  0  0  0  0  0
  163.1499  146.0509  122.5840 C   0  0  0  0  0  0  0  0  0  0  0  0
  162.4558  147.3734  122.9421 C   0  0  0  0  0  0  0  0  0  0  0  0
  162.8197  147.5760  124.4058 C   0  0  2  0  0  0  0  0  0  0  0  0
  162.6854  148.9765  124.8567 C   0  0  0  0  0  0  0  0  0  0  0  0
  163.4047  149.0709  126.1966 C   0  0  0  0  0  0  0  0  0  0  0  0
  164.8725  148.7597  126.0055 C   0  0  2  0  0  0  0  0  0  0  0  0
  165.3596  149.7893  125.0455 C   0  0  0  0  0  0  0  0  0  0  0  0
  165.1108  147.3532  125.4445 C   0  0  2  0  0  0  0  0  0  0  0  0
  166.6019  147.3540  125.0787 C   0  0  0  0  0  0  0  0  0  0  0  0
  167.4576  147.5989  126.2829 C   0  0  0  0  0  0  0  0  0  0  0  0
  167.0281  148.7481  127.1168 C   0  0  2  0  0  0  0  0  0  0  0  0
  167.8793  148.9660  128.3431 C   0  0  1  0  0  0  0  0  0  0  0  0
  168.1818  147.7772  129.1587 C   0  0  0  0  0  0  0  0  0  0  0  0
  169.2436  149.3925  127.7511 C   0  0  0  0  0  0  0  0  0  0  0  0
  170.1018  149.9928  128.8122 C   0  0  0  0  0  0  0  0  0  0  0  0
  169.6740  150.5273  129.9274 C   0  0  0  0  0  0  0  0  0  0  0  0
  170.6468  151.0816  130.8826 C   0  0  0  0  0  0  0  0  0  0  0  0
  170.2531  151.9765  131.8517 C   0  0  0  0  0  0  0  0  0  0  0  0
  171.1506  152.5328  132.7645 C   0  0  0  0  0  0  0  0  0  0  0  0
  172.4860  152.1989  132.7257 C   0  0  0  0  0  0  0  0  0  0  0  0
  172.8646  151.3066  131.7559 C   0  0  0  0  0  0  0  0  0  0  0  0
  171.9825  150.7559  130.8540 C   0  0  0  0  0  0  0  0  0  0  0  0
  173.4483  152.7668  133.6743 C   0  0  0  0  0  0  0  0  0  0  0  0
  173.1116  153.7219  134.5926 O   0  0  0  0  0  0  0  0  0  0  0  0
  174.6278  152.3425  133.6236 O   0  0  0  0  0  0  0  0  0  0  0  0
  168.2171  150.6060  130.2516 C   0  0  0  0  0  0  0  0  0  0  0  0
  167.8289  149.8626  131.4841 C   0  0  0  0  0  0  0  0  0  0  0  0
  167.9130  152.0773  130.4481 C   0  0  0  0  0  0  0  0  0  0  0  0
  167.4038  150.1881  129.0465 C   0  0  2  0  0  0  0  0  0  0  0  0
  165.9446  150.2028  129.3491 C   0  0  0  0  0  0  0  0  0  0  0  0
  165.1040  149.9978  128.1015 C   0  0  0  0  0  0  0  0  0  0  0  0
  165.5580  148.7642  127.3542 C   0  0  1  0  0  0  0  0  0  0  0  0
  165.0849  147.5741  128.1641 C   0  0  0  0  0  0  0  0  0  0  0  0
  164.2789  147.0707  124.3066 C   0  0  1  0  0  0  0  0  0  0  0  0
  162.0541  146.6753  125.1945 N   0  0  0  0  0  0  0  0  0  0  0  0
  161.5558  147.1389  126.4301 C   0  0  0  0  0  0  0  0  0  0  0  0
  160.0656  147.4633  126.2636 C   0  0  0  0  0  0  0  0  0  0  0  0
  159.2831  146.2879  126.4220 N   0  0  0  0  0  0  0  0  0  0  0  0
  159.4815  145.5291  127.6040 C   0  0  0  0  0  0  0  0  0  0  0  0
  158.1831  144.9588  128.0806 C   0  0  0  0  0  0  0  0  0  0  0  0
  157.0264  144.8313  126.7723 S   0  0  0  0  0  6  0  0  0  0  0  0
  156.2592  143.5278  126.8941 O   0  0  0  0  0  0  0  0  0  0  0  0
  156.0098  145.9416  126.9326 O   0  0  0  0  0  0  0  0  0  0  0  0
  157.7413  144.9786  125.1655 C   0  0  0  0  0  0  0  0  0  0  0  0
  159.1813  145.4394  125.2726 C   0  0  0  0  0  0  0  0  0  0  0  0
  1  2  1  0
  2  3  2  0
  4  2  1  6
  4  5  1  0
  5  6  1  0
  6  7  1  0
  7  8  1  0
  8  9  1  0
  9 10  1  0
 10 11  1  6
 10 12  1  0
 12 13  1  6
 13 14  1  0
 15 14  1  1
 15 16  1  0
 16 17  1  1
 16 18  1  0
 18 19  1  0
 19 20  2  0
 20 21  1  0
 21 22  2  0
 22 23  1  0
 23 24  2  0
 24 25  1  0
 25 26  2  0
 24 27  1  0
 27 28  1  0
 27 29  2  0
 20 30  1  0
 30 31  1  0
 30 32  1  0
 30 33  1  0
 33 34  1  1
 34 35  1  0
 35 36  1  0
 36 37  1  1
 12 38  1  0
  7 39  1  1
 39 40  1  0
 40 41  1  0
 41 42  1  0
 42 43  1  0
 43 44  1  0
 44 45  1  0
 45 46  2  0
 45 47  2  0
 45 48  1  0
 48 49  1  0
 38  4  1  1
 49 42  1  0
 38  7  1  0
 36 10  1  0
 36 15  1  0
 33 16  1  0
 26 21  1  0
M  END
$$$$
