
     RDKit          3D

 49 55  0  0  0  0  0  0  0  0999 V2000
  171.8538  160.1001  111.2851 C   0  0  0  0  0  0  0  0  0  0  0  0
  172.5800  159.5363  112.4554 C   0  0  0  0  0  0  0  0  0  0  0  0
  171.9530  158.6000  113.1353 C   0  0  0  0  0  0  0  0  0  0  0  0
  173.9249  159.9249  112.7509 C   0  0  2  0  0  0  0  0  0  0  0  0
  174.5552  159.2275  113.9762 C   0  0  0  0  0  0  0  0  0  0  0  0
  175.8418  160.0297  114.2216 C   0  0  0  0  0  0  0  0  0  0  0  0
  175.8724  161.0093  113.0573 C   0  0  2  0  0  0  0  0  0  0  0  0
  176.7277  162.1885  113.3035 C   0  0  0  0  0  0  0  0  0  0  0  0
  176.3788  163.2088  112.2269 C   0  0  0  0  0  0  0  0  0  0  0  0
  174.9303  163.6198  112.3704 C   0  0  2  0  0  0  0  0  0  0  0  0
  174.8328  164.2057  113.7364 C   0  0  0  0  0  0  0  0  0  0  0  0
  173.9634  162.4390  112.2270 C   0  0  2  0  0  0  0  0  0  0  0  0
  172.6126  163.0173  112.6719 C   0  0  0  0  0  0  0  0  0  0  0  0
  172.1938  164.1577  111.7963 C   0  0  0  0  0  0  0  0  0  0  0  0
  173.2507  165.1722  111.5635 C   0  0  2  0  0  0  0  0  0  0  0  0
  172.8269  166.2999  110.6555 C   0  0  1  0  0  0  0  0  0  0  0  0
  172.1419  165.9228  109.4071 C   0  0  0  0  0  0  0  0  0  0  0  0
  171.7485  167.0333  111.4880 C   0  0  0  0  0  0  0  0  0  0  0  0
  171.4713  168.3770  110.9046 C   0  0  0  0  0  0  0  0  0  0  0  0
  172.2839  169.0576  110.1372 C   0  0  0  0  0  0  0  0  0  0  0  0
  171.8679  170.3770  109.6350 C   0  0  0  0  0  0  0  0  0  0  0  0
  172.8002  171.2978  109.2132 C   0  0  0  0  0  0  0  0  0  0  0  0
  172.4426  172.5629  108.7446 C   0  0  0  0  0  0  0  0  0  0  0  0
  171.1195  172.9401  108.6874 C   0  0  0  0  0  0  0  0  0  0  0  0
  170.2013  172.0138  109.1102 C   0  0  0  0  0  0  0  0  0  0  0  0
  170.5502  170.7651  109.5730 C   0  0  0  0  0  0  0  0  0  0  0  0
  170.7175  174.2616  108.1970 C   0  0  0  0  0  0  0  0  0  0  0  0
  171.6098  175.1804  107.7191 O   0  0  0  0  0  0  0  0  0  0  0  0
  169.4947  174.5405  108.2261 O   0  0  0  0  0  0  0  0  0  0  0  0
  173.6357  168.5373  109.7689 C   0  0  0  0  0  0  0  0  0  0  0  0
  173.8295  168.3348  108.3047 C   0  0  0  0  0  0  0  0  0  0  0  0
  174.6280  169.5725  110.2581 C   0  0  0  0  0  0  0  0  0  0  0  0
  173.9358  167.2884  110.5679 C   0  0  2  0  0  0  0  0  0  0  0  0
  175.2557  166.7094  110.1886 C   0  0  0  0  0  0  0  0  0  0  0  0
  175.6728  165.5871  111.1222 C   0  0  0  0  0  0  0  0  0  0  0  0
  174.5695  164.5601  111.2413 C   0  0  1  0  0  0  0  0  0  0  0  0
  174.5534  163.7948  109.9336 C   0  0  0  0  0  0  0  0  0  0  0  0
  174.3551  161.3118  113.0285 C   0  0  1  0  0  0  0  0  0  0  0  0
  176.2424  160.3057  111.8794 N   0  0  0  0  0  0  0  0  0  0  0  0
  176.6159  161.0617  110.7485 C   0  0  0  0  0  0  0  0  0  0  0  0
  177.9206  160.4836  110.1853 C   0  0  0  0  0  0  0  0  0  0  0  0
  177.6617  159.2817  109.4729 N   0  0  0  0  0  0  0  0  0  0  0  0
  177.9655  159.2688  108.0873 C   0  0  0  0  0  0  0  0  0  0  0  0
  178.4939  157.9290  107.6826 C   0  0  0  0  0  0  0  0  0  0  0  0
  177.9724  156.6785  108.7918 S   0  0  0  0  0  6  0  0  0  0  0  0
  177.6067  155.4271  108.0152 O   0  0  0  0  0  0  0  0  0  0  0  0
  179.1485  156.3074  109.6699 O   0  0  0  0  0  0  0  0  0  0  0  0
  176.6413  157.1624  109.8444 C   0  0  0  0  0  0  0  0  0  0  0  0
  176.4004  158.6548  109.7326 C   0  0  0  0  0  0  0  0  0  0  0  0
  1  2  1  0
  2  3  2  0
  4  2  1  1
  4  5  1  0
  5  6  1  0
  6  7  1  0
  7  8  1  0
  8  9  1  0
  9 10  1  0
 10 11  1  1
 10 12  1  0
 12 13  1  1
 13 14  1  0
 15 14  1  6
 15 16  1  0
 16 17  1  6
 16 18  1  0
 18 19  1  0
 19 20  2  0
 20 21  1  0
 21 22  2  0
 22 23  1  0
 23 24  2  0
 24 25  1  0
 25 26  2  0
 24 27  1  0
 27 28  1  0
 27 29  2  0
 20 30  1  0
 30 31  1  0
 30 32  1  0
 30 33  1  0
 33 34  1  6
 34 35  1  0
 35 36  1  0
 36 37  1  6
 12 38  1  0
  7 39  1  6
 39 40  1  0
 40 41  1  0
 41 42  1  0
 42 43  1  0
 43 44  1  0
 44 45  1  0
 45 46  2  0
 45 47  2  0
 45 48  1  0
 48 49  1  0
 38  4  1  6
 49 42  1  0
 38  7  1  0
 36 10  1  0
 36 15  1  0
 33 16  1  0
 26 21  1  0
M  END
$$$$
