
     RDKit          3D

 49 55  0  0  0  0  0  0  0  0999 V2000
  147.8445  179.9708  153.0370 C   0  0  0  0  0  0  0  0  0  0  0  0
  148.2453  178.6383  153.5650 C   0  0  0  0  0  0  0  0  0  0  0  0
  148.0226  177.6077  152.7773 C   0  0  0  0  0  0  0  0  0  0  0  0
  148.9283  178.5112  154.8157 C   0  0  2  0  0  0  0  0  0  0  0  0
  150.0785  179.5169  155.0405 C   0  0  0  0  0  0  0  0  0  0  0  0
  150.7932  178.9704  156.2852 C   0  0  0  0  0  0  0  0  0  0  0  0
  149.9196  177.7973  156.7052 C   0  0  2  0  0  0  0  0  0  0  0  0
  150.6183  176.8233  157.5689 C   0  0  0  0  0  0  0  0  0  0  0  0
  149.7474  175.5736  157.6049 C   0  0  0  0  0  0  0  0  0  0  0  0
  149.6348  174.9956  156.2117 C   0  0  2  0  0  0  0  0  0  0  0  0
  151.0353  174.6793  155.8148 C   0  0  0  0  0  0  0  0  0  0  0  0
  149.0066  175.9751  155.2139 C   0  0  2  0  0  0  0  0  0  0  0  0
  149.2397  175.3074  153.8512 C   0  0  0  0  0  0  0  0  0  0  0  0
  148.5694  173.9703  153.7784 C   0  0  0  0  0  0  0  0  0  0  0  0
  148.8257  173.0917  154.9458 C   0  0  2  0  0  0  0  0  0  0  0  0
  148.1207  171.7598  154.8755 C   0  0  1  0  0  0  0  0  0  0  0  0
  146.6943  171.7844  154.5082 C   0  0  0  0  0  0  0  0  0  0  0  0
  148.8190  171.0563  153.6877 C   0  0  0  0  0  0  0  0  0  0  0  0
  148.5040  169.5991  153.6931 C   0  0  0  0  0  0  0  0  0  0  0  0
  148.1223  168.9053  154.7350 C   0  0  0  0  0  0  0  0  0  0  0  0
  147.8460  167.4676  154.5837 C   0  0  0  0  0  0  0  0  0  0  0  0
  146.5590  167.0105  154.4114 C   0  0  0  0  0  0  0  0  0  0  0  0
  146.2589  165.6538  154.2790 C   0  0  0  0  0  0  0  0  0  0  0  0
  147.2595  164.7085  154.3172 C   0  0  0  0  0  0  0  0  0  0  0  0
  148.5365  165.1771  154.4892 C   0  0  0  0  0  0  0  0  0  0  0  0
  148.8363  166.5143  154.6201 C   0  0  0  0  0  0  0  0  0  0  0  0
  146.9712  163.2781  154.1781 C   0  0  0  0  0  0  0  0  0  0  0  0
  145.8808  162.8015  153.5052 O   0  0  0  0  0  0  0  0  0  0  0  0
  147.7747  162.4733  154.7077 O   0  0  0  0  0  0  0  0  0  0  0  0
  147.9750  169.5317  156.0839 C   0  0  0  0  0  0  0  0  0  0  0  0
  146.5904  169.4705  156.6332 C   0  0  0  0  0  0  0  0  0  0  0  0
  148.9035  168.7645  157.0031 C   0  0  0  0  0  0  0  0  0  0  0  0
  148.5206  170.9422  156.0528 C   0  0  2  0  0  0  0  0  0  0  0  0
  148.3422  171.6188  157.3687 C   0  0  0  0  0  0  0  0  0  0  0  0
  149.0710  172.9495  157.4263 C   0  0  0  0  0  0  0  0  0  0  0  0
  148.6936  173.8114  156.2428 C   0  0  1  0  0  0  0  0  0  0  0  0
  147.2812  174.2968  156.4993 C   0  0  0  0  0  0  0  0  0  0  0  0
  149.6035  177.2811  155.2810 C   0  0  1  0  0  0  0  0  0  0  0  0
  148.7346  178.3033  157.3046 N   0  0  0  0  0  0  0  0  0  0  0  0
  148.8022  178.7229  158.6497 C   0  0  0  0  0  0  0  0  0  0  0  0
  148.6548  180.2493  158.6919 C   0  0  0  0  0  0  0  0  0  0  0  0
  148.5614  180.6999  160.0362 N   0  0  0  0  0  0  0  0  0  0  0  0
  147.4774  181.5551  160.3616 C   0  0  0  0  0  0  0  0  0  0  0  0
  146.9724  181.2553  161.7376 C   0  0  0  0  0  0  0  0  0  0  0  0
  148.2048  180.4830  162.7126 S   0  0  0  0  0  6  0  0  0  0  0  0
  148.1616  181.0383  164.1242 O   0  0  0  0  0  0  0  0  0  0  0  0
  147.8653  179.0117  162.8221 O   0  0  0  0  0  0  0  0  0  0  0  0
  149.8340  180.6155  162.0472 C   0  0  0  0  0  0  0  0  0  0  0  0
  149.7801  181.1583  160.6329 C   0  0  0  0  0  0  0  0  0  0  0  0
  1  2  1  0
  2  3  2  0
  4  2  1  6
  4  5  1  0
  5  6  1  0
  6  7  1  0
  7  8  1  0
  8  9  1  0
  9 10  1  0
 10 11  1  6
 10 12  1  0
 12 13  1  6
 13 14  1  0
 15 14  1  6
 15 16  1  0
 16 17  1  6
 16 18  1  0
 18 19  1  0
 19 20  2  0
 20 21  1  0
 21 22  2  0
 22 23  1  0
 23 24  2  0
 24 25  1  0
 25 26  2  0
 24 27  1  0
 27 28  1  0
 27 29  2  0
 20 30  1  0
 30 31  1  0
 30 32  1  0
 30 33  1  0
 33 34  1  1
 34 35  1  0
 35 36  1  0
 36 37  1  1
 12 38  1  0
  7 39  1  1
 39 40  1  0
 40 41  1  0
 41 42  1  0
 42 43  1  0
 43 44  1  0
 44 45  1  0
 45 46  2  0
 45 47  2  0
 45 48  1  0
 48 49  1  0
 38  4  1  1
 49 42  1  0
 38  7  1  0
 36 10  1  0
 36 15  1  0
 33 16  1  0
 26 21  1  0
M  END
$$$$
