
     RDKit          3D

 49 55  0  0  0  0  0  0  0  0999 V2000
  134.2056  136.0375  134.1117 C   0  0  0  0  0  0  0  0  0  0  0  0
  133.3720  137.2541  133.9113 C   0  0  0  0  0  0  0  0  0  0  0  0
  134.0048  138.4074  133.9488 C   0  0  0  0  0  0  0  0  0  0  0  0
  131.9807  137.1553  133.5930 C   0  0  2  0  0  0  0  0  0  0  0  0
  131.2232  136.0154  134.3082 C   0  0  0  0  0  0  0  0  0  0  0  0
  129.8748  135.9666  133.5744 C   0  0  0  0  0  0  0  0  0  0  0  0
  129.9554  137.1433  132.6127 C   0  0  2  0  0  0  0  0  0  0  0  0
  129.0136  137.0416  131.4790 C   0  0  0  0  0  0  0  0  0  0  0  0
  129.4552  138.0798  130.4548 C   0  0  0  0  0  0  0  0  0  0  0  0
  130.8462  137.7455  129.9636 C   0  0  2  0  0  0  0  0  0  0  0  0
  130.7217  136.3912  129.3560 C   0  0  0  0  0  0  0  0  0  0  0  0
  131.8840  137.7300  131.0916 C   0  0  2  0  0  0  0  0  0  0  0  0
  133.1276  137.1141  130.4348 C   0  0  0  0  0  0  0  0  0  0  0  0
  133.6040  137.9460  129.2844 C   0  0  0  0  0  0  0  0  0  0  0  0
  132.5383  138.3432  128.3321 C   0  0  2  0  0  0  0  0  0  0  0  0
  133.0248  139.2063  127.1945 C   0  0  1  0  0  0  0  0  0  0  0  0
  133.8958  140.3401  127.5494 C   0  0  0  0  0  0  0  0  0  0  0  0
  133.9369  138.2475  126.3929 C   0  0  0  0  0  0  0  0  0  0  0  0
  134.2220  138.8138  125.0436 C   0  0  0  0  0  0  0  0  0  0  0  0
  133.4897  139.6997  124.4181 C   0  0  0  0  0  0  0  0  0  0  0  0
  133.9020  140.1660  123.0844 C   0  0  0  0  0  0  0  0  0  0  0  0
  134.7684  141.2264  122.9440 C   0  0  0  0  0  0  0  0  0  0  0  0
  135.1694  141.7039  121.6953 C   0  0  0  0  0  0  0  0  0  0  0  0
  134.7027  141.1191  120.5392 C   0  0  0  0  0  0  0  0  0  0  0  0
  133.8407  140.0641  120.6932 C   0  0  0  0  0  0  0  0  0  0  0  0
  133.4430  139.5903  121.9230 C   0  0  0  0  0  0  0  0  0  0  0  0
  135.1104  141.5999  119.2159 C   0  0  0  0  0  0  0  0  0  0  0  0
  136.0522  142.5744  119.0366 O   0  0  0  0  0  0  0  0  0  0  0  0
  134.5575  141.0794  118.2172 O   0  0  0  0  0  0  0  0  0  0  0  0
  132.2315  140.2411  125.0160 C   0  0  0  0  0  0  0  0  0  0  0  0
  132.2544  141.7136  125.2473 C   0  0  0  0  0  0  0  0  0  0  0  0
  131.1279  139.9148  124.0304 C   0  0  0  0  0  0  0  0  0  0  0  0
  131.8887  139.4663  126.2693 C   0  0  2  0  0  0  0  0  0  0  0  0
  130.6667  140.0129  126.9242 C   0  0  0  0  0  0  0  0  0  0  0  0
  130.1829  139.1237  128.0556 C   0  0  0  0  0  0  0  0  0  0  0  0
  131.3110  138.8324  129.0193 C   0  0  1  0  0  0  0  0  0  0  0  0
  131.5491  140.1097  129.7991 C   0  0  0  0  0  0  0  0  0  0  0  0
  131.4440  136.9679  132.2283 C   0  0  1  0  0  0  0  0  0  0  0  0
  129.7904  138.3466  133.3503 N   0  0  0  0  0  0  0  0  0  0  0  0
  129.1692  138.2666  134.6143 C   0  0  0  0  0  0  0  0  0  0  0  0
  127.7907  138.9337  134.5228 C   0  0  0  0  0  0  0  0  0  0  0  0
  127.9295  140.3449  134.4326 N   0  0  0  0  0  0  0  0  0  0  0  0
  126.7663  141.0940  134.1193 C   0  0  0  0  0  0  0  0  0  0  0  0
  126.7649  142.3903  134.8663 C   0  0  0  0  0  0  0  0  0  0  0  0
  128.3877  142.8607  135.3257 S   0  0  0  0  0  6  0  0  0  0  0  0
  128.5586  144.3567  135.1366 O   0  0  0  0  0  0  0  0  0  0  0  0
  128.5532  142.5961  136.8072 O   0  0  0  0  0  0  0  0  0  0  0  0
  129.6584  141.9819  134.4728 C   0  0  0  0  0  0  0  0  0  0  0  0
  129.0648  140.8206  133.7003 C   0  0  0  0  0  0  0  0  0  0  0  0
  1  2  1  0
  2  3  2  0
  4  2  1  6
  4  5  1  0
  5  6  1  0
  6  7  1  0
  7  8  1  0
  8  9  1  0
  9 10  1  0
 10 11  1  6
 10 12  1  0
 12 13  1  6
 13 14  1  0
 15 14  1  1
 15 16  1  0
 16 17  1  1
 16 18  1  0
 18 19  1  0
 19 20  2  0
 20 21  1  0
 21 22  2  0
 22 23  1  0
 23 24  2  0
 24 25  1  0
 25 26  2  0
 24 27  1  0
 27 28  1  0
 27 29  2  0
 20 30  1  0
 30 31  1  0
 30 32  1  0
 30 33  1  0
 33 34  1  1
 34 35  1  0
 35 36  1  0
 36 37  1  1
 12 38  1  0
  7 39  1  1
 39 40  1  0
 40 41  1  0
 41 42  1  0
 42 43  1  0
 43 44  1  0
 44 45  1  0
 45 46  2  0
 45 47  2  0
 45 48  1  0
 48 49  1  0
 38  4  1  1
 49 42  1  0
 38  7  1  0
 36 10  1  0
 36 15  1  0
 33 16  1  0
 26 21  1  0
M  END
$$$$
