
     RDKit          3D

 49 55  0  0  0  0  0  0  0  0999 V2000
  175.9079  160.0935  106.6842 C   0  0  0  0  0  0  0  0  0  0  0  0
  175.0683  161.3210  106.6275 C   0  0  0  0  0  0  0  0  0  0  0  0
  173.7785  161.1374  106.4415 C   0  0  0  0  0  0  0  0  0  0  0  0
  175.6296  162.6149  106.8676 C   0  0  2  0  0  0  0  0  0  0  0  0
  176.9029  162.9387  106.0559 C   0  0  0  0  0  0  0  0  0  0  0  0
  177.4306  164.2217  106.7152 C   0  0  0  0  0  0  0  0  0  0  0  0
  176.3563  164.5577  107.7394 C   0  0  2  0  0  0  0  0  0  0  0  0
  176.8296  165.4520  108.8160 C   0  0  0  0  0  0  0  0  0  0  0  0
  175.7743  165.4040  109.9140 C   0  0  0  0  0  0  0  0  0  0  0  0
  175.6754  163.9964  110.4589 C   0  0  2  0  0  0  0  0  0  0  0  0
  177.0348  163.6952  110.9883 C   0  0  0  0  0  0  0  0  0  0  0  0
  175.2824  162.9735  109.3870 C   0  0  2  0  0  0  0  0  0  0  0  0
  175.5078  161.6195  110.0748 C   0  0  0  0  0  0  0  0  0  0  0  0
  174.6445  161.4758  111.2899 C   0  0  0  0  0  0  0  0  0  0  0  0
  174.6744  162.6430  112.2048 C   0  0  2  0  0  0  0  0  0  0  0  0
  173.7776  162.4994  113.4093 C   0  0  1  0  0  0  0  0  0  0  0  0
  172.4033  162.0316  113.1593 C   0  0  0  0  0  0  0  0  0  0  0  0
  174.4429  161.3524  114.2065 C   0  0  0  0  0  0  0  0  0  0  0  0
  173.9052  161.3100  115.5963 C   0  0  0  0  0  0  0  0  0  0  0  0
  173.3447  162.3096  116.2279 C   0  0  0  0  0  0  0  0  0  0  0  0
  172.8595  162.1141  117.6037 C   0  0  0  0  0  0  0  0  0  0  0  0
  172.0290  161.0617  117.9163 C   0  0  0  0  0  0  0  0  0  0  0  0
  171.5388  160.8540  119.2065 C   0  0  0  0  0  0  0  0  0  0  0  0
  171.8757  161.7115  120.2300 C   0  0  0  0  0  0  0  0  0  0  0  0
  172.7033  162.7552  119.9051 C   0  0  0  0  0  0  0  0  0  0  0  0
  173.1889  162.9632  118.6339 C   0  0  0  0  0  0  0  0  0  0  0  0
  171.3764  161.5141  121.5939 C   0  0  0  0  0  0  0  0  0  0  0  0
  170.5726  160.4662  121.9470 O   0  0  0  0  0  0  0  0  0  0  0  0
  171.7147  162.3565  122.4598 O   0  0  0  0  0  0  0  0  0  0  0  0
  173.1983  163.6553  115.5943 C   0  0  0  0  0  0  0  0  0  0  0  0
  171.7846  164.1031  115.4411 C   0  0  0  0  0  0  0  0  0  0  0  0
  173.9260  164.6250  116.5031 C   0  0  0  0  0  0  0  0  0  0  0  0
  173.9579  163.6878  114.2865 C   0  0  2  0  0  0  0  0  0  0  0  0
  173.7911  164.9991  113.5982 C   0  0  0  0  0  0  0  0  0  0  0  0
  174.7122  165.1319  112.3986 C   0  0  0  0  0  0  0  0  0  0  0  0
  174.5614  163.9396  111.4811 C   0  0  1  0  0  0  0  0  0  0  0  0
  173.2270  164.1029  110.7819 C   0  0  0  0  0  0  0  0  0  0  0  0
  176.0690  163.1058  108.1911 C   0  0  1  0  0  0  0  0  0  0  0  0
  175.2240  165.0796  107.0576 N   0  0  0  0  0  0  0  0  0  0  0  0
  174.9073  166.4408  107.2492 C   0  0  0  0  0  0  0  0  0  0  0  0
  174.9586  167.1491  105.8893 C   0  0  0  0  0  0  0  0  0  0  0  0
  175.0867  168.5529  106.0677 N   0  0  0  0  0  0  0  0  0  0  0  0
  176.1399  169.2030  105.3744 C   0  0  0  0  0  0  0  0  0  0  0  0
  175.7014  170.5568  104.9124 C   0  0  0  0  0  0  0  0  0  0  0  0
  174.3722  171.1589  105.8802 S   0  0  0  0  0  6  0  0  0  0  0  0
  174.5648  172.6403  106.1469 O   0  0  0  0  0  0  0  0  0  0  0  0
  173.1021  171.0335  105.0659 O   0  0  0  0  0  0  0  0  0  0  0  0
  174.1338  170.2852  107.3948 C   0  0  0  0  0  0  0  0  0  0  0  0
  174.9816  169.0289  107.4144 C   0  0  0  0  0  0  0  0  0  0  0  0
  1  2  1  0
  2  3  2  0
  4  2  1  1
  4  5  1  0
  5  6  1  0
  6  7  1  0
  7  8  1  0
  8  9  1  0
  9 10  1  0
 10 11  1  1
 10 12  1  0
 12 13  1  1
 13 14  1  0
 15 14  1  6
 15 16  1  0
 16 17  1  6
 16 18  1  0
 18 19  1  0
 19 20  2  0
 20 21  1  0
 21 22  2  0
 22 23  1  0
 23 24  2  0
 24 25  1  0
 25 26  2  0
 24 27  1  0
 27 28  1  0
 27 29  2  0
 20 30  1  0
 30 31  1  0
 30 32  1  0
 30 33  1  0
 33 34  1  6
 34 35  1  0
 35 36  1  0
 36 37  1  6
 12 38  1  0
  7 39  1  6
 39 40  1  0
 40 41  1  0
 41 42  1  0
 42 43  1  0
 43 44  1  0
 44 45  1  0
 45 46  2  0
 45 47  2  0
 45 48  1  0
 48 49  1  0
 38  4  1  6
 49 42  1  0
 38  7  1  0
 36 10  1  0
 36 15  1  0
 33 16  1  0
 26 21  1  0
M  END
$$$$
