
     RDKit          3D

 49 55  0  0  0  0  0  0  0  0999 V2000
  148.0329  163.4984  128.2034 C   0  0  0  0  0  0  0  0  0  0  0  0
  148.1263  163.4470  129.6879 C   0  0  0  0  0  0  0  0  0  0  0  0
  147.2563  162.6727  130.3007 C   0  0  0  0  0  0  0  0  0  0  0  0
  149.1738  164.1242  130.3887 C   0  0  2  0  0  0  0  0  0  0  0  0
  149.9374  163.2635  131.4187 C   0  0  0  0  0  0  0  0  0  0  0  0
  150.7687  164.2928  132.1987 C   0  0  0  0  0  0  0  0  0  0  0  0
  150.4894  165.5974  131.4665 C   0  0  2  0  0  0  0  0  0  0  0  0
  150.7753  166.7992  132.2767 C   0  0  0  0  0  0  0  0  0  0  0  0
  150.1270  167.9732  131.5536 C   0  0  0  0  0  0  0  0  0  0  0  0
  148.6294  167.7683  131.4985 C   0  0  2  0  0  0  0  0  0  0  0  0
  148.2011  167.6950  132.9233 C   0  0  0  0  0  0  0  0  0  0  0  0
  148.2346  166.4862  130.7569 C   0  0  2  0  0  0  0  0  0  0  0  0
  146.7359  166.3386  131.0557 C   0  0  0  0  0  0  0  0  0  0  0  0
  145.9602  167.5116  130.5411 C   0  0  0  0  0  0  0  0  0  0  0  0
  146.5325  168.8315  130.9028 C   0  0  2  0  0  0  0  0  0  0  0  0
  145.7597  170.0047  130.3531 C   0  0  1  0  0  0  0  0  0  0  0  0
  145.3813  169.9404  128.9309 C   0  0  0  0  0  0  0  0  0  0  0  0
  144.4177  169.9300  131.1194 C   0  0  0  0  0  0  0  0  0  0  0  0
  143.6671  171.2096  130.9719 C   0  0  0  0  0  0  0  0  0  0  0  0
  144.1916  172.3719  130.6780 C   0  0  0  0  0  0  0  0  0  0  0  0
  143.3180  173.5511  130.5657 C   0  0  0  0  0  0  0  0  0  0  0  0
  142.9770  174.2855  131.6789 C   0  0  0  0  0  0  0  0  0  0  0  0
  142.1399  175.4003  131.6114 C   0  0  0  0  0  0  0  0  0  0  0  0
  141.6168  175.8111  130.4057 C   0  0  0  0  0  0  0  0  0  0  0  0
  141.9644  175.0711  129.3051 C   0  0  0  0  0  0  0  0  0  0  0  0
  142.7896  173.9711  129.3676 C   0  0  0  0  0  0  0  0  0  0  0  0
  140.7377  176.9798  130.3075 C   0  0  0  0  0  0  0  0  0  0  0  0
  139.7081  177.2108  131.1767 O   0  0  0  0  0  0  0  0  0  0  0  0
  140.9584  177.7915  129.3767 O   0  0  0  0  0  0  0  0  0  0  0  0
  145.6620  172.5391  130.4689 C   0  0  0  0  0  0  0  0  0  0  0  0
  146.0309  173.0110  129.1038 C   0  0  0  0  0  0  0  0  0  0  0  0
  146.1126  173.5695  131.4843 C   0  0  0  0  0  0  0  0  0  0  0  0
  146.3790  171.2630  130.8507 C   0  0  2  0  0  0  0  0  0  0  0  0
  147.8448  171.3736  130.6049 C   0  0  0  0  0  0  0  0  0  0  0  0
  148.6073  170.1926  131.1783 C   0  0  0  0  0  0  0  0  0  0  0  0
  148.0064  168.8909  130.6980 C   0  0  1  0  0  0  0  0  0  0  0  0
  148.3990  168.7493  129.2413 C   0  0  0  0  0  0  0  0  0  0  0  0
  148.9859  165.3443  131.2021 C   0  0  1  0  0  0  0  0  0  0  0  0
  151.1994  165.5900  130.2355 N   0  0  0  0  0  0  0  0  0  0  0  0
  151.6674  166.8234  129.7357 C   0  0  0  0  0  0  0  0  0  0  0  0
  153.1673  166.9341  130.0380 C   0  0  0  0  0  0  0  0  0  0  0  0
  153.8786  165.8807  129.4029 N   0  0  0  0  0  0  0  0  0  0  0  0
  153.9105  165.8801  127.9847 C   0  0  0  0  0  0  0  0  0  0  0  0
  155.2403  165.4014  127.4940 C   0  0  0  0  0  0  0  0  0  0  0  0
  156.0437  164.4143  128.6965 S   0  0  0  0  0  6  0  0  0  0  0  0
  156.7224  163.2374  128.0205 O   0  0  0  0  0  0  0  0  0  0  0  0
  157.1465  165.2404  129.3237 O   0  0  0  0  0  0  0  0  0  0  0  0
  154.9827  163.8544  129.9908 C   0  0  0  0  0  0  0  0  0  0  0  0
  153.6454  164.5642  129.9164 C   0  0  0  0  0  0  0  0  0  0  0  0
  1  2  1  0
  2  3  2  0
  4  2  1  1
  4  5  1  0
  5  6  1  0
  6  7  1  0
  7  8  1  0
  8  9  1  0
  9 10  1  0
 10 11  1  1
 10 12  1  0
 12 13  1  1
 13 14  1  0
 15 14  1  6
 15 16  1  0
 16 17  1  6
 16 18  1  0
 18 19  1  0
 19 20  2  0
 20 21  1  0
 21 22  2  0
 22 23  1  0
 23 24  2  0
 24 25  1  0
 25 26  2  0
 24 27  1  0
 27 28  1  0
 27 29  2  0
 20 30  1  0
 30 31  1  0
 30 32  1  0
 30 33  1  0
 33 34  1  6
 34 35  1  0
 35 36  1  0
 36 37  1  6
 12 38  1  0
  7 39  1  6
 39 40  1  0
 40 41  1  0
 41 42  1  0
 42 43  1  0
 43 44  1  0
 44 45  1  0
 45 46  2  0
 45 47  2  0
 45 48  1  0
 48 49  1  0
 38  4  1  6
 49 42  1  0
 38  7  1  0
 36 10  1  0
 36 15  1  0
 33 16  1  0
 26 21  1  0
M  END
$$$$
