
     RDKit          3D

 49 55  0  0  0  0  0  0  0  0999 V2000
  143.4702  171.5793  133.1079 C   0  0  0  0  0  0  0  0  0  0  0  0
  143.7824  172.3560  131.8774 C   0  0  0  0  0  0  0  0  0  0  0  0
  144.1864  173.5957  132.0569 C   0  0  0  0  0  0  0  0  0  0  0  0
  143.7417  171.7449  130.5845 C   0  0  2  0  0  0  0  0  0  0  0  0
  142.3257  171.4790  130.0286 C   0  0  0  0  0  0  0  0  0  0  0  0
  142.5828  170.5802  128.8100 C   0  0  0  0  0  0  0  0  0  0  0  0
  144.1014  170.5259  128.7277 C   0  0  2  0  0  0  0  0  0  0  0  0
  144.6076  169.3715  127.9572 C   0  0  0  0  0  0  0  0  0  0  0  0
  146.0968  169.2668  128.2621 C   0  0  0  0  0  0  0  0  0  0  0  0
  146.2928  168.9915  129.7365 C   0  0  2  0  0  0  0  0  0  0  0  0
  145.5888  167.7019  129.9813 C   0  0  0  0  0  0  0  0  0  0  0  0
  145.7092  170.0945  130.6268 C   0  0  2  0  0  0  0  0  0  0  0  0
  145.7690  169.4937  132.0384 C   0  0  0  0  0  0  0  0  0  0  0  0
  147.1777  169.1779  132.4364 C   0  0  0  0  0  0  0  0  0  0  0  0
  147.9498  168.4281  131.4155 C   0  0  2  0  0  0  0  0  0  0  0  0
  149.3762  168.1427  131.8150 C   0  0  1  0  0  0  0  0  0  0  0  0
  150.1465  169.2693  132.3693 C   0  0  0  0  0  0  0  0  0  0  0  0
  149.2182  167.1569  132.9969 C   0  0  0  0  0  0  0  0  0  0  0  0
  150.5186  166.4890  133.2896 C   0  0  0  0  0  0  0  0  0  0  0  0
  151.5118  166.3522  132.4486 C   0  0  0  0  0  0  0  0  0  0  0  0
  152.7387  165.6663  132.8851 C   0  0  0  0  0  0  0  0  0  0  0  0
  153.0408  164.4026  132.4306 C   0  0  0  0  0  0  0  0  0  0  0  0
  154.1876  163.7172  132.8343 C   0  0  0  0  0  0  0  0  0  0  0  0
  155.0728  164.2930  133.7182 C   0  0  0  0  0  0  0  0  0  0  0  0
  154.7601  165.5517  134.1629 C   0  0  0  0  0  0  0  0  0  0  0  0
  153.6301  166.2309  133.7670 C   0  0  0  0  0  0  0  0  0  0  0  0
  156.2854  163.5956  134.1558 C   0  0  0  0  0  0  0  0  0  0  0  0
  156.6253  162.3472  133.7143 O   0  0  0  0  0  0  0  0  0  0  0  0
  157.0302  164.1898  134.9719 O   0  0  0  0  0  0  0  0  0  0  0  0
  151.4279  166.8603  131.0456 C   0  0  0  0  0  0  0  0  0  0  0  0
  152.4430  167.9011  130.7156 C   0  0  0  0  0  0  0  0  0  0  0  0
  151.6493  165.6564  130.1526 C   0  0  0  0  0  0  0  0  0  0  0  0
  150.0164  167.3192  130.7536 C   0  0  2  0  0  0  0  0  0  0  0  0
  149.9059  167.8830  129.3784 C   0  0  0  0  0  0  0  0  0  0  0  0
  148.4631  168.1491  128.9881 C   0  0  0  0  0  0  0  0  0  0  0  0
  147.7741  168.9828  130.0446 C   0  0  1  0  0  0  0  0  0  0  0  0
  148.3254  170.3878  129.9088 C   0  0  0  0  0  0  0  0  0  0  0  0
  144.3677  170.4480  130.2501 C   0  0  1  0  0  0  0  0  0  0  0  0
  144.5750  171.7667  128.2222 N   0  0  0  0  0  0  0  0  0  0  0  0
  145.8167  171.7764  127.5528 C   0  0  0  0  0  0  0  0  0  0  0  0
  145.5587  171.9436  126.0498 C   0  0  0  0  0  0  0  0  0  0  0  0
  144.5539  172.9232  125.8267 N   0  0  0  0  0  0  0  0  0  0  0  0
  144.8316  174.2480  126.2514 C   0  0  0  0  0  0  0  0  0  0  0  0
  144.2553  175.2356  125.2868 C   0  0  0  0  0  0  0  0  0  0  0  0
  142.9329  174.5372  124.3761 S   0  0  0  0  0  6  0  0  0  0  0  0
  141.8221  175.5597  124.2230 O   0  0  0  0  0  0  0  0  0  0  0  0
  143.4310  174.2357  122.9785 O   0  0  0  0  0  0  0  0  0  0  0  0
  142.3018  173.0387  125.0619 C   0  0  0  0  0  0  0  0  0  0  0  0
  143.2155  172.5409  126.1641 C   0  0  0  0  0  0  0  0  0  0  0  0
  1  2  1  0
  2  3  2  0
  4  2  1  1
  4  5  1  0
  5  6  1  0
  6  7  1  0
  7  8  1  0
  8  9  1  0
  9 10  1  0
 10 11  1  1
 10 12  1  0
 12 13  1  1
 13 14  1  0
 15 14  1  1
 15 16  1  0
 16 17  1  1
 16 18  1  0
 18 19  1  0
 19 20  2  0
 20 21  1  0
 21 22  2  0
 22 23  1  0
 23 24  2  0
 24 25  1  0
 25 26  2  0
 24 27  1  0
 27 28  1  0
 27 29  2  0
 20 30  1  0
 30 31  1  0
 30 32  1  0
 30 33  1  0
 33 34  1  6
 34 35  1  0
 35 36  1  0
 36 37  1  1
 12 38  1  0
  7 39  1  6
 39 40  1  0
 40 41  1  0
 41 42  1  0
 42 43  1  0
 43 44  1  0
 44 45  1  0
 45 46  2  0
 45 47  2  0
 45 48  1  0
 48 49  1  0
 38  4  1  1
 49 42  1  0
 38  7  1  0
 36 10  1  0
 36 15  1  0
 33 16  1  0
 26 21  1  0
M  END
$$$$
