
     RDKit          3D

 49 55  0  0  0  0  0  0  0  0999 V2000
  149.4516  167.7916  136.6636 C   0  0  0  0  0  0  0  0  0  0  0  0
  148.8078  167.8595  135.3236 C   0  0  0  0  0  0  0  0  0  0  0  0
  148.6355  166.7133  134.7003 C   0  0  0  0  0  0  0  0  0  0  0  0
  148.3143  169.0961  134.8000 C   0  0  2  0  0  0  0  0  0  0  0  0
  147.3750  169.8797  135.7427 C   0  0  0  0  0  0  0  0  0  0  0  0
  146.7871  170.9710  134.8358 C   0  0  0  0  0  0  0  0  0  0  0  0
  147.5306  170.7745  133.5226 C   0  0  2  0  0  0  0  0  0  0  0  0
  146.8360  171.3645  132.3597 C   0  0  0  0  0  0  0  0  0  0  0  0
  147.5062  170.7901  131.1178 C   0  0  0  0  0  0  0  0  0  0  0  0
  147.3158  169.2899  131.0887 C   0  0  2  0  0  0  0  0  0  0  0  0
  145.8396  169.0926  131.0587 C   0  0  0  0  0  0  0  0  0  0  0  0
  147.9216  168.5929  132.3122 C   0  0  2  0  0  0  0  0  0  0  0  0
  147.3848  167.1576  132.2175 C   0  0  0  0  0  0  0  0  0  0  0  0
  147.8293  166.4926  130.9515 C   0  0  0  0  0  0  0  0  0  0  0  0
  147.6279  167.3067  129.7279 C   0  0  2  0  0  0  0  0  0  0  0  0
  148.1075  166.6390  128.4630 C   0  0  1  0  0  0  0  0  0  0  0  0
  149.4479  166.0294  128.5036 C   0  0  0  0  0  0  0  0  0  0  0  0
  147.1378  165.4434  128.3089 C   0  0  0  0  0  0  0  0  0  0  0  0
  147.2295  164.8785  126.9322 C   0  0  0  0  0  0  0  0  0  0  0  0
  147.6594  165.5160  125.8734 C   0  0  0  0  0  0  0  0  0  0  0  0
  147.6921  164.8219  124.5760 C   0  0  0  0  0  0  0  0  0  0  0  0
  148.4398  163.6787  124.4056 C   0  0  0  0  0  0  0  0  0  0  0  0
  148.5053  163.0030  123.1861 C   0  0  0  0  0  0  0  0  0  0  0  0
  147.8107  163.4660  122.0909 C   0  0  0  0  0  0  0  0  0  0  0  0
  147.0701  164.6052  122.2742 C   0  0  0  0  0  0  0  0  0  0  0  0
  147.0030  165.2744  123.4754 C   0  0  0  0  0  0  0  0  0  0  0  0
  147.8606  162.7736  120.8001 C   0  0  0  0  0  0  0  0  0  0  0  0
  148.6447  161.6766  120.5746 O   0  0  0  0  0  0  0  0  0  0  0  0
  147.1432  163.2248  119.8750 O   0  0  0  0  0  0  0  0  0  0  0  0
  148.1042  166.9411  125.9422 C   0  0  0  0  0  0  0  0  0  0  0  0
  149.5321  167.1497  125.5679 C   0  0  0  0  0  0  0  0  0  0  0  0
  147.2246  167.6995  124.9690 C   0  0  0  0  0  0  0  0  0  0  0  0
  147.7764  167.5119  127.3042 C   0  0  2  0  0  0  0  0  0  0  0  0
  148.2539  168.9181  127.4290 C   0  0  0  0  0  0  0  0  0  0  0  0
  147.7489  169.5786  128.6994 C   0  0  0  0  0  0  0  0  0  0  0  0
  148.0638  168.7199  129.9035 C   0  0  1  0  0  0  0  0  0  0  0  0
  149.5551  168.8451  130.1410 C   0  0  0  0  0  0  0  0  0  0  0  0
  147.5432  169.2273  133.5454 C   0  0  1  0  0  0  0  0  0  0  0  0
  148.8556  171.2660  133.6712 N   0  0  0  0  0  0  0  0  0  0  0  0
  149.2744  172.3055  132.8144 C   0  0  0  0  0  0  0  0  0  0  0  0
  148.8395  173.6444  133.4240 C   0  0  0  0  0  0  0  0  0  0  0  0
  149.9291  174.2573  134.0992 N   0  0  0  0  0  0  0  0  0  0  0  0
  151.2093  174.1520  133.4971 C   0  0  0  0  0  0  0  0  0  0  0  0
  151.9881  175.4123  133.7057 C   0  0  0  0  0  0  0  0  0  0  0  0
  151.4047  176.2964  135.1000 S   0  0  0  0  0  6  0  0  0  0  0  0
  152.5803  176.8690  135.8701 O   0  0  0  0  0  0  0  0  0  0  0  0
  150.6016  177.4803  134.6048 O   0  0  0  0  0  0  0  0  0  0  0  0
  150.3696  175.3482  136.1695 C   0  0  0  0  0  0  0  0  0  0  0  0
  150.0011  174.0332  135.5120 C   0  0  0  0  0  0  0  0  0  0  0  0
  1  2  1  0
  2  3  2  0
  4  2  1  1
  4  5  1  0
  5  6  1  0
  6  7  1  0
  7  8  1  0
  8  9  1  0
  9 10  1  0
 10 11  1  6
 10 12  1  0
 12 13  1  1
 13 14  1  0
 15 14  1  1
 15 16  1  0
 16 17  1  1
 16 18  1  0
 18 19  1  0
 19 20  2  0
 20 21  1  0
 21 22  2  0
 22 23  1  0
 23 24  2  0
 24 25  1  0
 25 26  2  0
 24 27  1  0
 27 28  1  0
 27 29  2  0
 20 30  1  0
 30 31  1  0
 30 32  1  0
 30 33  1  0
 33 34  1  1
 34 35  1  0
 35 36  1  0
 36 37  1  1
 12 38  1  0
  7 39  1  1
 39 40  1  0
 40 41  1  0
 41 42  1  0
 42 43  1  0
 43 44  1  0
 44 45  1  0
 45 46  2  0
 45 47  2  0
 45 48  1  0
 48 49  1  0
 38  4  1  1
 49 42  1  0
 38  7  1  0
 36 10  1  0
 36 15  1  0
 33 16  1  0
 26 21  1  0
M  END
$$$$
