
     RDKit          3D

 49 55  0  0  0  0  0  0  0  0999 V2000
  168.1974  152.4250  129.2597 C   0  0  0  0  0  0  0  0  0  0  0  0
  169.3842  151.5354  129.1370 C   0  0  0  0  0  0  0  0  0  0  0  0
  170.4938  152.0990  128.7089 C   0  0  0  0  0  0  0  0  0  0  0  0
  169.3349  150.1705  129.5629 C   0  0  2  0  0  0  0  0  0  0  0  0
  170.7092  149.4911  129.7491 C   0  0  0  0  0  0  0  0  0  0  0  0
  170.3547  148.0056  129.9120 C   0  0  0  0  0  0  0  0  0  0  0  0
  168.8329  148.0068  129.9220 C   0  0  2  0  0  0  0  0  0  0  0  0
  168.2418  146.6935  129.5923 C   0  0  0  0  0  0  0  0  0  0  0  0
  166.7667  146.9429  129.3032 C   0  0  0  0  0  0  0  0  0  0  0  0
  166.6338  147.8519  128.1015 C   0  0  2  0  0  0  0  0  0  0  0  0
  167.2957  147.1144  126.9894 C   0  0  0  0  0  0  0  0  0  0  0  0
  167.3060  149.2132  128.3124 C   0  0  2  0  0  0  0  0  0  0  0  0
  167.2925  149.8473  126.9142 C   0  0  0  0  0  0  0  0  0  0  0  0
  165.8938  150.0171  126.4071 C   0  0  0  0  0  0  0  0  0  0  0  0
  165.0414  148.8108  126.5437 C   0  0  2  0  0  0  0  0  0  0  0  0
  163.6263  149.0033  126.0577 C   0  0  1  0  0  0  0  0  0  0  0  0
  162.9316  150.2216  126.5084 C   0  0  0  0  0  0  0  0  0  0  0  0
  163.8028  149.1945  124.5326 C   0  0  0  0  0  0  0  0  0  0  0  0
  162.4924  149.0420  123.8381 C   0  0  0  0  0  0  0  0  0  0  0  0
  161.4535  148.3963  124.3031 C   0  0  0  0  0  0  0  0  0  0  0  0
  160.2229  148.3326  123.4982 C   0  0  0  0  0  0  0  0  0  0  0  0
  159.3211  149.3725  123.5038 C   0  0  0  0  0  0  0  0  0  0  0  0
  158.1379  149.3400  122.7643 C   0  0  0  0  0  0  0  0  0  0  0  0
  157.8266  148.2453  121.9890 C   0  0  0  0  0  0  0  0  0  0  0  0
  158.7332  147.2168  121.9923 C   0  0  0  0  0  0  0  0  0  0  0  0
  159.9012  147.2452  122.7203 C   0  0  0  0  0  0  0  0  0  0  0  0
  156.5920  148.1874  121.2012 C   0  0  0  0  0  0  0  0  0  0  0  0
  155.7120  149.2305  121.1204 O   0  0  0  0  0  0  0  0  0  0  0  0
  156.3524  147.1235  120.5810 O   0  0  0  0  0  0  0  0  0  0  0  0
  161.4877  147.7044  125.6273 C   0  0  0  0  0  0  0  0  0  0  0  0
  160.5009  148.2313  126.6128 C   0  0  0  0  0  0  0  0  0  0  0  0
  161.1727  146.2494  125.3454 C   0  0  0  0  0  0  0  0  0  0  0  0
  162.9005  147.7089  126.1681 C   0  0  2  0  0  0  0  0  0  0  0  0
  162.9648  147.0733  127.5145 C   0  0  0  0  0  0  0  0  0  0  0  0
  164.3960  146.8733  127.9802 C   0  0  0  0  0  0  0  0  0  0  0  0
  165.1707  148.1680  127.8808 C   0  0  1  0  0  0  0  0  0  0  0  0
  164.6713  149.0536  129.0045 C   0  0  0  0  0  0  0  0  0  0  0  0
  168.6403  149.0889  128.8327 C   0  0  1  0  0  0  0  0  0  0  0  0
  168.3858  148.5049  131.1755 N   0  0  0  0  0  0  0  0  0  0  0  0
  169.2072  148.2906  132.3022 C   0  0  0  0  0  0  0  0  0  0  0  0
  169.0421  146.8344  132.7556 C   0  0  0  0  0  0  0  0  0  0  0  0
  167.9843  146.7270  133.6981 N   0  0  0  0  0  0  0  0  0  0  0  0
  168.2106  145.9161  134.8400 C   0  0  0  0  0  0  0  0  0  0  0  0
  167.5565  146.5176  136.0436 C   0  0  0  0  0  0  0  0  0  0  0  0
  166.2413  147.5800  135.5880 S   0  0  0  0  0  6  0  0  0  0  0  0
  165.0777  147.3911  136.5436 O   0  0  0  0  0  0  0  0  0  0  0  0
  166.7088  149.0094  135.7618 O   0  0  0  0  0  0  0  0  0  0  0  0
  165.7060  147.3840  133.9178 C   0  0  0  0  0  0  0  0  0  0  0  0
  166.6775  146.5048  133.1557 C   0  0  0  0  0  0  0  0  0  0  0  0
  1  2  1  0
  2  3  2  0
  4  2  1  6
  4  5  1  0
  5  6  1  0
  6  7  1  0
  7  8  1  0
  8  9  1  0
  9 10  1  0
 10 11  1  6
 10 12  1  0
 12 13  1  6
 13 14  1  0
 15 14  1  1
 15 16  1  0
 16 17  1  1
 16 18  1  0
 18 19  1  0
 19 20  2  0
 20 21  1  0
 21 22  2  0
 22 23  1  0
 23 24  2  0
 24 25  1  0
 25 26  2  0
 24 27  1  0
 27 28  1  0
 27 29  2  0
 20 30  1  0
 30 31  1  0
 30 32  1  0
 30 33  1  0
 33 34  1  1
 34 35  1  0
 35 36  1  0
 36 37  1  1
 12 38  1  0
  7 39  1  1
 39 40  1  0
 40 41  1  0
 41 42  1  0
 42 43  1  0
 43 44  1  0
 44 45  1  0
 45 46  2  0
 45 47  2  0
 45 48  1  0
 48 49  1  0
 38  4  1  1
 49 42  1  0
 38  7  1  0
 36 10  1  0
 36 15  1  0
 33 16  1  0
 26 21  1  0
M  END
$$$$
