
     RDKit          3D

 49 55  0  0  0  0  0  0  0  0999 V2000
  150.1482  163.4112  128.8478 C   0  0  0  0  0  0  0  0  0  0  0  0
  150.0650  164.0683  127.5150 C   0  0  0  0  0  0  0  0  0  0  0  0
  149.3440  163.4503  126.6038 C   0  0  0  0  0  0  0  0  0  0  0  0
  150.6543  165.3512  127.2829 C   0  0  2  0  0  0  0  0  0  0  0  0
  152.1769  165.3371  127.0253 C   0  0  0  0  0  0  0  0  0  0  0  0
  152.5668  166.8205  127.1046 C   0  0  0  0  0  0  0  0  0  0  0  0
  151.2297  167.5265  127.2768 C   0  0  2  0  0  0  0  0  0  0  0  0
  151.3507  168.8844  127.8461 C   0  0  0  0  0  0  0  0  0  0  0  0
  149.9490  169.3010  128.2741 C   0  0  0  0  0  0  0  0  0  0  0  0
  149.4501  168.3642  129.3517 C   0  0  2  0  0  0  0  0  0  0  0  0
  150.4302  168.5053  130.4645 C   0  0  0  0  0  0  0  0  0  0  0  0
  149.3824  166.9062  128.8831 C   0  0  2  0  0  0  0  0  0  0  0  0
  149.1278  166.1188  130.1763 C   0  0  0  0  0  0  0  0  0  0  0  0
  147.8403  166.5314  130.8203 C   0  0  0  0  0  0  0  0  0  0  0  0
  147.6611  167.9984  130.9479 C   0  0  2  0  0  0  0  0  0  0  0  0
  146.3475  168.4025  131.5699 C   0  0  1  0  0  0  0  0  0  0  0  0
  145.1376  167.7439  131.0480 C   0  0  0  0  0  0  0  0  0  0  0  0
  146.4763  167.8899  133.0240 C   0  0  0  0  0  0  0  0  0  0  0  0
  145.4280  168.5091  133.8844 C   0  0  0  0  0  0  0  0  0  0  0  0
  144.8038  169.6322  133.6369 C   0  0  0  0  0  0  0  0  0  0  0  0
  143.7879  170.1182  134.5847 C   0  0  0  0  0  0  0  0  0  0  0  0
  142.6914  170.8239  134.1437 C   0  0  0  0  0  0  0  0  0  0  0  0
  141.7164  171.3118  135.0152 C   0  0  0  0  0  0  0  0  0  0  0  0
  141.8205  171.0996  136.3717 C   0  0  0  0  0  0  0  0  0  0  0  0
  142.9171  170.3954  136.7975 C   0  0  0  0  0  0  0  0  0  0  0  0
  143.8808  169.9127  135.9412 C   0  0  0  0  0  0  0  0  0  0  0  0
  140.8091  171.5991  137.3077 C   0  0  0  0  0  0  0  0  0  0  0  0
  141.0094  171.6545  138.6589 O   0  0  0  0  0  0  0  0  0  0  0  0
  139.7184  171.9883  136.8252 O   0  0  0  0  0  0  0  0  0  0  0  0
  145.1073  170.4475  132.4217 C   0  0  0  0  0  0  0  0  0  0  0  0
  143.9477  170.6180  131.5004 C   0  0  0  0  0  0  0  0  0  0  0  0
  145.5363  171.8090  132.9299 C   0  0  0  0  0  0  0  0  0  0  0  0
  146.3226  169.8828  131.7199 C   0  0  2  0  0  0  0  0  0  0  0  0
  146.6248  170.6390  130.4717 C   0  0  0  0  0  0  0  0  0  0  0  0
  147.9569  170.2304  129.8688 C   0  0  0  0  0  0  0  0  0  0  0  0
  148.0242  168.7291  129.7021 C   0  0  1  0  0  0  0  0  0  0  0  0
  147.1157  168.3860  128.5388 C   0  0  0  0  0  0  0  0  0  0  0  0
  150.5911  166.4863  128.2280 C   0  0  1  0  0  0  0  0  0  0  0  0
  150.5464  167.5183  126.0308 N   0  0  0  0  0  0  0  0  0  0  0  0
  151.2173  166.9791  124.9132 C   0  0  0  0  0  0  0  0  0  0  0  0
  151.6779  168.1357  124.0167 C   0  0  0  0  0  0  0  0  0  0  0  0
  150.5644  168.7265  123.3610 N   0  0  0  0  0  0  0  0  0  0  0  0
  149.2733  168.3977  123.8481 C   0  0  0  0  0  0  0  0  0  0  0  0
  148.3685  169.5865  123.7688 C   0  0  0  0  0  0  0  0  0  0  0  0
  148.9233  170.7281  122.5627 S   0  0  0  0  0  6  0  0  0  0  0  0
  147.7345  171.2847  121.8013 O   0  0  0  0  0  0  0  0  0  0  0  0
  149.5575  171.9006  123.2803 O   0  0  0  0  0  0  0  0  0  0  0  0
  150.1174  170.0668  121.4442 C   0  0  0  0  0  0  0  0  0  0  0  0
  150.5968  168.7131  121.9292 C   0  0  0  0  0  0  0  0  0  0  0  0
  1  2  1  0
  2  3  2  0
  4  2  1  1
  4  5  1  0
  5  6  1  0
  6  7  1  0
  7  8  1  0
  8  9  1  0
  9 10  1  0
 10 11  1  1
 10 12  1  0
 12 13  1  1
 13 14  1  0
 15 14  1  6
 15 16  1  0
 16 17  1  6
 16 18  1  0
 18 19  1  0
 19 20  2  0
 20 21  1  0
 21 22  2  0
 22 23  1  0
 23 24  2  0
 24 25  1  0
 25 26  2  0
 24 27  1  0
 27 28  1  0
 27 29  2  0
 20 30  1  0
 30 31  1  0
 30 32  1  0
 30 33  1  0
 33 34  1  6
 34 35  1  0
 35 36  1  0
 36 37  1  6
 12 38  1  0
  7 39  1  6
 39 40  1  0
 40 41  1  0
 41 42  1  0
 42 43  1  0
 43 44  1  0
 44 45  1  0
 45 46  2  0
 45 47  2  0
 45 48  1  0
 48 49  1  0
 38  4  1  6
 49 42  1  0
 38  7  1  0
 36 10  1  0
 36 15  1  0
 33 16  1  0
 26 21  1  0
M  END
$$$$
