
     RDKit          3D

 49 55  0  0  0  0  0  0  0  0999 V2000
  148.1936  164.2315  126.1186 C   0  0  0  0  0  0  0  0  0  0  0  0
  147.6810  164.6042  127.4652 C   0  0  0  0  0  0  0  0  0  0  0  0
  146.4019  164.9048  127.5398 C   0  0  0  0  0  0  0  0  0  0  0  0
  148.5187  164.5341  128.6229 C   0  0  2  0  0  0  0  0  0  0  0  0
  148.6958  163.1210  129.2202 C   0  0  0  0  0  0  0  0  0  0  0  0
  149.3723  163.3869  130.5732 C   0  0  0  0  0  0  0  0  0  0  0  0
  149.6159  164.8890  130.5550 C   0  0  2  0  0  0  0  0  0  0  0  0
  149.8135  165.4690  131.8994 C   0  0  0  0  0  0  0  0  0  0  0  0
  149.6913  166.9796  131.7414 C   0  0  0  0  0  0  0  0  0  0  0  0
  148.2997  167.3268  131.2613 C   0  0  2  0  0  0  0  0  0  0  0  0
  147.3896  166.8087  132.3206 C   0  0  0  0  0  0  0  0  0  0  0  0
  147.9633  166.6863  129.9099 C   0  0  2  0  0  0  0  0  0  0  0  0
  146.4561  166.9337  129.7539 C   0  0  0  0  0  0  0  0  0  0  0  0
  146.1433  168.3981  129.7416 C   0  0  0  0  0  0  0  0  0  0  0  0
  146.7838  169.1711  130.8338 C   0  0  2  0  0  0  0  0  0  0  0  0
  146.4862  170.6494  130.7930 C   0  0  1  0  0  0  0  0  0  0  0  0
  146.6302  171.3180  129.4882 C   0  0  0  0  0  0  0  0  0  0  0  0
  144.9708  170.7101  131.0990 C   0  0  0  0  0  0  0  0  0  0  0  0
  144.5708  172.1021  131.4527 C   0  0  0  0  0  0  0  0  0  0  0  0
  145.3703  173.0331  131.9071 C   0  0  0  0  0  0  0  0  0  0  0  0
  144.8267  174.3663  132.2126 C   0  0  0  0  0  0  0  0  0  0  0  0
  144.6182  174.7623  133.5143 C   0  0  0  0  0  0  0  0  0  0  0  0
  144.0913  176.0130  133.8400 C   0  0  0  0  0  0  0  0  0  0  0  0
  143.7556  176.9104  132.8510 C   0  0  0  0  0  0  0  0  0  0  0  0
  143.9683  176.5036  131.5591 C   0  0  0  0  0  0  0  0  0  0  0  0
  144.4877  175.2709  131.2339 C   0  0  0  0  0  0  0  0  0  0  0  0
  143.2031  178.2309  133.1665 C   0  0  0  0  0  0  0  0  0  0  0  0
  142.7532  179.0967  132.2090 O   0  0  0  0  0  0  0  0  0  0  0  0
  143.1501  178.5604  134.3759 O   0  0  0  0  0  0  0  0  0  0  0  0
  146.8234  172.7739  132.1416 C   0  0  0  0  0  0  0  0  0  0  0  0
  147.7316  173.6234  131.3193 C   0  0  0  0  0  0  0  0  0  0  0  0
  147.0678  173.0683  133.6077 C   0  0  0  0  0  0  0  0  0  0  0  0
  147.1104  171.2977  131.9781 C   0  0  2  0  0  0  0  0  0  0  0  0
  148.5618  171.0077  132.1524 C   0  0  0  0  0  0  0  0  0  0  0  0
  148.8403  169.5162  132.2069 C   0  0  0  0  0  0  0  0  0  0  0  0
  148.2188  168.8180  131.0184 C   0  0  1  0  0  0  0  0  0  0  0  0
  149.0678  169.1798  129.8166 C   0  0  0  0  0  0  0  0  0  0  0  0
  148.2840  165.2855  129.8743 C   0  0  1  0  0  0  0  0  0  0  0  0
  150.7009  165.1640  129.6795 N   0  0  0  0  0  0  0  0  0  0  0  0
  151.5898  164.1108  129.3783 C   0  0  0  0  0  0  0  0  0  0  0  0
  152.7992  164.2105  130.3168 C   0  0  0  0  0  0  0  0  0  0  0  0
  153.9759  164.5057  129.5771 N   0  0  0  0  0  0  0  0  0  0  0  0
  155.1316  164.8734  130.3131 C   0  0  0  0  0  0  0  0  0  0  0  0
  156.3603  164.3185  129.6644 C   0  0  0  0  0  0  0  0  0  0  0  0
  156.0919  163.9984  127.9640 S   0  0  0  0  0  6  0  0  0  0  0  0
  157.3184  164.4048  127.1681 O   0  0  0  0  0  0  0  0  0  0  0  0
  155.9427  162.5026  127.7842 O   0  0  0  0  0  0  0  0  0  0  0  0
  154.6470  164.7702  127.3077 C   0  0  0  0  0  0  0  0  0  0  0  0
  153.8042  165.3447  128.4290 C   0  0  0  0  0  0  0  0  0  0  0  0
  1  2  1  0
  2  3  2  0
  4  2  1  6
  4  5  1  0
  5  6  1  0
  6  7  1  0
  7  8  1  0
  8  9  1  0
  9 10  1  0
 10 11  1  1
 10 12  1  0
 12 13  1  1
 13 14  1  0
 15 14  1  6
 15 16  1  0
 16 17  1  6
 16 18  1  0
 18 19  1  0
 19 20  2  0
 20 21  1  0
 21 22  2  0
 22 23  1  0
 23 24  2  0
 24 25  1  0
 25 26  2  0
 24 27  1  0
 27 28  1  0
 27 29  2  0
 20 30  1  0
 30 31  1  0
 30 32  1  0
 30 33  1  0
 33 34  1  6
 34 35  1  0
 35 36  1  0
 36 37  1  6
 12 38  1  0
  7 39  1  6
 39 40  1  0
 40 41  1  0
 41 42  1  0
 42 43  1  0
 43 44  1  0
 44 45  1  0
 45 46  2  0
 45 47  2  0
 45 48  1  0
 48 49  1  0
 38  4  1  6
 49 42  1  0
 38  7  1  0
 36 10  1  0
 36 15  1  0
 33 16  1  0
 26 21  1  0
M  END
$$$$
