
     RDKit          3D

 49 55  0  0  0  0  0  0  0  0999 V2000
  188.7822  165.9823  136.7592 C   0  0  0  0  0  0  0  0  0  0  0  0
  188.2041  165.3840  137.9933 C   0  0  0  0  0  0  0  0  0  0  0  0
  187.3512  166.1323  138.6601 C   0  0  0  0  0  0  0  0  0  0  0  0
  188.4882  164.0320  138.3650 C   0  0  2  0  0  0  0  0  0  0  0  0
  189.9058  163.5364  138.0048 C   0  0  0  0  0  0  0  0  0  0  0  0
  189.8261  162.0211  138.2427 C   0  0  0  0  0  0  0  0  0  0  0  0
  188.4309  161.8289  138.8191 C   0  0  2  0  0  0  0  0  0  0  0  0
  187.9283  160.4453  138.6936 C   0  0  0  0  0  0  0  0  0  0  0  0
  186.4333  160.4998  138.9828 C   0  0  0  0  0  0  0  0  0  0  0  0
  185.7489  161.3621  137.9456 C   0  0  2  0  0  0  0  0  0  0  0  0
  186.0340  160.6944  136.6450 C   0  0  0  0  0  0  0  0  0  0  0  0
  186.2757  162.8016  137.9322 C   0  0  2  0  0  0  0  0  0  0  0  0
  185.6619  163.4029  136.6598 C   0  0  0  0  0  0  0  0  0  0  0  0
  184.1656  163.3840  136.7159 C   0  0  0  0  0  0  0  0  0  0  0  0
  183.5837  162.0818  137.1235 C   0  0  2  0  0  0  0  0  0  0  0  0
  182.0773  162.0839  137.2060 C   0  0  1  0  0  0  0  0  0  0  0  0
  181.4551  163.2121  137.9201 C   0  0  0  0  0  0  0  0  0  0  0  0
  181.6462  162.2678  135.7316 C   0  0  0  0  0  0  0  0  0  0  0  0
  180.2013  161.9371  135.5712 C   0  0  0  0  0  0  0  0  0  0  0  0
  179.5006  161.1733  136.3699 C   0  0  0  0  0  0  0  0  0  0  0  0
  178.0768  160.9388  136.0801 C   0  0  0  0  0  0  0  0  0  0  0  0
  177.1075  161.7820  136.5745 C   0  0  0  0  0  0  0  0  0  0  0  0
  175.7477  161.5818  136.3316 C   0  0  0  0  0  0  0  0  0  0  0  0
  175.3215  160.5134  135.5745 C   0  0  0  0  0  0  0  0  0  0  0  0
  176.2970  159.6816  135.0882 C   0  0  0  0  0  0  0  0  0  0  0  0
  177.6390  159.8757  135.3256 C   0  0  0  0  0  0  0  0  0  0  0  0
  173.8999  160.2824  135.3027 C   0  0  0  0  0  0  0  0  0  0  0  0
  173.3505  159.0328  135.2289 O   0  0  0  0  0  0  0  0  0  0  0  0
  173.1733  161.2911  135.1337 O   0  0  0  0  0  0  0  0  0  0  0  0
  180.1129  160.5159  137.5643 C   0  0  0  0  0  0  0  0  0  0  0  0
  179.5081  160.9312  138.8621 C   0  0  0  0  0  0  0  0  0  0  0  0
  179.8996  159.0277  137.3758 C   0  0  0  0  0  0  0  0  0  0  0  0
  181.6129  160.7100  137.5394 C   0  0  2  0  0  0  0  0  0  0  0  0
  182.2543  160.1127  138.7448 C   0  0  0  0  0  0  0  0  0  0  0  0
  183.7687  160.1050  138.6372 C   0  0  0  0  0  0  0  0  0  0  0  0
  184.2822  161.4855  138.2958 C   0  0  1  0  0  0  0  0  0  0  0  0
  184.1322  162.3211  139.5511 C   0  0  0  0  0  0  0  0  0  0  0  0
  187.7120  162.8575  137.9137 C   0  0  1  0  0  0  0  0  0  0  0  0
  188.4260  162.2893  140.1635 N   0  0  0  0  0  0  0  0  0  0  0  0
  187.1939  162.3095  140.8502 C   0  0  0  0  0  0  0  0  0  0  0  0
  187.2029  161.1911  141.9003 C   0  0  0  0  0  0  0  0  0  0  0  0
  187.4488  161.7284  143.1925 N   0  0  0  0  0  0  0  0  0  0  0  0
  186.9196  163.0143  143.4736 C   0  0  0  0  0  0  0  0  0  0  0  0
  186.4570  163.0877  144.8944 C   0  0  0  0  0  0  0  0  0  0  0  0
  187.2705  161.8990  145.8899 S   0  0  0  0  0  6  0  0  0  0  0  0
  187.6151  162.5096  147.2357 O   0  0  0  0  0  0  0  0  0  0  0  0
  186.2977  160.7729  146.1687 O   0  0  0  0  0  0  0  0  0  0  0  0
  188.7087  161.2005  145.1429 C   0  0  0  0  0  0  0  0  0  0  0  0
  188.7883  161.6009  143.6832 C   0  0  0  0  0  0  0  0  0  0  0  0
  1  2  1  0
  2  3  2  0
  4  2  1  6
  4  5  1  0
  5  6  1  0
  6  7  1  0
  7  8  1  0
  8  9  1  0
  9 10  1  0
 10 11  1  6
 10 12  1  0
 12 13  1  6
 13 14  1  0
 15 14  1  1
 15 16  1  0
 16 17  1  1
 16 18  1  0
 18 19  1  0
 19 20  2  0
 20 21  1  0
 21 22  2  0
 22 23  1  0
 23 24  2  0
 24 25  1  0
 25 26  2  0
 24 27  1  0
 27 28  1  0
 27 29  2  0
 20 30  1  0
 30 31  1  0
 30 32  1  0
 30 33  1  0
 33 34  1  1
 34 35  1  0
 35 36  1  0
 36 37  1  1
 12 38  1  0
  7 39  1  1
 39 40  1  0
 40 41  1  0
 41 42  1  0
 42 43  1  0
 43 44  1  0
 44 45  1  0
 45 46  2  0
 45 47  2  0
 45 48  1  0
 48 49  1  0
 38  4  1  1
 49 42  1  0
 38  7  1  0
 36 10  1  0
 36 15  1  0
 33 16  1  0
 26 21  1  0
M  END
$$$$
