
     RDKit          3D

 49 55  0  0  0  0  0  0  0  0999 V2000
  163.1986  147.1183  125.0592 C   0  0  0  0  0  0  0  0  0  0  0  0
  164.3615  146.7038  125.8902 C   0  0  0  0  0  0  0  0  0  0  0  0
  165.2944  146.0040  125.2802 C   0  0  0  0  0  0  0  0  0  0  0  0
  164.4953  147.1371  127.2471 C   0  0  2  0  0  0  0  0  0  0  0  0
  163.5415  146.4538  128.2513 C   0  0  0  0  0  0  0  0  0  0  0  0
  163.6974  147.2988  129.5243 C   0  0  0  0  0  0  0  0  0  0  0  0
  164.7952  148.2870  129.1578 C   0  0  2  0  0  0  0  0  0  0  0  0
  164.8086  149.4937  130.0100 C   0  0  0  0  0  0  0  0  0  0  0  0
  165.7036  150.5086  129.3096 C   0  0  0  0  0  0  0  0  0  0  0  0
  165.1065  150.8676  127.9670 C   0  0  2  0  0  0  0  0  0  0  0  0
  163.7686  151.4402  128.2847 C   0  0  0  0  0  0  0  0  0  0  0  0
  164.9606  149.6546  127.0412 C   0  0  2  0  0  0  0  0  0  0  0  0
  164.1049  150.1822  125.8808 C   0  0  0  0  0  0  0  0  0  0  0  0
  164.7851  151.3132  125.1733 C   0  0  0  0  0  0  0  0  0  0  0  0
  165.3193  152.3658  126.0717 C   0  0  2  0  0  0  0  0  0  0  0  0
  166.0289  153.4842  125.3497 C   0  0  1  0  0  0  0  0  0  0  0  0
  167.0064  153.0920  124.3198 C   0  0  0  0  0  0  0  0  0  0  0  0
  164.8878  154.1735  124.5645 C   0  0  0  0  0  0  0  0  0  0  0  0
  165.3313  155.5107  124.0767 C   0  0  0  0  0  0  0  0  0  0  0  0
  166.3024  156.2247  124.5861 C   0  0  0  0  0  0  0  0  0  0  0  0
  166.6258  157.5322  123.9927 C   0  0  0  0  0  0  0  0  0  0  0  0
  165.6619  158.5064  123.8632 C   0  0  0  0  0  0  0  0  0  0  0  0
  165.9296  159.7518  123.2927 C   0  0  0  0  0  0  0  0  0  0  0  0
  167.1914  160.0539  122.8313 C   0  0  0  0  0  0  0  0  0  0  0  0
  168.1418  159.0750  122.9664 C   0  0  0  0  0  0  0  0  0  0  0  0
  167.8817  157.8456  123.5285 C   0  0  0  0  0  0  0  0  0  0  0  0
  167.4991  161.3550  122.2307 C   0  0  0  0  0  0  0  0  0  0  0  0
  166.5632  162.3378  122.0660 O   0  0  0  0  0  0  0  0  0  0  0  0
  168.6805  161.5540  121.8586 O   0  0  0  0  0  0  0  0  0  0  0  0
  167.0847  155.7546  125.7696 C   0  0  0  0  0  0  0  0  0  0  0  0
  168.5392  155.5693  125.5007 C   0  0  0  0  0  0  0  0  0  0  0  0
  166.9128  156.8206  126.8326 C   0  0  0  0  0  0  0  0  0  0  0  0
  166.4419  154.5115  126.3439 C   0  0  2  0  0  0  0  0  0  0  0  0
  167.2257  153.9818  127.4956 C   0  0  0  0  0  0  0  0  0  0  0  0
  166.4896  152.8684  128.2191 C   0  0  0  0  0  0  0  0  0  0  0  0
  166.0490  151.8026  127.2413 C   0  0  1  0  0  0  0  0  0  0  0  0
  167.2992  151.0462  126.8397 C   0  0  0  0  0  0  0  0  0  0  0  0
  164.3420  148.5363  127.6993 C   0  0  1  0  0  0  0  0  0  0  0  0
  166.0419  147.6050  129.1614 N   0  0  0  0  0  0  0  0  0  0  0  0
  166.8717  147.7520  130.2926 C   0  0  0  0  0  0  0  0  0  0  0  0
  166.3753  146.7995  131.3880 C   0  0  0  0  0  0  0  0  0  0  0  0
  166.7979  147.2535  132.6664 N   0  0  0  0  0  0  0  0  0  0  0  0
  166.1788  148.4226  133.1787 C   0  0  0  0  0  0  0  0  0  0  0  0
  165.9935  148.3078  134.6588 C   0  0  0  0  0  0  0  0  0  0  0  0
  167.1236  147.1652  135.3540 S   0  0  0  0  0  6  0  0  0  0  0  0
  167.6436  147.7009  136.6752 O   0  0  0  0  0  0  0  0  0  0  0  0
  166.3688  145.8931  135.6766 O   0  0  0  0  0  0  0  0  0  0  0  0
  168.4655  146.7440  134.2882 C   0  0  0  0  0  0  0  0  0  0  0  0
  168.2122  147.2753  132.8913 C   0  0  0  0  0  0  0  0  0  0  0  0
  1  2  1  0
  2  3  2  0
  4  2  1  6
  4  5  1  0
  5  6  1  0
  6  7  1  0
  7  8  1  0
  8  9  1  0
  9 10  1  0
 10 11  1  1
 10 12  1  0
 12 13  1  6
 13 14  1  0
 15 14  1  6
 15 16  1  0
 16 17  1  6
 16 18  1  0
 18 19  1  0
 19 20  2  0
 20 21  1  0
 21 22  2  0
 22 23  1  0
 23 24  2  0
 24 25  1  0
 25 26  2  0
 24 27  1  0
 27 28  1  0
 27 29  2  0
 20 30  1  0
 30 31  1  0
 30 32  1  0
 30 33  1  0
 33 34  1  1
 34 35  1  0
 35 36  1  0
 36 37  1  6
 12 38  1  0
  7 39  1  6
 39 40  1  0
 40 41  1  0
 41 42  1  0
 42 43  1  0
 43 44  1  0
 44 45  1  0
 45 46  2  0
 45 47  2  0
 45 48  1  0
 48 49  1  0
 38  4  1  6
 49 42  1  0
 38  7  1  0
 36 10  1  0
 36 15  1  0
 33 16  1  0
 26 21  1  0
M  END
$$$$
