
     RDKit          3D

 49 55  0  0  0  0  0  0  0  0999 V2000
  144.6485  167.0285  135.0920 C   0  0  0  0  0  0  0  0  0  0  0  0
  145.0856  165.6062  135.0614 C   0  0  0  0  0  0  0  0  0  0  0  0
  144.1584  164.7056  135.3093 C   0  0  0  0  0  0  0  0  0  0  0  0
  146.4171  165.2477  134.6801 C   0  0  2  0  0  0  0  0  0  0  0  0
  147.3308  164.7906  135.8382 C   0  0  0  0  0  0  0  0  0  0  0  0
  148.7277  164.7592  135.2006 C   0  0  0  0  0  0  0  0  0  0  0  0
  148.4537  165.0800  133.7384 C   0  0  2  0  0  0  0  0  0  0  0  0
  149.6415  165.5745  133.0123 C   0  0  0  0  0  0  0  0  0  0  0  0
  149.1334  166.1685  131.7044 C   0  0  0  0  0  0  0  0  0  0  0  0
  148.2221  167.3388  132.0011 C   0  0  2  0  0  0  0  0  0  0  0  0
  149.0727  168.3050  132.7507 C   0  0  0  0  0  0  0  0  0  0  0  0
  147.0022  166.9408  132.8396 C   0  0  2  0  0  0  0  0  0  0  0  0
  146.3839  168.2862  133.2456 C   0  0  0  0  0  0  0  0  0  0  0  0
  145.9690  169.0791  132.0448 C   0  0  0  0  0  0  0  0  0  0  0  0
  147.0021  169.1718  130.9844 C   0  0  2  0  0  0  0  0  0  0  0  0
  146.5617  169.9468  129.7673 C   0  0  1  0  0  0  0  0  0  0  0  0
  145.2361  169.6166  129.2163 C   0  0  0  0  0  0  0  0  0  0  0  0
  146.4140  171.3898  130.3056 C   0  0  0  0  0  0  0  0  0  0  0  0
  146.3330  172.3571  129.1740 C   0  0  0  0  0  0  0  0  0  0  0  0
  146.7793  172.1511  127.9613 C   0  0  0  0  0  0  0  0  0  0  0  0
  146.6260  173.2057  126.9462 C   0  0  0  0  0  0  0  0  0  0  0  0
  147.7232  173.7274  126.2990 C   0  0  0  0  0  0  0  0  0  0  0  0
  147.6163  174.7376  125.3419 C   0  0  0  0  0  0  0  0  0  0  0  0
  146.3858  175.2566  125.0061 C   0  0  0  0  0  0  0  0  0  0  0  0
  145.3015  174.7282  125.6579 C   0  0  0  0  0  0  0  0  0  0  0  0
  145.4029  173.7319  126.6024 C   0  0  0  0  0  0  0  0  0  0  0  0
  146.2462  176.3158  124.0026 C   0  0  0  0  0  0  0  0  0  0  0  0
  145.0410  176.8656  123.6647 O   0  0  0  0  0  0  0  0  0  0  0  0
  147.2926  176.7208  123.4415 O   0  0  0  0  0  0  0  0  0  0  0  0
  147.4586  170.8752  127.5811 C   0  0  0  0  0  0  0  0  0  0  0  0
  146.7578  170.1104  126.5105 C   0  0  0  0  0  0  0  0  0  0  0  0
  148.8351  171.2682  127.0845 C   0  0  0  0  0  0  0  0  0  0  0  0
  147.7044  170.0407  128.8187 C   0  0  2  0  0  0  0  0  0  0  0  0
  148.3335  168.7348  128.4725 C   0  0  0  0  0  0  0  0  0  0  0  0
  148.7843  167.9765  129.7082 C   0  0  0  0  0  0  0  0  0  0  0  0
  147.6501  167.8612  130.7015 C   0  0  1  0  0  0  0  0  0  0  0  0
  146.6829  166.8434  130.1313 C   0  0  0  0  0  0  0  0  0  0  0  0
  147.3608  166.1477  133.9836 C   0  0  1  0  0  0  0  0  0  0  0  0
  147.8764  163.9373  133.1217 N   0  0  0  0  0  0  0  0  0  0  0  0
  148.5288  163.3944  131.9949 C   0  0  0  0  0  0  0  0  0  0  0  0
  148.7661  161.8992  132.2427 C   0  0  0  0  0  0  0  0  0  0  0  0
  147.6569  161.1398  131.7823 N   0  0  0  0  0  0  0  0  0  0  0  0
  147.2871  161.2886  130.4209 C   0  0  0  0  0  0  0  0  0  0  0  0
  146.8275  159.9800  129.8600 C   0  0  0  0  0  0  0  0  0  0  0  0
  146.2733  158.9054  131.1265 S   0  0  0  0  0  6  0  0  0  0  0  0
  145.0317  158.1666  130.6624 O   0  0  0  0  0  0  0  0  0  0  0  0
  147.3379  157.8524  131.3499 O   0  0  0  0  0  0  0  0  0  0  0  0
  145.9729  159.7085  132.6689 C   0  0  0  0  0  0  0  0  0  0  0  0
  146.5052  161.1273  132.6336 C   0  0  0  0  0  0  0  0  0  0  0  0
  1  2  1  0
  2  3  2  0
  4  2  1  1
  4  5  1  0
  5  6  1  0
  6  7  1  0
  7  8  1  0
  8  9  1  0
  9 10  1  0
 10 11  1  1
 10 12  1  0
 12 13  1  1
 13 14  1  0
 15 14  1  1
 15 16  1  0
 16 17  1  6
 16 18  1  0
 18 19  1  0
 19 20  2  0
 20 21  1  0
 21 22  2  0
 22 23  1  0
 23 24  2  0
 24 25  1  0
 25 26  2  0
 24 27  1  0
 27 28  1  0
 27 29  2  0
 20 30  1  0
 30 31  1  0
 30 32  1  0
 30 33  1  0
 33 34  1  6
 34 35  1  0
 35 36  1  0
 36 37  1  6
 12 38  1  0
  7 39  1  6
 39 40  1  0
 40 41  1  0
 41 42  1  0
 42 43  1  0
 43 44  1  0
 44 45  1  0
 45 46  2  0
 45 47  2  0
 45 48  1  0
 48 49  1  0
 38  4  1  6
 49 42  1  0
 38  7  1  0
 36 10  1  0
 36 15  1  0
 33 16  1  0
 26 21  1  0
M  END
$$$$
