
     RDKit          3D

 49 55  0  0  0  0  0  0  0  0999 V2000
  203.5502  136.6886  134.1929 C   0  0  0  0  0  0  0  0  0  0  0  0
  204.7975  136.6087  135.0009 C   0  0  0  0  0  0  0  0  0  0  0  0
  205.7725  137.4204  134.6505 C   0  0  0  0  0  0  0  0  0  0  0  0
  204.8807  135.7674  136.1550 C   0  0  2  0  0  0  0  0  0  0  0  0
  205.3456  136.4717  137.4484 C   0  0  0  0  0  0  0  0  0  0  0  0
  205.6182  135.3069  138.4117 C   0  0  0  0  0  0  0  0  0  0  0  0
  205.1733  134.0854  137.6206 C   0  0  2  0  0  0  0  0  0  0  0  0
  205.7573  132.8210  138.1135 C   0  0  0  0  0  0  0  0  0  0  0  0
  205.5058  131.7774  137.0322 C   0  0  0  0  0  0  0  0  0  0  0  0
  206.2218  132.1819  135.7628 C   0  0  2  0  0  0  0  0  0  0  0  0
  207.6613  132.2476  136.1403 C   0  0  0  0  0  0  0  0  0  0  0  0
  205.7502  133.5372  135.2239 C   0  0  2  0  0  0  0  0  0  0  0  0
  206.7718  133.8694  134.1271 C   0  0  0  0  0  0  0  0  0  0  0  0
  206.7645  132.8344  133.0449 C   0  0  0  0  0  0  0  0  0  0  0  0
  206.8204  131.4352  133.5343 C   0  0  2  0  0  0  0  0  0  0  0  0
  206.7815  130.4011  132.4366 C   0  0  1  0  0  0  0  0  0  0  0  0
  205.7546  130.5790  131.3956 C   0  0  0  0  0  0  0  0  0  0  0  0
  208.1257  130.6192  131.7023 C   0  0  0  0  0  0  0  0  0  0  0  0
  208.4235  129.4588  130.8149 C   0  0  0  0  0  0  0  0  0  0  0  0
  207.9370  128.2514  130.9494 C   0  0  0  0  0  0  0  0  0  0  0  0
  208.3251  127.2052  129.9897 C   0  0  0  0  0  0  0  0  0  0  0  0
  208.1809  125.8723  130.3019 C   0  0  0  0  0  0  0  0  0  0  0  0
  208.5515  124.8541  129.4222 C   0  0  0  0  0  0  0  0  0  0  0  0
  209.0842  125.1542  128.1884 C   0  0  0  0  0  0  0  0  0  0  0  0
  209.2223  126.4852  127.8900 C   0  0  0  0  0  0  0  0  0  0  0  0
  208.8580  127.4923  128.7550 C   0  0  0  0  0  0  0  0  0  0  0  0
  209.4789  124.1037  127.2454 C   0  0  0  0  0  0  0  0  0  0  0  0
  209.8578  124.3644  125.9580 O   0  0  0  0  0  0  0  0  0  0  0  0
  209.4610  122.9197  127.6598 O   0  0  0  0  0  0  0  0  0  0  0  0
  207.0074  127.8996  132.0655 C   0  0  0  0  0  0  0  0  0  0  0  0
  205.6617  127.4446  131.6135 C   0  0  0  0  0  0  0  0  0  0  0  0
  207.6776  126.7738  132.8266 C   0  0  0  0  0  0  0  0  0  0  0  0
  206.9279  129.0505  133.0440 C   0  0  2  0  0  0  0  0  0  0  0  0
  205.9674  128.7570  134.1452 C   0  0  0  0  0  0  0  0  0  0  0  0
  206.0317  129.7991  135.2474 C   0  0  0  0  0  0  0  0  0  0  0  0
  205.8894  131.1894  134.6703 C   0  0  1  0  0  0  0  0  0  0  0  0
  204.4344  131.3428  134.2757 C   0  0  0  0  0  0  0  0  0  0  0  0
  205.7115  134.5479  136.2455 C   0  0  1  0  0  0  0  0  0  0  0  0
  203.7529  134.0535  137.5923 N   0  0  0  0  0  0  0  0  0  0  0  0
  203.1271  132.8537  137.1938 C   0  0  0  0  0  0  0  0  0  0  0  0
  202.3379  132.2966  138.3856 C   0  0  0  0  0  0  0  0  0  0  0  0
  200.9911  132.7471  138.3406 N   0  0  0  0  0  0  0  0  0  0  0  0
  200.7502  134.0199  137.7623 C   0  0  0  0  0  0  0  0  0  0  0  0
  199.4641  134.0096  136.9980 C   0  0  0  0  0  0  0  0  0  0  0  0
  198.3937  132.7485  137.5723 S   0  0  0  0  0  6  0  0  0  0  0  0
  196.9682  133.2674  137.6118 O   0  0  0  0  0  0  0  0  0  0  0  0
  198.4096  131.6210  136.5620 O   0  0  0  0  0  0  0  0  0  0  0  0
  198.8499  132.0785  139.1398 C   0  0  0  0  0  0  0  0  0  0  0  0
  200.2272  132.5697  139.5391 C   0  0  0  0  0  0  0  0  0  0  0  0
  1  2  1  0
  2  3  2  0
  4  2  1  6
  4  5  1  0
  5  6  1  0
  6  7  1  0
  7  8  1  0
  8  9  1  0
  9 10  1  0
 10 11  1  1
 10 12  1  0
 12 13  1  6
 13 14  1  0
 15 14  1  6
 15 16  1  0
 16 17  1  6
 16 18  1  0
 18 19  1  0
 19 20  2  0
 20 21  1  0
 21 22  2  0
 22 23  1  0
 23 24  2  0
 24 25  1  0
 25 26  2  0
 24 27  1  0
 27 28  1  0
 27 29  2  0
 20 30  1  0
 30 31  1  0
 30 32  1  0
 30 33  1  0
 33 34  1  1
 34 35  1  0
 35 36  1  0
 36 37  1  6
 12 38  1  0
  7 39  1  6
 39 40  1  0
 40 41  1  0
 41 42  1  0
 42 43  1  0
 43 44  1  0
 44 45  1  0
 45 46  2  0
 45 47  2  0
 45 48  1  0
 48 49  1  0
 38  4  1  6
 49 42  1  0
 38  7  1  0
 36 10  1  0
 36 15  1  0
 33 16  1  0
 26 21  1  0
M  END
$$$$
