
     RDKit          3D

 49 55  0  0  0  0  0  0  0  0999 V2000
  197.2038  139.3904  131.0903 C   0  0  0  0  0  0  0  0  0  0  0  0
  198.5625  138.8571  131.3810 C   0  0  0  0  0  0  0  0  0  0  0  0
  198.6400  137.9388  132.3205 C   0  0  0  0  0  0  0  0  0  0  0  0
  199.6964  139.2532  130.6037 C   0  0  2  0  0  0  0  0  0  0  0  0
  199.3663  139.8480  129.2172 C   0  0  0  0  0  0  0  0  0  0  0  0
  200.7320  139.9015  128.5166 C   0  0  0  0  0  0  0  0  0  0  0  0
  201.7008  139.4517  129.6007 C   0  0  2  0  0  0  0  0  0  0  0  0
  202.9907  138.9637  129.0709 C   0  0  0  0  0  0  0  0  0  0  0  0
  203.6852  138.2419  130.2191 C   0  0  0  0  0  0  0  0  0  0  0  0
  202.8532  137.0530  130.6457 C   0  0  2  0  0  0  0  0  0  0  0  0
  202.7616  136.1951  129.4314 C   0  0  0  0  0  0  0  0  0  0  0  0
  201.4523  137.4520  131.1229 C   0  0  2  0  0  0  0  0  0  0  0  0
  200.7103  136.1127  131.2370 C   0  0  0  0  0  0  0  0  0  0  0  0
  201.3724  135.2064  132.2283 C   0  0  0  0  0  0  0  0  0  0  0  0
  202.8413  135.0837  132.0613 C   0  0  2  0  0  0  0  0  0  0  0  0
  203.5009  134.1926  133.0843 C   0  0  1  0  0  0  0  0  0  0  0  0
  203.1234  134.4083  134.4918 C   0  0  0  0  0  0  0  0  0  0  0  0
  202.9433  132.7912  132.7394 C   0  0  0  0  0  0  0  0  0  0  0  0
  203.7524  131.7341  133.4108 C   0  0  0  0  0  0  0  0  0  0  0  0
  204.9869  131.8661  133.8244 C   0  0  0  0  0  0  0  0  0  0  0  0
  205.6571  130.7276  134.4731 C   0  0  0  0  0  0  0  0  0  0  0  0
  204.9640  129.5757  134.7689 C   0  0  0  0  0  0  0  0  0  0  0  0
  205.5638  128.4825  135.3960 C   0  0  0  0  0  0  0  0  0  0  0  0
  206.8949  128.5201  135.7470 C   0  0  0  0  0  0  0  0  0  0  0  0
  207.5734  129.6731  135.4466 C   0  0  0  0  0  0  0  0  0  0  0  0
  206.9854  130.7532  134.8281 C   0  0  0  0  0  0  0  0  0  0  0  0
  207.5490  127.3849  136.4039 C   0  0  0  0  0  0  0  0  0  0  0  0
  208.8647  127.3977  136.7749 O   0  0  0  0  0  0  0  0  0  0  0  0
  206.8510  126.3664  136.6264 O   0  0  0  0  0  0  0  0  0  0  0  0
  205.7441  133.1415  133.6404 C   0  0  0  0  0  0  0  0  0  0  0  0
  206.1742  133.7812  134.9164 C   0  0  0  0  0  0  0  0  0  0  0  0
  206.9737  132.7827  132.8309 C   0  0  0  0  0  0  0  0  0  0  0  0
  204.9498  134.0834  132.7628 C   0  0  2  0  0  0  0  0  0  0  0  0
  205.6502  135.3887  132.5999 C   0  0  0  0  0  0  0  0  0  0  0  0
  204.9818  136.2653  131.5559 C   0  0  0  0  0  0  0  0  0  0  0  0
  203.5039  136.3998  131.8454 C   0  0  1  0  0  0  0  0  0  0  0  0
  203.3839  137.3171  133.0455 C   0  0  0  0  0  0  0  0  0  0  0  0
  200.7999  138.3513  130.2106 C   0  0  1  0  0  0  0  0  0  0  0  0
  201.8623  140.5101  130.5351 N   0  0  0  0  0  0  0  0  0  0  0  0
  202.7410  141.5607  130.1974 C   0  0  0  0  0  0  0  0  0  0  0  0
  201.9411  142.6510  129.4730 C   0  0  0  0  0  0  0  0  0  0  0  0
  202.1720  143.9167  130.0761 N   0  0  0  0  0  0  0  0  0  0  0  0
  203.3947  144.0911  130.7739 C   0  0  0  0  0  0  0  0  0  0  0  0
  203.9115  145.4816  130.5793 C   0  0  0  0  0  0  0  0  0  0  0  0
  202.6198  146.5868  130.1600 S   0  0  0  0  0  6  0  0  0  0  0  0
  202.8215  147.9058  130.8827 O   0  0  0  0  0  0  0  0  0  0  0  0
  202.7218  146.8908  128.6804 O   0  0  0  0  0  0  0  0  0  0  0  0
  201.0028  145.9529  130.4730 C   0  0  0  0  0  0  0  0  0  0  0  0
  201.0743  144.4760  130.8066 C   0  0  0  0  0  0  0  0  0  0  0  0
  1  2  1  0
  2  3  2  0
  4  2  1  6
  4  5  1  0
  5  6  1  0
  6  7  1  0
  7  8  1  0
  8  9  1  0
  9 10  1  0
 10 11  1  6
 10 12  1  0
 12 13  1  6
 13 14  1  0
 15 14  1  1
 15 16  1  0
 16 17  1  1
 16 18  1  0
 18 19  1  0
 19 20  2  0
 20 21  1  0
 21 22  2  0
 22 23  1  0
 23 24  2  0
 24 25  1  0
 25 26  2  0
 24 27  1  0
 27 28  1  0
 27 29  2  0
 20 30  1  0
 30 31  1  0
 30 32  1  0
 30 33  1  0
 33 34  1  1
 34 35  1  0
 35 36  1  0
 36 37  1  1
 12 38  1  0
  7 39  1  1
 39 40  1  0
 40 41  1  0
 41 42  1  0
 42 43  1  0
 43 44  1  0
 44 45  1  0
 45 46  2  0
 45 47  2  0
 45 48  1  0
 48 49  1  0
 38  4  1  1
 49 42  1  0
 38  7  1  0
 36 10  1  0
 36 15  1  0
 33 16  1  0
 26 21  1  0
M  END
$$$$
