
     RDKit          3D

 49 55  0  0  0  0  0  0  0  0999 V2000
  160.6834  148.6959  126.2779 C   0  0  0  0  0  0  0  0  0  0  0  0
  162.1250  149.0314  126.4329 C   0  0  0  0  0  0  0  0  0  0  0  0
  162.7393  149.4763  125.3573 C   0  0  0  0  0  0  0  0  0  0  0  0
  162.7678  148.9685  127.7095 C   0  0  2  0  0  0  0  0  0  0  0  0
  162.0457  149.7249  128.8458 C   0  0  0  0  0  0  0  0  0  0  0  0
  163.0787  149.7337  129.9824 C   0  0  0  0  0  0  0  0  0  0  0  0
  164.2181  148.8909  129.4280 C   0  0  2  0  0  0  0  0  0  0  0  0
  165.5089  149.1278  130.1067 C   0  0  0  0  0  0  0  0  0  0  0  0
  166.5820  148.4958  129.2290 C   0  0  0  0  0  0  0  0  0  0  0  0
  166.6058  149.1862  127.8834 C   0  0  2  0  0  0  0  0  0  0  0  0
  166.9142  150.6108  128.1902 C   0  0  0  0  0  0  0  0  0  0  0  0
  165.2698  149.0786  127.1397 C   0  0  2  0  0  0  0  0  0  0  0  0
  165.4265  150.0546  125.9650 C   0  0  0  0  0  0  0  0  0  0  0  0
  166.5642  149.6580  125.0758 C   0  0  0  0  0  0  0  0  0  0  0  0
  167.8257  149.3520  125.7938 C   0  0  2  0  0  0  0  0  0  0  0  0
  168.9555  148.9242  124.8903 C   0  0  1  0  0  0  0  0  0  0  0  0
  168.6407  147.9061  123.8733 C   0  0  0  0  0  0  0  0  0  0  0  0
  169.2605  150.2064  124.0799 C   0  0  0  0  0  0  0  0  0  0  0  0
  170.5775  150.0816  123.3925 C   0  0  0  0  0  0  0  0  0  0  0  0
  171.5509  149.2827  123.7486 C   0  0  0  0  0  0  0  0  0  0  0  0
  172.7981  149.2706  122.9671 C   0  0  0  0  0  0  0  0  0  0  0  0
  172.7861  148.9729  121.6232 C   0  0  0  0  0  0  0  0  0  0  0  0
  173.9508  148.9384  120.8548 C   0  0  0  0  0  0  0  0  0  0  0  0
  175.1748  149.2060  121.4261 C   0  0  0  0  0  0  0  0  0  0  0  0
  175.1725  149.5010  122.7651 C   0  0  0  0  0  0  0  0  0  0  0  0
  174.0260  149.5361  123.5262 C   0  0  0  0  0  0  0  0  0  0  0  0
  176.4121  149.1788  120.6407 C   0  0  0  0  0  0  0  0  0  0  0  0
  177.6331  149.4984  121.1659 O   0  0  0  0  0  0  0  0  0  0  0  0
  176.3230  148.8441  119.4350 O   0  0  0  0  0  0  0  0  0  0  0  0
  171.4371  148.3905  124.9422 C   0  0  0  0  0  0  0  0  0  0  0  0
  171.5350  146.9372  124.6248 C   0  0  0  0  0  0  0  0  0  0  0  0
  172.5821  148.7723  125.8583 C   0  0  0  0  0  0  0  0  0  0  0  0
  170.1801  148.7287  125.7129 C   0  0  2  0  0  0  0  0  0  0  0  0
  170.0045  147.8225  126.8830 C   0  0  0  0  0  0  0  0  0  0  0  0
  168.8740  148.2772  127.7886 C   0  0  0  0  0  0  0  0  0  0  0  0
  167.6085  148.4906  126.9890 C   0  0  1  0  0  0  0  0  0  0  0  0
  167.0917  147.1125  126.6286 C   0  0  0  0  0  0  0  0  0  0  0  0
  164.1506  149.4191  127.9751 C   0  0  1  0  0  0  0  0  0  0  0  0
  163.8306  147.5241  129.4586 N   0  0  0  0  0  0  0  0  0  0  0  0
  162.8503  147.1364  130.3960 C   0  0  0  0  0  0  0  0  0  0  0  0
  163.4789  147.1574  131.7953 C   0  0  0  0  0  0  0  0  0  0  0  0
  163.6879  145.8322  132.2632 N   0  0  0  0  0  0  0  0  0  0  0  0
  163.6935  145.6318  133.6676 C   0  0  0  0  0  0  0  0  0  0  0  0
  163.0555  144.3224  134.0092 C   0  0  0  0  0  0  0  0  0  0  0  0
  163.1150  143.2140  132.6551 S   0  0  0  0  0  6  0  0  0  0  0  0
  163.4327  141.8161  133.1529 O   0  0  0  0  0  0  0  0  0  0  0  0
  161.7324  143.1447  132.0421 O   0  0  0  0  0  0  0  0  0  0  0  0
  164.2469  143.6895  131.3875 C   0  0  0  0  0  0  0  0  0  0  0  0
  164.7445  145.1004  131.6313 C   0  0  0  0  0  0  0  0  0  0  0  0
  1  2  1  0
  2  3  2  0
  4  2  1  6
  4  5  1  0
  5  6  1  0
  6  7  1  0
  7  8  1  0
  8  9  1  0
  9 10  1  0
 10 11  1  1
 10 12  1  0
 12 13  1  6
 13 14  1  0
 15 14  1  6
 15 16  1  0
 16 17  1  6
 16 18  1  0
 18 19  1  0
 19 20  2  0
 20 21  1  0
 21 22  2  0
 22 23  1  0
 23 24  2  0
 24 25  1  0
 25 26  2  0
 24 27  1  0
 27 28  1  0
 27 29  2  0
 20 30  1  0
 30 31  1  0
 30 32  1  0
 30 33  1  0
 33 34  1  1
 34 35  1  0
 35 36  1  0
 36 37  1  6
 12 38  1  0
  7 39  1  6
 39 40  1  0
 40 41  1  0
 41 42  1  0
 42 43  1  0
 43 44  1  0
 44 45  1  0
 45 46  2  0
 45 47  2  0
 45 48  1  0
 48 49  1  0
 38  4  1  6
 49 42  1  0
 38  7  1  0
 36 10  1  0
 36 15  1  0
 33 16  1  0
 26 21  1  0
M  END
$$$$
