
     RDKit          3D

 49 55  0  0  0  0  0  0  0  0999 V2000
  187.0316  159.1339  133.6907 C   0  0  0  0  0  0  0  0  0  0  0  0
  187.6108  160.3886  133.1383 C   0  0  0  0  0  0  0  0  0  0  0  0
  187.0471  160.8601  132.0465 C   0  0  0  0  0  0  0  0  0  0  0  0
  188.6535  161.0884  133.8238 C   0  0  2  0  0  0  0  0  0  0  0  0
  190.0853  160.5985  133.5157 C   0  0  0  0  0  0  0  0  0  0  0  0
  190.9411  161.3043  134.5780 C   0  0  0  0  0  0  0  0  0  0  0  0
  189.9424  162.2020  135.2940 C   0  0  2  0  0  0  0  0  0  0  0  0
  190.3886  162.6231  136.6380 C   0  0  0  0  0  0  0  0  0  0  0  0
  189.1652  163.2005  137.3392 C   0  0  0  0  0  0  0  0  0  0  0  0
  188.1141  162.1234  137.4907 C   0  0  2  0  0  0  0  0  0  0  0  0
  188.7679  161.0636  138.3080 C   0  0  0  0  0  0  0  0  0  0  0  0
  187.6553  161.5512  136.1446 C   0  0  2  0  0  0  0  0  0  0  0  0
  186.8230  160.3217  136.5355 C   0  0  0  0  0  0  0  0  0  0  0  0
  185.6471  160.7062  137.3791 C   0  0  0  0  0  0  0  0  0  0  0  0
  185.9721  161.6130  138.5072 C   0  0  2  0  0  0  0  0  0  0  0  0
  184.7750  162.0177  139.3312 C   0  0  1  0  0  0  0  0  0  0  0  0
  183.5829  162.4661  138.5910 C   0  0  0  0  0  0  0  0  0  0  0  0
  184.3450  160.6903  139.9995 C   0  0  0  0  0  0  0  0  0  0  0  0
  183.4032  160.9595  141.1235 C   0  0  0  0  0  0  0  0  0  0  0  0
  183.2998  162.0879  141.7780 C   0  0  0  0  0  0  0  0  0  0  0  0
  182.3183  162.2031  142.8687 C   0  0  0  0  0  0  0  0  0  0  0  0
  181.0151  162.5633  142.6105 C   0  0  0  0  0  0  0  0  0  0  0  0
  180.0618  162.6959  143.6213 C   0  0  0  0  0  0  0  0  0  0  0  0
  180.3993  162.4666  144.9365 C   0  0  0  0  0  0  0  0  0  0  0  0
  181.7002  162.1084  145.1798 C   0  0  0  0  0  0  0  0  0  0  0  0
  182.6432  161.9766  144.1856 C   0  0  0  0  0  0  0  0  0  0  0  0
  179.4165  162.5964  146.0161 C   0  0  0  0  0  0  0  0  0  0  0  0
  179.7022  162.3043  147.3207 O   0  0  0  0  0  0  0  0  0  0  0  0
  178.2682  162.9955  145.7063 O   0  0  0  0  0  0  0  0  0  0  0  0
  184.1665  163.2629  141.4585 C   0  0  0  0  0  0  0  0  0  0  0  0
  183.4129  164.4680  141.0085 C   0  0  0  0  0  0  0  0  0  0  0  0
  184.9067  163.5948  142.7382 C   0  0  0  0  0  0  0  0  0  0  0  0
  185.2381  162.8522  140.4729 C   0  0  2  0  0  0  0  0  0  0  0  0
  186.0909  164.0125  140.0888 C   0  0  0  0  0  0  0  0  0  0  0  0
  187.2983  163.5845  139.2738 C   0  0  0  0  0  0  0  0  0  0  0  0
  186.8702  162.7298  138.1023 C   0  0  1  0  0  0  0  0  0  0  0  0
  186.2221  163.6664  137.1027 C   0  0  0  0  0  0  0  0  0  0  0  0
  188.7605  161.2031  135.2939 C   0  0  1  0  0  0  0  0  0  0  0  0
  189.6364  163.3053  134.4523 N   0  0  0  0  0  0  0  0  0  0  0  0
  189.7387  163.1202  133.0576 C   0  0  0  0  0  0  0  0  0  0  0  0
  191.2025  163.3226  132.6454 C   0  0  0  0  0  0  0  0  0  0  0  0
  191.3221  163.3205  131.2296 N   0  0  0  0  0  0  0  0  0  0  0  0
  191.1864  164.5658  130.5637 C   0  0  0  0  0  0  0  0  0  0  0  0
  192.1217  164.6377  129.3983 C   0  0  0  0  0  0  0  0  0  0  0  0
  192.5648  163.0386  128.8394 S   0  0  0  0  0  6  0  0  0  0  0  0
  192.5982  163.0189  127.3223 O   0  0  0  0  0  0  0  0  0  0  0  0
  193.9781  162.7531  129.3010 O   0  0  0  0  0  0  0  0  0  0  0  0
  191.5244  161.7508  129.4503 C   0  0  0  0  0  0  0  0  0  0  0  0
  190.6146  162.2841  130.5392 C   0  0  0  0  0  0  0  0  0  0  0  0
  1  2  1  0
  2  3  2  0
  4  2  1  1
  4  5  1  0
  5  6  1  0
  6  7  1  0
  7  8  1  0
  8  9  1  0
  9 10  1  0
 10 11  1  1
 10 12  1  0
 12 13  1  1
 13 14  1  0
 15 14  1  6
 15 16  1  0
 16 17  1  6
 16 18  1  0
 18 19  1  0
 19 20  2  0
 20 21  1  0
 21 22  2  0
 22 23  1  0
 23 24  2  0
 24 25  1  0
 25 26  2  0
 24 27  1  0
 27 28  1  0
 27 29  2  0
 20 30  1  0
 30 31  1  0
 30 32  1  0
 30 33  1  0
 33 34  1  6
 34 35  1  0
 35 36  1  0
 36 37  1  6
 12 38  1  0
  7 39  1  6
 39 40  1  0
 40 41  1  0
 41 42  1  0
 42 43  1  0
 43 44  1  0
 44 45  1  0
 45 46  2  0
 45 47  2  0
 45 48  1  0
 48 49  1  0
 38  4  1  6
 49 42  1  0
 38  7  1  0
 36 10  1  0
 36 15  1  0
 33 16  1  0
 26 21  1  0
M  END
$$$$
