
     RDKit          3D

 49 55  0  0  0  0  0  0  0  0999 V2000
  192.6201  184.7088  132.8821 C   0  0  0  0  0  0  0  0  0  0  0  0
  192.1952  184.4904  131.4726 C   0  0  0  0  0  0  0  0  0  0  0  0
  193.0014  184.9546  130.5417 C   0  0  0  0  0  0  0  0  0  0  0  0
  191.0268  183.7261  131.1604 C   0  0  2  0  0  0  0  0  0  0  0  0
  189.6924  184.3461  131.6292 C   0  0  0  0  0  0  0  0  0  0  0  0
  188.6801  183.2081  131.4310 C   0  0  0  0  0  0  0  0  0  0  0  0
  189.5058  182.1150  130.7682 C   0  0  2  0  0  0  0  0  0  0  0  0
  188.9126  180.7684  130.9002 C   0  0  0  0  0  0  0  0  0  0  0  0
  190.0008  179.7757  130.5101 C   0  0  0  0  0  0  0  0  0  0  0  0
  191.1610  179.8930  131.4734 C   0  0  2  0  0  0  0  0  0  0  0  0
  190.5819  179.5782  132.8092 C   0  0  0  0  0  0  0  0  0  0  0  0
  191.7852  181.2931  131.4800 C   0  0  2  0  0  0  0  0  0  0  0  0
  192.7295  181.2659  132.6902 C   0  0  0  0  0  0  0  0  0  0  0  0
  193.7836  180.2138  132.5346 C   0  0  0  0  0  0  0  0  0  0  0  0
  193.2673  178.8841  132.1272 C   0  0  2  0  0  0  0  0  0  0  0  0
  194.3413  177.8407  131.9440 C   0  0  1  0  0  0  0  0  0  0  0  0
  195.5219  178.2370  131.1571 C   0  0  0  0  0  0  0  0  0  0  0  0
  194.8787  177.6354  133.3802 C   0  0  0  0  0  0  0  0  0  0  0  0
  195.6941  176.3894  133.4531 C   0  0  0  0  0  0  0  0  0  0  0  0
  195.6102  175.3740  132.6319 C   0  0  0  0  0  0  0  0  0  0  0  0
  196.4862  174.2084  132.8325 C   0  0  0  0  0  0  0  0  0  0  0  0
  197.3376  173.7856  131.8369 C   0  0  0  0  0  0  0  0  0  0  0  0
  198.1714  172.6764  131.9872 C   0  0  0  0  0  0  0  0  0  0  0  0
  198.1705  171.9536  133.1593 C   0  0  0  0  0  0  0  0  0  0  0  0
  197.3182  172.3853  134.1426 C   0  0  0  0  0  0  0  0  0  0  0  0
  196.4944  173.4787  133.9981 C   0  0  0  0  0  0  0  0  0  0  0  0
  199.0382  170.7867  133.3434 C   0  0  0  0  0  0  0  0  0  0  0  0
  199.0081  170.0076  134.4663 O   0  0  0  0  0  0  0  0  0  0  0  0
  199.8362  170.5089  132.4161 O   0  0  0  0  0  0  0  0  0  0  0  0
  194.6333  175.3579  131.5010 C   0  0  0  0  0  0  0  0  0  0  0  0
  195.2659  175.2690  130.1541 C   0  0  0  0  0  0  0  0  0  0  0  0
  193.7647  174.1355  131.7183 C   0  0  0  0  0  0  0  0  0  0  0  0
  193.6962  176.5393  131.6207 C   0  0  2  0  0  0  0  0  0  0  0  0
  192.7395  176.5868  130.4789 C   0  0  0  0  0  0  0  0  0  0  0  0
  191.6574  177.6311  130.6879 C   0  0  0  0  0  0  0  0  0  0  0  0
  192.2727  178.9712  131.0223 C   0  0  1  0  0  0  0  0  0  0  0  0
  192.8747  179.4994  129.7359 C   0  0  0  0  0  0  0  0  0  0  0  0
  190.7972  182.3311  131.5930 C   0  0  1  0  0  0  0  0  0  0  0  0
  189.7372  182.4767  129.4136 N   0  0  0  0  0  0  0  0  0  0  0  0
  188.7988  182.0556  128.4481 C   0  0  0  0  0  0  0  0  0  0  0  0
  187.4367  182.6726  128.7910 C   0  0  0  0  0  0  0  0  0  0  0  0
  186.9074  183.3588  127.6650 N   0  0  0  0  0  0  0  0  0  0  0  0
  186.1934  182.5891  126.7110 C   0  0  0  0  0  0  0  0  0  0  0  0
  185.0421  183.3734  126.1655 C   0  0  0  0  0  0  0  0  0  0  0  0
  185.3080  185.0955  126.3372 S   0  0  0  0  0  6  0  0  0  0  0  0
  184.8265  185.8134  125.0900 O   0  0  0  0  0  0  0  0  0  0  0  0
  184.4449  185.5941  127.4767 O   0  0  0  0  0  0  0  0  0  0  0  0
  186.9806  185.5314  126.6930 C   0  0  0  0  0  0  0  0  0  0  0  0
  187.7863  184.2913  127.0252 C   0  0  0  0  0  0  0  0  0  0  0  0
  1  2  1  0
  2  3  2  0
  4  2  1  1
  4  5  1  0
  5  6  1  0
  6  7  1  0
  7  8  1  0
  8  9  1  0
  9 10  1  0
 10 11  1  1
 10 12  1  0
 12 13  1  1
 13 14  1  0
 15 14  1  6
 15 16  1  0
 16 17  1  6
 16 18  1  0
 18 19  1  0
 19 20  2  0
 20 21  1  0
 21 22  2  0
 22 23  1  0
 23 24  2  0
 24 25  1  0
 25 26  2  0
 24 27  1  0
 27 28  1  0
 27 29  2  0
 20 30  1  0
 30 31  1  0
 30 32  1  0
 30 33  1  0
 33 34  1  6
 34 35  1  0
 35 36  1  0
 36 37  1  6
 12 38  1  0
  7 39  1  6
 39 40  1  0
 40 41  1  0
 41 42  1  0
 42 43  1  0
 43 44  1  0
 44 45  1  0
 45 46  2  0
 45 47  2  0
 45 48  1  0
 48 49  1  0
 38  4  1  6
 49 42  1  0
 38  7  1  0
 36 10  1  0
 36 15  1  0
 33 16  1  0
 26 21  1  0
M  END
$$$$
