
     RDKit          3D

 49 55  0  0  0  0  0  0  0  0999 V2000
  190.8094  157.9492  120.4295 C   0  0  0  0  0  0  0  0  0  0  0  0
  190.1193  157.2550  121.5506 C   0  0  0  0  0  0  0  0  0  0  0  0
  189.4632  156.1569  121.2411 C   0  0  0  0  0  0  0  0  0  0  0  0
  190.2565  157.7090  122.9004 C   0  0  2  0  0  0  0  0  0  0  0  0
  190.0911  156.6171  123.9800 C   0  0  0  0  0  0  0  0  0  0  0  0
  189.9944  157.4181  125.2869 C   0  0  0  0  0  0  0  0  0  0  0  0
  190.2314  158.8528  124.8379 C   0  0  2  0  0  0  0  0  0  0  0  0
  189.7295  159.8592  125.7960 C   0  0  0  0  0  0  0  0  0  0  0  0
  189.7215  161.1926  125.0587 C   0  0  0  0  0  0  0  0  0  0  0  0
  188.7673  161.1171  123.8876 C   0  0  2  0  0  0  0  0  0  0  0  0
  187.4407  160.8157  124.4944 C   0  0  0  0  0  0  0  0  0  0  0  0
  189.1522  160.0278  122.8803 C   0  0  2  0  0  0  0  0  0  0  0  0
  187.9333  159.9433  121.9506 C   0  0  0  0  0  0  0  0  0  0  0  0
  187.6867  161.2471  121.2565 C   0  0  0  0  0  0  0  0  0  0  0  0
  187.6967  162.4298  122.1519 C   0  0  2  0  0  0  0  0  0  0  0  0
  187.4777  163.7401  121.4370 C   0  0  1  0  0  0  0  0  0  0  0  0
  188.2690  163.9681  120.2156 C   0  0  0  0  0  0  0  0  0  0  0  0
  186.0161  163.6288  120.9419 C   0  0  0  0  0  0  0  0  0  0  0  0
  185.5086  164.9676  120.5262 C   0  0  0  0  0  0  0  0  0  0  0  0
  185.9798  166.1203  120.9282 C   0  0  0  0  0  0  0  0  0  0  0  0
  185.3720  167.3636  120.4273 C   0  0  0  0  0  0  0  0  0  0  0  0
  184.7036  168.2151  121.2776 C   0  0  0  0  0  0  0  0  0  0  0  0
  184.1032  169.3947  120.8349 C   0  0  0  0  0  0  0  0  0  0  0  0
  184.1603  169.7536  119.5066 C   0  0  0  0  0  0  0  0  0  0  0  0
  184.8290  168.8970  118.6706 C   0  0  0  0  0  0  0  0  0  0  0  0
  185.4223  167.7327  119.1035 C   0  0  0  0  0  0  0  0  0  0  0  0
  183.5405  170.9881  119.0167 C   0  0  0  0  0  0  0  0  0  0  0  0
  182.6983  171.7500  119.7777 O   0  0  0  0  0  0  0  0  0  0  0  0
  183.8091  171.3427  117.8436 O   0  0  0  0  0  0  0  0  0  0  0  0
  187.1123  166.2096  121.8994 C   0  0  0  0  0  0  0  0  0  0  0  0
  188.3213  166.8952  121.3602 C   0  0  0  0  0  0  0  0  0  0  0  0
  186.5859  166.9976  123.0817 C   0  0  0  0  0  0  0  0  0  0  0  0
  187.4252  164.8338  122.4448 C   0  0  2  0  0  0  0  0  0  0  0  0
  188.5863  164.8747  123.3783 C   0  0  0  0  0  0  0  0  0  0  0  0
  188.7816  163.5532  124.0998 C   0  0  0  0  0  0  0  0  0  0  0  0
  188.8375  162.4125  123.1090 C   0  0  1  0  0  0  0  0  0  0  0  0
  190.1816  162.5119  122.4162 C   0  0  0  0  0  0  0  0  0  0  0  0
  189.4305  158.7691  123.5165 C   0  0  1  0  0  0  0  0  0  0  0  0
  191.6132  159.0178  124.5502 N   0  0  0  0  0  0  0  0  0  0  0  0
  192.1072  158.4712  123.3472 C   0  0  0  0  0  0  0  0  0  0  0  0
  191.9050  159.4987  122.2260 C   0  0  0  0  0  0  0  0  0  0  0  0
  193.1274  160.1635  121.9386 N   0  0  0  0  0  0  0  0  0  0  0  0
  193.1202  161.1093  120.8812 C   0  0  0  0  0  0  0  0  0  0  0  0
  194.0100  162.2659  121.2111 C   0  0  0  0  0  0  0  0  0  0  0  0
  195.2246  161.8173  122.3899 S   0  0  0  0  0  6  0  0  0  0  0  0
  196.5519  162.4550  122.0235 O   0  0  0  0  0  0  0  0  0  0  0  0
  194.8234  162.4047  123.7263 O   0  0  0  0  0  0  0  0  0  0  0  0
  195.4138  160.0752  122.5982 C   0  0  0  0  0  0  0  0  0  0  0  0
  194.2965  159.3378  121.8871 C   0  0  0  0  0  0  0  0  0  0  0  0
  1  2  1  0
  2  3  2  0
  4  2  1  6
  4  5  1  0
  5  6  1  0
  6  7  1  0
  7  8  1  0
  8  9  1  0
  9 10  1  0
 10 11  1  1
 10 12  1  0
 12 13  1  6
 13 14  1  0
 15 14  1  6
 15 16  1  0
 16 17  1  6
 16 18  1  0
 18 19  1  0
 19 20  2  0
 20 21  1  0
 21 22  2  0
 22 23  1  0
 23 24  2  0
 24 25  1  0
 25 26  2  0
 24 27  1  0
 27 28  1  0
 27 29  2  0
 20 30  1  0
 30 31  1  0
 30 32  1  0
 30 33  1  0
 33 34  1  6
 34 35  1  0
 35 36  1  0
 36 37  1  6
 12 38  1  0
  7 39  1  6
 39 40  1  0
 40 41  1  0
 41 42  1  0
 42 43  1  0
 43 44  1  0
 44 45  1  0
 45 46  2  0
 45 47  2  0
 45 48  1  0
 48 49  1  0
 38  4  1  6
 49 42  1  0
 38  7  1  0
 36 10  1  0
 36 15  1  0
 33 16  1  0
 26 21  1  0
M  END
$$$$
