
     RDKit          3D

 55 63  0  0  0  0  0  0  0  0999 V2000
  170.3321  146.5754  129.6254 C   0  0  2  0  0  0  0  0  0  0  0  0
  170.3967  146.0680  128.2964 N   0  0  0  0  0  0  0  0  0  0  0  0
  171.3759  146.8365  127.5472 C   0  0  0  0  0  0  0  0  0  0  0  0
  171.7355  148.0209  128.3769 C   0  0  0  0  0  0  0  0  0  0  0  0
  170.7089  147.9971  129.4805 C   0  0  1  0  0  0  0  0  0  0  0  0
  169.5287  148.7731  128.9400 C   0  0  0  0  0  0  0  0  0  0  0  0
  168.6975  148.5569  127.8608 C   0  0  0  0  0  0  0  0  0  0  0  0
  167.6639  149.3958  127.5201 C   0  0  0  0  0  0  0  0  0  0  0  0
  167.4967  150.5062  128.3476 C   0  0  0  0  0  0  0  0  0  0  0  0
  166.4911  151.4298  128.1131 O   0  0  0  0  0  0  0  0  0  0  0  0
  166.3645  152.6378  128.8121 C   0  0  0  0  0  0  0  0  0  0  0  0
  168.3115  150.7468  129.4324 C   0  0  0  0  0  0  0  0  0  0  0  0
  169.3373  149.8786  129.7375 C   0  0  0  0  0  0  0  0  0  0  0  0
  170.2831  149.9133  130.7843 N   0  0  0  0  0  0  0  0  0  0  0  0
  170.3946  150.9422  131.7815 C   0  0  0  0  0  0  0  0  0  0  0  0
  171.1239  148.7433  130.6893 C   0  0  1  0  0  0  0  0  0  0  0  0
  171.1609  147.9927  131.9757 C   0  0  2  0  0  0  0  0  0  0  0  0
  172.2617  148.5718  132.6847 O   0  0  0  0  0  0  0  0  0  0  0  0
  171.5112  146.5562  131.8659 C   0  0  2  0  0  0  0  0  0  0  0  0
  172.9217  146.3961  131.9281 O   0  0  0  0  0  0  0  0  0  0  0  0
  170.9608  145.7934  130.7022 C   0  0  1  0  0  0  0  0  0  0  0  0
  169.9329  144.7994  131.2932 C   0  0  0  0  0  0  0  0  0  0  0  0
  170.6295  143.9905  132.3921 C   0  0  0  0  0  0  0  0  0  0  0  0
  172.0503  144.9188  130.2049 C   0  0  0  0  0  0  0  0  0  0  0  0
  171.9713  144.3807  129.0103 C   0  0  0  0  0  0  0  0  0  0  0  0
  170.7715  144.6743  128.1833 C   0  0  0  0  0  0  0  0  0  0  0  0
  169.9838  148.2758  132.8557 C   0  0  0  0  0  0  0  0  0  0  0  0
  170.0818  148.4444  134.2641 N   0  0  0  0  0  0  0  0  0  0  0  0
  168.8008  148.3822  132.3695 O   0  0  0  0  0  0  0  0  0  0  0  0
  166.7484  149.1695  126.3592 C   0  0  1  0  0  0  0  0  0  0  0  0
  165.4496  148.7902  126.8470 C   0  0  0  0  0  0  0  0  0  0  0  0
  164.3257  148.5391  125.9713 C   0  0  1  0  0  0  0  0  0  0  0  0
  164.5644  148.5967  124.4986 C   0  0  0  0  0  0  0  0  0  0  0  0
  163.5034  149.4511  124.0399 N   0  0  0  0  0  0  0  0  0  0  0  0
  162.2950  148.8520  124.5937 C   0  0  0  0  0  0  0  0  0  0  0  0
  162.3833  147.4710  125.1327 C   0  0  2  0  0  0  0  0  0  0  0  0
  162.3955  146.4808  124.1230 O   0  0  0  0  0  0  0  0  0  0  0  0
  161.0721  147.2046  125.8479 C   0  0  0  0  0  0  0  0  0  0  0  0
  159.8748  147.2756  124.9821 C   0  0  0  0  0  0  0  0  0  0  0  0
  163.5319  147.2348  126.1343 C   0  0  0  0  0  0  0  0  0  0  0  0
  163.5825  150.8013  124.4094 C   0  0  0  0  0  0  0  0  0  0  0  0
  164.5367  151.3665  125.3481 C   0  0  0  0  0  0  0  0  0  0  0  0
  165.9801  151.2685  125.0738 C   0  0  0  0  0  0  0  0  0  0  0  0
  166.8842  150.3647  125.5112 C   0  0  0  0  0  0  0  0  0  0  0  0
  168.0806  150.7156  124.9891 N   0  0  0  0  0  0  0  0  0  0  0  0
  168.0093  151.8034  124.2287 C   0  0  0  0  0  0  0  0  0  0  0  0
  166.6928  152.1736  124.2647 C   0  0  0  0  0  0  0  0  0  0  0  0
  166.3436  153.3020  123.5363 C   0  0  0  0  0  0  0  0  0  0  0  0
  167.2546  154.0280  122.8078 C   0  0  0  0  0  0  0  0  0  0  0  0
  168.5678  153.6304  122.7922 C   0  0  0  0  0  0  0  0  0  0  0  0
  168.9440  152.5186  123.5026 C   0  0  0  0  0  0  0  0  0  0  0  0
  167.3327  147.9547  125.6575 C   0  0  0  0  0  0  0  0  0  0  0  0
  168.0530  148.0602  124.6614 O   0  0  0  0  0  0  0  0  0  0  0  0
  167.0785  146.6677  126.1153 O   0  0  0  0  0  0  0  0  0  0  0  0
  168.1078  145.6835  126.1838 C   0  0  0  0  0  0  0  0  0  0  0  0
  1  2  1  6
  2  3  1  0
  3  4  1  0
  5  4  1  6
  5  6  1  0
  6  7  2  0
  7  8  1  0
  8  9  2  0
  9 10  1  0
 10 11  1  0
  9 12  1  0
 12 13  2  0
 13 14  1  0
 14 15  1  0
 16 14  1  1
 16 17  1  0
 17 18  1  1
 17 19  1  0
 19 20  1  6
 19 21  1  0
 21 22  1  1
 22 23  1  0
 21 24  1  0
 24 25  2  0
 25 26  1  0
 17 27  1  0
 27 28  1  0
 27 29  2  0
  8 30  1  0
 30 31  1  0
 32 31  1  1
 32 33  1  0
 33 34  1  0
 34 35  1  0
 35 36  1  0
 36 37  1  6
 36 38  1  0
 38 39  1  0
 36 40  1  0
 34 41  1  0
 41 42  1  0
 42 43  1  0
 43 44  2  0
 44 45  1  0
 45 46  1  0
 46 47  2  0
 47 48  1  0
 48 49  2  0
 49 50  1  0
 50 51  2  0
 30 52  1  6
 52 53  2  0
 52 54  1  0
 54 55  1  0
  5  1  1  0
 16  5  1  0
 44 30  1  0
 51 46  1  0
 21  1  1  0
 40 32  1  0
 47 43  1  0
 26  2  1  0
 13  6  1  0
M  END
$$$$
