
     RDKit          3D

 55 63  0  0  0  0  0  0  0  0999 V2000
  191.5264  160.2082  115.8562 C   0  0  2  0  0  0  0  0  0  0  0  0
  190.8990  161.4729  116.0431 N   0  0  0  0  0  0  0  0  0  0  0  0
  191.8686  162.4006  116.5999 C   0  0  0  0  0  0  0  0  0  0  0  0
  193.0595  161.6026  117.0064 C   0  0  0  0  0  0  0  0  0  0  0  0
  192.5790  160.1782  116.8932 C   0  0  1  0  0  0  0  0  0  0  0  0
  191.9505  159.8649  118.2327 C   0  0  0  0  0  0  0  0  0  0  0  0
  190.8712  160.4098  118.8964 C   0  0  0  0  0  0  0  0  0  0  0  0
  190.4500  159.9866  120.1339 C   0  0  0  0  0  0  0  0  0  0  0  0
  191.1925  158.9482  120.6962 C   0  0  0  0  0  0  0  0  0  0  0  0
  190.8719  158.4299  121.9402 O   0  0  0  0  0  0  0  0  0  0  0  0
  191.7996  157.8103  122.7884 C   0  0  0  0  0  0  0  0  0  0  0  0
  192.2746  158.3848  120.0558 C   0  0  0  0  0  0  0  0  0  0  0  0
  192.6629  158.8409  118.8146 C   0  0  0  0  0  0  0  0  0  0  0  0
  193.7183  158.4227  117.9763 N   0  0  0  0  0  0  0  0  0  0  0  0
  194.6791  157.3989  118.2831 C   0  0  0  0  0  0  0  0  0  0  0  0
  193.6758  159.1940  116.7565 C   0  0  1  0  0  0  0  0  0  0  0  0
  193.6567  158.3134  115.5549 C   0  0  2  0  0  0  0  0  0  0  0  0
  195.0406  158.1253  115.2396 O   0  0  0  0  0  0  0  0  0  0  0  0
  193.0811  158.9185  114.3299 C   0  0  2  0  0  0  0  0  0  0  0  0
  194.0953  159.5998  113.6045 O   0  0  0  0  0  0  0  0  0  0  0  0
  191.8839  159.8021  114.4874 C   0  0  1  0  0  0  0  0  0  0  0  0
  190.7027  159.0362  113.8454 C   0  0  0  0  0  0  0  0  0  0  0  0
  191.2479  158.2166  112.6715 C   0  0  0  0  0  0  0  0  0  0  0  0
  192.0822  160.9629  113.5859 C   0  0  0  0  0  0  0  0  0  0  0  0
  191.3662  162.0515  113.7447 C   0  0  0  0  0  0  0  0  0  0  0  0
  190.3655  162.0826  114.8435 C   0  0  0  0  0  0  0  0  0  0  0  0
  193.1684  156.9293  115.8481 C   0  0  0  0  0  0  0  0  0  0  0  0
  193.9555  155.7624  115.6470 N   0  0  0  0  0  0  0  0  0  0  0  0
  191.9870  156.7243  116.3058 O   0  0  0  0  0  0  0  0  0  0  0  0
  189.2759  160.5607  120.8614 C   0  0  1  0  0  0  0  0  0  0  0  0
  189.2914  160.1000  122.2238 C   0  0  0  0  0  0  0  0  0  0  0  0
  188.3071  160.5104  123.2016 C   0  0  1  0  0  0  0  0  0  0  0  0
  187.1862  161.3806  122.7376 C   0  0  0  0  0  0  0  0  0  0  0  0
  187.1895  162.4428  123.7061 N   0  0  0  0  0  0  0  0  0  0  0  0
  187.1404  161.7567  124.9917 C   0  0  0  0  0  0  0  0  0  0  0  0
  186.7782  160.3166  125.0020 C   0  0  2  0  0  0  0  0  0  0  0  0
  185.3908  160.0919  124.8444 O   0  0  0  0  0  0  0  0  0  0  0  0
  187.0407  159.8179  126.4108 C   0  0  0  0  0  0  0  0  0  0  0  0
  186.4888  160.6785  127.4797 C   0  0  0  0  0  0  0  0  0  0  0  0
  187.5823  159.4355  124.0245 C   0  0  0  0  0  0  0  0  0  0  0  0
  188.2834  163.3190  123.6710 C   0  0  0  0  0  0  0  0  0  0  0  0
  189.4812  163.1442  122.8674 C   0  0  0  0  0  0  0  0  0  0  0  0
  189.3762  163.0803  121.4001 C   0  0  0  0  0  0  0  0  0  0  0  0
  189.3082  162.0057  120.5839 C   0  0  0  0  0  0  0  0  0  0  0  0
  189.2364  162.4731  119.3176 N   0  0  0  0  0  0  0  0  0  0  0  0
  189.2517  163.8009  119.2592 C   0  0  0  0  0  0  0  0  0  0  0  0
  189.3394  164.2104  120.5616 C   0  0  0  0  0  0  0  0  0  0  0  0
  189.3708  165.5802  120.7824 C   0  0  0  0  0  0  0  0  0  0  0  0
  189.3180  166.4991  119.7623 C   0  0  0  0  0  0  0  0  0  0  0  0
  189.2304  166.0559  118.4666 C   0  0  0  0  0  0  0  0  0  0  0  0
  189.1974  164.7072  118.2163 C   0  0  0  0  0  0  0  0  0  0  0  0
  188.0733  159.9201  120.1884 C   0  0  0  0  0  0  0  0  0  0  0  0
  187.1113  159.4981  120.8356 O   0  0  0  0  0  0  0  0  0  0  0  0
  188.0084  159.7859  118.8071 O   0  0  0  0  0  0  0  0  0  0  0  0
  187.4693  158.6159  118.1959 C   0  0  0  0  0  0  0  0  0  0  0  0
  1  2  1  6
  2  3  1  0
  3  4  1  0
  5  4  1  1
  5  6  1  0
  6  7  2  0
  7  8  1  0
  8  9  2  0
  9 10  1  0
 10 11  1  0
  9 12  1  0
 12 13  2  0
 13 14  1  0
 14 15  1  0
 16 14  1  1
 16 17  1  0
 17 18  1  6
 17 19  1  0
 19 20  1  1
 19 21  1  0
 21 22  1  6
 22 23  1  0
 21 24  1  0
 24 25  2  0
 25 26  1  0
 17 27  1  0
 27 28  1  0
 27 29  2  0
  8 30  1  0
 30 31  1  0
 32 31  1  6
 32 33  1  0
 33 34  1  0
 34 35  1  0
 35 36  1  0
 36 37  1  6
 36 38  1  0
 38 39  1  0
 36 40  1  0
 34 41  1  0
 41 42  1  0
 42 43  1  0
 43 44  2  0
 44 45  1  0
 45 46  1  0
 46 47  2  0
 47 48  1  0
 48 49  2  0
 49 50  1  0
 50 51  2  0
 30 52  1  6
 52 53  2  0
 52 54  1  0
 54 55  1  0
  5  1  1  0
 16  5  1  0
 44 30  1  0
 51 46  1  0
 21  1  1  0
 40 32  1  0
 47 43  1  0
 26  2  1  0
 13  6  1  0
M  END
$$$$
