
     RDKit          3D

 55 63  0  0  0  0  0  0  0  0999 V2000
  151.5053  176.6446  138.5781 C   0  0  2  0  0  0  0  0  0  0  0  0
  150.8274  177.2222  137.4669 N   0  0  0  0  0  0  0  0  0  0  0  0
  149.3978  177.0254  137.6347 C   0  0  0  0  0  0  0  0  0  0  0  0
  149.2137  176.0680  138.7616 C   0  0  0  0  0  0  0  0  0  0  0  0
  150.6082  175.5531  139.0120 C   0  0  1  0  0  0  0  0  0  0  0  0
  150.7688  174.3747  138.0778 C   0  0  0  0  0  0  0  0  0  0  0  0
  150.7409  174.2761  136.7024 C   0  0  0  0  0  0  0  0  0  0  0  0
  150.9027  173.0922  136.0240 C   0  0  0  0  0  0  0  0  0  0  0  0
  151.1027  171.9667  136.8233 C   0  0  0  0  0  0  0  0  0  0  0  0
  151.2790  170.7120  136.2632 O   0  0  0  0  0  0  0  0  0  0  0  0
  150.5655  169.5737  136.6620 C   0  0  0  0  0  0  0  0  0  0  0  0
  151.1358  172.0358  138.1991 C   0  0  0  0  0  0  0  0  0  0  0  0
  150.9684  173.2451  138.8387 C   0  0  0  0  0  0  0  0  0  0  0  0
  150.9687  173.5590  140.2145 N   0  0  0  0  0  0  0  0  0  0  0  0
  151.1178  172.6179  141.2905 C   0  0  0  0  0  0  0  0  0  0  0  0
  150.7935  174.9842  140.3656 C   0  0  1  0  0  0  0  0  0  0  0  0
  151.8638  175.5780  141.2150 C   0  0  2  0  0  0  0  0  0  0  0  0
  151.3369  175.4992  142.5439 O   0  0  0  0  0  0  0  0  0  0  0  0
  152.1149  177.0242  141.0060 C   0  0  2  0  0  0  0  0  0  0  0  0
  151.2605  177.7896  141.8444 O   0  0  0  0  0  0  0  0  0  0  0  0
  152.0560  177.5446  139.6042 C   0  0  1  0  0  0  0  0  0  0  0  0
  153.5072  177.9325  139.2334 C   0  0  0  0  0  0  0  0  0  0  0  0
  153.8001  179.3114  139.8332 C   0  0  0  0  0  0  0  0  0  0  0  0
  151.3462  178.8457  139.6562 C   0  0  0  0  0  0  0  0  0  0  0  0
  150.8616  179.3772  138.5582 C   0  0  0  0  0  0  0  0  0  0  0  0
  151.0434  178.6413  137.2795 C   0  0  0  0  0  0  0  0  0  0  0  0
  153.1014  174.7384  141.2738 C   0  0  0  0  0  0  0  0  0  0  0  0
  153.9207  174.6314  142.4309 N   0  0  0  0  0  0  0  0  0  0  0  0
  153.4923  174.0587  140.2577 O   0  0  0  0  0  0  0  0  0  0  0  0
  150.8848  172.9710  134.5333 C   0  0  1  0  0  0  0  0  0  0  0  0
  149.5715  172.5690  134.1064 C   0  0  0  0  0  0  0  0  0  0  0  0
  149.2163  172.4025  132.7138 C   0  0  1  0  0  0  0  0  0  0  0  0
  150.2941  172.5757  131.6952 C   0  0  0  0  0  0  0  0  0  0  0  0
  149.6934  173.4767  130.7500 N   0  0  0  0  0  0  0  0  0  0  0  0
  148.4208  172.8492  130.4145 C   0  0  0  0  0  0  0  0  0  0  0  0
  148.2198  171.4284  130.7968 C   0  0  2  0  0  0  0  0  0  0  0  0
  148.8788  170.5226  129.9334 O   0  0  0  0  0  0  0  0  0  0  0  0
  146.7547  171.1207  130.5506 C   0  0  0  0  0  0  0  0  0  0  0  0
  146.2525  171.5439  129.2253 C   0  0  0  0  0  0  0  0  0  0  0  0
  148.5376  171.0987  132.2694 C   0  0  0  0  0  0  0  0  0  0  0  0
  149.4798  174.7917  131.1869 C   0  0  0  0  0  0  0  0  0  0  0  0
  149.6494  175.2682  132.5490 C   0  0  0  0  0  0  0  0  0  0  0  0
  150.9675  175.1757  133.1987 C   0  0  0  0  0  0  0  0  0  0  0  0
  151.4582  174.2290  134.0285 C   0  0  0  0  0  0  0  0  0  0  0  0
  152.7119  174.6066  134.3642 N   0  0  0  0  0  0  0  0  0  0  0  0
  153.0719  175.7529  133.7958 C   0  0  0  0  0  0  0  0  0  0  0  0
  151.9879  176.1346  133.0535 C   0  0  0  0  0  0  0  0  0  0  0  0
  152.1058  177.3220  132.3451 C   0  0  0  0  0  0  0  0  0  0  0  0
  153.2424  178.0936  132.3710 C   0  0  0  0  0  0  0  0  0  0  0  0
  154.3124  177.6831  133.1256 C   0  0  0  0  0  0  0  0  0  0  0  0
  154.2262  176.5132  133.8373 C   0  0  0  0  0  0  0  0  0  0  0  0
  151.8217  171.8098  134.2444 C   0  0  0  0  0  0  0  0  0  0  0  0
  151.5497  170.9443  133.4082 O   0  0  0  0  0  0  0  0  0  0  0  0
  153.0318  171.6778  134.9141 O   0  0  0  0  0  0  0  0  0  0  0  0
  153.9767  170.6719  134.5559 C   0  0  0  0  0  0  0  0  0  0  0  0
  1  2  1  6
  2  3  1  0
  3  4  1  0
  5  4  1  1
  5  6  1  0
  6  7  2  0
  7  8  1  0
  8  9  2  0
  9 10  1  0
 10 11  1  0
  9 12  1  0
 12 13  2  0
 13 14  1  0
 14 15  1  0
 16 14  1  6
 16 17  1  0
 17 18  1  1
 17 19  1  0
 19 20  1  1
 19 21  1  0
 21 22  1  6
 22 23  1  0
 21 24  1  0
 24 25  2  0
 25 26  1  0
 17 27  1  0
 27 28  1  0
 27 29  2  0
  8 30  1  0
 30 31  1  0
 32 31  1  1
 32 33  1  0
 33 34  1  0
 34 35  1  0
 35 36  1  0
 36 37  1  6
 36 38  1  0
 38 39  1  0
 36 40  1  0
 34 41  1  0
 41 42  1  0
 42 43  1  0
 43 44  2  0
 44 45  1  0
 45 46  1  0
 46 47  2  0
 47 48  1  0
 48 49  2  0
 49 50  1  0
 50 51  2  0
 30 52  1  1
 52 53  2  0
 52 54  1  0
 54 55  1  0
  5  1  1  0
 16  5  1  0
 44 30  1  0
 51 46  1  0
 21  1  1  0
 40 32  1  0
 47 43  1  0
 26  2  1  0
 13  6  1  0
M  END
$$$$
