
     RDKit          3D

 55 63  0  0  0  0  0  0  0  0999 V2000
  189.9568  158.8702  125.9335 C   0  0  2  0  0  0  0  0  0  0  0  0
  189.6876  158.8756  127.3319 N   0  0  0  0  0  0  0  0  0  0  0  0
  190.9076  158.5412  128.0465 C   0  0  0  0  0  0  0  0  0  0  0  0
  191.8934  158.0634  127.0365 C   0  0  0  0  0  0  0  0  0  0  0  0
  191.0623  157.9000  125.7894 C   0  0  1  0  0  0  0  0  0  0  0  0
  190.5063  156.4956  125.8655 C   0  0  0  0  0  0  0  0  0  0  0  0
  189.6667  155.8827  126.7720 C   0  0  0  0  0  0  0  0  0  0  0  0
  189.2730  154.5700  126.6730 C   0  0  0  0  0  0  0  0  0  0  0  0
  189.7815  153.8736  125.5765 C   0  0  0  0  0  0  0  0  0  0  0  0
  189.4615  152.5430  125.3614 O   0  0  0  0  0  0  0  0  0  0  0  0
  190.3468  151.6089  124.8069 C   0  0  0  0  0  0  0  0  0  0  0  0
  190.6213  154.4605  124.6552 C   0  0  0  0  0  0  0  0  0  0  0  0
  190.9911  155.7809  124.7937 C   0  0  0  0  0  0  0  0  0  0  0  0
  191.8228  156.5865  123.9868 N   0  0  0  0  0  0  0  0  0  0  0  0
  192.5208  156.1552  122.8069 C   0  0  0  0  0  0  0  0  0  0  0  0
  191.8588  157.9188  124.5422 C   0  0  1  0  0  0  0  0  0  0  0  0
  191.5047  158.9447  123.5215 C   0  0  2  0  0  0  0  0  0  0  0  0
  192.7604  159.2934  122.9288 O   0  0  0  0  0  0  0  0  0  0  0  0
  190.9850  160.2253  124.0582 C   0  0  2  0  0  0  0  0  0  0  0  0
  192.0636  161.1105  124.3266 O   0  0  0  0  0  0  0  0  0  0  0  0
  190.0684  160.1632  125.2395 C   0  0  1  0  0  0  0  0  0  0  0  0
  188.6771  160.5989  124.7214 C   0  0  0  0  0  0  0  0  0  0  0  0
  188.6872  162.1213  124.5511 C   0  0  0  0  0  0  0  0  0  0  0  0
  190.4646  161.2633  126.1517 C   0  0  0  0  0  0  0  0  0  0  0  0
  190.0632  161.2610  127.4014 C   0  0  0  0  0  0  0  0  0  0  0  0
  189.2121  160.1343  127.8660 C   0  0  0  0  0  0  0  0  0  0  0  0
  190.7150  158.3884  122.3782 C   0  0  0  0  0  0  0  0  0  0  0  0
  190.2659  159.1738  121.2813 N   0  0  0  0  0  0  0  0  0  0  0  0
  190.3973  157.1458  122.3321 O   0  0  0  0  0  0  0  0  0  0  0  0
  188.3557  153.8944  127.6422 C   0  0  1  0  0  0  0  0  0  0  0  0
  189.0253  152.7575  128.2146 C   0  0  0  0  0  0  0  0  0  0  0  0
  188.4178  151.9147  129.2215 C   0  0  1  0  0  0  0  0  0  0  0  0
  187.0043  152.2005  129.6079 C   0  0  0  0  0  0  0  0  0  0  0  0
  187.0695  152.2316  131.0435 N   0  0  0  0  0  0  0  0  0  0  0  0
  187.7186  150.9759  131.4007 C   0  0  0  0  0  0  0  0  0  0  0  0
  187.8237  149.9224  130.3593 C   0  0  2  0  0  0  0  0  0  0  0  0
  186.6123  149.2222  130.1537 O   0  0  0  0  0  0  0  0  0  0  0  0
  188.7387  148.8513  130.9229 C   0  0  0  0  0  0  0  0  0  0  0  0
  188.2167  148.1690  132.1270 C   0  0  0  0  0  0  0  0  0  0  0  0
  188.4102  150.3933  129.0130 C   0  0  0  0  0  0  0  0  0  0  0  0
  187.7604  153.3090  131.6158 C   0  0  0  0  0  0  0  0  0  0  0  0
  188.5534  154.2863  130.8899 C   0  0  0  0  0  0  0  0  0  0  0  0
  187.9176  155.1288  129.8632 C   0  0  0  0  0  0  0  0  0  0  0  0
  187.8575  154.9626  128.5237 C   0  0  0  0  0  0  0  0  0  0  0  0
  187.1734  156.0156  128.0234 N   0  0  0  0  0  0  0  0  0  0  0  0
  186.7785  156.8653  128.9661 C   0  0  0  0  0  0  0  0  0  0  0  0
  187.2355  156.3290  130.1387 C   0  0  0  0  0  0  0  0  0  0  0  0
  186.9494  157.0347  131.2989 C   0  0  0  0  0  0  0  0  0  0  0  0
  186.2450  158.2143  131.2970 C   0  0  0  0  0  0  0  0  0  0  0  0
  185.8005  158.7261  130.1039 C   0  0  0  0  0  0  0  0  0  0  0  0
  186.0677  158.0512  128.9396 C   0  0  0  0  0  0  0  0  0  0  0  0
  187.2296  153.3575  126.7743 C   0  0  0  0  0  0  0  0  0  0  0  0
  186.8308  152.1937  126.8691 O   0  0  0  0  0  0  0  0  0  0  0  0
  186.5985  154.1631  125.8345 O   0  0  0  0  0  0  0  0  0  0  0  0
  186.5616  155.5817  125.9726 C   0  0  0  0  0  0  0  0  0  0  0  0
  1  2  1  1
  2  3  1  0
  3  4  1  0
  5  4  1  1
  5  6  1  0
  6  7  2  0
  7  8  1  0
  8  9  2  0
  9 10  1  0
 10 11  1  0
  9 12  1  0
 12 13  2  0
 13 14  1  0
 14 15  1  0
 16 14  1  6
 16 17  1  0
 17 18  1  6
 17 19  1  0
 19 20  1  1
 19 21  1  0
 21 22  1  6
 22 23  1  0
 21 24  1  0
 24 25  2  0
 25 26  1  0
 17 27  1  0
 27 28  1  0
 27 29  2  0
  8 30  1  0
 30 31  1  0
 32 31  1  6
 32 33  1  0
 33 34  1  0
 34 35  1  0
 35 36  1  0
 36 37  1  6
 36 38  1  0
 38 39  1  0
 36 40  1  0
 34 41  1  0
 41 42  1  0
 42 43  1  0
 43 44  2  0
 44 45  1  0
 45 46  1  0
 46 47  2  0
 47 48  1  0
 48 49  2  0
 49 50  1  0
 50 51  2  0
 30 52  1  6
 52 53  2  0
 52 54  1  0
 54 55  1  0
  5  1  1  0
 16  5  1  0
 44 30  1  0
 51 46  1  0
 21  1  1  0
 40 32  1  0
 47 43  1  0
 26  2  1  0
 13  6  1  0
M  END
$$$$
