
     RDKit          3D

 55 63  0  0  0  0  0  0  0  0999 V2000
  128.5713  144.2729  132.7830 C   0  0  2  0  0  0  0  0  0  0  0  0
  128.3741  143.4895  131.6103 N   0  0  0  0  0  0  0  0  0  0  0  0
  127.1406  142.7349  131.7513 C   0  0  0  0  0  0  0  0  0  0  0  0
  126.7020  142.8678  133.1692 C   0  0  0  0  0  0  0  0  0  0  0  0
  127.8929  143.4994  133.8440 C   0  0  1  0  0  0  0  0  0  0  0  0
  128.7737  142.3416  134.2575 C   0  0  0  0  0  0  0  0  0  0  0  0
  129.4240  141.3692  133.5269 C   0  0  0  0  0  0  0  0  0  0  0  0
  130.1866  140.3774  134.0950 C   0  0  0  0  0  0  0  0  0  0  0  0
  130.2698  140.4094  135.4871 C   0  0  0  0  0  0  0  0  0  0  0  0
  131.0072  139.4654  136.1828 O   0  0  0  0  0  0  0  0  0  0  0  0
  131.3905  139.6097  137.5231 C   0  0  0  0  0  0  0  0  0  0  0  0
  129.6312  141.3690  136.2420 C   0  0  0  0  0  0  0  0  0  0  0  0
  128.8756  142.3458  135.6302 C   0  0  0  0  0  0  0  0  0  0  0  0
  128.1461  143.4187  136.1854 N   0  0  0  0  0  0  0  0  0  0  0  0
  128.0081  143.7039  137.5872 C   0  0  0  0  0  0  0  0  0  0  0  0
  127.5583  144.1850  135.1121 C   0  0  1  0  0  0  0  0  0  0  0  0
  127.9065  145.6296  135.2195 C   0  0  2  0  0  0  0  0  0  0  0  0
  126.8562  146.1818  136.0207 O   0  0  0  0  0  0  0  0  0  0  0  0
  127.8424  146.3969  133.9525 C   0  0  2  0  0  0  0  0  0  0  0  0
  126.5287  146.9026  133.7591 O   0  0  0  0  0  0  0  0  0  0  0  0
  128.3188  145.7208  132.7055 C   0  0  1  0  0  0  0  0  0  0  0  0
  129.6168  146.4552  132.2930 C   0  0  0  0  0  0  0  0  0  0  0  0
  129.3330  147.9607  132.2925 C   0  0  0  0  0  0  0  0  0  0  0  0
  127.3593  146.0716  131.6305 C   0  0  0  0  0  0  0  0  0  0  0  0
  127.3307  145.3750  130.5184 C   0  0  0  0  0  0  0  0  0  0  0  0
  128.2772  144.2378  130.3749 C   0  0  0  0  0  0  0  0  0  0  0  0
  129.1396  145.8785  136.0306 C   0  0  0  0  0  0  0  0  0  0  0  0
  129.2188  146.8637  137.0526 N   0  0  0  0  0  0  0  0  0  0  0  0
  130.2106  145.1982  135.8374 O   0  0  0  0  0  0  0  0  0  0  0  0
  130.9056  139.3224  133.3158 C   0  0  1  0  0  0  0  0  0  0  0  0
  131.6745  139.9455  132.2722 C   0  0  0  0  0  0  0  0  0  0  0  0
  132.5171  139.1967  131.3652 C   0  0  1  0  0  0  0  0  0  0  0  0
  132.5090  137.7079  131.4766 C   0  0  0  0  0  0  0  0  0  0  0  0
  133.9093  137.3870  131.5213 N   0  0  0  0  0  0  0  0  0  0  0  0
  134.4697  138.0614  130.3565 C   0  0  0  0  0  0  0  0  0  0  0  0
  133.5314  138.5614  129.3197 C   0  0  2  0  0  0  0  0  0  0  0  0
  133.0413  137.5384  128.4749 O   0  0  0  0  0  0  0  0  0  0  0  0
  134.3537  139.4140  128.3716 C   0  0  0  0  0  0  0  0  0  0  0  0
  135.0981  140.5136  129.0233 C   0  0  0  0  0  0  0  0  0  0  0  0
  132.3696  139.4234  129.8536 C   0  0  0  0  0  0  0  0  0  0  0  0
  134.6031  137.7703  132.6779 C   0  0  0  0  0  0  0  0  0  0  0  0
  134.0751  138.6065  133.7424 C   0  0  0  0  0  0  0  0  0  0  0  0
  132.8877  138.1704  134.4960 C   0  0  0  0  0  0  0  0  0  0  0  0
  131.5862  138.4868  134.3182 C   0  0  0  0  0  0  0  0  0  0  0  0
  130.8861  137.8406  135.2769 N   0  0  0  0  0  0  0  0  0  0  0  0
  131.6607  137.1133  136.0755 C   0  0  0  0  0  0  0  0  0  0  0  0
  132.9309  137.3036  135.6043 C   0  0  0  0  0  0  0  0  0  0  0  0
  133.9490  136.6399  136.2742 C   0  0  0  0  0  0  0  0  0  0  0  0
  133.7196  135.8275  137.3583 C   0  0  0  0  0  0  0  0  0  0  0  0
  132.4339  135.6575  137.8065 C   0  0  0  0  0  0  0  0  0  0  0  0
  131.4056  136.3005  137.1648 C   0  0  0  0  0  0  0  0  0  0  0  0
  129.7932  138.5372  132.6408 C   0  0  0  0  0  0  0  0  0  0  0  0
  129.5483  138.6556  131.4373 O   0  0  0  0  0  0  0  0  0  0  0  0
  129.0038  137.6464  133.3576 O   0  0  0  0  0  0  0  0  0  0  0  0
  127.9277  136.9416  132.7426 C   0  0  0  0  0  0  0  0  0  0  0  0
  1  2  1  6
  2  3  1  0
  3  4  1  0
  5  4  1  6
  5  6  1  0
  6  7  2  0
  7  8  1  0
  8  9  2  0
  9 10  1  0
 10 11  1  0
  9 12  1  0
 12 13  2  0
 13 14  1  0
 14 15  1  0
 16 14  1  1
 16 17  1  0
 17 18  1  1
 17 19  1  0
 19 20  1  6
 19 21  1  0
 21 22  1  6
 22 23  1  0
 21 24  1  0
 24 25  2  0
 25 26  1  0
 17 27  1  0
 27 28  1  0
 27 29  2  0
  8 30  1  0
 30 31  1  0
 32 31  1  1
 32 33  1  0
 33 34  1  0
 34 35  1  0
 35 36  1  0
 36 37  1  6
 36 38  1  0
 38 39  1  0
 36 40  1  0
 34 41  1  0
 41 42  1  0
 42 43  1  0
 43 44  2  0
 44 45  1  0
 45 46  1  0
 46 47  2  0
 47 48  1  0
 48 49  2  0
 49 50  1  0
 50 51  2  0
 30 52  1  6
 52 53  2  0
 52 54  1  0
 54 55  1  0
  5  1  1  0
 16  5  1  0
 44 30  1  0
 51 46  1  0
 21  1  1  0
 40 32  1  0
 47 43  1  0
 26  2  1  0
 13  6  1  0
M  END
$$$$
