
     RDKit          3D

 55 63  0  0  0  0  0  0  0  0999 V2000
  166.3891  151.2929  127.2101 C   0  0  2  0  0  0  0  0  0  0  0  0
  167.4142  151.4594  126.2357 N   0  0  0  0  0  0  0  0  0  0  0  0
  166.7999  151.5962  124.9263 C   0  0  0  0  0  0  0  0  0  0  0  0
  165.3599  151.2435  125.0756 C   0  0  0  0  0  0  0  0  0  0  0  0
  165.2884  150.6520  126.4604 C   0  0  1  0  0  0  0  0  0  0  0  0
  165.5976  149.1827  126.2797 C   0  0  0  0  0  0  0  0  0  0  0  0
  166.7179  148.5249  125.8164 C   0  0  0  0  0  0  0  0  0  0  0  0
  166.8071  147.1573  125.7173 C   0  0  0  0  0  0  0  0  0  0  0  0
  165.6734  146.4526  126.1222 C   0  0  0  0  0  0  0  0  0  0  0  0
  165.6339  145.0688  126.0718 O   0  0  0  0  0  0  0  0  0  0  0  0
  164.4856  144.3121  126.3414 C   0  0  0  0  0  0  0  0  0  0  0  0
  164.5410  147.0833  126.5895 C   0  0  0  0  0  0  0  0  0  0  0  0
  164.4949  148.4582  126.6719 C   0  0  0  0  0  0  0  0  0  0  0  0
  163.4636  149.3130  127.1162 N   0  0  0  0  0  0  0  0  0  0  0  0
  162.1636  148.8971  127.5660 C   0  0  0  0  0  0  0  0  0  0  0  0
  163.9288  150.6780  127.0442 C   0  0  1  0  0  0  0  0  0  0  0  0
  163.7585  151.3814  128.3465 C   0  0  2  0  0  0  0  0  0  0  0  0
  162.4495  151.9554  128.2631 O   0  0  0  0  0  0  0  0  0  0  0  0
  164.6540  152.5424  128.5661 C   0  0  2  0  0  0  0  0  0  0  0  0
  164.0549  153.7208  128.0450 O   0  0  0  0  0  0  0  0  0  0  0  0
  166.0667  152.4315  128.0853 C   0  0  1  0  0  0  0  0  0  0  0  0
  166.9457  152.3767  129.3574 C   0  0  0  0  0  0  0  0  0  0  0  0
  167.1047  153.8047  129.8888 C   0  0  0  0  0  0  0  0  0  0  0  0
  166.4174  153.7349  127.4710 C   0  0  0  0  0  0  0  0  0  0  0  0
  167.4622  153.8330  126.6826 C   0  0  0  0  0  0  0  0  0  0  0  0
  168.2697  152.6112  126.4278 C   0  0  0  0  0  0  0  0  0  0  0  0
  163.6623  150.4466  129.5114 C   0  0  0  0  0  0  0  0  0  0  0  0
  164.7570  149.6746  129.9882 N   0  0  0  0  0  0  0  0  0  0  0  0
  162.5604  150.2930  130.1512 O   0  0  0  0  0  0  0  0  0  0  0  0
  168.0181  146.4296  125.2263 C   0  0  1  0  0  0  0  0  0  0  0  0
  168.9141  147.3667  124.6039 C   0  0  0  0  0  0  0  0  0  0  0  0
  170.1986  146.9814  124.0609 C   0  0  1  0  0  0  0  0  0  0  0  0
  170.5552  145.5317  124.0788 C   0  0  0  0  0  0  0  0  0  0  0  0
  171.8734  145.5378  124.6519 N   0  0  0  0  0  0  0  0  0  0  0  0
  172.6139  146.4952  123.8390 C   0  0  0  0  0  0  0  0  0  0  0  0
  172.0203  146.9211  122.5461 C   0  0  2  0  0  0  0  0  0  0  0  0
  172.1696  145.9568  121.5223 O   0  0  0  0  0  0  0  0  0  0  0  0
  172.8668  148.0762  122.0448 C   0  0  0  0  0  0  0  0  0  0  0  0
  174.2620  147.7157  121.7113 C   0  0  0  0  0  0  0  0  0  0  0  0
  170.5566  147.3999  122.6275 C   0  0  0  0  0  0  0  0  0  0  0  0
  171.9655  145.8859  126.0069 C   0  0  0  0  0  0  0  0  0  0  0  0
  170.8802  146.4030  126.8227 C   0  0  0  0  0  0  0  0  0  0  0  0
  169.6662  145.5945  127.0249 C   0  0  0  0  0  0  0  0  0  0  0  0
  168.4859  145.6274  126.3682 C   0  0  0  0  0  0  0  0  0  0  0  0
  167.6884  144.6970  126.9386 N   0  0  0  0  0  0  0  0  0  0  0  0
  168.2847  144.0521  127.9361 C   0  0  0  0  0  0  0  0  0  0  0  0
  169.5361  144.5995  128.0122 C   0  0  0  0  0  0  0  0  0  0  0  0
  170.3790  144.0916  128.9907 C   0  0  0  0  0  0  0  0  0  0  0  0
  170.0002  143.0901  129.8517 C   0  0  0  0  0  0  0  0  0  0  0  0
  168.7379  142.5621  129.7495 C   0  0  0  0  0  0  0  0  0  0  0  0
  167.8813  143.0435  128.7918 C   0  0  0  0  0  0  0  0  0  0  0  0
  167.4866  145.5245  124.1273 C   0  0  0  0  0  0  0  0  0  0  0  0
  167.9904  144.4240  123.8875 O   0  0  0  0  0  0  0  0  0  0  0  0
  166.4025  145.9028  123.3449 O   0  0  0  0  0  0  0  0  0  0  0  0
  166.4491  145.8322  121.9216 C   0  0  0  0  0  0  0  0  0  0  0  0
  1  2  1  6
  2  3  1  0
  3  4  1  0
  5  4  1  6
  5  6  1  0
  6  7  2  0
  7  8  1  0
  8  9  2  0
  9 10  1  0
 10 11  1  0
  9 12  1  0
 12 13  2  0
 13 14  1  0
 14 15  1  0
 16 14  1  1
 16 17  1  0
 17 18  1  6
 17 19  1  0
 19 20  1  6
 19 21  1  0
 21 22  1  1
 22 23  1  0
 21 24  1  0
 24 25  2  0
 25 26  1  0
 17 27  1  0
 27 28  1  0
 27 29  2  0
  8 30  1  0
 30 31  1  0
 32 31  1  6
 32 33  1  0
 33 34  1  0
 34 35  1  0
 35 36  1  0
 36 37  1  6
 36 38  1  0
 38 39  1  0
 36 40  1  0
 34 41  1  0
 41 42  1  0
 42 43  1  0
 43 44  2  0
 44 45  1  0
 45 46  1  0
 46 47  2  0
 47 48  1  0
 48 49  2  0
 49 50  1  0
 50 51  2  0
 30 52  1  6
 52 53  2  0
 52 54  1  0
 54 55  1  0
  5  1  1  0
 16  5  1  0
 44 30  1  0
 51 46  1  0
 21  1  1  0
 40 32  1  0
 47 43  1  0
 26  2  1  0
 13  6  1  0
M  END
$$$$
