
     RDKit          3D

 55 63  0  0  0  0  0  0  0  0999 V2000
  129.4154  142.0546  131.2797 C   0  0  2  0  0  0  0  0  0  0  0  0
  128.8660  140.8690  130.7134 N   0  0  0  0  0  0  0  0  0  0  0  0
  127.5486  140.6433  131.2827 C   0  0  0  0  0  0  0  0  0  0  0  0
  127.3956  141.5848  132.4275 C   0  0  0  0  0  0  0  0  0  0  0  0
  128.7872  142.1334  132.6151 C   0  0  1  0  0  0  0  0  0  0  0  0
  129.4739  141.1605  133.5473 C   0  0  0  0  0  0  0  0  0  0  0  0
  129.7796  139.8214  133.4226 C   0  0  0  0  0  0  0  0  0  0  0  0
  130.4124  139.0940  134.4017 C   0  0  0  0  0  0  0  0  0  0  0  0
  130.7378  139.8029  135.5581 C   0  0  0  0  0  0  0  0  0  0  0  0
  131.3779  139.1861  136.6206 O   0  0  0  0  0  0  0  0  0  0  0  0
  131.7899  139.8592  137.7787 C   0  0  0  0  0  0  0  0  0  0  0  0
  130.4450  141.1408  135.7097 C   0  0  0  0  0  0  0  0  0  0  0  0
  129.8085  141.8318  134.7014 C   0  0  0  0  0  0  0  0  0  0  0  0
  129.4166  143.1855  134.6275 N   0  0  0  0  0  0  0  0  0  0  0  0
  129.5815  144.1654  135.6658 C   0  0  0  0  0  0  0  0  0  0  0  0
  128.8203  143.4262  133.3347 C   0  0  1  0  0  0  0  0  0  0  0  0
  129.4658  144.5766  132.6422 C   0  0  2  0  0  0  0  0  0  0  0  0
  128.7018  145.7108  133.0660 O   0  0  0  0  0  0  0  0  0  0  0  0
  129.3415  144.5828  131.1648 C   0  0  2  0  0  0  0  0  0  0  0  0
  128.1435  145.2445  130.7830 O   0  0  0  0  0  0  0  0  0  0  0  0
  129.4507  143.2714  130.4524 C   0  0  1  0  0  0  0  0  0  0  0  0
  130.7797  143.3263  129.6620 C   0  0  0  0  0  0  0  0  0  0  0  0
  130.6752  144.4554  128.6318 C   0  0  0  0  0  0  0  0  0  0  0  0
  128.4117  143.2671  129.3941 C   0  0  0  0  0  0  0  0  0  0  0  0
  128.0529  142.1394  128.8264 C   0  0  0  0  0  0  0  0  0  0  0  0
  128.7117  140.8843  129.2742 C   0  0  0  0  0  0  0  0  0  0  0  0
  130.8442  144.8685  133.1472 C   0  0  0  0  0  0  0  0  0  0  0  0
  131.2639  146.1572  133.5770 N   0  0  0  0  0  0  0  0  0  0  0  0
  131.7351  143.9474  133.2179 O   0  0  0  0  0  0  0  0  0  0  0  0
  130.7593  137.6444  134.2771 C   0  0  1  0  0  0  0  0  0  0  0  0
  129.7988  136.9991  133.4229 C   0  0  0  0  0  0  0  0  0  0  0  0
  129.8797  135.5984  133.0699 C   0  0  1  0  0  0  0  0  0  0  0  0
  130.9627  134.7841  133.6968 C   0  0  0  0  0  0  0  0  0  0  0  0
  131.5509  134.1178  132.5671 N   0  0  0  0  0  0  0  0  0  0  0  0
  130.4208  133.4922  131.8908 C   0  0  0  0  0  0  0  0  0  0  0  0
  129.1341  133.3931  132.6256 C   0  0  2  0  0  0  0  0  0  0  0  0
  129.1203  132.3520  133.5829 O   0  0  0  0  0  0  0  0  0  0  0  0
  128.0977  132.9347  131.6168 C   0  0  0  0  0  0  0  0  0  0  0  0
  127.1490  133.9863  131.1901 C   0  0  0  0  0  0  0  0  0  0  0  0
  128.6398  134.7115  133.2547 C   0  0  0  0  0  0  0  0  0  0  0  0
  132.2636  134.9222  131.6668 C   0  0  0  0  0  0  0  0  0  0  0  0
  132.3095  136.3744  131.6840 C   0  0  0  0  0  0  0  0  0  0  0  0
  132.8402  137.0767  132.8644 C   0  0  0  0  0  0  0  0  0  0  0  0
  132.1866  137.6098  133.9199 C   0  0  0  0  0  0  0  0  0  0  0  0
  133.1205  138.1560  134.7303 N   0  0  0  0  0  0  0  0  0  0  0  0
  134.3557  138.0076  134.2625 C   0  0  0  0  0  0  0  0  0  0  0  0
  134.2077  137.3285  133.0841 C   0  0  0  0  0  0  0  0  0  0  0  0
  135.3696  137.0390  132.3826 C   0  0  0  0  0  0  0  0  0  0  0  0
  136.6171  137.4046  132.8272 C   0  0  0  0  0  0  0  0  0  0  0  0
  136.7317  138.0850  134.0132 C   0  0  0  0  0  0  0  0  0  0  0  0
  135.6010  138.3859  134.7298 C   0  0  0  0  0  0  0  0  0  0  0  0
  130.5516  137.0919  135.6776 C   0  0  0  0  0  0  0  0  0  0  0  0
  131.4655  136.5558  136.3098 O   0  0  0  0  0  0  0  0  0  0  0  0
  129.3154  137.1717  136.3067 O   0  0  0  0  0  0  0  0  0  0  0  0
  128.0975  137.0322  135.5785 C   0  0  0  0  0  0  0  0  0  0  0  0
  1  2  1  6
  2  3  1  0
  3  4  1  0
  5  4  1  6
  5  6  1  0
  6  7  2  0
  7  8  1  0
  8  9  2  0
  9 10  1  0
 10 11  1  0
  9 12  1  0
 12 13  2  0
 13 14  1  0
 14 15  1  0
 16 14  1  1
 16 17  1  0
 17 18  1  1
 17 19  1  0
 19 20  1  1
 19 21  1  0
 21 22  1  6
 22 23  1  0
 21 24  1  0
 24 25  2  0
 25 26  1  0
 17 27  1  0
 27 28  1  0
 27 29  2  0
  8 30  1  0
 30 31  1  0
 32 31  1  1
 32 33  1  0
 33 34  1  0
 34 35  1  0
 35 36  1  0
 36 37  1  1
 36 38  1  0
 38 39  1  0
 36 40  1  0
 34 41  1  0
 41 42  1  0
 42 43  1  0
 43 44  2  0
 44 45  1  0
 45 46  1  0
 46 47  2  0
 47 48  1  0
 48 49  2  0
 49 50  1  0
 50 51  2  0
 30 52  1  1
 52 53  2  0
 52 54  1  0
 54 55  1  0
  5  1  1  0
 16  5  1  0
 44 30  1  0
 51 46  1  0
 21  1  1  0
 40 32  1  0
 47 43  1  0
 26  2  1  0
 13  6  1  0
M  END
$$$$
