
     RDKit          3D

 55 63  0  0  0  0  0  0  0  0999 V2000
  128.5690  142.6793  135.3521 C   0  0  2  0  0  0  0  0  0  0  0  0
  128.9364  141.5675  136.1626 N   0  0  0  0  0  0  0  0  0  0  0  0
  130.3315  141.7049  136.5442 C   0  0  0  0  0  0  0  0  0  0  0  0
  130.9061  142.8088  135.7248 C   0  0  0  0  0  0  0  0  0  0  0  0
  129.8343  143.0747  134.6986 C   0  0  1  0  0  0  0  0  0  0  0  0
  130.1283  142.1204  133.5628 C   0  0  0  0  0  0  0  0  0  0  0  0
  130.1586  140.7430  133.4984 C   0  0  0  0  0  0  0  0  0  0  0  0
  130.4600  140.0442  132.3543 C   0  0  0  0  0  0  0  0  0  0  0  0
  130.7399  140.8245  131.2325 C   0  0  0  0  0  0  0  0  0  0  0  0
  131.0588  140.2428  130.0164 O   0  0  0  0  0  0  0  0  0  0  0  0
  131.2965  140.9714  128.8430 C   0  0  0  0  0  0  0  0  0  0  0  0
  130.7165  142.2017  131.2678 C   0  0  0  0  0  0  0  0  0  0  0  0
  130.4093  142.8621  132.4378 C   0  0  0  0  0  0  0  0  0  0  0  0
  130.3194  144.2437  132.7109 N   0  0  0  0  0  0  0  0  0  0  0  0
  130.5803  145.3032  131.7757 C   0  0  0  0  0  0  0  0  0  0  0  0
  129.9221  144.4198  134.0878 C   0  0  1  0  0  0  0  0  0  0  0  0
  128.7258  145.3006  134.2017 C   0  0  2  0  0  0  0  0  0  0  0  0
  129.2740  146.6177  134.3226 O   0  0  0  0  0  0  0  0  0  0  0  0
  127.9197  145.1251  135.4335 C   0  0  2  0  0  0  0  0  0  0  0  0
  128.4236  145.9627  136.4648 O   0  0  0  0  0  0  0  0  0  0  0  0
  127.7338  143.7331  135.9504 C   0  0  1  0  0  0  0  0  0  0  0  0
  126.2385  143.3970  135.7380 C   0  0  0  0  0  0  0  0  0  0  0  0
  125.4090  144.3362  136.6193 C   0  0  0  0  0  0  0  0  0  0  0  0
  127.8740  143.7979  137.4253 C   0  0  0  0  0  0  0  0  0  0  0  0
  128.0824  142.7020  138.1170 C   0  0  0  0  0  0  0  0  0  0  0  0
  128.1738  141.4124  137.3833 C   0  0  0  0  0  0  0  0  0  0  0  0
  127.9214  145.3654  132.9412 C   0  0  0  0  0  0  0  0  0  0  0  0
  127.7669  146.5507  132.1711 N   0  0  0  0  0  0  0  0  0  0  0  0
  127.3176  144.3293  132.4840 O   0  0  0  0  0  0  0  0  0  0  0  0
  130.4872  138.5513  132.2665 C   0  0  1  0  0  0  0  0  0  0  0  0
  129.5869  138.1211  131.2306 C   0  0  0  0  0  0  0  0  0  0  0  0
  129.4146  136.7309  130.8689 C   0  0  1  0  0  0  0  0  0  0  0  0
  130.1454  135.7069  131.6728 C   0  0  0  0  0  0  0  0  0  0  0  0
  130.7721  134.9000  130.6618 N   0  0  0  0  0  0  0  0  0  0  0  0
  129.6802  134.5313  129.7686 C   0  0  0  0  0  0  0  0  0  0  0  0
  128.2885  134.7420  130.2421 C   0  0  2  0  0  0  0  0  0  0  0  0
  127.8572  133.7526  131.1559 O   0  0  0  0  0  0  0  0  0  0  0  0
  127.3873  134.5077  129.0441 C   0  0  0  0  0  0  0  0  0  0  0  0
  125.9809  134.9201  129.2437 C   0  0  0  0  0  0  0  0  0  0  0  0
  127.9944  136.1517  130.7941 C   0  0  0  0  0  0  0  0  0  0  0  0
  131.8066  135.5023  129.9320 C   0  0  0  0  0  0  0  0  0  0  0  0
  132.1756  136.9064  129.9895 C   0  0  0  0  0  0  0  0  0  0  0  0
  132.6161  137.4965  131.2646 C   0  0  0  0  0  0  0  0  0  0  0  0
  131.9110  138.1869  132.1875 C   0  0  0  0  0  0  0  0  0  0  0  0
  132.7719  138.5255  133.1730 N   0  0  0  0  0  0  0  0  0  0  0  0
  134.0075  138.0913  132.9464 C   0  0  0  0  0  0  0  0  0  0  0  0
  133.9374  137.4374  131.7468 C   0  0  0  0  0  0  0  0  0  0  0  0
  135.1156  136.8771  131.2737 C   0  0  0  0  0  0  0  0  0  0  0  0
  136.3051  136.9608  131.9561 C   0  0  0  0  0  0  0  0  0  0  0  0
  136.3422  137.6239  133.1569 C   0  0  0  0  0  0  0  0  0  0  0  0
  135.1934  138.1884  133.6510 C   0  0  0  0  0  0  0  0  0  0  0  0
  129.8966  138.0912  133.5891 C   0  0  0  0  0  0  0  0  0  0  0  0
  128.7201  137.7333  133.6890 O   0  0  0  0  0  0  0  0  0  0  0  0
  130.6652  138.0529  134.7458 O   0  0  0  0  0  0  0  0  0  0  0  0
  130.7360  136.8816  135.5559 C   0  0  0  0  0  0  0  0  0  0  0  0
  1  2  1  1
  2  3  1  0
  3  4  1  0
  5  4  1  1
  5  6  1  0
  6  7  2  0
  7  8  1  0
  8  9  2  0
  9 10  1  0
 10 11  1  0
  9 12  1  0
 12 13  2  0
 13 14  1  0
 14 15  1  0
 16 14  1  6
 16 17  1  0
 17 18  1  1
 17 19  1  0
 19 20  1  1
 19 21  1  0
 21 22  1  1
 22 23  1  0
 21 24  1  0
 24 25  2  0
 25 26  1  0
 17 27  1  0
 27 28  1  0
 27 29  2  0
  8 30  1  0
 30 31  1  0
 32 31  1  1
 32 33  1  0
 33 34  1  0
 34 35  1  0
 35 36  1  0
 36 37  1  1
 36 38  1  0
 38 39  1  0
 36 40  1  0
 34 41  1  0
 41 42  1  0
 42 43  1  0
 43 44  2  0
 44 45  1  0
 45 46  1  0
 46 47  2  0
 47 48  1  0
 48 49  2  0
 49 50  1  0
 50 51  2  0
 30 52  1  1
 52 53  2  0
 52 54  1  0
 54 55  1  0
  5  1  1  0
 16  5  1  0
 44 30  1  0
 51 46  1  0
 21  1  1  0
 40 32  1  0
 47 43  1  0
 26  2  1  0
 13  6  1  0
M  END
$$$$
