
     RDKit          3D

 55 63  0  0  0  0  0  0  0  0999 V2000
  202.0394  136.0560  132.3206 C   0  0  2  0  0  0  0  0  0  0  0  0
  200.9941  135.5105  133.1193 N   0  0  0  0  0  0  0  0  0  0  0  0
  201.1300  136.0106  134.4765 C   0  0  0  0  0  0  0  0  0  0  0  0
  202.4567  136.6829  134.5680 C   0  0  0  0  0  0  0  0  0  0  0  0
  203.1374  136.2856  133.2829 C   0  0  1  0  0  0  0  0  0  0  0  0
  203.8181  134.9696  133.5859 C   0  0  0  0  0  0  0  0  0  0  0  0
  203.3226  133.7388  133.9627 C   0  0  0  0  0  0  0  0  0  0  0  0
  204.1165  132.6437  134.2041 C   0  0  0  0  0  0  0  0  0  0  0  0
  205.4865  132.8502  134.0421 C   0  0  0  0  0  0  0  0  0  0  0  0
  206.3956  131.8268  134.2551 O   0  0  0  0  0  0  0  0  0  0  0  0
  207.7625  131.9258  133.9619 C   0  0  0  0  0  0  0  0  0  0  0  0
  206.0092  134.0684  133.6661 C   0  0  0  0  0  0  0  0  0  0  0  0
  205.1754  135.1410  133.4344 C   0  0  0  0  0  0  0  0  0  0  0  0
  205.4747  136.4630  133.0415 N   0  0  0  0  0  0  0  0  0  0  0  0
  206.7912  136.9971  132.8253 C   0  0  0  0  0  0  0  0  0  0  0  0
  204.2385  137.1941  132.8925 C   0  0  1  0  0  0  0  0  0  0  0  0
  204.1466  137.8425  131.5544 C   0  0  2  0  0  0  0  0  0  0  0  0
  204.7388  139.1311  131.7509 O   0  0  0  0  0  0  0  0  0  0  0  0
  202.7727  138.1392  131.0826 C   0  0  2  0  0  0  0  0  0  0  0  0
  202.3695  139.4215  131.5431 O   0  0  0  0  0  0  0  0  0  0  0  0
  201.7049  137.1322  131.3739 C   0  0  1  0  0  0  0  0  0  0  0  0
  201.3123  136.5215  130.0076 C   0  0  0  0  0  0  0  0  0  0  0  0
  201.7069  137.5151  128.9104 C   0  0  0  0  0  0  0  0  0  0  0  0
  200.4966  137.8895  131.7812 C   0  0  0  0  0  0  0  0  0  0  0  0
  199.5139  137.2798  132.4020 C   0  0  0  0  0  0  0  0  0  0  0  0
  199.6510  135.8262  132.6811 C   0  0  0  0  0  0  0  0  0  0  0  0
  205.0267  137.2004  130.5281 C   0  0  0  0  0  0  0  0  0  0  0  0
  205.9887  137.9158  129.7637 N   0  0  0  0  0  0  0  0  0  0  0  0
  204.9534  135.9427  130.2828 O   0  0  0  0  0  0  0  0  0  0  0  0
  203.5934  131.3006  134.6036 C   0  0  1  0  0  0  0  0  0  0  0  0
  204.0677  130.3116  133.6733 C   0  0  0  0  0  0  0  0  0  0  0  0
  203.7688  128.9023  133.8069 C   0  0  1  0  0  0  0  0  0  0  0  0
  202.8573  128.4860  134.9137 C   0  0  0  0  0  0  0  0  0  0  0  0
  203.5836  127.4118  135.5338 N   0  0  0  0  0  0  0  0  0  0  0  0
  203.9053  126.5127  134.4319 C   0  0  0  0  0  0  0  0  0  0  0  0
  203.1903  126.7016  133.1442 C   0  0  2  0  0  0  0  0  0  0  0  0
  201.8724  126.1885  133.1605 O   0  0  0  0  0  0  0  0  0  0  0  0
  203.8849  125.8096  132.1324 C   0  0  0  0  0  0  0  0  0  0  0  0
  205.2218  126.2828  131.7122 C   0  0  0  0  0  0  0  0  0  0  0  0
  203.2013  128.1439  132.5983 C   0  0  0  0  0  0  0  0  0  0  0  0
  204.7525  127.7626  136.2240 C   0  0  0  0  0  0  0  0  0  0  0  0
  205.3766  129.0746  136.2177 C   0  0  0  0  0  0  0  0  0  0  0  0
  204.6308  130.2432  136.7141 C   0  0  0  0  0  0  0  0  0  0  0  0
  203.9118  131.1629  136.0339 C   0  0  0  0  0  0  0  0  0  0  0  0
  203.4331  132.0428  136.9415 N   0  0  0  0  0  0  0  0  0  0  0  0
  203.7989  131.7475  138.1847 C   0  0  0  0  0  0  0  0  0  0  0  0
  204.5567  130.6143  138.0699 C   0  0  0  0  0  0  0  0  0  0  0  0
  205.0696  130.0869  139.2467 C   0  0  0  0  0  0  0  0  0  0  0  0
  204.8427  130.6549  140.4770 C   0  0  0  0  0  0  0  0  0  0  0  0
  204.0783  131.7915  140.5582 C   0  0  0  0  0  0  0  0  0  0  0  0
  203.5571  132.3368  139.4121 C   0  0  0  0  0  0  0  0  0  0  0  0
  202.0909  131.4140  134.4053 C   0  0  0  0  0  0  0  0  0  0  0  0
  201.3900  130.4305  134.1527 O   0  0  0  0  0  0  0  0  0  0  0  0
  201.4423  132.6387  134.5040 O   0  0  0  0  0  0  0  0  0  0  0  0
  200.2071  132.7745  135.2030 C   0  0  0  0  0  0  0  0  0  0  0  0
  1  2  1  1
  2  3  1  0
  3  4  1  0
  5  4  1  1
  5  6  1  0
  6  7  2  0
  7  8  1  0
  8  9  2  0
  9 10  1  0
 10 11  1  0
  9 12  1  0
 12 13  2  0
 13 14  1  0
 14 15  1  0
 16 14  1  6
 16 17  1  0
 17 18  1  1
 17 19  1  0
 19 20  1  1
 19 21  1  0
 21 22  1  6
 22 23  1  0
 21 24  1  0
 24 25  2  0
 25 26  1  0
 17 27  1  0
 27 28  1  0
 27 29  2  0
  8 30  1  0
 30 31  1  0
 32 31  1  6
 32 33  1  0
 33 34  1  0
 34 35  1  0
 35 36  1  0
 36 37  1  1
 36 38  1  0
 38 39  1  0
 36 40  1  0
 34 41  1  0
 41 42  1  0
 42 43  1  0
 43 44  2  0
 44 45  1  0
 45 46  1  0
 46 47  2  0
 47 48  1  0
 48 49  2  0
 49 50  1  0
 50 51  2  0
 30 52  1  1
 52 53  2  0
 52 54  1  0
 54 55  1  0
  5  1  1  0
 16  5  1  0
 44 30  1  0
 51 46  1  0
 21  1  1  0
 40 32  1  0
 47 43  1  0
 26  2  1  0
 13  6  1  0
M  END
$$$$
