
     RDKit          3D

 55 63  0  0  0  0  0  0  0  0999 V2000
  145.9401  167.7881  134.6044 C   0  0  2  0  0  0  0  0  0  0  0  0
  144.8992  167.8180  133.6330 N   0  0  0  0  0  0  0  0  0  0  0  0
  144.8292  166.5223  132.9795 C   0  0  0  0  0  0  0  0  0  0  0  0
  146.0401  165.7561  133.3883 C   0  0  0  0  0  0  0  0  0  0  0  0
  146.8946  166.7940  134.0705 C   0  0  1  0  0  0  0  0  0  0  0  0
  147.7072  167.4276  132.9635 C   0  0  0  0  0  0  0  0  0  0  0  0
  147.3412  168.1445  131.8435 C   0  0  0  0  0  0  0  0  0  0  0  0
  148.2428  168.6413  130.9335 C   0  0  0  0  0  0  0  0  0  0  0  0
  149.5833  168.3745  131.2122 C   0  0  0  0  0  0  0  0  0  0  0  0
  150.5920  168.8196  130.3734 O   0  0  0  0  0  0  0  0  0  0  0  0
  151.8371  168.1884  130.2495 C   0  0  0  0  0  0  0  0  0  0  0  0
  149.9777  167.6616  132.3234 C   0  0  0  0  0  0  0  0  0  0  0  0
  149.0387  167.1812  133.2104 C   0  0  0  0  0  0  0  0  0  0  0  0
  149.2009  166.4416  134.4014 N   0  0  0  0  0  0  0  0  0  0  0  0
  150.4513  165.9836  134.9418 C   0  0  0  0  0  0  0  0  0  0  0  0
  147.9014  166.2186  134.9899 C   0  0  1  0  0  0  0  0  0  0  0  0
  147.8625  166.6652  136.4107 C   0  0  2  0  0  0  0  0  0  0  0  0
  148.2578  165.5051  137.1508 O   0  0  0  0  0  0  0  0  0  0  0  0
  146.5170  166.9955  136.9388 C   0  0  2  0  0  0  0  0  0  0  0  0
  145.9045  165.8272  137.4668 O   0  0  0  0  0  0  0  0  0  0  0  0
  145.5661  167.7031  136.0254 C   0  0  1  0  0  0  0  0  0  0  0  0
  145.3984  169.1271  136.6067 C   0  0  0  0  0  0  0  0  0  0  0  0
  144.6610  169.0120  137.9446 C   0  0  0  0  0  0  0  0  0  0  0  0
  144.2339  167.0826  136.2242 C   0  0  0  0  0  0  0  0  0  0  0  0
  143.2813  167.2679  135.3405 C   0  0  0  0  0  0  0  0  0  0  0  0
  143.5782  168.1068  134.1498 C   0  0  0  0  0  0  0  0  0  0  0  0
  148.9193  167.6728  136.7394 C   0  0  0  0  0  0  0  0  0  0  0  0
  149.9277  167.4587  137.7187 N   0  0  0  0  0  0  0  0  0  0  0  0
  148.9670  168.8061  136.1389 O   0  0  0  0  0  0  0  0  0  0  0  0
  147.8620  169.4287  129.7202 C   0  0  1  0  0  0  0  0  0  0  0  0
  148.1946  168.6740  128.5419 C   0  0  0  0  0  0  0  0  0  0  0  0
  147.9138  169.1456  127.2033 C   0  0  1  0  0  0  0  0  0  0  0  0
  147.3326  170.5128  127.0548 C   0  0  0  0  0  0  0  0  0  0  0  0
  146.2152  170.2874  126.1791 N   0  0  0  0  0  0  0  0  0  0  0  0
  146.7872  169.5745  125.0432 C   0  0  0  0  0  0  0  0  0  0  0  0
  148.2650  169.5636  124.8971 C   0  0  2  0  0  0  0  0  0  0  0  0
  148.7806  170.7746  124.3795 O   0  0  0  0  0  0  0  0  0  0  0  0
  148.5803  168.5675  123.7969 C   0  0  0  0  0  0  0  0  0  0  0  0
  149.8983  167.9083  123.9246 C   0  0  0  0  0  0  0  0  0  0  0  0
  149.0416  169.1427  126.1612 C   0  0  0  0  0  0  0  0  0  0  0  0
  145.1401  169.5607  126.7100 C   0  0  0  0  0  0  0  0  0  0  0  0
  145.1330  168.8763  127.9916 C   0  0  0  0  0  0  0  0  0  0  0  0
  145.3391  169.6420  129.2323 C   0  0  0  0  0  0  0  0  0  0  0  0
  146.4691  169.8484  129.9437 C   0  0  0  0  0  0  0  0  0  0  0  0
  146.1334  170.6076  131.0104 N   0  0  0  0  0  0  0  0  0  0  0  0
  144.8401  170.9129  131.0361 C   0  0  0  0  0  0  0  0  0  0  0  0
  144.3141  170.3154  129.9235 C   0  0  0  0  0  0  0  0  0  0  0  0
  142.9533  170.4849  129.7106 C   0  0  0  0  0  0  0  0  0  0  0  0
  142.1529  171.2111  130.5589 C   0  0  0  0  0  0  0  0  0  0  0  0
  142.7111  171.7981  131.6665 C   0  0  0  0  0  0  0  0  0  0  0  0
  144.0541  171.6485  131.9041 C   0  0  0  0  0  0  0  0  0  0  0  0
  148.7884  170.6329  129.7538 C   0  0  0  0  0  0  0  0  0  0  0  0
  148.3568  171.7888  129.7434 O   0  0  0  0  0  0  0  0  0  0  0  0
  150.1684  170.4782  129.8003 O   0  0  0  0  0  0  0  0  0  0  0  0
  151.0471  171.5993  129.7386 C   0  0  0  0  0  0  0  0  0  0  0  0
  1  2  1  6
  2  3  1  0
  3  4  1  0
  5  4  1  6
  5  6  1  0
  6  7  2  0
  7  8  1  0
  8  9  2  0
  9 10  1  0
 10 11  1  0
  9 12  1  0
 12 13  2  0
 13 14  1  0
 14 15  1  0
 16 14  1  6
 16 17  1  0
 17 18  1  1
 17 19  1  0
 19 20  1  6
 19 21  1  0
 21 22  1  1
 22 23  1  0
 21 24  1  0
 24 25  2  0
 25 26  1  0
 17 27  1  0
 27 28  1  0
 27 29  2  0
  8 30  1  0
 30 31  1  0
 32 31  1  1
 32 33  1  0
 33 34  1  0
 34 35  1  0
 35 36  1  0
 36 37  1  6
 36 38  1  0
 38 39  1  0
 36 40  1  0
 34 41  1  0
 41 42  1  0
 42 43  1  0
 43 44  2  0
 44 45  1  0
 45 46  1  0
 46 47  2  0
 47 48  1  0
 48 49  2  0
 49 50  1  0
 50 51  2  0
 30 52  1  6
 52 53  2  0
 52 54  1  0
 54 55  1  0
  5  1  1  0
 16  5  1  0
 44 30  1  0
 51 46  1  0
 21  1  1  0
 40 32  1  0
 47 43  1  0
 26  2  1  0
 13  6  1  0
M  END
$$$$
