
     RDKit          3D

 55 63  0  0  0  0  0  0  0  0999 V2000
  201.4646  135.5272  131.2941 C   0  0  2  0  0  0  0  0  0  0  0  0
  200.6616  134.7732  132.1967 N   0  0  0  0  0  0  0  0  0  0  0  0
  200.3637  135.5936  133.3582 C   0  0  0  0  0  0  0  0  0  0  0  0
  201.2301  136.8032  133.2777 C   0  0  0  0  0  0  0  0  0  0  0  0
  202.1958  136.4663  132.1701 C   0  0  1  0  0  0  0  0  0  0  0  0
  203.3336  135.7344  132.8461 C   0  0  0  0  0  0  0  0  0  0  0  0
  203.3809  134.5483  133.5484 C   0  0  0  0  0  0  0  0  0  0  0  0
  204.5308  134.0420  134.1044 C   0  0  0  0  0  0  0  0  0  0  0  0
  205.6776  134.8129  133.9140 C   0  0  0  0  0  0  0  0  0  0  0  0
  206.9021  134.4142  134.4244 O   0  0  0  0  0  0  0  0  0  0  0  0
  208.0893  135.1398  134.2569 C   0  0  0  0  0  0  0  0  0  0  0  0
  205.6598  136.0011  133.2165 C   0  0  0  0  0  0  0  0  0  0  0  0
  204.4831  136.4722  132.6755 C   0  0  0  0  0  0  0  0  0  0  0  0
  204.2242  137.6412  131.9285 N   0  0  0  0  0  0  0  0  0  0  0  0
  205.1874  138.6533  131.5921 C   0  0  0  0  0  0  0  0  0  0  0  0
  202.8290  137.6551  131.5568 C   0  0  1  0  0  0  0  0  0  0  0  0
  202.6579  137.8383  130.0882 C   0  0  2  0  0  0  0  0  0  0  0  0
  202.5871  139.2584  129.9208 O   0  0  0  0  0  0  0  0  0  0  0  0
  201.3790  137.3395  129.5281 C   0  0  2  0  0  0  0  0  0  0  0  0
  200.3903  138.3576  129.5985 O   0  0  0  0  0  0  0  0  0  0  0  0
  200.8332  136.0580  130.0751 C   0  0  1  0  0  0  0  0  0  0  0  0
  200.9536  135.0223  128.9320 C   0  0  0  0  0  0  0  0  0  0  0  0
  200.4488  135.6758  127.6416 C   0  0  0  0  0  0  0  0  0  0  0  0
  199.3699  136.2430  130.2298 C   0  0  0  0  0  0  0  0  0  0  0  0
  198.6766  135.4200  130.9812 C   0  0  0  0  0  0  0  0  0  0  0  0
  199.3967  134.3131  131.6639 C   0  0  0  0  0  0  0  0  0  0  0  0
  203.8703  137.4484  129.3019 C   0  0  0  0  0  0  0  0  0  0  0  0
  204.5821  138.3488  128.4627 N   0  0  0  0  0  0  0  0  0  0  0  0
  204.3366  136.2535  129.3481 O   0  0  0  0  0  0  0  0  0  0  0  0
  204.5996  132.7529  134.8599 C   0  0  1  0  0  0  0  0  0  0  0  0
  203.7515  132.8368  136.0184 C   0  0  0  0  0  0  0  0  0  0  0  0
  203.5676  131.7344  136.9371 C   0  0  1  0  0  0  0  0  0  0  0  0
  204.3662  130.4945  136.7051 C   0  0  0  0  0  0  0  0  0  0  0  0
  203.3694  129.4607  136.7668 N   0  0  0  0  0  0  0  0  0  0  0  0
  202.6819  129.6997  138.0301 C   0  0  0  0  0  0  0  0  0  0  0  0
  203.3198  130.6142  139.0109 C   0  0  2  0  0  0  0  0  0  0  0  0
  204.3852  130.0122  139.7200 O   0  0  0  0  0  0  0  0  0  0  0  0
  202.2913  130.8626  140.0984 C   0  0  0  0  0  0  0  0  0  0  0  0
  202.0760  129.7199  141.0125 C   0  0  0  0  0  0  0  0  0  0  0  0
  203.7540  131.9800  138.4414 C   0  0  0  0  0  0  0  0  0  0  0  0
  202.4423  129.4212  135.7157 C   0  0  0  0  0  0  0  0  0  0  0  0
  202.2978  130.4272  134.6775 C   0  0  0  0  0  0  0  0  0  0  0  0
  203.4286  130.7241  133.7824 C   0  0  0  0  0  0  0  0  0  0  0  0
  204.3620  131.6977  133.8617 C   0  0  0  0  0  0  0  0  0  0  0  0
  205.1758  131.5554  132.7919 N   0  0  0  0  0  0  0  0  0  0  0  0
  204.8265  130.5362  132.0137 C   0  0  0  0  0  0  0  0  0  0  0  0
  203.7251  129.9930  132.6165 C   0  0  0  0  0  0  0  0  0  0  0  0
  203.1546  128.8917  131.9939 C   0  0  0  0  0  0  0  0  0  0  0  0
  203.6513  128.3550  130.8308 C   0  0  0  0  0  0  0  0  0  0  0  0
  204.7576  128.9232  130.2510 C   0  0  0  0  0  0  0  0  0  0  0  0
  205.3441  130.0132  130.8429 C   0  0  0  0  0  0  0  0  0  0  0  0
  206.0331  132.6929  135.3610 C   0  0  0  0  0  0  0  0  0  0  0  0
  206.8582  131.9082  134.8858 O   0  0  0  0  0  0  0  0  0  0  0  0
  206.4748  133.5277  136.3801 O   0  0  0  0  0  0  0  0  0  0  0  0
  207.7927  133.4206  136.9135 C   0  0  0  0  0  0  0  0  0  0  0  0
  1  2  1  1
  2  3  1  0
  3  4  1  0
  5  4  1  1
  5  6  1  0
  6  7  2  0
  7  8  1  0
  8  9  2  0
  9 10  1  0
 10 11  1  0
  9 12  1  0
 12 13  2  0
 13 14  1  0
 14 15  1  0
 16 14  1  6
 16 17  1  0
 17 18  1  1
 17 19  1  0
 19 20  1  1
 19 21  1  0
 21 22  1  6
 22 23  1  0
 21 24  1  0
 24 25  2  0
 25 26  1  0
 17 27  1  0
 27 28  1  0
 27 29  2  0
  8 30  1  0
 30 31  1  0
 32 31  1  6
 32 33  1  0
 33 34  1  0
 34 35  1  0
 35 36  1  0
 36 37  1  1
 36 38  1  0
 38 39  1  0
 36 40  1  0
 34 41  1  0
 41 42  1  0
 42 43  1  0
 43 44  2  0
 44 45  1  0
 45 46  1  0
 46 47  2  0
 47 48  1  0
 48 49  2  0
 49 50  1  0
 50 51  2  0
 30 52  1  1
 52 53  2  0
 52 54  1  0
 54 55  1  0
  5  1  1  0
 16  5  1  0
 44 30  1  0
 51 46  1  0
 21  1  1  0
 40 32  1  0
 47 43  1  0
 26  2  1  0
 13  6  1  0
M  END
$$$$
