
     RDKit          3D

 55 63  0  0  0  0  0  0  0  0999 V2000
  164.9539  152.3784  126.7781 C   0  0  2  0  0  0  0  0  0  0  0  0
  164.9354  151.4261  125.7194 N   0  0  0  0  0  0  0  0  0  0  0  0
  163.9783  150.3821  126.0433 C   0  0  0  0  0  0  0  0  0  0  0  0
  163.5866  150.5697  127.4687 C   0  0  0  0  0  0  0  0  0  0  0  0
  164.5764  151.5904  127.9700 C   0  0  1  0  0  0  0  0  0  0  0  0
  165.7706  150.7880  128.4361 C   0  0  0  0  0  0  0  0  0  0  0  0
  166.6379  149.9497  127.7672 C   0  0  0  0  0  0  0  0  0  0  0  0
  167.6786  149.2924  128.3776 C   0  0  0  0  0  0  0  0  0  0  0  0
  167.8139  149.5262  129.7461 C   0  0  0  0  0  0  0  0  0  0  0  0
  168.8229  148.9238  130.4798 O   0  0  0  0  0  0  0  0  0  0  0  0
  168.5932  148.1002  131.5901 C   0  0  0  0  0  0  0  0  0  0  0  0
  166.9628  150.3588  130.4396 C   0  0  0  0  0  0  0  0  0  0  0  0
  165.9310  150.9982  129.7869 C   0  0  0  0  0  0  0  0  0  0  0  0
  164.9510  151.8873  130.2774 N   0  0  0  0  0  0  0  0  0  0  0  0
  164.8025  152.3017  131.6455 C   0  0  0  0  0  0  0  0  0  0  0  0
  164.1186  152.3135  129.1774 C   0  0  1  0  0  0  0  0  0  0  0  0
  164.0422  153.7991  129.0952 C   0  0  2  0  0  0  0  0  0  0  0  0
  162.9162  154.1351  129.9132 O   0  0  0  0  0  0  0  0  0  0  0  0
  163.7016  154.3473  127.7605 C   0  0  2  0  0  0  0  0  0  0  0  0
  162.2905  154.4368  127.6200 O   0  0  0  0  0  0  0  0  0  0  0  0
  164.2933  153.6756  126.5613 C   0  0  1  0  0  0  0  0  0  0  0  0
  165.3052  154.6831  125.9657 C   0  0  0  0  0  0  0  0  0  0  0  0
  164.5421  155.9554  125.5833 C   0  0  0  0  0  0  0  0  0  0  0  0
  163.2243  153.6024  125.5360 C   0  0  0  0  0  0  0  0  0  0  0  0
  163.3450  152.7877  124.5140 C   0  0  0  0  0  0  0  0  0  0  0  0
  164.5703  151.9512  124.4207 C   0  0  0  0  0  0  0  0  0  0  0  0
  165.1884  154.4850  129.7704 C   0  0  0  0  0  0  0  0  0  0  0  0
  165.0949  155.7806  130.3486 N   0  0  0  0  0  0  0  0  0  0  0  0
  166.3387  153.9231  129.8619 O   0  0  0  0  0  0  0  0  0  0  0  0
  168.6330  148.3883  127.6641 C   0  0  1  0  0  0  0  0  0  0  0  0
  167.9447  147.1882  127.2710 C   0  0  0  0  0  0  0  0  0  0  0  0
  168.5836  146.1268  126.5237 C   0  0  1  0  0  0  0  0  0  0  0  0
  170.0415  146.2614  126.2316 C   0  0  0  0  0  0  0  0  0  0  0  0
  170.1070  145.9943  124.8208 N   0  0  0  0  0  0  0  0  0  0  0  0
  169.4120  144.7223  124.6635 C   0  0  0  0  0  0  0  0  0  0  0  0
  169.1460  143.9159  125.8818 C   0  0  2  0  0  0  0  0  0  0  0  0
  170.2861  143.2202  126.3469 O   0  0  0  0  0  0  0  0  0  0  0  0
  168.2173  142.7929  125.4591 C   0  0  0  0  0  0  0  0  0  0  0  0
  168.7283  141.9579  124.3503 C   0  0  0  0  0  0  0  0  0  0  0  0
  168.4735  144.6840  127.0376 C   0  0  0  0  0  0  0  0  0  0  0  0
  169.5415  146.9582  123.9741 C   0  0  0  0  0  0  0  0  0  0  0  0
  168.7521  148.1006  124.4016 C   0  0  0  0  0  0  0  0  0  0  0  0
  169.3471  149.1096  125.2938 C   0  0  0  0  0  0  0  0  0  0  0  0
  169.2763  149.2248  126.6381 C   0  0  0  0  0  0  0  0  0  0  0  0
  169.9800  150.3272  126.9796 N   0  0  0  0  0  0  0  0  0  0  0  0
  170.5120  150.9422  125.9283 C   0  0  0  0  0  0  0  0  0  0  0  0
  170.1277  150.1936  124.8496 C   0  0  0  0  0  0  0  0  0  0  0  0
  170.5616  150.6273  123.6048 C   0  0  0  0  0  0  0  0  0  0  0  0
  171.3382  151.7482  123.4372 C   0  0  0  0  0  0  0  0  0  0  0  0
  171.7067  152.4776  124.5395 C   0  0  0  0  0  0  0  0  0  0  0  0
  171.2933  152.0740  125.7840 C   0  0  0  0  0  0  0  0  0  0  0  0
  169.6397  147.9946  128.7323 C   0  0  0  0  0  0  0  0  0  0  0  0
  170.0018  146.8254  128.8885 O   0  0  0  0  0  0  0  0  0  0  0  0
  170.1980  148.9435  129.5798 O   0  0  0  0  0  0  0  0  0  0  0  0
  170.0794  148.8398  130.9969 C   0  0  0  0  0  0  0  0  0  0  0  0
  1  2  1  6
  2  3  1  0
  3  4  1  0
  5  4  1  6
  5  6  1  0
  6  7  2  0
  7  8  1  0
  8  9  2  0
  9 10  1  0
 10 11  1  0
  9 12  1  0
 12 13  2  0
 13 14  1  0
 14 15  1  0
 16 14  1  1
 16 17  1  0
 17 18  1  1
 17 19  1  0
 19 20  1  6
 19 21  1  0
 21 22  1  6
 22 23  1  0
 21 24  1  0
 24 25  2  0
 25 26  1  0
 17 27  1  0
 27 28  1  0
 27 29  2  0
  8 30  1  0
 30 31  1  0
 32 31  1  1
 32 33  1  0
 33 34  1  0
 34 35  1  0
 35 36  1  0
 36 37  1  1
 36 38  1  0
 38 39  1  0
 36 40  1  0
 34 41  1  0
 41 42  1  0
 42 43  1  0
 43 44  2  0
 44 45  1  0
 45 46  1  0
 46 47  2  0
 47 48  1  0
 48 49  2  0
 49 50  1  0
 50 51  2  0
 30 52  1  1
 52 53  2  0
 52 54  1  0
 54 55  1  0
  5  1  1  0
 16  5  1  0
 44 30  1  0
 51 46  1  0
 21  1  1  0
 40 32  1  0
 47 43  1  0
 26  2  1  0
 13  6  1  0
M  END
$$$$
