
     RDKit          3D

 55 63  0  0  0  0  0  0  0  0999 V2000
  126.8902  141.0332  134.3954 C   0  0  2  0  0  0  0  0  0  0  0  0
  127.4176  139.8030  134.8817 N   0  0  0  0  0  0  0  0  0  0  0  0
  128.6046  140.0805  135.6721 C   0  0  0  0  0  0  0  0  0  0  0  0
  128.9603  141.5098  135.4468 C   0  0  0  0  0  0  0  0  0  0  0  0
  128.0747  141.9112  134.2947 C   0  0  1  0  0  0  0  0  0  0  0  0
  128.8567  141.5528  133.0508 C   0  0  0  0  0  0  0  0  0  0  0  0
  129.3175  140.3469  132.5652 C   0  0  0  0  0  0  0  0  0  0  0  0
  130.0300  140.2227  131.3969 C   0  0  0  0  0  0  0  0  0  0  0  0
  130.2670  141.4139  130.7109 C   0  0  0  0  0  0  0  0  0  0  0  0
  130.9739  141.4263  129.5195 O   0  0  0  0  0  0  0  0  0  0  0  0
  131.0827  142.5508  128.6902 C   0  0  0  0  0  0  0  0  0  0  0  0
  129.8183  142.6323  131.1721 C   0  0  0  0  0  0  0  0  0  0  0  0
  129.1071  142.7108  132.3500 C   0  0  0  0  0  0  0  0  0  0  0  0
  128.5497  143.8276  133.0084 N   0  0  0  0  0  0  0  0  0  0  0  0
  128.6482  145.1940  132.5739 C   0  0  0  0  0  0  0  0  0  0  0  0
  127.8627  143.3724  134.1940 C   0  0  1  0  0  0  0  0  0  0  0  0
  126.4562  143.8623  134.2309 C   0  0  2  0  0  0  0  0  0  0  0  0
  126.5428  145.1169  134.9152 O   0  0  0  0  0  0  0  0  0  0  0  0
  125.5227  143.0589  135.0563 C   0  0  2  0  0  0  0  0  0  0  0  0
  125.5407  143.5243  136.3987 O   0  0  0  0  0  0  0  0  0  0  0  0
  125.6753  141.5705  135.0290 C   0  0  1  0  0  0  0  0  0  0  0  0
  124.4232  141.0280  134.2998 C   0  0  0  0  0  0  0  0  0  0  0  0
  123.1872  141.6867  134.9207 C   0  0  0  0  0  0  0  0  0  0  0  0
  125.5051  141.0934  136.4229 C   0  0  0  0  0  0  0  0  0  0  0  0
  125.9020  139.8888  136.7610 C   0  0  0  0  0  0  0  0  0  0  0  0
  126.5206  139.0315  135.7159 C   0  0  0  0  0  0  0  0  0  0  0  0
  125.9262  144.2305  132.8805 C   0  0  0  0  0  0  0  0  0  0  0  0
  125.4290  145.5236  132.5606 N   0  0  0  0  0  0  0  0  0  0  0  0
  125.8939  143.3760  131.9235 O   0  0  0  0  0  0  0  0  0  0  0  0
  130.5276  138.9214  130.8527 C   0  0  1  0  0  0  0  0  0  0  0  0
  129.8316  138.6221  129.6301 C   0  0  0  0  0  0  0  0  0  0  0  0
  130.1136  137.4469  128.8348 C   0  0  1  0  0  0  0  0  0  0  0  0
  131.1115  136.4709  129.3649 C   0  0  0  0  0  0  0  0  0  0  0  0
  131.9825  136.2674  128.2397 N   0  0  0  0  0  0  0  0  0  0  0  0
  131.0823  135.9199  127.1468 C   0  0  0  0  0  0  0  0  0  0  0  0
  129.6848  135.5475  127.4839 C   0  0  2  0  0  0  0  0  0  0  0  0
  129.5665  134.2293  127.9825 O   0  0  0  0  0  0  0  0  0  0  0  0
  128.9300  135.4777  126.1695 C   0  0  0  0  0  0  0  0  0  0  0  0
  129.6838  134.8527  125.0609 C   0  0  0  0  0  0  0  0  0  0  0  0
  128.9499  136.5414  128.4060 C   0  0  0  0  0  0  0  0  0  0  0  0
  132.7910  137.3514  127.8696 C   0  0  0  0  0  0  0  0  0  0  0  0
  132.6980  138.6980  128.4073 C   0  0  0  0  0  0  0  0  0  0  0  0
  132.9020  138.9275  129.8474 C   0  0  0  0  0  0  0  0  0  0  0  0
  131.9951  139.0333  130.8433 C   0  0  0  0  0  0  0  0  0  0  0  0
  132.6835  139.2561  131.9850 N   0  0  0  0  0  0  0  0  0  0  0  0
  133.9977  139.3003  131.7912 C   0  0  0  0  0  0  0  0  0  0  0  0
  134.1637  139.0955  130.4488 C   0  0  0  0  0  0  0  0  0  0  0  0
  135.4685  139.0926  129.9764 C   0  0  0  0  0  0  0  0  0  0  0  0
  136.5558  139.2835  130.7944 C   0  0  0  0  0  0  0  0  0  0  0  0
  136.3556  139.4865  132.1366 C   0  0  0  0  0  0  0  0  0  0  0  0
  135.0768  139.4947  132.6338 C   0  0  0  0  0  0  0  0  0  0  0  0
  130.0825  137.8949  131.8812 C   0  0  0  0  0  0  0  0  0  0  0  0
  128.8905  137.6519  132.0870 O   0  0  0  0  0  0  0  0  0  0  0  0
  131.0078  137.1826  132.6341 O   0  0  0  0  0  0  0  0  0  0  0  0
  130.5980  136.2485  133.6303 C   0  0  0  0  0  0  0  0  0  0  0  0
  1  2  1  1
  2  3  1  0
  3  4  1  0
  5  4  1  1
  5  6  1  0
  6  7  2  0
  7  8  1  0
  8  9  2  0
  9 10  1  0
 10 11  1  0
  9 12  1  0
 12 13  2  0
 13 14  1  0
 14 15  1  0
 16 14  1  6
 16 17  1  0
 17 18  1  1
 17 19  1  0
 19 20  1  1
 19 21  1  0
 21 22  1  6
 22 23  1  0
 21 24  1  0
 24 25  2  0
 25 26  1  0
 17 27  1  0
 27 28  1  0
 27 29  2  0
  8 30  1  0
 30 31  1  0
 32 31  1  1
 32 33  1  0
 33 34  1  0
 34 35  1  0
 35 36  1  0
 36 37  1  1
 36 38  1  0
 38 39  1  0
 36 40  1  0
 34 41  1  0
 41 42  1  0
 42 43  1  0
 43 44  2  0
 44 45  1  0
 45 46  1  0
 46 47  2  0
 47 48  1  0
 48 49  2  0
 49 50  1  0
 50 51  2  0
 30 52  1  1
 52 53  2  0
 52 54  1  0
 54 55  1  0
  5  1  1  0
 16  5  1  0
 44 30  1  0
 51 46  1  0
 21  1  1  0
 40 32  1  0
 47 43  1  0
 26  2  1  0
 13  6  1  0
M  END
$$$$
