
     RDKit          3D

 55 63  0  0  0  0  0  0  0  0999 V2000
  150.5547  162.8416  124.1504 C   0  0  2  0  0  0  0  0  0  0  0  0
  150.4239  161.4977  123.6975 N   0  0  0  0  0  0  0  0  0  0  0  0
  151.6529  160.7810  123.9919 C   0  0  0  0  0  0  0  0  0  0  0  0
  152.6645  161.7928  124.4081 C   0  0  0  0  0  0  0  0  0  0  0  0
  152.0064  163.1047  124.0642 C   0  0  1  0  0  0  0  0  0  0  0  0
  152.3803  163.3692  122.6228 C   0  0  0  0  0  0  0  0  0  0  0  0
  152.1167  162.6783  121.4586 C   0  0  0  0  0  0  0  0  0  0  0  0
  152.5573  163.0820  120.2214 C   0  0  0  0  0  0  0  0  0  0  0  0
  153.3044  164.2599  120.2069 C   0  0  0  0  0  0  0  0  0  0  0  0
  153.8075  164.7749  119.0234 O   0  0  0  0  0  0  0  0  0  0  0  0
  154.1897  166.1129  118.8565 C   0  0  0  0  0  0  0  0  0  0  0  0
  153.5824  164.9707  121.3540 C   0  0  0  0  0  0  0  0  0  0  0  0
  153.1206  164.5288  122.5750 C   0  0  0  0  0  0  0  0  0  0  0  0
  153.2718  165.0825  123.8642 N   0  0  0  0  0  0  0  0  0  0  0  0
  154.0124  166.2714  124.1859 C   0  0  0  0  0  0  0  0  0  0  0  0
  152.5597  164.2566  124.8106 C   0  0  1  0  0  0  0  0  0  0  0  0
  151.6086  165.0607  125.6283 C   0  0  2  0  0  0  0  0  0  0  0  0
  152.3836  165.4707  126.7601 O   0  0  0  0  0  0  0  0  0  0  0  0
  150.4755  164.3055  126.2146 C   0  0  2  0  0  0  0  0  0  0  0  0
  150.8497  163.7761  127.4790 O   0  0  0  0  0  0  0  0  0  0  0  0
  149.8459  163.2360  125.3786 C   0  0  1  0  0  0  0  0  0  0  0  0
  148.4318  163.7526  125.0216 C   0  0  0  0  0  0  0  0  0  0  0  0
  147.4174  162.6728  125.4114 C   0  0  0  0  0  0  0  0  0  0  0  0
  149.5839  162.0846  126.2758 C   0  0  0  0  0  0  0  0  0  0  0  0
  149.3410  160.8973  125.7718 C   0  0  0  0  0  0  0  0  0  0  0  0
  149.3391  160.7465  124.2930 C   0  0  0  0  0  0  0  0  0  0  0  0
  151.2199  166.3515  124.9781 C   0  0  0  0  0  0  0  0  0  0  0  0
  150.3421  167.2964  125.5766 N   0  0  0  0  0  0  0  0  0  0  0  0
  151.6709  166.6751  123.8209 O   0  0  0  0  0  0  0  0  0  0  0  0
  152.2712  162.3489  118.9493 C   0  0  1  0  0  0  0  0  0  0  0  0
  151.4889  163.1898  118.0836 C   0  0  0  0  0  0  0  0  0  0  0  0
  151.0805  162.7844  116.7562 C   0  0  1  0  0  0  0  0  0  0  0  0
  151.4208  161.3989  116.3161 C   0  0  0  0  0  0  0  0  0  0  0  0
  152.0185  161.6149  115.0269 N   0  0  0  0  0  0  0  0  0  0  0  0
  151.0413  162.4246  114.3091 C   0  0  0  0  0  0  0  0  0  0  0  0
  149.6698  162.5248  114.8696 C   0  0  2  0  0  0  0  0  0  0  0  0
  148.8826  161.3768  114.6193 O   0  0  0  0  0  0  0  0  0  0  0  0
  148.9572  163.6006  114.0714 C   0  0  0  0  0  0  0  0  0  0  0  0
  148.9481  163.3759  112.6095 C   0  0  0  0  0  0  0  0  0  0  0  0
  149.6021  162.9110  116.3611 C   0  0  0  0  0  0  0  0  0  0  0  0
  153.2690  162.2489  115.0147 C   0  0  0  0  0  0  0  0  0  0  0  0
  153.9214  162.8541  116.1632 C   0  0  0  0  0  0  0  0  0  0  0  0
  154.2562  162.0280  117.3352 C   0  0  0  0  0  0  0  0  0  0  0  0
  153.5726  161.8414  118.4856 C   0  0  0  0  0  0  0  0  0  0  0  0
  154.3056  161.0026  119.2512 N   0  0  0  0  0  0  0  0  0  0  0  0
  155.4360  160.6262  118.6622 C   0  0  0  0  0  0  0  0  0  0  0  0
  155.4302  161.2596  117.4496 C   0  0  0  0  0  0  0  0  0  0  0  0
  156.5200  161.0292  116.6219 C   0  0  0  0  0  0  0  0  0  0  0  0
  157.5645  160.2110  116.9784 C   0  0  0  0  0  0  0  0  0  0  0  0
  157.5404  159.5902  118.2019 C   0  0  0  0  0  0  0  0  0  0  0  0
  156.4763  159.7983  119.0426 C   0  0  0  0  0  0  0  0  0  0  0  0
  151.3773  161.1971  119.3781 C   0  0  0  0  0  0  0  0  0  0  0  0
  150.2783  160.9944  118.8552 O   0  0  0  0  0  0  0  0  0  0  0  0
  151.7667  160.3191  120.3820 O   0  0  0  0  0  0  0  0  0  0  0  0
  153.1370  160.1565  120.7406 C   0  0  0  0  0  0  0  0  0  0  0  0
  1  2  1  1
  2  3  1  0
  3  4  1  0
  5  4  1  1
  5  6  1  0
  6  7  2  0
  7  8  1  0
  8  9  2  0
  9 10  1  0
 10 11  1  0
  9 12  1  0
 12 13  2  0
 13 14  1  0
 14 15  1  0
 16 14  1  6
 16 17  1  0
 17 18  1  1
 17 19  1  0
 19 20  1  1
 19 21  1  0
 21 22  1  6
 22 23  1  0
 21 24  1  0
 24 25  2  0
 25 26  1  0
 17 27  1  0
 27 28  1  0
 27 29  2  0
  8 30  1  0
 30 31  1  0
 32 31  1  1
 32 33  1  0
 33 34  1  0
 34 35  1  0
 35 36  1  0
 36 37  1  1
 36 38  1  0
 38 39  1  0
 36 40  1  0
 34 41  1  0
 41 42  1  0
 42 43  1  0
 43 44  2  0
 44 45  1  0
 45 46  1  0
 46 47  2  0
 47 48  1  0
 48 49  2  0
 49 50  1  0
 50 51  2  0
 30 52  1  1
 52 53  2  0
 52 54  1  0
 54 55  1  0
  5  1  1  0
 16  5  1  0
 44 30  1  0
 51 46  1  0
 21  1  1  0
 40 32  1  0
 47 43  1  0
 26  2  1  0
 13  6  1  0
M  END
$$$$
