
     RDKit          3D

 55 63  0  0  0  0  0  0  0  0999 V2000
  183.6526  158.1664  136.4087 C   0  0  2  0  0  0  0  0  0  0  0  0
  183.8602  157.7052  135.0775 N   0  0  0  0  0  0  0  0  0  0  0  0
  185.0326  156.8474  135.0549 C   0  0  0  0  0  0  0  0  0  0  0  0
  185.7140  156.9971  136.3716 C   0  0  0  0  0  0  0  0  0  0  0  0
  185.0085  158.1737  136.9966 C   0  0  1  0  0  0  0  0  0  0  0  0
  185.7585  159.3915  136.5051 C   0  0  0  0  0  0  0  0  0  0  0  0
  185.9618  159.9026  135.2403 C   0  0  0  0  0  0  0  0  0  0  0  0
  186.6928  161.0389  134.9904 C   0  0  0  0  0  0  0  0  0  0  0  0
  187.2311  161.6638  136.1154 C   0  0  0  0  0  0  0  0  0  0  0  0
  187.9887  162.8179  136.0004 O   0  0  0  0  0  0  0  0  0  0  0  0
  188.4427  163.5639  137.0965 C   0  0  0  0  0  0  0  0  0  0  0  0
  187.0437  161.1760  137.3903 C   0  0  0  0  0  0  0  0  0  0  0  0
  186.3031  160.0318  137.5950 C   0  0  0  0  0  0  0  0  0  0  0  0
  185.9760  159.3567  138.7903 N   0  0  0  0  0  0  0  0  0  0  0  0
  186.4049  159.7301  140.1101 C   0  0  0  0  0  0  0  0  0  0  0  0
  185.1380  158.2253  138.4699 C   0  0  1  0  0  0  0  0  0  0  0  0
  183.8786  158.2370  139.2659 C   0  0  2  0  0  0  0  0  0  0  0  0
  184.2074  157.4990  140.4479 O   0  0  0  0  0  0  0  0  0  0  0  0
  182.7426  157.4912  138.6729 C   0  0  2  0  0  0  0  0  0  0  0  0
  182.7893  156.1318  139.0837 O   0  0  0  0  0  0  0  0  0  0  0  0
  182.5565  157.5713  137.1903 C   0  0  1  0  0  0  0  0  0  0  0  0
  181.2576  158.3820  136.9680 C   0  0  0  0  0  0  0  0  0  0  0  0
  180.3129  157.5409  136.1037 C   0  0  0  0  0  0  0  0  0  0  0  0
  182.2045  156.2079  136.7250 C   0  0  0  0  0  0  0  0  0  0  0  0
  182.2993  155.9000  135.4526 C   0  0  0  0  0  0  0  0  0  0  0  0
  182.7665  156.9476  134.5071 C   0  0  0  0  0  0  0  0  0  0  0  0
  183.5227  159.5955  139.7833 C   0  0  0  0  0  0  0  0  0  0  0  0
  182.9560  159.8203  141.0678 N   0  0  0  0  0  0  0  0  0  0  0  0
  183.7163  160.6482  139.0751 O   0  0  0  0  0  0  0  0  0  0  0  0
  186.9136  161.6106  133.6260 C   0  0  1  0  0  0  0  0  0  0  0  0
  186.3967  162.9522  133.5851 C   0  0  0  0  0  0  0  0  0  0  0  0
  186.4930  163.7942  132.4125 C   0  0  1  0  0  0  0  0  0  0  0  0
  187.0794  163.1995  131.1749 C   0  0  0  0  0  0  0  0  0  0  0  0
  188.0533  164.1816  130.7836 N   0  0  0  0  0  0  0  0  0  0  0  0
  187.3067  165.4334  130.7481 C   0  0  0  0  0  0  0  0  0  0  0  0
  185.8235  165.3635  130.7675 C   0  0  2  0  0  0  0  0  0  0  0  0
  185.2678  165.0123  129.5153 O   0  0  0  0  0  0  0  0  0  0  0  0
  185.3291  166.7840  130.9672 C   0  0  0  0  0  0  0  0  0  0  0  0
  185.5411  167.6767  129.8071 C   0  0  0  0  0  0  0  0  0  0  0  0
  185.2271  164.4870  131.8876 C   0  0  0  0  0  0  0  0  0  0  0  0
  189.1759  164.3154  131.6127 C   0  0  0  0  0  0  0  0  0  0  0  0
  189.3512  163.6802  132.9076 C   0  0  0  0  0  0  0  0  0  0  0  0
  189.3443  162.2113  133.0100 C   0  0  0  0  0  0  0  0  0  0  0  0
  188.3338  161.3708  133.3232 C   0  0  0  0  0  0  0  0  0  0  0  0
  188.8377  160.1169  133.2962 N   0  0  0  0  0  0  0  0  0  0  0  0
  190.1282  160.0894  132.9791 C   0  0  0  0  0  0  0  0  0  0  0  0
  190.4740  161.3999  132.7928 C   0  0  0  0  0  0  0  0  0  0  0  0
  191.7936  161.6518  132.4450 C   0  0  0  0  0  0  0  0  0  0  0  0
  192.7251  160.6539  132.2895 C   0  0  0  0  0  0  0  0  0  0  0  0
  192.3465  159.3493  132.4836 C   0  0  0  0  0  0  0  0  0  0  0  0
  191.0484  159.0683  132.8283 C   0  0  0  0  0  0  0  0  0  0  0  0
  186.0308  160.7656  132.7226 C   0  0  0  0  0  0  0  0  0  0  0  0
  186.5035  159.9587  131.9177 O   0  0  0  0  0  0  0  0  0  0  0  0
  184.6460  160.8677  132.7697 O   0  0  0  0  0  0  0  0  0  0  0  0
  183.8042  159.8212  132.2912 C   0  0  0  0  0  0  0  0  0  0  0  0
  1  2  1  6
  2  3  1  0
  3  4  1  0
  5  4  1  6
  5  6  1  0
  6  7  2  0
  7  8  1  0
  8  9  2  0
  9 10  1  0
 10 11  1  0
  9 12  1  0
 12 13  2  0
 13 14  1  0
 14 15  1  0
 16 14  1  6
 16 17  1  0
 17 18  1  1
 17 19  1  0
 19 20  1  6
 19 21  1  0
 21 22  1  1
 22 23  1  0
 21 24  1  0
 24 25  2  0
 25 26  1  0
 17 27  1  0
 27 28  1  0
 27 29  2  0
  8 30  1  0
 30 31  1  0
 32 31  1  1
 32 33  1  0
 33 34  1  0
 34 35  1  0
 35 36  1  0
 36 37  1  6
 36 38  1  0
 38 39  1  0
 36 40  1  0
 34 41  1  0
 41 42  1  0
 42 43  1  0
 43 44  2  0
 44 45  1  0
 45 46  1  0
 46 47  2  0
 47 48  1  0
 48 49  2  0
 49 50  1  0
 50 51  2  0
 30 52  1  6
 52 53  2  0
 52 54  1  0
 54 55  1  0
  5  1  1  0
 16  5  1  0
 44 30  1  0
 51 46  1  0
 21  1  1  0
 40 32  1  0
 47 43  1  0
 26  2  1  0
 13  6  1  0
M  END
$$$$
