
     RDKit          3D

 55 63  0  0  0  0  0  0  0  0999 V2000
  165.9597  147.7505  132.1352 C   0  0  2  0  0  0  0  0  0  0  0  0
  166.0449  146.6138  131.2816 N   0  0  0  0  0  0  0  0  0  0  0  0
  167.4422  146.3605  130.9747 C   0  0  0  0  0  0  0  0  0  0  0  0
  168.2191  147.5396  131.4506 C   0  0  0  0  0  0  0  0  0  0  0  0
  167.1503  148.5507  131.7795 C   0  0  1  0  0  0  0  0  0  0  0  0
  166.8883  149.2853  130.4838 C   0  0  0  0  0  0  0  0  0  0  0  0
  166.4191  148.8589  129.2589 C   0  0  0  0  0  0  0  0  0  0  0  0
  166.2527  149.6920  128.1791 C   0  0  0  0  0  0  0  0  0  0  0  0
  166.5922  151.0276  128.3956 C   0  0  0  0  0  0  0  0  0  0  0  0
  166.4706  151.9703  127.3878 O   0  0  0  0  0  0  0  0  0  0  0  0
  166.8393  153.3148  127.5305 C   0  0  0  0  0  0  0  0  0  0  0  0
  167.0626  151.4815  129.6085 C   0  0  0  0  0  0  0  0  0  0  0  0
  167.2146  150.6102  130.6654 C   0  0  0  0  0  0  0  0  0  0  0  0
  167.6664  150.8409  131.9823 N   0  0  0  0  0  0  0  0  0  0  0  0
  168.1190  152.1003  132.5063 C   0  0  0  0  0  0  0  0  0  0  0  0
  167.6003  149.6013  132.7196 C   0  0  1  0  0  0  0  0  0  0  0  0
  166.8305  149.7601  133.9852 C   0  0  2  0  0  0  0  0  0  0  0  0
  167.8201  150.1351  134.9495 O   0  0  0  0  0  0  0  0  0  0  0  0
  166.2394  148.5154  134.5325 C   0  0  2  0  0  0  0  0  0  0  0  0
  167.1760  147.8683  135.3828 O   0  0  0  0  0  0  0  0  0  0  0  0
  165.6664  147.5321  133.5608 C   0  0  1  0  0  0  0  0  0  0  0  0
  164.1360  147.5529  133.7876 C   0  0  0  0  0  0  0  0  0  0  0  0
  163.8511  146.9607  135.1715 C   0  0  0  0  0  0  0  0  0  0  0  0
  166.0723  146.1824  134.0223 C   0  0  0  0  0  0  0  0  0  0  0  0
  165.9964  145.1561  133.2075 C   0  0  0  0  0  0  0  0  0  0  0  0
  165.4991  145.3885  131.8261 C   0  0  0  0  0  0  0  0  0  0  0  0
  165.8963  150.9293  133.9624 C   0  0  0  0  0  0  0  0  0  0  0  0
  165.9577  151.9988  134.8973 N   0  0  0  0  0  0  0  0  0  0  0  0
  164.9725  151.0247  133.0767 O   0  0  0  0  0  0  0  0  0  0  0  0
  165.7359  149.2464  126.8481 C   0  0  1  0  0  0  0  0  0  0  0  0
  164.3531  148.8727  126.9777 C   0  0  0  0  0  0  0  0  0  0  0  0
  163.5512  148.4333  125.8565 C   0  0  1  0  0  0  0  0  0  0  0  0
  164.2267  148.2852  124.5334 C   0  0  0  0  0  0  0  0  0  0  0  0
  163.3496  149.0027  123.6490 N   0  0  0  0  0  0  0  0  0  0  0  0
  162.0343  148.4267  123.9024 C   0  0  0  0  0  0  0  0  0  0  0  0
  161.9644  147.1477  124.6539 C   0  0  2  0  0  0  0  0  0  0  0  0
  162.2908  146.0210  123.8638 O   0  0  0  0  0  0  0  0  0  0  0  0
  160.4996  146.9184  124.9760 C   0  0  0  0  0  0  0  0  0  0  0  0
  159.5852  147.0795  123.8245 C   0  0  0  0  0  0  0  0  0  0  0  0
  162.7550  147.1259  125.9779 C   0  0  0  0  0  0  0  0  0  0  0  0
  163.3025  150.3949  123.8073 C   0  0  0  0  0  0  0  0  0  0  0  0
  163.9213  151.1445  124.8873 C   0  0  0  0  0  0  0  0  0  0  0  0
  165.3803  151.0865  125.0773 C   0  0  0  0  0  0  0  0  0  0  0  0
  166.1148  150.3085  125.9023 C   0  0  0  0  0  0  0  0  0  0  0  0
  167.4108  150.6433  125.7143 N   0  0  0  0  0  0  0  0  0  0  0  0
  167.5665  151.6010  124.8058 C   0  0  0  0  0  0  0  0  0  0  0  0
  166.2989  151.8996  124.3868 C   0  0  0  0  0  0  0  0  0  0  0  0
  166.1799  152.8867  123.4187 C   0  0  0  0  0  0  0  0  0  0  0  0
  167.2642  153.5458  122.8917 C   0  0  0  0  0  0  0  0  0  0  0  0
  168.5226  153.2231  123.3333 C   0  0  0  0  0  0  0  0  0  0  0  0
  168.6726  152.2510  124.2899 C   0  0  0  0  0  0  0  0  0  0  0  0
  166.5150  147.9750  126.5547 C   0  0  0  0  0  0  0  0  0  0  0  0
  167.0719  147.7866  125.4699 O   0  0  0  0  0  0  0  0  0  0  0  0
  166.6337  146.9682  127.5048 O   0  0  0  0  0  0  0  0  0  0  0  0
  167.8073  146.1636  127.5964 C   0  0  0  0  0  0  0  0  0  0  0  0
  1  2  1  6
  2  3  1  0
  3  4  1  0
  5  4  1  6
  5  6  1  0
  6  7  2  0
  7  8  1  0
  8  9  2  0
  9 10  1  0
 10 11  1  0
  9 12  1  0
 12 13  2  0
 13 14  1  0
 14 15  1  0
 16 14  1  6
 16 17  1  0
 17 18  1  1
 17 19  1  0
 19 20  1  6
 19 21  1  0
 21 22  1  6
 22 23  1  0
 21 24  1  0
 24 25  2  0
 25 26  1  0
 17 27  1  0
 27 28  1  0
 27 29  2  0
  8 30  1  0
 30 31  1  0
 32 31  1  1
 32 33  1  0
 33 34  1  0
 34 35  1  0
 35 36  1  0
 36 37  1  6
 36 38  1  0
 38 39  1  0
 36 40  1  0
 34 41  1  0
 41 42  1  0
 42 43  1  0
 43 44  2  0
 44 45  1  0
 45 46  1  0
 46 47  2  0
 47 48  1  0
 48 49  2  0
 49 50  1  0
 50 51  2  0
 30 52  1  6
 52 53  2  0
 52 54  1  0
 54 55  1  0
  5  1  1  0
 16  5  1  0
 44 30  1  0
 51 46  1  0
 21  1  1  0
 40 32  1  0
 47 43  1  0
 26  2  1  0
 13  6  1  0
M  END
$$$$
