
     RDKit          3D

 55 63  0  0  0  0  0  0  0  0999 V2000
  190.8277  157.3974  127.5296 C   0  0  2  0  0  0  0  0  0  0  0  0
  189.7110  157.9113  128.2486 N   0  0  0  0  0  0  0  0  0  0  0  0
  188.4955  157.3249  127.7104 C   0  0  0  0  0  0  0  0  0  0  0  0
  188.8654  156.6238  126.4486 C   0  0  0  0  0  0  0  0  0  0  0  0
  190.2769  157.0879  126.1936 C   0  0  1  0  0  0  0  0  0  0  0  0
  190.1354  158.3696  125.4034 C   0  0  0  0  0  0  0  0  0  0  0  0
  189.5558  159.5834  125.7085 C   0  0  0  0  0  0  0  0  0  0  0  0
  189.5205  160.6464  124.8386 C   0  0  0  0  0  0  0  0  0  0  0  0
  190.1192  160.4251  123.5983 C   0  0  0  0  0  0  0  0  0  0  0  0
  190.1510  161.4161  122.6309 O   0  0  0  0  0  0  0  0  0  0  0  0
  191.2228  161.6094  121.7489 C   0  0  0  0  0  0  0  0  0  0  0  0
  190.7059  159.2233  123.2667 C   0  0  0  0  0  0  0  0  0  0  0  0
  190.7183  158.1829  124.1705 C   0  0  0  0  0  0  0  0  0  0  0  0
  191.2558  156.8827  124.0600 N   0  0  0  0  0  0  0  0  0  0  0  0
  191.9064  156.3388  122.8996 C   0  0  0  0  0  0  0  0  0  0  0  0
  191.0441  156.1854  125.3064 C   0  0  1  0  0  0  0  0  0  0  0  0
  192.3167  155.6236  125.8398 C   0  0  2  0  0  0  0  0  0  0  0  0
  192.3871  154.3145  125.2643 O   0  0  0  0  0  0  0  0  0  0  0  0
  192.3437  155.3824  127.3024 C   0  0  2  0  0  0  0  0  0  0  0  0
  191.8483  154.0816  127.5874 O   0  0  0  0  0  0  0  0  0  0  0  0
  191.6756  156.3889  128.1855 C   0  0  1  0  0  0  0  0  0  0  0  0
  192.8123  157.0909  128.9659 C   0  0  0  0  0  0  0  0  0  0  0  0
  193.2663  156.1556  130.0910 C   0  0  0  0  0  0  0  0  0  0  0  0
  190.9473  155.6301  129.2310 C   0  0  0  0  0  0  0  0  0  0  0  0
  190.0154  156.2179  129.9444 C   0  0  0  0  0  0  0  0  0  0  0  0
  189.7170  157.6485  129.6721 C   0  0  0  0  0  0  0  0  0  0  0  0
  193.5332  156.3121  125.3048 C   0  0  0  0  0  0  0  0  0  0  0  0
  194.6380  155.6206  124.7367 N   0  0  0  0  0  0  0  0  0  0  0  0
  193.6401  157.5908  125.3342 O   0  0  0  0  0  0  0  0  0  0  0  0
  188.9046  161.9714  125.1586 C   0  0  1  0  0  0  0  0  0  0  0  0
  189.2034  162.3156  126.5227 C   0  0  0  0  0  0  0  0  0  0  0  0
  188.7818  163.5604  127.1277 C   0  0  1  0  0  0  0  0  0  0  0  0
  187.9282  164.4758  126.3137 C   0  0  0  0  0  0  0  0  0  0  0  0
  188.5959  165.7406  126.4568 N   0  0  0  0  0  0  0  0  0  0  0  0
  188.7378  165.9108  127.8979 C   0  0  0  0  0  0  0  0  0  0  0  0
  187.9411  165.0282  128.7877 C   0  0  2  0  0  0  0  0  0  0  0  0
  186.5857  165.4193  128.8885 O   0  0  0  0  0  0  0  0  0  0  0  0
  188.4612  165.2550  130.1949 C   0  0  0  0  0  0  0  0  0  0  0  0
  188.3382  166.6476  130.6780 C   0  0  0  0  0  0  0  0  0  0  0  0
  188.0465  163.5217  128.4752 C   0  0  0  0  0  0  0  0  0  0  0  0
  189.8458  165.8631  125.8335 C   0  0  0  0  0  0  0  0  0  0  0  0
  190.5910  164.7809  125.2135 C   0  0  0  0  0  0  0  0  0  0  0  0
  190.0047  164.0408  124.0836 C   0  0  0  0  0  0  0  0  0  0  0  0
  189.3245  162.8735  124.0741 C   0  0  0  0  0  0  0  0  0  0  0  0
  189.0089  162.6085  122.7868 N   0  0  0  0  0  0  0  0  0  0  0  0
  189.4453  163.5433  121.9488 C   0  0  0  0  0  0  0  0  0  0  0  0
  190.0782  164.4608  122.7420 C   0  0  0  0  0  0  0  0  0  0  0  0
  190.6325  165.5600  122.1014 C   0  0  0  0  0  0  0  0  0  0  0  0
  190.5631  165.7411  120.7412 C   0  0  0  0  0  0  0  0  0  0  0  0
  189.9213  164.8023  119.9734 C   0  0  0  0  0  0  0  0  0  0  0  0
  189.3630  163.7043  120.5778 C   0  0  0  0  0  0  0  0  0  0  0  0
  187.4089  161.7133  125.0819 C   0  0  0  0  0  0  0  0  0  0  0  0
  186.5839  162.6270  125.1651 O   0  0  0  0  0  0  0  0  0  0  0  0
  186.9082  160.4285  124.9112 O   0  0  0  0  0  0  0  0  0  0  0  0
  185.7273  160.1832  124.1507 C   0  0  0  0  0  0  0  0  0  0  0  0
  1  2  1  1
  2  3  1  0
  3  4  1  0
  5  4  1  1
  5  6  1  0
  6  7  2  0
  7  8  1  0
  8  9  2  0
  9 10  1  0
 10 11  1  0
  9 12  1  0
 12 13  2  0
 13 14  1  0
 14 15  1  0
 16 14  1  6
 16 17  1  0
 17 18  1  6
 17 19  1  0
 19 20  1  6
 19 21  1  0
 21 22  1  1
 22 23  1  0
 21 24  1  0
 24 25  2  0
 25 26  1  0
 17 27  1  0
 27 28  1  0
 27 29  2  0
  8 30  1  0
 30 31  1  0
 32 31  1  6
 32 33  1  0
 33 34  1  0
 34 35  1  0
 35 36  1  0
 36 37  1  1
 36 38  1  0
 38 39  1  0
 36 40  1  0
 34 41  1  0
 41 42  1  0
 42 43  1  0
 43 44  2  0
 44 45  1  0
 45 46  1  0
 46 47  2  0
 47 48  1  0
 48 49  2  0
 49 50  1  0
 50 51  2  0
 30 52  1  1
 52 53  2  0
 52 54  1  0
 54 55  1  0
  5  1  1  0
 16  5  1  0
 44 30  1  0
 51 46  1  0
 21  1  1  0
 40 32  1  0
 47 43  1  0
 26  2  1  0
 13  6  1  0
M  END
$$$$
