
     RDKit          3D

 55 63  0  0  0  0  0  0  0  0999 V2000
  177.0820  166.4234  107.5413 C   0  0  2  0  0  0  0  0  0  0  0  0
  177.1504  165.0121  107.3639 N   0  0  0  0  0  0  0  0  0  0  0  0
  176.1420  164.6106  106.3981 C   0  0  0  0  0  0  0  0  0  0  0  0
  175.2560  165.7869  106.1708 C   0  0  0  0  0  0  0  0  0  0  0  0
  175.6687  166.7482  107.2563 C   0  0  1  0  0  0  0  0  0  0  0  0
  174.8213  166.3805  108.4538 C   0  0  0  0  0  0  0  0  0  0  0  0
  174.7332  165.2260  109.2033 C   0  0  0  0  0  0  0  0  0  0  0  0
  173.8808  165.0786  110.2708 C   0  0  0  0  0  0  0  0  0  0  0  0
  173.0896  166.1896  110.5629 C   0  0  0  0  0  0  0  0  0  0  0  0
  172.1882  166.1709  111.6146 O   0  0  0  0  0  0  0  0  0  0  0  0
  171.2256  167.1657  111.8332 C   0  0  0  0  0  0  0  0  0  0  0  0
  173.1570  167.3556  109.8318 C   0  0  0  0  0  0  0  0  0  0  0  0
  174.0267  167.4597  108.7678 C   0  0  0  0  0  0  0  0  0  0  0  0
  174.2716  168.5370  107.8897 N   0  0  0  0  0  0  0  0  0  0  0  0
  173.5969  169.8058  107.9086 C   0  0  0  0  0  0  0  0  0  0  0  0
  175.3132  168.1551  106.9656 C   0  0  1  0  0  0  0  0  0  0  0  0
  176.4218  169.1504  106.9521 C   0  0  2  0  0  0  0  0  0  0  0  0
  176.0378  170.0848  105.9376 O   0  0  0  0  0  0  0  0  0  0  0  0
  177.7356  168.6354  106.4971 C   0  0  2  0  0  0  0  0  0  0  0  0
  177.8391  168.7544  105.0850 O   0  0  0  0  0  0  0  0  0  0  0  0
  178.1273  167.2557  106.9241 C   0  0  1  0  0  0  0  0  0  0  0  0
  179.3033  167.4346  107.9134 C   0  0  0  0  0  0  0  0  0  0  0  0
  180.5416  167.8483  107.1120 C   0  0  0  0  0  0  0  0  0  0  0  0
  178.7521  166.6012  105.7492 C   0  0  0  0  0  0  0  0  0  0  0  0
  178.8981  165.2971  105.7206 C   0  0  0  0  0  0  0  0  0  0  0  0
  178.4214  164.5089  106.8873 C   0  0  0  0  0  0  0  0  0  0  0  0
  176.4812  169.9813  108.1955 C   0  0  0  0  0  0  0  0  0  0  0  0
  176.4865  171.4031  108.1876 N   0  0  0  0  0  0  0  0  0  0  0  0
  176.5317  169.4371  109.3568 O   0  0  0  0  0  0  0  0  0  0  0  0
  173.7812  163.8369  111.0988 C   0  0  1  0  0  0  0  0  0  0  0  0
  174.0589  164.1600  112.4725 C   0  0  0  0  0  0  0  0  0  0  0  0
  174.0038  163.1798  113.5352 C   0  0  1  0  0  0  0  0  0  0  0  0
  173.7299  161.7610  113.1597 C   0  0  0  0  0  0  0  0  0  0  0  0
  172.6748  161.3931  114.0639 N   0  0  0  0  0  0  0  0  0  0  0  0
  173.1906  161.7475  115.3808 C   0  0  0  0  0  0  0  0  0  0  0  0
  174.6420  162.0340  115.5091 C   0  0  2  0  0  0  0  0  0  0  0  0
  175.4391  160.8658  115.5261 O   0  0  0  0  0  0  0  0  0  0  0  0
  174.8465  162.5997  116.9020 C   0  0  0  0  0  0  0  0  0  0  0  0
  176.1788  162.3294  117.4851 C   0  0  0  0  0  0  0  0  0  0  0  0
  175.1976  163.0518  114.4925 C   0  0  0  0  0  0  0  0  0  0  0  0
  171.4301  162.0039  113.8555 C   0  0  0  0  0  0  0  0  0  0  0  0
  171.1664  163.0909  112.9283 C   0  0  0  0  0  0  0  0  0  0  0  0
  171.4103  162.9013  111.4886 C   0  0  0  0  0  0  0  0  0  0  0  0
  172.4888  163.2288  110.7436 C   0  0  0  0  0  0  0  0  0  0  0  0
  172.2192  162.8601  109.4714 N   0  0  0  0  0  0  0  0  0  0  0  0
  171.0187  162.3047  109.3418 C   0  0  0  0  0  0  0  0  0  0  0  0
  170.4857  162.3181  110.6017 C   0  0  0  0  0  0  0  0  0  0  0  0
  169.2134  161.7826  110.7448 C   0  0  0  0  0  0  0  0  0  0  0  0
  168.5040  161.2596  109.6908 C   0  0  0  0  0  0  0  0  0  0  0  0
  169.0667  161.2612  108.4393 C   0  0  0  0  0  0  0  0  0  0  0  0
  170.3235  161.7837  108.2660 C   0  0  0  0  0  0  0  0  0  0  0  0
  174.9270  162.9691  110.6051 C   0  0  0  0  0  0  0  0  0  0  0  0
  174.7317  161.8880  110.0436 O   0  0  0  0  0  0  0  0  0  0  0  0
  176.2495  163.3635  110.7658 O   0  0  0  0  0  0  0  0  0  0  0  0
  177.0327  162.9150  111.8696 C   0  0  0  0  0  0  0  0  0  0  0  0
  1  2  1  6
  2  3  1  0
  3  4  1  0
  5  4  1  6
  5  6  1  0
  6  7  2  0
  7  8  1  0
  8  9  2  0
  9 10  1  0
 10 11  1  0
  9 12  1  0
 12 13  2  0
 13 14  1  0
 14 15  1  0
 16 14  1  1
 16 17  1  0
 17 18  1  6
 17 19  1  0
 19 20  1  6
 19 21  1  0
 21 22  1  1
 22 23  1  0
 21 24  1  0
 24 25  2  0
 25 26  1  0
 17 27  1  0
 27 28  1  0
 27 29  2  0
  8 30  1  0
 30 31  1  0
 32 31  1  6
 32 33  1  0
 33 34  1  0
 34 35  1  0
 35 36  1  0
 36 37  1  1
 36 38  1  0
 38 39  1  0
 36 40  1  0
 34 41  1  0
 41 42  1  0
 42 43  1  0
 43 44  2  0
 44 45  1  0
 45 46  1  0
 46 47  2  0
 47 48  1  0
 48 49  2  0
 49 50  1  0
 50 51  2  0
 30 52  1  6
 52 53  2  0
 52 54  1  0
 54 55  1  0
  5  1  1  0
 16  5  1  0
 44 30  1  0
 51 46  1  0
 21  1  1  0
 40 32  1  0
 47 43  1  0
 26  2  1  0
 13  6  1  0
M  END
$$$$
