
     RDKit          3D

 55 63  0  0  0  0  0  0  0  0999 V2000
  170.8676  162.7757  106.3608 C   0  0  2  0  0  0  0  0  0  0  0  0
  172.1527  163.2634  105.9883 N   0  0  0  0  0  0  0  0  0  0  0  0
  173.1085  162.1715  106.0599 C   0  0  0  0  0  0  0  0  0  0  0  0
  172.4310  161.0368  106.7482 C   0  0  0  0  0  0  0  0  0  0  0  0
  171.1658  161.6591  107.2819 C   0  0  1  0  0  0  0  0  0  0  0  0
  171.5402  162.2170  108.6368 C   0  0  0  0  0  0  0  0  0  0  0  0
  172.4419  163.1884  109.0186 C   0  0  0  0  0  0  0  0  0  0  0  0
  172.6494  163.5584  110.3254 C   0  0  0  0  0  0  0  0  0  0  0  0
  171.8774  162.8807  111.2692 C   0  0  0  0  0  0  0  0  0  0  0  0
  171.9909  163.1596  112.6214 O   0  0  0  0  0  0  0  0  0  0  0  0
  170.9116  163.1351  113.5149 C   0  0  0  0  0  0  0  0  0  0  0  0
  170.9689  161.9067  110.9166 C   0  0  0  0  0  0  0  0  0  0  0  0
  170.7931  161.5665  109.5927 C   0  0  0  0  0  0  0  0  0  0  0  0
  169.9318  160.6192  108.9991 N   0  0  0  0  0  0  0  0  0  0  0  0
  169.0365  159.7418  109.7020 C   0  0  0  0  0  0  0  0  0  0  0  0
  170.0978  160.6748  107.5659 C   0  0  1  0  0  0  0  0  0  0  0  0
  168.7927  160.8648  106.8729 C   0  0  2  0  0  0  0  0  0  0  0  0
  168.3248  159.5317  106.6409 O   0  0  0  0  0  0  0  0  0  0  0  0
  168.8707  161.4660  105.5199 C   0  0  2  0  0  0  0  0  0  0  0  0
  169.0456  160.4457  104.5466 O   0  0  0  0  0  0  0  0  0  0  0  0
  169.8698  162.5583  105.3009 C   0  0  1  0  0  0  0  0  0  0  0  0
  169.0466  163.8507  105.0865 C   0  0  0  0  0  0  0  0  0  0  0  0
  168.7689  163.9956  103.5869 C   0  0  0  0  0  0  0  0  0  0  0  0
  170.4931  162.3144  103.9776 C   0  0  0  0  0  0  0  0  0  0  0  0
  171.6191  162.9090  103.6590 C   0  0  0  0  0  0  0  0  0  0  0  0
  172.2409  163.8205  104.6551 C   0  0  0  0  0  0  0  0  0  0  0  0
  167.7405  161.4618  107.7542 C   0  0  0  0  0  0  0  0  0  0  0  0
  166.3783  161.0549  107.7330 N   0  0  0  0  0  0  0  0  0  0  0  0
  168.0241  162.3923  108.5913 O   0  0  0  0  0  0  0  0  0  0  0  0
  173.6160  164.6164  110.7538 C   0  0  1  0  0  0  0  0  0  0  0  0
  174.7557  164.6001  109.8767 C   0  0  0  0  0  0  0  0  0  0  0  0
  175.8547  165.5327  110.0015 C   0  0  1  0  0  0  0  0  0  0  0  0
  175.8288  166.4894  111.1474 C   0  0  0  0  0  0  0  0  0  0  0  0
  176.0849  167.7522  110.5103 N   0  0  0  0  0  0  0  0  0  0  0  0
  177.2983  167.5237  109.7350 C   0  0  0  0  0  0  0  0  0  0  0  0
  178.0951  166.3050  110.0268 C   0  0  2  0  0  0  0  0  0  0  0  0
  178.8809  166.4225  111.1969 O   0  0  0  0  0  0  0  0  0  0  0  0
  179.1392  166.2019  108.9307 C   0  0  0  0  0  0  0  0  0  0  0  0
  179.3289  164.8384  108.3897 C   0  0  0  0  0  0  0  0  0  0  0  0
  177.2903  164.9897  110.0469 C   0  0  0  0  0  0  0  0  0  0  0  0
  175.0716  168.2516  109.6800 C   0  0  0  0  0  0  0  0  0  0  0  0
  173.8768  167.5300  109.2763 C   0  0  0  0  0  0  0  0  0  0  0  0
  172.9259  167.0583  110.2968 C   0  0  0  0  0  0  0  0  0  0  0  0
  172.8201  165.8473  110.8864 C   0  0  0  0  0  0  0  0  0  0  0  0
  171.7785  165.9136  111.7453 N   0  0  0  0  0  0  0  0  0  0  0  0
  171.1946  167.1077  111.7522 C   0  0  0  0  0  0  0  0  0  0  0  0
  171.9001  167.8508  110.8457 C   0  0  0  0  0  0  0  0  0  0  0  0
  171.4874  169.1628  110.6611 C   0  0  0  0  0  0  0  0  0  0  0  0
  170.4273  169.7116  111.3416 C   0  0  0  0  0  0  0  0  0  0  0  0
  169.7401  168.9396  112.2441 C   0  0  0  0  0  0  0  0  0  0  0  0
  170.1244  167.6384  112.4486 C   0  0  0  0  0  0  0  0  0  0  0  0
  174.0970  164.1488  112.1176 C   0  0  0  0  0  0  0  0  0  0  0  0
  173.8990  164.8089  113.1410 O   0  0  0  0  0  0  0  0  0  0  0  0
  174.7818  162.9492  112.2667 O   0  0  0  0  0  0  0  0  0  0  0  0
  174.2150  161.8499  112.9761 C   0  0  0  0  0  0  0  0  0  0  0  0
  1  2  1  6
  2  3  1  0
  3  4  1  0
  5  4  1  6
  5  6  1  0
  6  7  2  0
  7  8  1  0
  8  9  2  0
  9 10  1  0
 10 11  1  0
  9 12  1  0
 12 13  2  0
 13 14  1  0
 14 15  1  0
 16 14  1  1
 16 17  1  0
 17 18  1  6
 17 19  1  0
 19 20  1  6
 19 21  1  0
 21 22  1  6
 22 23  1  0
 21 24  1  0
 24 25  2  0
 25 26  1  0
 17 27  1  0
 27 28  1  0
 27 29  2  0
  8 30  1  0
 30 31  1  0
 32 31  1  1
 32 33  1  0
 33 34  1  0
 34 35  1  0
 35 36  1  0
 36 37  1  1
 36 38  1  0
 38 39  1  0
 36 40  1  0
 34 41  1  0
 41 42  1  0
 42 43  1  0
 43 44  2  0
 44 45  1  0
 45 46  1  0
 46 47  2  0
 47 48  1  0
 48 49  2  0
 49 50  1  0
 50 51  2  0
 30 52  1  1
 52 53  2  0
 52 54  1  0
 54 55  1  0
  5  1  1  0
 16  5  1  0
 44 30  1  0
 51 46  1  0
 21  1  1  0
 40 32  1  0
 47 43  1  0
 26  2  1  0
 13  6  1  0
M  END
$$$$
