
     RDKit          3D

 55 63  0  0  0  0  0  0  0  0999 V2000
  200.9251  134.8061  132.5612 C   0  0  2  0  0  0  0  0  0  0  0  0
  200.5787  133.6690  133.3454 N   0  0  0  0  0  0  0  0  0  0  0  0
  200.4350  134.0803  134.7314 C   0  0  0  0  0  0  0  0  0  0  0  0
  200.9641  135.4693  134.8364 C   0  0  0  0  0  0  0  0  0  0  0  0
  201.6441  135.6838  133.5082 C   0  0  1  0  0  0  0  0  0  0  0  0
  203.0526  135.1662  133.6966 C   0  0  0  0  0  0  0  0  0  0  0  0
  203.5435  133.9125  133.9958 C   0  0  0  0  0  0  0  0  0  0  0  0
  204.8821  133.6362  134.1357 C   0  0  0  0  0  0  0  0  0  0  0  0
  205.7396  134.7212  133.9530 C   0  0  0  0  0  0  0  0  0  0  0  0
  207.1126  134.5766  134.0668 O   0  0  0  0  0  0  0  0  0  0  0  0
  208.0359  135.5328  133.6229 C   0  0  0  0  0  0  0  0  0  0  0  0
  205.2773  135.9840  133.6530 C   0  0  0  0  0  0  0  0  0  0  0  0
  203.9252  136.2165  133.5221 C   0  0  0  0  0  0  0  0  0  0  0  0
  203.2274  137.4050  133.2187 N   0  0  0  0  0  0  0  0  0  0  0  0
  203.8210  138.6966  133.0072 C   0  0  0  0  0  0  0  0  0  0  0  0
  201.8151  137.1110  133.1560 C   0  0  1  0  0  0  0  0  0  0  0  0
  201.2185  137.5733  131.8715 C   0  0  2  0  0  0  0  0  0  0  0  0
  200.7993  138.9146  132.1456 O   0  0  0  0  0  0  0  0  0  0  0  0
  199.9755  136.8783  131.4591 C   0  0  2  0  0  0  0  0  0  0  0  0
  198.8464  137.5317  132.0222 O   0  0  0  0  0  0  0  0  0  0  0  0
  199.8887  135.4047  131.7045 C   0  0  1  0  0  0  0  0  0  0  0  0
  199.9176  134.7387  130.3083 C   0  0  0  0  0  0  0  0  0  0  0  0
  198.5173  134.8521  129.6971 C   0  0  0  0  0  0  0  0  0  0  0  0
  198.5175  135.1291  132.1977 C   0  0  0  0  0  0  0  0  0  0  0  0
  198.2482  133.9935  132.7983 C   0  0  0  0  0  0  0  0  0  0  0  0
  199.3479  133.0076  132.9671 C   0  0  0  0  0  0  0  0  0  0  0  0
  202.2282  137.7337  130.7784 C   0  0  0  0  0  0  0  0  0  0  0  0
  202.5238  138.9806  130.1624 N   0  0  0  0  0  0  0  0  0  0  0  0
  202.8914  136.7289  130.3335 O   0  0  0  0  0  0  0  0  0  0  0  0
  205.4299  132.2803  134.4501 C   0  0  1  0  0  0  0  0  0  0  0  0
  204.7628  131.2996  133.6367 C   0  0  0  0  0  0  0  0  0  0  0  0
  205.0949  129.8920  133.6751 C   0  0  1  0  0  0  0  0  0  0  0  0
  206.1156  129.4445  134.6686 C   0  0  0  0  0  0  0  0  0  0  0  0
  207.0099  128.6537  133.8681 N   0  0  0  0  0  0  0  0  0  0  0  0
  206.1383  127.7023  133.1893 C   0  0  0  0  0  0  0  0  0  0  0  0
  204.7487  127.5475  133.6895 C   0  0  2  0  0  0  0  0  0  0  0  0
  204.6655  126.7647  134.8646 O   0  0  0  0  0  0  0  0  0  0  0  0
  204.0167  126.6973  132.6679 C   0  0  0  0  0  0  0  0  0  0  0  0
  204.5177  125.3105  132.5510 C   0  0  0  0  0  0  0  0  0  0  0  0
  203.9679  128.8660  133.8629 C   0  0  0  0  0  0  0  0  0  0  0  0
  207.7885  129.3457  132.9296 C   0  0  0  0  0  0  0  0  0  0  0  0
  207.6436  130.7487  132.5809 C   0  0  0  0  0  0  0  0  0  0  0  0
  207.8180  131.7824  133.6149 C   0  0  0  0  0  0  0  0  0  0  0  0
  206.8930  132.4174  134.3677 C   0  0  0  0  0  0  0  0  0  0  0  0
  207.5563  133.2886  135.1602 N   0  0  0  0  0  0  0  0  0  0  0  0
  208.8711  133.2577  134.9685 C   0  0  0  0  0  0  0  0  0  0  0  0
  209.0642  132.3141  133.9970 C   0  0  0  0  0  0  0  0  0  0  0  0
  210.3755  132.0822  133.6066 C   0  0  0  0  0  0  0  0  0  0  0  0
  211.4434  132.7527  134.1523 C   0  0  0  0  0  0  0  0  0  0  0  0
  211.2162  133.6935  135.1249 C   0  0  0  0  0  0  0  0  0  0  0  0
  209.9303  133.9452  135.5321 C   0  0  0  0  0  0  0  0  0  0  0  0
  205.0026  132.0320  135.8873 C   0  0  0  0  0  0  0  0  0  0  0  0
  204.0734  131.2709  136.1695 O   0  0  0  0  0  0  0  0  0  0  0  0
  205.6483  132.6551  136.9480 O   0  0  0  0  0  0  0  0  0  0  0  0
  205.2708  132.4073  138.3003 C   0  0  0  0  0  0  0  0  0  0  0  0
  1  2  1  1
  2  3  1  0
  3  4  1  0
  5  4  1  1
  5  6  1  0
  6  7  2  0
  7  8  1  0
  8  9  2  0
  9 10  1  0
 10 11  1  0
  9 12  1  0
 12 13  2  0
 13 14  1  0
 14 15  1  0
 16 14  1  6
 16 17  1  0
 17 18  1  1
 17 19  1  0
 19 20  1  1
 19 21  1  0
 21 22  1  6
 22 23  1  0
 21 24  1  0
 24 25  2  0
 25 26  1  0
 17 27  1  0
 27 28  1  0
 27 29  2  0
  8 30  1  0
 30 31  1  0
 32 31  1  1
 32 33  1  0
 33 34  1  0
 34 35  1  0
 35 36  1  0
 36 37  1  1
 36 38  1  0
 38 39  1  0
 36 40  1  0
 34 41  1  0
 41 42  1  0
 42 43  1  0
 43 44  2  0
 44 45  1  0
 45 46  1  0
 46 47  2  0
 47 48  1  0
 48 49  2  0
 49 50  1  0
 50 51  2  0
 30 52  1  1
 52 53  2  0
 52 54  1  0
 54 55  1  0
  5  1  1  0
 16  5  1  0
 44 30  1  0
 51 46  1  0
 21  1  1  0
 40 32  1  0
 47 43  1  0
 26  2  1  0
 13  6  1  0
M  END
$$$$
