
     RDKit          3D

 55 63  0  0  0  0  0  0  0  0999 V2000
  118.3906  166.5139  141.7946 C   0  0  2  0  0  0  0  0  0  0  0  0
  118.3079  167.8513  141.3122 N   0  0  0  0  0  0  0  0  0  0  0  0
  118.7138  168.7588  142.3716 C   0  0  0  0  0  0  0  0  0  0  0  0
  118.8015  167.9605  143.6268 C   0  0  0  0  0  0  0  0  0  0  0  0
  118.1645  166.6474  143.2490 C   0  0  1  0  0  0  0  0  0  0  0  0
  116.6865  166.8353  143.5086 C   0  0  0  0  0  0  0  0  0  0  0  0
  115.7557  167.6963  142.9657 C   0  0  0  0  0  0  0  0  0  0  0  0
  114.4351  167.7215  143.3443 C   0  0  0  0  0  0  0  0  0  0  0  0
  114.0781  166.8042  144.3326 C   0  0  0  0  0  0  0  0  0  0  0  0
  112.7773  166.7275  144.8030 O   0  0  0  0  0  0  0  0  0  0  0  0
  112.3920  165.9515  145.9046 C   0  0  0  0  0  0  0  0  0  0  0  0
  114.9865  165.9321  144.8920 C   0  0  0  0  0  0  0  0  0  0  0  0
  116.3023  165.9415  144.4824 C   0  0  0  0  0  0  0  0  0  0  0  0
  117.3950  165.1518  144.8995 N   0  0  0  0  0  0  0  0  0  0  0  0
  117.3597  164.1424  145.9218 C   0  0  0  0  0  0  0  0  0  0  0  0
  118.5581  165.5251  144.1297 C   0  0  1  0  0  0  0  0  0  0  0  0
  119.1881  164.3393  143.4841 C   0  0  2  0  0  0  0  0  0  0  0  0
  120.1339  163.8766  144.4542 O   0  0  0  0  0  0  0  0  0  0  0  0
  120.0074  164.6276  142.2825 C   0  0  2  0  0  0  0  0  0  0  0  0
  121.3447  164.9161  142.6668 O   0  0  0  0  0  0  0  0  0  0  0  0
  119.5099  165.6750  141.3367 C   0  0  1  0  0  0  0  0  0  0  0  0
  119.1050  164.9244  140.0458 C   0  0  0  0  0  0  0  0  0  0  0  0
  120.3363  164.1782  139.5222 C   0  0  0  0  0  0  0  0  0  0  0  0
  120.6866  166.4773  140.9230 C   0  0  0  0  0  0  0  0  0  0  0  0
  120.5199  167.6521  140.3618 C   0  0  0  0  0  0  0  0  0  0  0  0
  119.1325  168.1457  140.1594 C   0  0  0  0  0  0  0  0  0  0  0  0
  118.2472  163.1858  143.3277 C   0  0  0  0  0  0  0  0  0  0  0  0
  118.6683  161.8278  143.3178 N   0  0  0  0  0  0  0  0  0  0  0  0
  116.9847  163.3717  143.1915 O   0  0  0  0  0  0  0  0  0  0  0  0
  113.4123  168.6421  142.7580 C   0  0  1  0  0  0  0  0  0  0  0  0
  112.4237  168.9492  143.7565 C   0  0  0  0  0  0  0  0  0  0  0  0
  111.3177  169.8499  143.5138 C   0  0  1  0  0  0  0  0  0  0  0  0
  111.1633  170.4075  142.1375 C   0  0  0  0  0  0  0  0  0  0  0  0
  111.0087  171.8153  142.3827 N   0  0  0  0  0  0  0  0  0  0  0  0
  109.9314  171.8930  143.3622 C   0  0  0  0  0  0  0  0  0  0  0  0
  109.1001  170.6828  143.5842 C   0  0  2  0  0  0  0  0  0  0  0  0
  108.1411  170.4736  142.5660 O   0  0  0  0  0  0  0  0  0  0  0  0
  108.2401  170.9698  144.8009 C   0  0  0  0  0  0  0  0  0  0  0  0
  107.2751  172.0766  144.6235 C   0  0  0  0  0  0  0  0  0  0  0  0
  109.8932  169.3878  143.8531 C   0  0  0  0  0  0  0  0  0  0  0  0
  112.1387  172.4964  142.8569 C   0  0  0  0  0  0  0  0  0  0  0  0
  113.3826  171.8771  143.2818 C   0  0  0  0  0  0  0  0  0  0  0  0
  114.1629  171.0711  142.3280 C   0  0  0  0  0  0  0  0  0  0  0  0
  114.1765  169.7342  142.1338 C   0  0  0  0  0  0  0  0  0  0  0  0
  115.0711  169.4849  141.1516 N   0  0  0  0  0  0  0  0  0  0  0  0
  115.6455  170.5903  140.6883 C   0  0  0  0  0  0  0  0  0  0  0  0
  115.0896  171.6079  141.4144 C   0  0  0  0  0  0  0  0  0  0  0  0
  115.5248  172.8923  141.1198 C   0  0  0  0  0  0  0  0  0  0  0  0
  116.4649  173.1554  140.1531 C   0  0  0  0  0  0  0  0  0  0  0  0
  117.0035  172.1125  139.4424 C   0  0  0  0  0  0  0  0  0  0  0  0
  116.5933  170.8310  139.7106 C   0  0  0  0  0  0  0  0  0  0  0  0
  112.7247  167.8029  141.6938 C   0  0  0  0  0  0  0  0  0  0  0  0
  111.5408  167.9746  141.3915 O   0  0  0  0  0  0  0  0  0  0  0  0
  113.4082  166.8033  141.0127 O   0  0  0  0  0  0  0  0  0  0  0  0
  112.7510  165.9597  140.0696 C   0  0  0  0  0  0  0  0  0  0  0  0
  1  2  1  1
  2  3  1  0
  3  4  1  0
  5  4  1  1
  5  6  1  0
  6  7  2  0
  7  8  1  0
  8  9  2  0
  9 10  1  0
 10 11  1  0
  9 12  1  0
 12 13  2  0
 13 14  1  0
 14 15  1  0
 16 14  1  6
 16 17  1  0
 17 18  1  1
 17 19  1  0
 19 20  1  1
 19 21  1  0
 21 22  1  6
 22 23  1  0
 21 24  1  0
 24 25  2  0
 25 26  1  0
 17 27  1  0
 27 28  1  0
 27 29  2  0
  8 30  1  0
 30 31  1  0
 32 31  1  6
 32 33  1  0
 33 34  1  0
 34 35  1  0
 35 36  1  0
 36 37  1  6
 36 38  1  0
 38 39  1  0
 36 40  1  0
 34 41  1  0
 41 42  1  0
 42 43  1  0
 43 44  2  0
 44 45  1  0
 45 46  1  0
 46 47  2  0
 47 48  1  0
 48 49  2  0
 49 50  1  0
 50 51  2  0
 30 52  1  6
 52 53  2  0
 52 54  1  0
 54 55  1  0
  5  1  1  0
 16  5  1  0
 44 30  1  0
 51 46  1  0
 21  1  1  0
 40 32  1  0
 47 43  1  0
 26  2  1  0
 13  6  1  0
M  END
$$$$
