
     RDKit          3D

 55 63  0  0  0  0  0  0  0  0999 V2000
  132.4828  141.4013  127.6039 C   0  0  2  0  0  0  0  0  0  0  0  0
  132.9543  140.1622  127.0839 N   0  0  0  0  0  0  0  0  0  0  0  0
  131.8796  139.5242  126.3431 C   0  0  0  0  0  0  0  0  0  0  0  0
  130.6305  140.2812  126.6384 C   0  0  0  0  0  0  0  0  0  0  0  0
  131.0314  141.1832  127.7778 C   0  0  1  0  0  0  0  0  0  0  0  0
  130.7963  140.3677  129.0296 C   0  0  0  0  0  0  0  0  0  0  0  0
  131.3475  139.1861  129.4792 C   0  0  0  0  0  0  0  0  0  0  0  0
  130.9921  138.5860  130.6630 C   0  0  0  0  0  0  0  0  0  0  0  0
  130.0187  139.2553  131.4048 C   0  0  0  0  0  0  0  0  0  0  0  0
  129.5720  138.7555  132.6172 O   0  0  0  0  0  0  0  0  0  0  0  0
  128.7281  139.4599  133.4865 C   0  0  0  0  0  0  0  0  0  0  0  0
  129.4514  140.4371  130.9805 C   0  0  0  0  0  0  0  0  0  0  0  0
  129.8376  141.0040  129.7852 C   0  0  0  0  0  0  0  0  0  0  0  0
  129.4087  142.1924  129.1565 N   0  0  0  0  0  0  0  0  0  0  0  0
  128.3964  143.0852  129.6500 C   0  0  0  0  0  0  0  0  0  0  0  0
  130.1543  142.3651  127.9322 C   0  0  1  0  0  0  0  0  0  0  0  0
  130.7996  143.7066  127.8716 C   0  0  2  0  0  0  0  0  0  0  0  0
  129.8173  144.5369  127.2428 O   0  0  0  0  0  0  0  0  0  0  0  0
  131.9838  143.8051  126.9849 C   0  0  2  0  0  0  0  0  0  0  0  0
  131.5735  144.1308  125.6642 O   0  0  0  0  0  0  0  0  0  0  0  0
  132.9286  142.6450  126.9554 C   0  0  1  0  0  0  0  0  0  0  0  0
  134.2333  143.1422  127.6221 C   0  0  0  0  0  0  0  0  0  0  0  0
  134.8188  144.2577  126.7504 C   0  0  0  0  0  0  0  0  0  0  0  0
  133.3141  142.4381  125.5384 C   0  0  0  0  0  0  0  0  0  0  0  0
  133.8673  141.3084  125.1633 C   0  0  0  0  0  0  0  0  0  0  0  0
  134.0897  140.2575  126.1909 C   0  0  0  0  0  0  0  0  0  0  0  0
  130.9831  144.3322  129.2188 C   0  0  0  0  0  0  0  0  0  0  0  0
  130.3817  145.5632  129.5988 N   0  0  0  0  0  0  0  0  0  0  0  0
  131.7100  143.7741  130.1173 O   0  0  0  0  0  0  0  0  0  0  0  0
  131.5878  137.3104  131.1683 C   0  0  1  0  0  0  0  0  0  0  0  0
  132.6084  137.6144  132.1350 C   0  0  0  0  0  0  0  0  0  0  0  0
  133.3492  136.5918  132.8411 C   0  0  1  0  0  0  0  0  0  0  0  0
  133.0905  135.1675  132.4757 C   0  0  0  0  0  0  0  0  0  0  0  0
  132.8773  134.5471  133.7547 N   0  0  0  0  0  0  0  0  0  0  0  0
  134.0435  134.9331  134.5400 C   0  0  0  0  0  0  0  0  0  0  0  0
  135.2118  135.5033  133.8223 C   0  0  2  0  0  0  0  0  0  0  0  0
  135.9937  134.5233  133.1677 O   0  0  0  0  0  0  0  0  0  0  0  0
  136.1557  136.0287  134.8877 C   0  0  0  0  0  0  0  0  0  0  0  0
  136.6153  135.0104  135.8571 C   0  0  0  0  0  0  0  0  0  0  0  0
  134.8830  136.6627  132.8600 C   0  0  0  0  0  0  0  0  0  0  0  0
  131.7028  134.9003  134.4341 C   0  0  0  0  0  0  0  0  0  0  0  0
  130.7841  135.9555  134.0421 C   0  0  0  0  0  0  0  0  0  0  0  0
  130.1102  135.8918  132.7344 C   0  0  0  0  0  0  0  0  0  0  0  0
  130.4450  136.4696  131.5599 C   0  0  0  0  0  0  0  0  0  0  0  0
  129.4993  136.1176  130.6606 N   0  0  0  0  0  0  0  0  0  0  0  0
  128.5601  135.3358  131.1833 C   0  0  0  0  0  0  0  0  0  0  0  0
  128.9217  135.1770  132.4931 C   0  0  0  0  0  0  0  0  0  0  0  0
  128.0924  134.3865  133.2762 C   0  0  0  0  0  0  0  0  0  0  0  0
  126.9601  133.7828  132.7852 C   0  0  0  0  0  0  0  0  0  0  0  0
  126.6247  133.9619  131.4667 C   0  0  0  0  0  0  0  0  0  0  0  0
  127.4250  134.7381  130.6670 C   0  0  0  0  0  0  0  0  0  0  0  0
  132.2861  136.7208  129.9541 C   0  0  0  0  0  0  0  0  0  0  0  0
  131.7810  135.8137  129.2874 O   0  0  0  0  0  0  0  0  0  0  0  0
  133.5291  137.1854  129.5425 O   0  0  0  0  0  0  0  0  0  0  0  0
  134.2214  136.5926  128.4461 C   0  0  0  0  0  0  0  0  0  0  0  0
  1  2  1  6
  2  3  1  0
  3  4  1  0
  5  4  1  6
  5  6  1  0
  6  7  2  0
  7  8  1  0
  8  9  2  0
  9 10  1  0
 10 11  1  0
  9 12  1  0
 12 13  2  0
 13 14  1  0
 14 15  1  0
 16 14  1  1
 16 17  1  0
 17 18  1  6
 17 19  1  0
 19 20  1  6
 19 21  1  0
 21 22  1  1
 22 23  1  0
 21 24  1  0
 24 25  2  0
 25 26  1  0
 17 27  1  0
 27 28  1  0
 27 29  2  0
  8 30  1  0
 30 31  1  0
 32 31  1  6
 32 33  1  0
 33 34  1  0
 34 35  1  0
 35 36  1  0
 36 37  1  6
 36 38  1  0
 38 39  1  0
 36 40  1  0
 34 41  1  0
 41 42  1  0
 42 43  1  0
 43 44  2  0
 44 45  1  0
 45 46  1  0
 46 47  2  0
 47 48  1  0
 48 49  2  0
 49 50  1  0
 50 51  2  0
 30 52  1  6
 52 53  2  0
 52 54  1  0
 54 55  1  0
  5  1  1  0
 16  5  1  0
 44 30  1  0
 51 46  1  0
 21  1  1  0
 40 32  1  0
 47 43  1  0
 26  2  1  0
 13  6  1  0
M  END
$$$$
