
     RDKit          3D

 55 63  0  0  0  0  0  0  0  0999 V2000
  129.5869  143.8597  132.6956 C   0  0  2  0  0  0  0  0  0  0  0  0
  129.5358  143.1323  131.4723 N   0  0  0  0  0  0  0  0  0  0  0  0
  128.1644  143.1151  130.9929 C   0  0  0  0  0  0  0  0  0  0  0  0
  127.3053  143.6316  132.0954 C   0  0  0  0  0  0  0  0  0  0  0  0
  128.2412  143.6706  133.2766 C   0  0  1  0  0  0  0  0  0  0  0  0
  128.1544  142.2936  133.8959 C   0  0  0  0  0  0  0  0  0  0  0  0
  128.4653  141.0410  133.4095 C   0  0  0  0  0  0  0  0  0  0  0  0
  128.3076  139.8853  134.1357 C   0  0  0  0  0  0  0  0  0  0  0  0
  127.8037  140.0529  135.4255 C   0  0  0  0  0  0  0  0  0  0  0  0
  127.5975  138.9673  136.2610 O   0  0  0  0  0  0  0  0  0  0  0  0
  126.8468  139.0256  137.4429 C   0  0  0  0  0  0  0  0  0  0  0  0
  127.4853  141.2918  135.9375 C   0  0  0  0  0  0  0  0  0  0  0  0
  127.6590  142.4255  135.1734 C   0  0  0  0  0  0  0  0  0  0  0  0
  127.4121  143.7808  135.4796 N   0  0  0  0  0  0  0  0  0  0  0  0
  126.8637  144.2767  136.7120 C   0  0  0  0  0  0  0  0  0  0  0  0
  127.8006  144.5904  134.3490 C   0  0  1  0  0  0  0  0  0  0  0  0
  128.7436  145.6716  134.7511 C   0  0  2  0  0  0  0  0  0  0  0  0
  127.8897  146.7711  135.0853 O   0  0  0  0  0  0  0  0  0  0  0  0
  129.6102  146.1968  133.6689 C   0  0  2  0  0  0  0  0  0  0  0  0
  128.9500  147.2577  132.9924 O   0  0  0  0  0  0  0  0  0  0  0  0
  130.1541  145.2176  132.6767 C   0  0  1  0  0  0  0  0  0  0  0  0
  131.6778  145.1501  132.9374 C   0  0  0  0  0  0  0  0  0  0  0  0
  132.3246  146.3870  132.3062 C   0  0  0  0  0  0  0  0  0  0  0  0
  130.0535  145.8549  131.3414 C   0  0  0  0  0  0  0  0  0  0  0  0
  130.1482  145.1263  130.2538 C   0  0  0  0  0  0  0  0  0  0  0  0
  130.3549  143.6618  130.4026 C   0  0  0  0  0  0  0  0  0  0  0  0
  129.4624  145.3789  136.0308 C   0  0  0  0  0  0  0  0  0  0  0  0
  129.4847  146.2708  137.1379 N   0  0  0  0  0  0  0  0  0  0  0  0
  130.1091  144.2824  136.1941 O   0  0  0  0  0  0  0  0  0  0  0  0
  128.6493  138.5214  133.6255 C   0  0  1  0  0  0  0  0  0  0  0  0
  127.4906  137.9469  132.9963 C   0  0  0  0  0  0  0  0  0  0  0  0
  127.5057  136.6454  132.3646 C   0  0  1  0  0  0  0  0  0  0  0  0
  128.7612  135.8425  132.4547 C   0  0  0  0  0  0  0  0  0  0  0  0
  128.9817  135.4471  131.0905 N   0  0  0  0  0  0  0  0  0  0  0  0
  127.7185  134.8439  130.6828 C   0  0  0  0  0  0  0  0  0  0  0  0
  126.7385  134.4914  131.7413 C   0  0  2  0  0  0  0  0  0  0  0  0
  127.0692  133.3011  132.4299 O   0  0  0  0  0  0  0  0  0  0  0  0
  125.4516  134.1199  131.0286 C   0  0  0  0  0  0  0  0  0  0  0  0
  125.6412  133.5410  129.6807 C   0  0  0  0  0  0  0  0  0  0  0  0
  126.4231  135.6231  132.7403 C   0  0  0  0  0  0  0  0  0  0  0  0
  129.3397  136.4638  130.1938 C   0  0  0  0  0  0  0  0  0  0  0  0
  129.3355  137.8874  130.4842 C   0  0  0  0  0  0  0  0  0  0  0  0
  130.1893  138.4182  131.5600 C   0  0  0  0  0  0  0  0  0  0  0  0
  129.8881  138.6899  132.8488 C   0  0  0  0  0  0  0  0  0  0  0  0
  131.0112  139.1725  133.4257 N   0  0  0  0  0  0  0  0  0  0  0  0
  132.0368  139.2303  132.5823 C   0  0  0  0  0  0  0  0  0  0  0  0
  131.5452  138.7593  131.3957 C   0  0  0  0  0  0  0  0  0  0  0  0
  132.4319  138.7131  130.3292 C   0  0  0  0  0  0  0  0  0  0  0  0
  133.7418  139.1142  130.4335 C   0  0  0  0  0  0  0  0  0  0  0  0
  134.2043  139.5820  131.6377 C   0  0  0  0  0  0  0  0  0  0  0  0
  133.3514  139.6396  132.7110 C   0  0  0  0  0  0  0  0  0  0  0  0
  128.9202  137.7122  134.8831 C   0  0  0  0  0  0  0  0  0  0  0  0
  129.5956  138.1593  135.8139 O   0  0  0  0  0  0  0  0  0  0  0  0
  128.4119  136.4283  135.0362 O   0  0  0  0  0  0  0  0  0  0  0  0
  128.8179  135.5890  136.1149 C   0  0  0  0  0  0  0  0  0  0  0  0
  1  2  1  6
  2  3  1  0
  3  4  1  0
  5  4  1  6
  5  6  1  0
  6  7  2  0
  7  8  1  0
  8  9  2  0
  9 10  1  0
 10 11  1  0
  9 12  1  0
 12 13  2  0
 13 14  1  0
 14 15  1  0
 16 14  1  1
 16 17  1  0
 17 18  1  1
 17 19  1  0
 19 20  1  6
 19 21  1  0
 21 22  1  1
 22 23  1  0
 21 24  1  0
 24 25  2  0
 25 26  1  0
 17 27  1  0
 27 28  1  0
 27 29  2  0
  8 30  1  0
 30 31  1  0
 32 31  1  1
 32 33  1  0
 33 34  1  0
 34 35  1  0
 35 36  1  0
 36 37  1  1
 36 38  1  0
 38 39  1  0
 36 40  1  0
 34 41  1  0
 41 42  1  0
 42 43  1  0
 43 44  2  0
 44 45  1  0
 45 46  1  0
 46 47  2  0
 47 48  1  0
 48 49  2  0
 49 50  1  0
 50 51  2  0
 30 52  1  1
 52 53  2  0
 52 54  1  0
 54 55  1  0
  5  1  1  0
 16  5  1  0
 44 30  1  0
 51 46  1  0
 21  1  1  0
 40 32  1  0
 47 43  1  0
 26  2  1  0
 13  6  1  0
M  END
$$$$
