
     RDKit          3D

 55 63  0  0  0  0  0  0  0  0999 V2000
  127.1574  140.9253  134.0303 C   0  0  2  0  0  0  0  0  0  0  0  0
  127.1169  139.5342  134.3325 N   0  0  0  0  0  0  0  0  0  0  0  0
  127.9855  139.2746  135.4677 C   0  0  0  0  0  0  0  0  0  0  0  0
  128.7830  140.5108  135.7047 C   0  0  0  0  0  0  0  0  0  0  0  0
  128.4996  141.3471  134.4828 C   0  0  1  0  0  0  0  0  0  0  0  0
  129.5283  140.9166  133.4612 C   0  0  0  0  0  0  0  0  0  0  0  0
  129.7700  139.7050  132.8481 C   0  0  0  0  0  0  0  0  0  0  0  0
  130.7761  139.5056  131.9338 C   0  0  0  0  0  0  0  0  0  0  0  0
  131.5594  140.6250  131.6519 C   0  0  0  0  0  0  0  0  0  0  0  0
  132.6067  140.5575  130.7477 O   0  0  0  0  0  0  0  0  0  0  0  0
  132.9830  141.6171  129.9113 C   0  0  0  0  0  0  0  0  0  0  0  0
  131.3404  141.8474  132.2488 C   0  0  0  0  0  0  0  0  0  0  0  0
  130.3193  142.0025  133.1613 C   0  0  0  0  0  0  0  0  0  0  0  0
  129.9065  143.1409  133.8861 N   0  0  0  0  0  0  0  0  0  0  0  0
  130.5281  144.4359  133.8412 C   0  0  0  0  0  0  0  0  0  0  0  0
  128.7547  142.7911  134.6834 C   0  0  1  0  0  0  0  0  0  0  0  0
  127.6195  143.7249  134.4404 C   0  0  2  0  0  0  0  0  0  0  0  0
  127.8133  144.7660  135.4039 O   0  0  0  0  0  0  0  0  0  0  0  0
  126.2732  143.1861  134.7495 C   0  0  2  0  0  0  0  0  0  0  0  0
  125.9572  143.4272  136.1137 O   0  0  0  0  0  0  0  0  0  0  0  0
  126.0016  141.7551  134.4068 C   0  0  1  0  0  0  0  0  0  0  0  0
  124.9791  141.7826  133.2459 C   0  0  0  0  0  0  0  0  0  0  0  0
  123.6287  142.2347  133.8107 C   0  0  0  0  0  0  0  0  0  0  0  0
  125.2347  141.1783  135.5376 C   0  0  0  0  0  0  0  0  0  0  0  0
  125.1355  139.8764  135.6716 C   0  0  0  0  0  0  0  0  0  0  0  0
  125.8093  139.0114  134.6678 C   0  0  0  0  0  0  0  0  0  0  0  0
  127.7136  144.4354  133.1265 C   0  0  0  0  0  0  0  0  0  0  0  0
  127.6186  145.8477  132.9916 N   0  0  0  0  0  0  0  0  0  0  0  0
  127.8885  143.7884  132.0320 O   0  0  0  0  0  0  0  0  0  0  0  0
  131.0442  138.2008  131.2535 C   0  0  1  0  0  0  0  0  0  0  0  0
  129.9469  137.3041  131.4992 C   0  0  0  0  0  0  0  0  0  0  0  0
  129.8843  135.9703  130.9423 C   0  0  1  0  0  0  0  0  0  0  0  0
  131.0569  135.4901  130.1526 C   0  0  0  0  0  0  0  0  0  0  0  0
  130.4449  134.9849  128.9542 N   0  0  0  0  0  0  0  0  0  0  0  0
  129.4207  134.0650  129.4343 C   0  0  0  0  0  0  0  0  0  0  0  0
  129.4759  133.6374  130.8554 C   0  0  2  0  0  0  0  0  0  0  0  0
  130.4585  132.6500  131.1002 O   0  0  0  0  0  0  0  0  0  0  0  0
  128.1806  132.8972  131.1317 C   0  0  0  0  0  0  0  0  0  0  0  0
  127.8394  132.7709  132.5654 C   0  0  0  0  0  0  0  0  0  0  0  0
  129.5985  134.7860  131.8771 C   0  0  0  0  0  0  0  0  0  0  0  0
  129.8732  135.9338  128.0949 C   0  0  0  0  0  0  0  0  0  0  0  0
  129.6944  137.3447  128.3924 C   0  0  0  0  0  0  0  0  0  0  0  0
  130.8672  138.1870  128.6811 C   0  0  0  0  0  0  0  0  0  0  0  0
  131.4037  138.5449  129.8683 C   0  0  0  0  0  0  0  0  0  0  0  0
  132.4651  139.3382  129.6012 N   0  0  0  0  0  0  0  0  0  0  0  0
  132.6554  139.5187  128.2982 C   0  0  0  0  0  0  0  0  0  0  0  0
  131.6594  138.8020  127.6933 C   0  0  0  0  0  0  0  0  0  0  0  0
  131.6326  138.8224  126.3059 C   0  0  0  0  0  0  0  0  0  0  0  0
  132.5481  139.5191  125.5548 C   0  0  0  0  0  0  0  0  0  0  0  0
  133.5350  140.2283  126.1919 C   0  0  0  0  0  0  0  0  0  0  0  0
  133.5877  140.2275  127.5630 C   0  0  0  0  0  0  0  0  0  0  0  0
  132.2504  137.6403  131.9887 C   0  0  0  0  0  0  0  0  0  0  0  0
  133.0505  136.8762  131.4424 O   0  0  0  0  0  0  0  0  0  0  0  0
  132.5027  137.9708  133.3144 O   0  0  0  0  0  0  0  0  0  0  0  0
  133.6957  137.5522  133.9734 C   0  0  0  0  0  0  0  0  0  0  0  0
  1  2  1  1
  2  3  1  0
  3  4  1  0
  5  4  1  1
  5  6  1  0
  6  7  2  0
  7  8  1  0
  8  9  2  0
  9 10  1  0
 10 11  1  0
  9 12  1  0
 12 13  2  0
 13 14  1  0
 14 15  1  0
 16 14  1  6
 16 17  1  0
 17 18  1  1
 17 19  1  0
 19 20  1  1
 19 21  1  0
 21 22  1  6
 22 23  1  0
 21 24  1  0
 24 25  2  0
 25 26  1  0
 17 27  1  0
 27 28  1  0
 27 29  2  0
  8 30  1  0
 30 31  1  0
 32 31  1  1
 32 33  1  0
 33 34  1  0
 34 35  1  0
 35 36  1  0
 36 37  1  6
 36 38  1  0
 38 39  1  0
 36 40  1  0
 34 41  1  0
 41 42  1  0
 42 43  1  0
 43 44  2  0
 44 45  1  0
 45 46  1  0
 46 47  2  0
 47 48  1  0
 48 49  2  0
 49 50  1  0
 50 51  2  0
 30 52  1  1
 52 53  2  0
 52 54  1  0
 54 55  1  0
  5  1  1  0
 16  5  1  0
 44 30  1  0
 51 46  1  0
 21  1  1  0
 40 32  1  0
 47 43  1  0
 26  2  1  0
 13  6  1  0
M  END
$$$$
