
     RDKit          3D

 55 63  0  0  0  0  0  0  0  0999 V2000
  136.0363  160.6712  159.7189 C   0  0  2  0  0  0  0  0  0  0  0  0
  135.4763  161.9115  159.2990 N   0  0  0  0  0  0  0  0  0  0  0  0
  134.8522  161.7293  157.9997 C   0  0  0  0  0  0  0  0  0  0  0  0
  135.2702  160.3917  157.4933 C   0  0  0  0  0  0  0  0  0  0  0  0
  136.3587  159.9813  158.4523 C   0  0  1  0  0  0  0  0  0  0  0  0
  137.6316  160.5621  157.8782 C   0  0  0  0  0  0  0  0  0  0  0  0
  138.0277  161.8611  157.6378 C   0  0  0  0  0  0  0  0  0  0  0  0
  139.2443  162.1941  157.0930 C   0  0  0  0  0  0  0  0  0  0  0  0
  140.0788  161.1183  156.7894 C   0  0  0  0  0  0  0  0  0  0  0  0
  141.3327  161.3181  156.2354 O   0  0  0  0  0  0  0  0  0  0  0  0
  142.2387  160.2836  155.9655 C   0  0  0  0  0  0  0  0  0  0  0  0
  139.7095  159.8109  157.0193 C   0  0  0  0  0  0  0  0  0  0  0  0
  138.4785  159.5223  157.5675 C   0  0  0  0  0  0  0  0  0  0  0  0
  137.8916  158.2810  157.8937 N   0  0  0  0  0  0  0  0  0  0  0  0
  138.4821  156.9894  157.6737 C   0  0  0  0  0  0  0  0  0  0  0  0
  136.5967  158.5210  158.4856 C   0  0  1  0  0  0  0  0  0  0  0  0
  136.4644  157.8377  159.8029 C   0  0  2  0  0  0  0  0  0  0  0  0
  135.9357  156.5484  159.4743 O   0  0  0  0  0  0  0  0  0  0  0  0
  135.4608  158.4205  160.7256 C   0  0  2  0  0  0  0  0  0  0  0  0
  134.1875  157.8370  160.4865 O   0  0  0  0  0  0  0  0  0  0  0  0
  135.3400  159.9114  160.7696 C   0  0  1  0  0  0  0  0  0  0  0  0
  135.8675  160.3399  162.1596 C   0  0  0  0  0  0  0  0  0  0  0  0
  134.9392  159.7480  163.2249 C   0  0  0  0  0  0  0  0  0  0  0  0
  133.8919  160.2256  160.8305 C   0  0  0  0  0  0  0  0  0  0  0  0
  133.4673  161.4364  160.5537 C   0  0  0  0  0  0  0  0  0  0  0  0
  134.4714  162.4671  160.1806 C   0  0  0  0  0  0  0  0  0  0  0  0
  137.7830  157.5286  160.4400 C   0  0  0  0  0  0  0  0  0  0  0  0
  138.1731  156.2203  160.8370 N   0  0  0  0  0  0  0  0  0  0  0  0
  138.6456  158.4521  160.6642 O   0  0  0  0  0  0  0  0  0  0  0  0
  139.6917  163.5980  156.8356 C   0  0  1  0  0  0  0  0  0  0  0  0
  141.1239  163.6226  156.7063 C   0  0  0  0  0  0  0  0  0  0  0  0
  141.8641  164.8306  156.4129 C   0  0  1  0  0  0  0  0  0  0  0  0
  141.1012  166.1113  156.3296 C   0  0  0  0  0  0  0  0  0  0  0  0
  141.5590  166.6712  155.0875 N   0  0  0  0  0  0  0  0  0  0  0  0
  143.0126  166.6555  155.2005 C   0  0  0  0  0  0  0  0  0  0  0  0
  143.6069  166.4314  156.5428 C   0  0  2  0  0  0  0  0  0  0  0  0
  143.5688  167.5811  157.3657 O   0  0  0  0  0  0  0  0  0  0  0  0
  145.0940  166.2242  156.3248 C   0  0  0  0  0  0  0  0  0  0  0  0
  145.8127  165.6614  157.4887 C   0  0  0  0  0  0  0  0  0  0  0  0
  143.0587  165.2059  157.3017 C   0  0  0  0  0  0  0  0  0  0  0  0
  141.1613  166.0088  153.9176 C   0  0  0  0  0  0  0  0  0  0  0  0
  140.4830  164.7251  153.8618 C   0  0  0  0  0  0  0  0  0  0  0  0
  139.1674  164.5631  154.5028 C   0  0  0  0  0  0  0  0  0  0  0  0
  138.8546  164.0814  155.7258 C   0  0  0  0  0  0  0  0  0  0  0  0
  137.5083  164.1258  155.8374 N   0  0  0  0  0  0  0  0  0  0  0  0
  136.9193  164.6142  154.7507 C   0  0  0  0  0  0  0  0  0  0  0  0
  137.9448  164.8990  153.8911 C   0  0  0  0  0  0  0  0  0  0  0  0
  137.5941  165.4332  152.6592 C   0  0  0  0  0  0  0  0  0  0  0  0
  136.2907  165.6734  152.2969 C   0  0  0  0  0  0  0  0  0  0  0  0
  135.2849  165.3767  153.1819 C   0  0  0  0  0  0  0  0  0  0  0  0
  135.6001  164.8474  154.4079 C   0  0  0  0  0  0  0  0  0  0  0  0
  139.3477  164.3377  158.1179 C   0  0  0  0  0  0  0  0  0  0  0  0
  140.2093  164.9035  158.7960 O   0  0  0  0  0  0  0  0  0  0  0  0
  138.0390  164.4082  158.5791 O   0  0  0  0  0  0  0  0  0  0  0  0
  137.7350  164.8717  159.8927 C   0  0  0  0  0  0  0  0  0  0  0  0
  1  2  1  6
  2  3  1  0
  3  4  1  0
  5  4  1  6
  5  6  1  0
  6  7  2  0
  7  8  1  0
  8  9  2  0
  9 10  1  0
 10 11  1  0
  9 12  1  0
 12 13  2  0
 13 14  1  0
 14 15  1  0
 16 14  1  1
 16 17  1  0
 17 18  1  6
 17 19  1  0
 19 20  1  6
 19 21  1  0
 21 22  1  1
 22 23  1  0
 21 24  1  0
 24 25  2  0
 25 26  1  0
 17 27  1  0
 27 28  1  0
 27 29  2  0
  8 30  1  0
 30 31  1  0
 32 31  1  1
 32 33  1  0
 33 34  1  0
 34 35  1  0
 35 36  1  0
 36 37  1  1
 36 38  1  0
 38 39  1  0
 36 40  1  0
 34 41  1  0
 41 42  1  0
 42 43  1  0
 43 44  2  0
 44 45  1  0
 45 46  1  0
 46 47  2  0
 47 48  1  0
 48 49  2  0
 49 50  1  0
 50 51  2  0
 30 52  1  1
 52 53  2  0
 52 54  1  0
 54 55  1  0
  5  1  1  0
 16  5  1  0
 44 30  1  0
 51 46  1  0
 21  1  1  0
 40 32  1  0
 47 43  1  0
 26  2  1  0
 13  6  1  0
M  END
$$$$
