
     RDKit          3D

 55 63  0  0  0  0  0  0  0  0999 V2000
  187.6026  162.5950  137.3755 C   0  0  2  0  0  0  0  0  0  0  0  0
  187.5610  163.1981  138.6649 N   0  0  0  0  0  0  0  0  0  0  0  0
  188.0893  162.2594  139.6398 C   0  0  0  0  0  0  0  0  0  0  0  0
  188.2195  160.9412  138.9574 C   0  0  0  0  0  0  0  0  0  0  0  0
  187.4857  161.1489  137.6569 C   0  0  1  0  0  0  0  0  0  0  0  0
  186.0420  160.8149  137.9594 C   0  0  0  0  0  0  0  0  0  0  0  0
  185.1252  161.3778  138.8223 C   0  0  0  0  0  0  0  0  0  0  0  0
  183.8375  160.9199  138.9642 C   0  0  0  0  0  0  0  0  0  0  0  0
  183.4995  159.8268  138.1664 C   0  0  0  0  0  0  0  0  0  0  0  0
  182.2323  159.2691  138.2143 O   0  0  0  0  0  0  0  0  0  0  0  0
  181.8735  158.0920  137.5437 C   0  0  0  0  0  0  0  0  0  0  0  0
  184.3946  159.2449  137.2953 C   0  0  0  0  0  0  0  0  0  0  0  0
  185.6773  159.7367  137.1852 C   0  0  0  0  0  0  0  0  0  0  0  0
  186.7507  159.3159  136.3713 N   0  0  0  0  0  0  0  0  0  0  0  0
  186.7304  158.2006  135.4651 C   0  0  0  0  0  0  0  0  0  0  0  0
  187.8765  160.1908  136.5988 C   0  0  1  0  0  0  0  0  0  0  0  0
  188.3932  160.7578  135.3216 C   0  0  2  0  0  0  0  0  0  0  0  0
  189.3769  159.8098  134.8931 O   0  0  0  0  0  0  0  0  0  0  0  0
  189.1419  162.0314  135.4460 C   0  0  2  0  0  0  0  0  0  0  0  0
  190.5165  161.7630  135.6854 O   0  0  0  0  0  0  0  0  0  0  0  0
  188.6389  163.0403  136.4301 C   0  0  1  0  0  0  0  0  0  0  0  0
  188.1042  164.2241  135.5895 C   0  0  0  0  0  0  0  0  0  0  0  0
  189.3033  164.9482  134.9691 C   0  0  0  0  0  0  0  0  0  0  0  0
  189.8268  163.6039  137.1160 C   0  0  0  0  0  0  0  0  0  0  0  0
  189.6872  164.2641  138.2418 C   0  0  0  0  0  0  0  0  0  0  0  0
  188.3186  164.4243  138.7996 C   0  0  0  0  0  0  0  0  0  0  0  0
  187.3810  160.7415  134.2191 C   0  0  0  0  0  0  0  0  0  0  0  0
  187.6515  160.2431  132.9153 N   0  0  0  0  0  0  0  0  0  0  0  0
  186.1917  161.1879  134.4021 O   0  0  0  0  0  0  0  0  0  0  0  0
  182.8293  161.5258  139.8882 C   0  0  1  0  0  0  0  0  0  0  0  0
  183.3063  162.8068  140.3356 C   0  0  0  0  0  0  0  0  0  0  0  0
  182.5402  163.6666  141.2114 C   0  0  1  0  0  0  0  0  0  0  0  0
  181.2400  163.1491  141.7318 C   0  0  0  0  0  0  0  0  0  0  0  0
  180.3355  164.2310  141.4538 N   0  0  0  0  0  0  0  0  0  0  0  0
  180.9813  165.3989  142.0410 C   0  0  0  0  0  0  0  0  0  0  0  0
  182.1042  165.1751  142.9866 C   0  0  2  0  0  0  0  0  0  0  0  0
  181.6747  164.7813  144.2753 O   0  0  0  0  0  0  0  0  0  0  0  0
  182.7281  166.5344  143.2419 C   0  0  0  0  0  0  0  0  0  0  0  0
  184.0825  166.4869  143.8345 C   0  0  0  0  0  0  0  0  0  0  0  0
  183.2094  164.2297  142.4736 C   0  0  0  0  0  0  0  0  0  0  0  0
  180.0435  164.4720  140.1038 C   0  0  0  0  0  0  0  0  0  0  0  0
  180.7028  163.8448  138.9711 C   0  0  0  0  0  0  0  0  0  0  0  0
  180.6492  162.3821  138.8101 C   0  0  0  0  0  0  0  0  0  0  0  0
  181.5422  161.4380  139.1796 C   0  0  0  0  0  0  0  0  0  0  0  0
  181.0381  160.2435  138.7973 N   0  0  0  0  0  0  0  0  0  0  0  0
  179.8576  160.3535  138.1967 C   0  0  0  0  0  0  0  0  0  0  0  0
  179.5878  161.6947  138.1914 C   0  0  0  0  0  0  0  0  0  0  0  0
  178.3892  162.0861  137.6118 C   0  0  0  0  0  0  0  0  0  0  0  0
  177.5013  161.1920  137.0641 C   0  0  0  0  0  0  0  0  0  0  0  0
  177.8014  159.8532  137.0852 C   0  0  0  0  0  0  0  0  0  0  0  0
  178.9792  159.4352  137.6514 C   0  0  0  0  0  0  0  0  0  0  0  0
  182.8315  160.6033  141.0959 C   0  0  0  0  0  0  0  0  0  0  0  0
  181.7882  160.1450  141.5689 O   0  0  0  0  0  0  0  0  0  0  0  0
  184.0180  160.2350  141.7180 O   0  0  0  0  0  0  0  0  0  0  0  0
  184.1112  159.0492  142.5041 C   0  0  0  0  0  0  0  0  0  0  0  0
  1  2  1  1
  2  3  1  0
  3  4  1  0
  5  4  1  1
  5  6  1  0
  6  7  2  0
  7  8  1  0
  8  9  2  0
  9 10  1  0
 10 11  1  0
  9 12  1  0
 12 13  2  0
 13 14  1  0
 14 15  1  0
 16 14  1  6
 16 17  1  0
 17 18  1  6
 17 19  1  0
 19 20  1  1
 19 21  1  0
 21 22  1  6
 22 23  1  0
 21 24  1  0
 24 25  2  0
 25 26  1  0
 17 27  1  0
 27 28  1  0
 27 29  2  0
  8 30  1  0
 30 31  1  0
 32 31  1  1
 32 33  1  0
 33 34  1  0
 34 35  1  0
 35 36  1  0
 36 37  1  1
 36 38  1  0
 38 39  1  0
 36 40  1  0
 34 41  1  0
 41 42  1  0
 42 43  1  0
 43 44  2  0
 44 45  1  0
 45 46  1  0
 46 47  2  0
 47 48  1  0
 48 49  2  0
 49 50  1  0
 50 51  2  0
 30 52  1  1
 52 53  2  0
 52 54  1  0
 54 55  1  0
  5  1  1  0
 16  5  1  0
 44 30  1  0
 51 46  1  0
 21  1  1  0
 40 32  1  0
 47 43  1  0
 26  2  1  0
 13  6  1  0
M  END
$$$$
