
     RDKit          3D

 55 63  0  0  0  0  0  0  0  0999 V2000
  128.1927  141.4212  134.6031 C   0  0  2  0  0  0  0  0  0  0  0  0
  128.7978  140.2132  135.0532 N   0  0  0  0  0  0  0  0  0  0  0  0
  130.1143  140.5177  135.5870 C   0  0  0  0  0  0  0  0  0  0  0  0
  130.4265  141.9261  135.2139 C   0  0  0  0  0  0  0  0  0  0  0  0
  129.3401  142.2739  134.2282 C   0  0  1  0  0  0  0  0  0  0  0  0
  129.8707  141.8325  132.8825 C   0  0  0  0  0  0  0  0  0  0  0  0
  130.2262  140.5937  132.3911 C   0  0  0  0  0  0  0  0  0  0  0  0
  130.7037  140.3916  131.1187 C   0  0  0  0  0  0  0  0  0  0  0  0
  130.8111  141.5375  130.3306 C   0  0  0  0  0  0  0  0  0  0  0  0
  131.2793  141.4705  129.0285 O   0  0  0  0  0  0  0  0  0  0  0  0
  131.4351  142.5887  128.1983 C   0  0  0  0  0  0  0  0  0  0  0  0
  130.4629  142.7872  130.7950 C   0  0  0  0  0  0  0  0  0  0  0  0
  129.9883  142.9441  132.0793 C   0  0  0  0  0  0  0  0  0  0  0  0
  129.5703  144.1054  132.7636 N   0  0  0  0  0  0  0  0  0  0  0  0
  129.5901  145.4428  132.2378 C   0  0  0  0  0  0  0  0  0  0  0  0
  129.1188  143.7299  134.0826 C   0  0  1  0  0  0  0  0  0  0  0  0
  127.7467  144.2424  134.3556 C   0  0  2  0  0  0  0  0  0  0  0  0
  127.9666  145.5329  134.9353 O   0  0  0  0  0  0  0  0  0  0  0  0
  126.9834  143.5022  135.3889 C   0  0  2  0  0  0  0  0  0  0  0  0
  127.2575  144.0439  136.6735 O   0  0  0  0  0  0  0  0  0  0  0  0
  127.1221  142.0126  135.4219 C   0  0  1  0  0  0  0  0  0  0  0  0
  125.7523  141.4481  134.9760 C   0  0  0  0  0  0  0  0  0  0  0  0
  125.1596  140.6562  136.1459 C   0  0  0  0  0  0  0  0  0  0  0  0
  127.2175  141.6192  136.8486 C   0  0  0  0  0  0  0  0  0  0  0  0
  127.6664  140.4303  137.1766 C   0  0  0  0  0  0  0  0  0  0  0  0
  128.0722  139.5049  136.0863 C   0  0  0  0  0  0  0  0  0  0  0  0
  126.9718  144.5402  133.1103 C   0  0  0  0  0  0  0  0  0  0  0  0
  126.1765  145.7070  132.9433 N   0  0  0  0  0  0  0  0  0  0  0  0
  126.9879  143.7371  132.1093 O   0  0  0  0  0  0  0  0  0  0  0  0
  131.0838  139.0537  130.5686 C   0  0  1  0  0  0  0  0  0  0  0  0
  130.8476  139.0402  129.1499 C   0  0  0  0  0  0  0  0  0  0  0  0
  131.1528  137.8988  128.3149 C   0  0  1  0  0  0  0  0  0  0  0  0
  131.6529  136.6612  128.9837 C   0  0  0  0  0  0  0  0  0  0  0  0
  132.8171  136.3314  128.2078 N   0  0  0  0  0  0  0  0  0  0  0  0
  132.3378  136.3136  126.8309 C   0  0  0  0  0  0  0  0  0  0  0  0
  130.8708  136.2856  126.6018 C   0  0  2  0  0  0  0  0  0  0  0  0
  130.3020  135.0063  126.8022 O   0  0  0  0  0  0  0  0  0  0  0  0
  130.6637  136.5157  125.1165 C   0  0  0  0  0  0  0  0  0  0  0  0
  130.7281  137.9335  124.6999 C   0  0  0  0  0  0  0  0  0  0  0  0
  130.0710  137.3582  127.3687 C   0  0  0  0  0  0  0  0  0  0  0  0
  133.9130  137.1983  128.3234 C   0  0  0  0  0  0  0  0  0  0  0  0
  133.9105  138.4768  129.0137 C   0  0  0  0  0  0  0  0  0  0  0  0
  133.6062  138.5316  130.4533 C   0  0  0  0  0  0  0  0  0  0  0  0
  132.4374  138.7867  131.0812 C   0  0  0  0  0  0  0  0  0  0  0  0
  132.6809  138.7347  132.4097 N   0  0  0  0  0  0  0  0  0  0  0  0
  133.9504  138.4564  132.6880 C   0  0  0  0  0  0  0  0  0  0  0  0
  134.5579  138.3230  131.4695 C   0  0  0  0  0  0  0  0  0  0  0  0
  135.9130  138.0238  131.4791 C   0  0  0  0  0  0  0  0  0  0  0  0
  136.6310  137.8646  132.6396 C   0  0  0  0  0  0  0  0  0  0  0  0
  135.9923  138.0051  133.8459 C   0  0  0  0  0  0  0  0  0  0  0  0
  134.6527  138.3008  133.8690 C   0  0  0  0  0  0  0  0  0  0  0  0
  130.0832  138.0970  131.1956 C   0  0  0  0  0  0  0  0  0  0  0  0
  128.9126  138.4241  131.4081 O   0  0  0  0  0  0  0  0  0  0  0  0
  130.4496  136.8059  131.5549 O   0  0  0  0  0  0  0  0  0  0  0  0
  129.8179  136.1249  132.6366 C   0  0  0  0  0  0  0  0  0  0  0  0
  1  2  1  1
  2  3  1  0
  3  4  1  0
  5  4  1  1
  5  6  1  0
  6  7  2  0
  7  8  1  0
  8  9  2  0
  9 10  1  0
 10 11  1  0
  9 12  1  0
 12 13  2  0
 13 14  1  0
 14 15  1  0
 16 14  1  6
 16 17  1  0
 17 18  1  1
 17 19  1  0
 19 20  1  1
 19 21  1  0
 21 22  1  6
 22 23  1  0
 21 24  1  0
 24 25  2  0
 25 26  1  0
 17 27  1  0
 27 28  1  0
 27 29  2  0
  8 30  1  0
 30 31  1  0
 32 31  1  1
 32 33  1  0
 33 34  1  0
 34 35  1  0
 35 36  1  0
 36 37  1  1
 36 38  1  0
 38 39  1  0
 36 40  1  0
 34 41  1  0
 41 42  1  0
 42 43  1  0
 43 44  2  0
 44 45  1  0
 45 46  1  0
 46 47  2  0
 47 48  1  0
 48 49  2  0
 49 50  1  0
 50 51  2  0
 30 52  1  1
 52 53  2  0
 52 54  1  0
 54 55  1  0
  5  1  1  0
 16  5  1  0
 44 30  1  0
 51 46  1  0
 21  1  1  0
 40 32  1  0
 47 43  1  0
 26  2  1  0
 13  6  1  0
M  END
$$$$
