
     RDKit          3D

 55 63  0  0  0  0  0  0  0  0999 V2000
  127.4954  141.7327  134.6712 C   0  0  2  0  0  0  0  0  0  0  0  0
  127.3330  140.4663  135.3020 N   0  0  0  0  0  0  0  0  0  0  0  0
  128.3485  140.3202  136.3307 C   0  0  0  0  0  0  0  0  0  0  0  0
  129.3254  141.4302  136.1469 C   0  0  0  0  0  0  0  0  0  0  0  0
  128.9389  142.0164  134.8128 C   0  0  1  0  0  0  0  0  0  0  0  0
  129.7079  141.2116  133.7891 C   0  0  0  0  0  0  0  0  0  0  0  0
  129.6821  139.8730  133.4577 C   0  0  0  0  0  0  0  0  0  0  0  0
  130.4773  139.3176  132.4846 C   0  0  0  0  0  0  0  0  0  0  0  0
  131.3338  140.2050  131.8328 C   0  0  0  0  0  0  0  0  0  0  0  0
  132.1878  139.7719  130.8317 O   0  0  0  0  0  0  0  0  0  0  0  0
  133.4571  140.3190  130.6001 C   0  0  0  0  0  0  0  0  0  0  0  0
  131.3804  141.5467  132.1428 C   0  0  0  0  0  0  0  0  0  0  0  0
  130.5646  142.0616  133.1270 C   0  0  0  0  0  0  0  0  0  0  0  0
  130.4339  143.3821  133.6075 N   0  0  0  0  0  0  0  0  0  0  0  0
  131.1968  144.5164  133.1640 C   0  0  0  0  0  0  0  0  0  0  0  0
  129.4062  143.4075  134.6213 C   0  0  1  0  0  0  0  0  0  0  0  0
  128.3735  144.4398  134.3250 C   0  0  2  0  0  0  0  0  0  0  0  0
  128.8648  145.6189  134.9716 O   0  0  0  0  0  0  0  0  0  0  0  0
  127.0458  144.2094  134.9433 C   0  0  2  0  0  0  0  0  0  0  0  0
  127.0089  144.7892  136.2399 O   0  0  0  0  0  0  0  0  0  0  0  0
  126.5388  142.8026  134.9976 C   0  0  1  0  0  0  0  0  0  0  0  0
  125.3392  142.7450  134.0221 C   0  0  0  0  0  0  0  0  0  0  0  0
  124.7207  144.1445  133.9441 C   0  0  0  0  0  0  0  0  0  0  0  0
  125.9170  142.6188  136.3313 C   0  0  0  0  0  0  0  0  0  0  0  0
  125.6789  141.4114  136.7876 C   0  0  0  0  0  0  0  0  0  0  0  0
  126.0496  140.2506  135.9362 C   0  0  0  0  0  0  0  0  0  0  0  0
  128.3233  144.8230  132.8790 C   0  0  0  0  0  0  0  0  0  0  0  0
  128.4105  146.1664  132.4216 N   0  0  0  0  0  0  0  0  0  0  0  0
  128.1957  143.9359  131.9604 O   0  0  0  0  0  0  0  0  0  0  0  0
  130.4535  137.8704  132.1074 C   0  0  1  0  0  0  0  0  0  0  0  0
  131.5894  137.2097  132.6920 C   0  0  0  0  0  0  0  0  0  0  0  0
  131.8317  135.7908  132.5465 C   0  0  1  0  0  0  0  0  0  0  0  0
  130.9004  135.0110  131.6784 C   0  0  0  0  0  0  0  0  0  0  0  0
  130.5519  133.8937  132.5128 N   0  0  0  0  0  0  0  0  0  0  0  0
  131.8357  133.3481  132.9370 C   0  0  0  0  0  0  0  0  0  0  0  0
  133.0556  133.7887  132.2139 C   0  0  2  0  0  0  0  0  0  0  0  0
  133.2164  133.1560  130.9593 O   0  0  0  0  0  0  0  0  0  0  0  0
  134.2379  133.2649  133.0076 C   0  0  0  0  0  0  0  0  0  0  0  0
  134.3855  131.7932  132.9904 C   0  0  0  0  0  0  0  0  0  0  0  0
  133.2130  135.3163  132.0722 C   0  0  0  0  0  0  0  0  0  0  0  0
  129.7553  134.1725  133.6323 C   0  0  0  0  0  0  0  0  0  0  0  0
  129.4038  135.4987  134.1108 C   0  0  0  0  0  0  0  0  0  0  0  0
  128.6503  136.4160  133.2396 C   0  0  0  0  0  0  0  0  0  0  0  0
  129.0962  137.4012  132.4297 C   0  0  0  0  0  0  0  0  0  0  0  0
  128.0103  137.9625  131.8526 N   0  0  0  0  0  0  0  0  0  0  0  0
  126.8726  137.3952  132.2403 C   0  0  0  0  0  0  0  0  0  0  0  0
  127.2480  136.4144  133.1170 C   0  0  0  0  0  0  0  0  0  0  0  0
  126.2289  135.6565  133.6764 C   0  0  0  0  0  0  0  0  0  0  0  0
  124.9026  135.8607  133.3814 C   0  0  0  0  0  0  0  0  0  0  0  0
  124.5589  136.8528  132.4980 C   0  0  0  0  0  0  0  0  0  0  0  0
  125.5442  137.6191  131.9282 C   0  0  0  0  0  0  0  0  0  0  0  0
  130.6673  137.8759  130.6028 C   0  0  0  0  0  0  0  0  0  0  0  0
  131.4601  138.6493  130.0591 O   0  0  0  0  0  0  0  0  0  0  0  0
  129.9746  137.0016  129.7742 O   0  0  0  0  0  0  0  0  0  0  0  0
  128.8016  137.4095  129.0737 C   0  0  0  0  0  0  0  0  0  0  0  0
  1  2  1  1
  2  3  1  0
  3  4  1  0
  5  4  1  1
  5  6  1  0
  6  7  2  0
  7  8  1  0
  8  9  2  0
  9 10  1  0
 10 11  1  0
  9 12  1  0
 12 13  2  0
 13 14  1  0
 14 15  1  0
 16 14  1  6
 16 17  1  0
 17 18  1  1
 17 19  1  0
 19 20  1  1
 19 21  1  0
 21 22  1  6
 22 23  1  0
 21 24  1  0
 24 25  2  0
 25 26  1  0
 17 27  1  0
 27 28  1  0
 27 29  2  0
  8 30  1  0
 30 31  1  0
 32 31  1  6
 32 33  1  0
 33 34  1  0
 34 35  1  0
 35 36  1  0
 36 37  1  6
 36 38  1  0
 38 39  1  0
 36 40  1  0
 34 41  1  0
 41 42  1  0
 42 43  1  0
 43 44  2  0
 44 45  1  0
 45 46  1  0
 46 47  2  0
 47 48  1  0
 48 49  2  0
 49 50  1  0
 50 51  2  0
 30 52  1  6
 52 53  2  0
 52 54  1  0
 54 55  1  0
  5  1  1  0
 16  5  1  0
 44 30  1  0
 51 46  1  0
 21  1  1  0
 40 32  1  0
 47 43  1  0
 26  2  1  0
 13  6  1  0
M  END
$$$$
