
     RDKit          3D

 36 40  0  0  0  0  0  0  0  0999 V2000
  188.9459  161.8420  122.5648 C   0  0  1  0  0  0  0  0  0  0  0  0
  190.1037  161.8598  121.6085 C   0  0  0  0  0  0  0  0  0  0  0  0
  190.8199  160.5641  121.7007 C   0  0  0  0  0  0  0  0  0  0  0  0
  190.5486  159.5873  122.5436 C   0  0  0  0  0  0  0  0  0  0  0  0
  191.3811  158.3569  122.4923 C   0  0  2  0  0  0  0  0  0  0  0  0
  191.8976  158.0969  121.1152 C   0  0  1  0  0  0  0  0  0  0  0  0
  193.3185  158.6662  120.9727 C   0  0  0  0  0  0  0  0  0  0  0  0
  192.0091  156.6418  120.7369 C   0  0  2  0  0  0  0  0  0  0  0  0
  192.1597  156.6483  119.1989 C   0  0  0  0  0  0  0  0  0  0  0  0
  190.7971  155.8425  121.0465 C   0  0  0  0  0  0  0  0  0  0  0  0
  189.9436  156.3566  122.1720 C   0  0  0  0  0  0  0  0  0  0  0  0
  190.7704  157.1588  123.1356 C   0  0  2  0  0  0  0  0  0  0  0  0
  189.9835  157.4743  124.3992 C   0  0  0  0  0  0  0  0  0  0  0  0
  189.8870  158.9150  124.7369 C   0  0  0  0  0  0  0  0  0  0  0  0
  189.4343  159.7096  123.5503 C   0  0  2  0  0  0  0  0  0  0  0  0
  188.1194  159.2120  123.0847 C   0  0  0  0  0  0  0  0  0  0  0  0
  189.3812  161.2332  123.8449 C   0  0  1  0  0  0  0  0  0  0  0  0
  190.7949  161.5801  124.2502 C   0  0  0  0  0  0  0  0  0  0  0  0
  188.4760  161.4199  125.0002 C   0  0  0  0  0  0  0  0  0  0  0  0
  187.9522  162.8411  125.1037 C   0  0  1  0  0  0  0  0  0  0  0  0
  189.0403  163.6431  125.3853 O   0  0  0  0  0  0  0  0  0  0  0  0
  187.2694  163.1321  123.7907 C   0  0  1  0  0  0  0  0  0  0  0  0
  186.2559  164.2047  123.8554 C   0  0  2  0  0  0  0  0  0  0  0  0
  186.7655  165.5012  124.4567 C   0  0  0  0  0  0  0  0  0  0  0  0
  185.1390  163.7518  124.7841 C   0  0  0  0  0  0  0  0  0  0  0  0
  184.2304  162.9449  124.1500 O   0  0  0  0  0  0  0  0  0  0  0  0
  185.6336  164.5495  122.5478 C   0  0  1  0  0  0  0  0  0  0  0  0
  185.1148  165.8618  122.6008 O   0  0  0  0  0  0  0  0  0  0  0  0
  186.5091  164.4381  121.3475 C   0  0  2  0  0  0  0  0  0  0  0  0
  185.6538  164.2970  120.2280 O   0  0  0  0  0  0  0  0  0  0  0  0
  187.3839  163.2429  121.3653 C   0  0  0  0  0  0  0  0  0  0  0  0
  188.2381  163.1675  122.6448 C   0  0  2  0  0  0  0  0  0  0  0  0
  189.1183  164.3566  122.5945 C   0  0  0  0  0  0  0  0  0  0  0  0
  191.8783  156.2785  123.6058 C   0  0  0  0  0  0  0  0  0  0  0  0
  191.5448  155.0950  124.2271 O   0  0  0  0  0  0  0  0  0  0  0  0
  193.0552  156.6003  123.4434 O   0  0  0  0  0  0  0  0  0  0  0  0
  1  2  1  6
  2  3  1  0
  3  4  2  0
  5  4  1  6
  5  6  1  0
  6  7  1  1
  6  8  1  0
  8  9  1  6
  8 10  1  0
 10 11  1  0
 11 12  1  0
 12 13  1  0
 13 14  1  0
 14 15  1  0
 15 16  1  6
 15 17  1  0
 17 18  1  1
 17 19  1  0
 19 20  1  0
 20 21  1  6
 22 20  1  1
 22 23  1  0
 23 24  1  1
 23 25  1  0
 25 26  1  0
 23 27  1  0
 27 28  1  1
 27 29  1  0
 29 30  1  6
 29 31  1  0
 31 32  1  0
 32 33  1  1
 12 34  1  1
 34 35  1  0
 34 36  2  0
 17  1  1  0
 32 22  1  0
 32  1  1  0
 15  4  1  0
 12  5  1  0
M  END
$$$$
