
     RDKit          3D

 36 40  0  0  0  0  0  0  0  0999 V2000
  172.8842  164.6700  110.8044 C   0  0  1  0  0  0  0  0  0  0  0  0
  172.1671  163.8120  111.8068 C   0  0  0  0  0  0  0  0  0  0  0  0
  173.0360  162.6632  112.1613 C   0  0  0  0  0  0  0  0  0  0  0  0
  174.2070  162.3829  111.6241 C   0  0  0  0  0  0  0  0  0  0  0  0
  174.9366  161.1807  112.1057 C   0  0  2  0  0  0  0  0  0  0  0  0
  174.6280  160.8840  113.5366 C   0  0  1  0  0  0  0  0  0  0  0  0
  173.5097  159.8329  113.6240 C   0  0  0  0  0  0  0  0  0  0  0  0
  175.7743  160.3170  114.3351 C   0  0  2  0  0  0  0  0  0  0  0  0
  175.3430  160.4829  115.8097 C   0  0  0  0  0  0  0  0  0  0  0  0
  177.0489  161.0607  114.1740 C   0  0  0  0  0  0  0  0  0  0  0  0
  177.2127  161.8067  112.8792 C   0  0  0  0  0  0  0  0  0  0  0  0
  176.3946  161.1654  111.7951 C   0  0  2  0  0  0  0  0  0  0  0  0
  176.7386  161.7503  110.4332 C   0  0  0  0  0  0  0  0  0  0  0  0
  175.5892  162.3063  109.6789 C   0  0  0  0  0  0  0  0  0  0  0  0
  174.7947  163.2435  110.5360 C   0  0  2  0  0  0  0  0  0  0  0  0
  175.6626  164.3438  111.0152 C   0  0  0  0  0  0  0  0  0  0  0  0
  173.5444  163.7992  109.8020 C   0  0  1  0  0  0  0  0  0  0  0  0
  172.7544  162.5652  109.4329 C   0  0  0  0  0  0  0  0  0  0  0  0
  174.0247  164.4649  108.5711 C   0  0  0  0  0  0  0  0  0  0  0  0
  173.0125  165.4473  108.0095 C   0  0  1  0  0  0  0  0  0  0  0  0
  171.9262  164.7018  107.5966 O   0  0  0  0  0  0  0  0  0  0  0  0
  172.7262  166.4314  109.1161 C   0  0  1  0  0  0  0  0  0  0  0  0
  172.2129  167.7368  108.6530 C   0  0  2  0  0  0  0  0  0  0  0  0
  171.0040  167.6375  107.7413 C   0  0  0  0  0  0  0  0  0  0  0  0
  173.2898  168.4017  107.8084 C   0  0  0  0  0  0  0  0  0  0  0  0
  174.2048  169.0792  108.5717 O   0  0  0  0  0  0  0  0  0  0  0  0
  171.8555  168.6848  109.7435 C   0  0  1  0  0  0  0  0  0  0  0  0
  170.9253  169.6322  109.2625 O   0  0  0  0  0  0  0  0  0  0  0  0
  171.3103  168.0828  110.9926 C   0  0  2  0  0  0  0  0  0  0  0  0
  171.5210  169.0255  112.0277 O   0  0  0  0  0  0  0  0  0  0  0  0
  172.0081  166.8418  111.4016 C   0  0  0  0  0  0  0  0  0  0  0  0
  172.0264  165.7886  110.2779 C   0  0  2  0  0  0  0  0  0  0  0  0
  170.6059  165.4401  110.0493 C   0  0  0  0  0  0  0  0  0  0  0  0
  176.8262  159.7413  111.7004 C   0  0  0  0  0  0  0  0  0  0  0  0
  178.1697  159.4819  111.5402 O   0  0  0  0  0  0  0  0  0  0  0  0
  176.0062  158.8255  111.7634 O   0  0  0  0  0  0  0  0  0  0  0  0
  1  2  1  1
  2  3  1  0
  3  4  2  0
  5  4  1  1
  5  6  1  0
  6  7  1  6
  6  8  1  0
  8  9  1  1
  8 10  1  0
 10 11  1  0
 11 12  1  0
 12 13  1  0
 13 14  1  0
 14 15  1  0
 15 16  1  1
 15 17  1  0
 17 18  1  6
 17 19  1  0
 19 20  1  0
 20 21  1  1
 22 20  1  6
 22 23  1  0
 23 24  1  6
 23 25  1  0
 25 26  1  0
 23 27  1  0
 27 28  1  6
 27 29  1  0
 29 30  1  1
 29 31  1  0
 31 32  1  0
 32 33  1  6
 12 34  1  6
 34 35  1  0
 34 36  2  0
 17  1  1  0
 32 22  1  0
 32  1  1  0
 15  4  1  0
 12  5  1  0
M  END
$$$$
