
     RDKit          3D

 36 40  0  0  0  0  0  0  0  0999 V2000
  174.3934  162.8005  111.5607 C   0  0  1  0  0  0  0  0  0  0  0  0
  174.6247  162.5050  110.1066 C   0  0  0  0  0  0  0  0  0  0  0  0
  175.0421  163.7548  109.4252 C   0  0  0  0  0  0  0  0  0  0  0  0
  175.1134  164.9506  109.9760 C   0  0  0  0  0  0  0  0  0  0  0  0
  175.5509  166.0932  109.1318 C   0  0  2  0  0  0  0  0  0  0  0  0
  176.4909  165.6570  108.0563 C   0  0  1  0  0  0  0  0  0  0  0  0
  175.7169  165.4169  106.7500 C   0  0  0  0  0  0  0  0  0  0  0  0
  177.5695  166.6505  107.7063 C   0  0  2  0  0  0  0  0  0  0  0  0
  178.6088  165.8332  106.9063 C   0  0  0  0  0  0  0  0  0  0  0  0
  178.2785  167.2122  108.8833 C   0  0  0  0  0  0  0  0  0  0  0  0
  177.4988  167.2341  110.1683 C   0  0  0  0  0  0  0  0  0  0  0  0
  176.0242  167.2872  109.8885 C   0  0  2  0  0  0  0  0  0  0  0  0
  175.2364  167.5596  111.1615 C   0  0  0  0  0  0  0  0  0  0  0  0
  174.1895  166.5585  111.4797 C   0  0  0  0  0  0  0  0  0  0  0  0
  174.7475  165.1695  111.4210 C   0  0  2  0  0  0  0  0  0  0  0  0
  175.8743  165.0403  112.3734 C   0  0  0  0  0  0  0  0  0  0  0  0
  173.6665  164.0869  111.6864 C   0  0  1  0  0  0  0  0  0  0  0  0
  172.6332  164.3257  110.6102 C   0  0  0  0  0  0  0  0  0  0  0  0
  173.0767  164.3792  113.0115 C   0  0  0  0  0  0  0  0  0  0  0  0
  172.3723  163.1756  113.6116 C   0  0  1  0  0  0  0  0  0  0  0  0
  171.2859  162.9098  112.8019 O   0  0  0  0  0  0  0  0  0  0  0  0
  173.4031  162.0763  113.6756 C   0  0  1  0  0  0  0  0  0  0  0  0
  173.1174  161.0307  114.6790 C   0  0  2  0  0  0  0  0  0  0  0  0
  171.7345  160.4184  114.5573 C   0  0  0  0  0  0  0  0  0  0  0  0
  173.1444  161.6718  116.0587 C   0  0  0  0  0  0  0  0  0  0  0  0
  174.3866  161.6130  116.6352 O   0  0  0  0  0  0  0  0  0  0  0  0
  174.0897  159.9036  114.6941 C   0  0  1  0  0  0  0  0  0  0  0  0
  173.4831  158.7616  115.2615 O   0  0  0  0  0  0  0  0  0  0  0  0
  174.6790  159.5194  113.3808 C   0  0  2  0  0  0  0  0  0  0  0  0
  175.8898  158.8397  113.6580 O   0  0  0  0  0  0  0  0  0  0  0  0
  175.0304  160.6804  112.5306 C   0  0  0  0  0  0  0  0  0  0  0  0
  173.8321  161.6229  112.3107 C   0  0  2  0  0  0  0  0  0  0  0  0
  172.8366  160.8180  111.5674 C   0  0  0  0  0  0  0  0  0  0  0  0
  175.7785  168.4905  109.0428 C   0  0  0  0  0  0  0  0  0  0  0  0
  175.9789  168.3782  107.6844 O   0  0  0  0  0  0  0  0  0  0  0  0
  175.4078  169.5519  109.5439 O   0  0  0  0  0  0  0  0  0  0  0  0
  1  2  1  6
  2  3  1  0
  3  4  2  0
  5  4  1  1
  5  6  1  0
  6  7  1  6
  6  8  1  0
  8  9  1  6
  8 10  1  0
 10 11  1  0
 11 12  1  0
 12 13  1  0
 13 14  1  0
 14 15  1  0
 15 16  1  1
 15 17  1  0
 17 18  1  6
 17 19  1  0
 19 20  1  0
 20 21  1  6
 22 20  1  6
 22 23  1  0
 23 24  1  6
 23 25  1  0
 25 26  1  0
 23 27  1  0
 27 28  1  6
 27 29  1  0
 29 30  1  1
 29 31  1  0
 31 32  1  0
 32 33  1  6
 12 34  1  6
 34 35  1  0
 34 36  2  0
 17  1  1  0
 32 22  1  0
 32  1  1  0
 15  4  1  0
 12  5  1  0
M  END
$$$$
