
     RDKit          3D

 36 40  0  0  0  0  0  0  0  0999 V2000
  185.7413  162.9219  140.0099 C   0  0  1  0  0  0  0  0  0  0  0  0
  187.1389  163.4687  140.0659 C   0  0  0  0  0  0  0  0  0  0  0  0
  187.8522  163.0858  138.8229 C   0  0  0  0  0  0  0  0  0  0  0  0
  187.3774  162.3168  137.8629 C   0  0  0  0  0  0  0  0  0  0  0  0
  188.2429  162.0374  136.6872 C   0  0  2  0  0  0  0  0  0  0  0  0
  189.1786  163.1679  136.4093 C   0  0  1  0  0  0  0  0  0  0  0  0
  190.5424  162.8913  137.0625 C   0  0  0  0  0  0  0  0  0  0  0  0
  189.4744  163.4112  134.9512 C   0  0  2  0  0  0  0  0  0  0  0  0
  190.1008  164.8232  134.9099 C   0  0  0  0  0  0  0  0  0  0  0  0
  188.2672  163.4513  134.0883 C   0  0  0  0  0  0  0  0  0  0  0  0
  187.0788  162.6786  134.5885 C   0  0  0  0  0  0  0  0  0  0  0  0
  187.5201  161.5512  135.4774 C   0  0  2  0  0  0  0  0  0  0  0  0
  186.3611  160.6158  135.7890 C   0  0  0  0  0  0  0  0  0  0  0  0
  186.0929  160.4056  137.2323 C   0  0  0  0  0  0  0  0  0  0  0  0
  185.9984  161.7164  137.9514 C   0  0  2  0  0  0  0  0  0  0  0  0
  184.9227  162.5406  137.3538 C   0  0  0  0  0  0  0  0  0  0  0  0
  185.7808  161.5382  139.4784 C   0  0  1  0  0  0  0  0  0  0  0  0
  186.9764  160.7319  139.9298 C   0  0  0  0  0  0  0  0  0  0  0  0
  184.5500  160.7352  139.6500 C   0  0  0  0  0  0  0  0  0  0  0  0
  183.9515  160.8793  141.0378 C   0  0  1  0  0  0  0  0  0  0  0  0
  184.8551  160.3173  141.9175 O   0  0  0  0  0  0  0  0  0  0  0  0
  183.7032  162.3539  141.2353 C   0  0  1  0  0  0  0  0  0  0  0  0
  182.6697  162.6683  142.2427 C   0  0  2  0  0  0  0  0  0  0  0  0
  182.9001  162.0110  143.5907 C   0  0  0  0  0  0  0  0  0  0  0  0
  181.3408  162.1107  141.7544 C   0  0  0  0  0  0  0  0  0  0  0  0
  180.9205  162.7087  140.5948 O   0  0  0  0  0  0  0  0  0  0  0  0
  182.4744  164.1217  142.4979 C   0  0  1  0  0  0  0  0  0  0  0  0
  181.9017  164.3062  143.7755 O   0  0  0  0  0  0  0  0  0  0  0  0
  183.6875  164.9808  142.3979 C   0  0  2  0  0  0  0  0  0  0  0  0
  183.2359  166.3017  142.1608 O   0  0  0  0  0  0  0  0  0  0  0  0
  184.5696  164.6247  141.2624 C   0  0  0  0  0  0  0  0  0  0  0  0
  184.9803  163.1404  141.2896 C   0  0  2  0  0  0  0  0  0  0  0  0
  185.7724  162.9796  142.5298 C   0  0  0  0  0  0  0  0  0  0  0  0
  188.4654  160.7107  134.6878 C   0  0  0  0  0  0  0  0  0  0  0  0
  187.9359  159.8260  133.7741 O   0  0  0  0  0  0  0  0  0  0  0  0
  189.6821  160.8051  134.8481 O   0  0  0  0  0  0  0  0  0  0  0  0
  1  2  1  1
  2  3  1  0
  3  4  2  0
  5  4  1  1
  5  6  1  0
  6  7  1  1
  6  8  1  0
  8  9  1  1
  8 10  1  0
 10 11  1  0
 11 12  1  0
 12 13  1  0
 13 14  1  0
 14 15  1  0
 15 16  1  6
 15 17  1  0
 17 18  1  1
 17 19  1  0
 19 20  1  0
 20 21  1  1
 22 20  1  1
 22 23  1  0
 23 24  1  1
 23 25  1  0
 25 26  1  0
 23 27  1  0
 27 28  1  1
 27 29  1  0
 29 30  1  6
 29 31  1  0
 31 32  1  0
 32 33  1  1
 12 34  1  6
 34 35  1  0
 34 36  2  0
 17  1  1  0
 32 22  1  0
 32  1  1  0
 15  4  1  0
 12  5  1  0
M  END
$$$$
