
     RDKit          3D

 36 40  0  0  0  0  0  0  0  0999 V2000
  150.9158  162.5660  120.2286 C   0  0  1  0  0  0  0  0  0  0  0  0
  149.7559  163.4064  120.6797 C   0  0  0  0  0  0  0  0  0  0  0  0
  149.7199  163.4150  122.1626 C   0  0  0  0  0  0  0  0  0  0  0  0
  150.5140  162.7289  122.9607 C   0  0  0  0  0  0  0  0  0  0  0  0
  150.3263  162.8608  124.4293 C   0  0  2  0  0  0  0  0  0  0  0  0
  149.8001  164.2086  124.7998 C   0  0  1  0  0  0  0  0  0  0  0  0
  148.2706  164.1523  124.9430 C   0  0  0  0  0  0  0  0  0  0  0  0
  150.3055  164.7556  126.1107 C   0  0  2  0  0  0  0  0  0  0  0  0
  149.9602  166.2612  126.0650 C   0  0  0  0  0  0  0  0  0  0  0  0
  151.7770  164.6572  126.2792 C   0  0  0  0  0  0  0  0  0  0  0  0
  152.4520  163.5558  125.5106 C   0  0  0  0  0  0  0  0  0  0  0  0
  151.4924  162.4297  125.2521 C   0  0  2  0  0  0  0  0  0  0  0  0
  152.2168  161.2110  124.6996 C   0  0  0  0  0  0  0  0  0  0  0  0
  151.6992  160.7046  123.4054 C   0  0  0  0  0  0  0  0  0  0  0  0
  151.5792  161.8171  122.4094 C   0  0  2  0  0  0  0  0  0  0  0  0
  152.9003  162.4559  122.2085 C   0  0  0  0  0  0  0  0  0  0  0  0
  150.9802  161.3392  121.0590 C   0  0  1  0  0  0  0  0  0  0  0  0
  149.6317  160.7702  121.4344 C   0  0  0  0  0  0  0  0  0  0  0  0
  151.8522  160.2541  120.5580 C   0  0  0  0  0  0  0  0  0  0  0  0
  151.6885  160.0193  119.0670 C   0  0  1  0  0  0  0  0  0  0  0  0
  150.4057  159.5441  118.8808 O   0  0  0  0  0  0  0  0  0  0  0  0
  151.9813  161.3405  118.4008 C   0  0  1  0  0  0  0  0  0  0  0  0
  152.4015  161.2312  116.9889 C   0  0  2  0  0  0  0  0  0  0  0  0
  151.4499  160.4290  116.1210 C   0  0  0  0  0  0  0  0  0  0  0  0
  153.7175  160.4690  116.9393 C   0  0  0  0  0  0  0  0  0  0  0  0
  154.7654  161.2652  116.5562 O   0  0  0  0  0  0  0  0  0  0  0  0
  152.6173  162.5348  116.3035 C   0  0  1  0  0  0  0  0  0  0  0  0
  152.4914  162.3632  114.9075 O   0  0  0  0  0  0  0  0  0  0  0  0
  151.7314  163.6575  116.7210 C   0  0  2  0  0  0  0  0  0  0  0  0
  152.3973  164.8570  116.3708 O   0  0  0  0  0  0  0  0  0  0  0  0
  151.5001  163.7130  118.1830 C   0  0  0  0  0  0  0  0  0  0  0  0
  150.9545  162.3827  118.7355 C   0  0  2  0  0  0  0  0  0  0  0  0
  149.6355  162.2052  118.0875 C   0  0  0  0  0  0  0  0  0  0  0  0
  150.9751  161.9779  126.5756 C   0  0  0  0  0  0  0  0  0  0  0  0
  150.5752  160.6655  126.7001 O   0  0  0  0  0  0  0  0  0  0  0  0
  150.9077  162.7549  127.5279 O   0  0  0  0  0  0  0  0  0  0  0  0
  1  2  1  6
  2  3  1  0
  3  4  2  0
  5  4  1  6
  5  6  1  0
  6  7  1  1
  6  8  1  0
  8  9  1  6
  8 10  1  0
 10 11  1  0
 11 12  1  0
 12 13  1  0
 13 14  1  0
 14 15  1  0
 15 16  1  6
 15 17  1  0
 17 18  1  1
 17 19  1  0
 19 20  1  0
 20 21  1  1
 22 20  1  6
 22 23  1  0
 23 24  1  6
 23 25  1  0
 25 26  1  0
 23 27  1  0
 27 28  1  6
 27 29  1  0
 29 30  1  1
 29 31  1  0
 31 32  1  0
 32 33  1  6
 12 34  1  1
 34 35  1  0
 34 36  2  0
 17  1  1  0
 32 22  1  0
 32  1  1  0
 15  4  1  0
 12  5  1  0
M  END
$$$$
