
     RDKit          3D

 36 40  0  0  0  0  0  0  0  0999 V2000
  166.9075  147.7816  126.1876 C   0  0  1  0  0  0  0  0  0  0  0  0
  165.8013  148.3823  125.3685 C   0  0  0  0  0  0  0  0  0  0  0  0
  165.5160  149.7461  125.8775 C   0  0  0  0  0  0  0  0  0  0  0  0
  166.0720  150.3119  126.9306 C   0  0  0  0  0  0  0  0  0  0  0  0
  165.6561  151.6918  127.2944 C   0  0  2  0  0  0  0  0  0  0  0  0
  165.2461  152.4796  126.0935 C   0  0  1  0  0  0  0  0  0  0  0  0
  163.7195  152.4191  125.9237 C   0  0  0  0  0  0  0  0  0  0  0  0
  165.5860  153.9475  126.1434 C   0  0  2  0  0  0  0  0  0  0  0  0
  165.4431  154.4316  124.6828 C   0  0  0  0  0  0  0  0  0  0  0  0
  166.9840  154.2302  126.5548 C   0  0  0  0  0  0  0  0  0  0  0  0
  167.6375  153.1852  127.4154 C   0  0  0  0  0  0  0  0  0  0  0  0
  166.6032  152.4176  128.1880 C   0  0  2  0  0  0  0  0  0  0  0  0
  167.2538  151.5330  129.2414 C   0  0  0  0  0  0  0  0  0  0  0  0
  166.9041  150.0943  129.1579 C   0  0  0  0  0  0  0  0  0  0  0  0
  167.0937  149.5817  127.7630 C   0  0  2  0  0  0  0  0  0  0  0  0
  168.4986  149.7842  127.3401 C   0  0  0  0  0  0  0  0  0  0  0  0
  166.6774  148.0927  127.6190 C   0  0  1  0  0  0  0  0  0  0  0  0
  165.2248  148.0740  128.0345 C   0  0  0  0  0  0  0  0  0  0  0  0
  167.4802  147.3221  128.5941 C   0  0  0  0  0  0  0  0  0  0  0  0
  167.5436  145.8438  128.2544 C   0  0  1  0  0  0  0  0  0  0  0  0
  166.2619  145.3508  128.3973 O   0  0  0  0  0  0  0  0  0  0  0  0
  168.1067  145.7590  126.8578 C   0  0  1  0  0  0  0  0  0  0  0  0
  168.7431  144.4658  126.5347 C   0  0  2  0  0  0  0  0  0  0  0  0
  167.8602  143.2599  126.7961 C   0  0  0  0  0  0  0  0  0  0  0  0
  169.9436  144.2814  127.4512 C   0  0  0  0  0  0  0  0  0  0  0  0
  169.7927  143.2137  128.2974 O   0  0  0  0  0  0  0  0  0  0  0  0
  169.2321  144.3483  125.1336 C   0  0  1  0  0  0  0  0  0  0  0  0
  169.3242  142.9852  124.7762 O   0  0  0  0  0  0  0  0  0  0  0  0
  168.4346  145.0546  124.0921 C   0  0  2  0  0  0  0  0  0  0  0  0
  169.2938  145.2568  122.9850 O   0  0  0  0  0  0  0  0  0  0  0  0
  167.9677  146.3949  124.5159 C   0  0  0  0  0  0  0  0  0  0  0  0
  167.1755  146.3433  125.8359 C   0  0  2  0  0  0  0  0  0  0  0  0
  165.9736  145.5329  125.5358 C   0  0  0  0  0  0  0  0  0  0  0  0
  165.8172  153.4082  128.9781 C   0  0  0  0  0  0  0  0  0  0  0  0
  164.4609  153.2034  129.1063 O   0  0  0  0  0  0  0  0  0  0  0  0
  166.3644  154.3796  129.4998 O   0  0  0  0  0  0  0  0  0  0  0  0
  1  2  1  6
  2  3  1  0
  3  4  2  0
  5  4  1  6
  5  6  1  0
  6  7  1  1
  6  8  1  0
  8  9  1  6
  8 10  1  0
 10 11  1  0
 11 12  1  0
 12 13  1  0
 13 14  1  0
 14 15  1  0
 15 16  1  6
 15 17  1  0
 17 18  1  1
 17 19  1  0
 19 20  1  0
 20 21  1  6
 22 20  1  1
 22 23  1  0
 23 24  1  1
 23 25  1  0
 25 26  1  0
 23 27  1  0
 27 28  1  6
 27 29  1  0
 29 30  1  6
 29 31  1  0
 31 32  1  0
 32 33  1  6
 12 34  1  1
 34 35  1  0
 34 36  2  0
 17  1  1  0
 32 22  1  0
 32  1  1  0
 15  4  1  0
 12  5  1  0
M  END
$$$$
