
     RDKit          3D

 36 40  0  0  0  0  0  0  0  0999 V2000
  152.6578  157.6237  117.6552 C   0  0  1  0  0  0  0  0  0  0  0  0
  152.3162  158.4700  116.4626 C   0  0  0  0  0  0  0  0  0  0  0  0
  152.7468  159.8646  116.7269 C   0  0  0  0  0  0  0  0  0  0  0  0
  153.2621  160.3159  117.8534 C   0  0  0  0  0  0  0  0  0  0  0  0
  153.6327  161.7530  117.9361 C   0  0  2  0  0  0  0  0  0  0  0  0
  154.0358  162.2967  116.6047 C   0  0  1  0  0  0  0  0  0  0  0  0
  152.8356  162.9855  115.9352 C   0  0  0  0  0  0  0  0  0  0  0  0
  155.1261  163.3373  116.6410 C   0  0  2  0  0  0  0  0  0  0  0  0
  155.6281  163.4283  115.1823 C   0  0  0  0  0  0  0  0  0  0  0  0
  156.2947  162.9590  117.4746 C   0  0  0  0  0  0  0  0  0  0  0  0
  156.0169  161.9917  118.5912 C   0  0  0  0  0  0  0  0  0  0  0  0
  154.5846  162.0934  119.0317 C   0  0  2  0  0  0  0  0  0  0  0  0
  154.3508  161.3089  120.3143 C   0  0  0  0  0  0  0  0  0  0  0  0
  153.2772  160.2886  120.2408 C   0  0  0  0  0  0  0  0  0  0  0  0
  153.4604  159.4103  119.0411 C   0  0  2  0  0  0  0  0  0  0  0  0
  154.7830  158.7466  119.1019 C   0  0  0  0  0  0  0  0  0  0  0  0
  152.3197  158.3673  118.8927 C   0  0  1  0  0  0  0  0  0  0  0  0
  151.0655  159.2040  118.7932 C   0  0  0  0  0  0  0  0  0  0  0  0
  152.2891  157.5778  120.1436 C   0  0  0  0  0  0  0  0  0  0  0  0
  151.5786  156.2469  119.9729 C   0  0  1  0  0  0  0  0  0  0  0  0
  150.2534  156.5372  119.7161 O   0  0  0  0  0  0  0  0  0  0  0  0
  152.3002  155.5270  118.8611 C   0  0  1  0  0  0  0  0  0  0  0  0
  152.1434  154.0584  118.8836 C   0  0  2  0  0  0  0  0  0  0  0  0
  150.7007  153.5914  118.9335 C   0  0  0  0  0  0  0  0  0  0  0  0
  152.7732  153.5299  120.1639 C   0  0  0  0  0  0  0  0  0  0  0  0
  151.8768  153.4724  121.1992 O   0  0  0  0  0  0  0  0  0  0  0  0
  152.7888  153.3485  117.7455 C   0  0  1  0  0  0  0  0  0  0  0  0
  152.1706  152.0927  117.5580 O   0  0  0  0  0  0  0  0  0  0  0  0
  152.8026  154.0654  116.4395 C   0  0  2  0  0  0  0  0  0  0  0  0
  153.8534  153.5037  115.6747 O   0  0  0  0  0  0  0  0  0  0  0  0
  153.0964  155.5119  116.5647 C   0  0  0  0  0  0  0  0  0  0  0  0
  152.1344  156.2177  117.5389 C   0  0  2  0  0  0  0  0  0  0  0  0
  150.7952  156.0923  116.9209 C   0  0  0  0  0  0  0  0  0  0  0  0
  154.3427  163.5120  119.4222 C   0  0  0  0  0  0  0  0  0  0  0  0
  155.0793  164.0305  120.4647 O   0  0  0  0  0  0  0  0  0  0  0  0
  153.5098  164.1986  118.8306 O   0  0  0  0  0  0  0  0  0  0  0  0
  1  2  1  6
  2  3  1  0
  3  4  2  0
  5  4  1  6
  5  6  1  0
  6  7  1  1
  6  8  1  0
  8  9  1  6
  8 10  1  0
 10 11  1  0
 11 12  1  0
 12 13  1  0
 13 14  1  0
 14 15  1  0
 15 16  1  6
 15 17  1  0
 17 18  1  6
 17 19  1  0
 19 20  1  0
 20 21  1  6
 22 20  1  1
 22 23  1  0
 23 24  1  1
 23 25  1  0
 25 26  1  0
 23 27  1  0
 27 28  1  6
 27 29  1  0
 29 30  1  6
 29 31  1  0
 31 32  1  0
 32 33  1  6
 12 34  1  1
 34 35  1  0
 34 36  2  0
 17  1  1  0
 32 22  1  0
 32  1  1  0
 15  4  1  0
 12  5  1  0
M  END
$$$$
