
     RDKit          3D

 36 40  0  0  0  0  0  0  0  0999 V2000
  165.7560  147.7742  125.4099 C   0  0  1  0  0  0  0  0  0  0  0  0
  165.0132  148.7973  124.5995 C   0  0  0  0  0  0  0  0  0  0  0  0
  164.9845  150.0749  125.3527 C   0  0  0  0  0  0  0  0  0  0  0  0
  165.4511  150.2665  126.5709 C   0  0  0  0  0  0  0  0  0  0  0  0
  165.3305  151.6217  127.1695 C   0  0  2  0  0  0  0  0  0  0  0  0
  165.3685  152.6910  126.1273 C   0  0  1  0  0  0  0  0  0  0  0  0
  163.9370  153.0960  125.7402 C   0  0  0  0  0  0  0  0  0  0  0  0
  166.0475  153.9702  126.5462 C   0  0  2  0  0  0  0  0  0  0  0  0
  166.3132  154.7230  125.2231 C   0  0  0  0  0  0  0  0  0  0  0  0
  167.3659  153.7688  127.1981 C   0  0  0  0  0  0  0  0  0  0  0  0
  167.5602  152.4477  127.8883 C   0  0  0  0  0  0  0  0  0  0  0  0
  166.2388  151.8813  128.3228 C   0  0  2  0  0  0  0  0  0  0  0  0
  166.4333  150.6785  129.2341 C   0  0  0  0  0  0  0  0  0  0  0  0
  165.7587  149.4355  128.7879 C   0  0  0  0  0  0  0  0  0  0  0  0
  166.0788  149.1429  127.3540 C   0  0  2  0  0  0  0  0  0  0  0  0
  167.5441  149.0101  127.1835 C   0  0  0  0  0  0  0  0  0  0  0  0
  165.3402  147.8819  126.8291 C   0  0  1  0  0  0  0  0  0  0  0  0
  163.8769  148.2028  127.0265 C   0  0  0  0  0  0  0  0  0  0  0  0
  165.7227  146.7572  127.7110 C   0  0  0  0  0  0  0  0  0  0  0  0
  165.4795  145.4047  127.0655 C   0  0  1  0  0  0  0  0  0  0  0  0
  164.1125  145.2778  126.9184 O   0  0  0  0  0  0  0  0  0  0  0  0
  166.2612  145.4101  125.7756 C   0  0  1  0  0  0  0  0  0  0  0  0
  166.6049  144.0670  125.2657 C   0  0  2  0  0  0  0  0  0  0  0  0
  165.4159  143.1341  125.1307 C   0  0  0  0  0  0  0  0  0  0  0  0
  167.5222  143.3927  126.2751 C   0  0  0  0  0  0  0  0  0  0  0  0
  168.7008  144.0724  126.4420 O   0  0  0  0  0  0  0  0  0  0  0  0
  167.3088  144.0632  123.9541 C   0  0  1  0  0  0  0  0  0  0  0  0
  167.1250  142.8144  123.3209 O   0  0  0  0  0  0  0  0  0  0  0  0
  166.9280  145.1375  122.9946 C   0  0  2  0  0  0  0  0  0  0  0  0
  168.0067  145.2787  122.0883 O   0  0  0  0  0  0  0  0  0  0  0  0
  166.7376  146.4593  123.6355 C   0  0  0  0  0  0  0  0  0  0  0  0
  165.7192  146.4036  124.7897 C   0  0  2  0  0  0  0  0  0  0  0  0
  164.4340  146.0324  124.1559 C   0  0  0  0  0  0  0  0  0  0  0  0
  165.5879  152.8996  129.1962 C   0  0  0  0  0  0  0  0  0  0  0  0
  164.2371  153.1192  129.0379 O   0  0  0  0  0  0  0  0  0  0  0  0
  166.2386  153.5249  130.0333 O   0  0  0  0  0  0  0  0  0  0  0  0
  1  2  1  6
  2  3  1  0
  3  4  2  0
  5  4  1  6
  5  6  1  0
  6  7  1  1
  6  8  1  0
  8  9  1  6
  8 10  1  0
 10 11  1  0
 11 12  1  0
 12 13  1  0
 13 14  1  0
 14 15  1  0
 15 16  1  1
 15 17  1  0
 17 18  1  6
 17 19  1  0
 19 20  1  0
 20 21  1  6
 22 20  1  1
 22 23  1  0
 23 24  1  6
 23 25  1  0
 25 26  1  0
 23 27  1  0
 27 28  1  6
 27 29  1  0
 29 30  1  6
 29 31  1  0
 31 32  1  0
 32 33  1  6
 12 34  1  1
 34 35  1  0
 34 36  2  0
 17  1  1  0
 32 22  1  0
 32  1  1  0
 15  4  1  0
 12  5  1  0
M  END
$$$$
