
     RDKit          3D

 36 40  0  0  0  0  0  0  0  0999 V2000
  191.1374  159.9235  129.7100 C   0  0  1  0  0  0  0  0  0  0  0  0
  191.6601  158.5525  130.0303 C   0  0  0  0  0  0  0  0  0  0  0  0
  191.3801  157.6542  128.8835 C   0  0  0  0  0  0  0  0  0  0  0  0
  190.7049  157.9728  127.7969 C   0  0  0  0  0  0  0  0  0  0  0  0
  190.5201  156.9347  126.7491 C   0  0  2  0  0  0  0  0  0  0  0  0
  191.6593  155.9692  126.7216 C   0  0  1  0  0  0  0  0  0  0  0  0
  191.3095  154.7228  127.5506 C   0  0  0  0  0  0  0  0  0  0  0  0
  192.0271  155.4509  125.3544 C   0  0  2  0  0  0  0  0  0  0  0  0
  193.4296  154.8282  125.5368 C   0  0  0  0  0  0  0  0  0  0  0  0
  192.1581  156.5096  124.3221 C   0  0  0  0  0  0  0  0  0  0  0  0
  191.3586  157.7599  124.5613 C   0  0  0  0  0  0  0  0  0  0  0  0
  190.1517  157.4601  125.4035 C   0  0  2  0  0  0  0  0  0  0  0  0
  189.2066  158.6517  125.4470 C   0  0  0  0  0  0  0  0  0  0  0  0
  188.8727  159.1404  126.8068 C   0  0  0  0  0  0  0  0  0  0  0  0
  190.1157  159.3477  127.6168 C   0  0  2  0  0  0  0  0  0  0  0  0
  191.0027  160.3190  126.9359 C   0  0  0  0  0  0  0  0  0  0  0  0
  189.8058  159.7995  129.0696 C   0  0  1  0  0  0  0  0  0  0  0  0
  188.9483  158.6871  129.6268 C   0  0  0  0  0  0  0  0  0  0  0  0
  189.0058  161.0406  128.9762 C   0  0  0  0  0  0  0  0  0  0  0  0
  189.0338  161.8476  130.2618 C   0  0  1  0  0  0  0  0  0  0  0  0
  188.3851  161.0906  131.2171 O   0  0  0  0  0  0  0  0  0  0  0  0
  190.4880  162.1262  130.5494 C   0  0  1  0  0  0  0  0  0  0  0  0
  190.7245  163.3042  131.4086 C   0  0  2  0  0  0  0  0  0  0  0  0
  189.9478  163.2847  132.7119 C   0  0  0  0  0  0  0  0  0  0  0  0
  190.2285  164.5401  130.6727 C   0  0  0  0  0  0  0  0  0  0  0  0
  191.0114  164.8505  129.5912 O   0  0  0  0  0  0  0  0  0  0  0  0
  192.1519  163.5392  131.7593 C   0  0  1  0  0  0  0  0  0  0  0  0
  192.2295  164.3036  132.9442 O   0  0  0  0  0  0  0  0  0  0  0  0
  193.0017  162.3268  131.9255 C   0  0  2  0  0  0  0  0  0  0  0  0
  194.3438  162.7384  131.7402 O   0  0  0  0  0  0  0  0  0  0  0  0
  192.7368  161.2785  130.9130 C   0  0  0  0  0  0  0  0  0  0  0  0
  191.2511  160.8743  130.8708 C   0  0  2  0  0  0  0  0  0  0  0  0
  190.9715  160.2841  132.1993 C   0  0  0  0  0  0  0  0  0  0  0  0
  189.3730  156.4021  124.6979 C   0  0  0  0  0  0  0  0  0  0  0  0
  188.6584  155.5064  125.4627 O   0  0  0  0  0  0  0  0  0  0  0  0
  189.3692  156.3318  123.4690 O   0  0  0  0  0  0  0  0  0  0  0  0
  1  2  1  1
  2  3  1  0
  3  4  2  0
  5  4  1  1
  5  6  1  0
  6  7  1  1
  6  8  1  0
  8  9  1  1
  8 10  1  0
 10 11  1  0
 11 12  1  0
 12 13  1  0
 13 14  1  0
 14 15  1  0
 15 16  1  6
 15 17  1  0
 17 18  1  1
 17 19  1  0
 19 20  1  0
 20 21  1  1
 22 20  1  1
 22 23  1  0
 23 24  1  1
 23 25  1  0
 25 26  1  0
 23 27  1  0
 27 28  1  1
 27 29  1  0
 29 30  1  6
 29 31  1  0
 31 32  1  0
 32 33  1  1
 12 34  1  6
 34 35  1  0
 34 36  2  0
 17  1  1  0
 32 22  1  0
 32  1  1  0
 15  4  1  0
 12  5  1  0
M  END
$$$$
