
     RDKit          3D

 36 40  0  0  0  0  0  0  0  0999 V2000
  104.2580  164.3369  155.4522 C   0  0  1  0  0  0  0  0  0  0  0  0
  105.1438  163.2469  155.9838 C   0  0  0  0  0  0  0  0  0  0  0  0
  106.3467  163.8638  156.5946 C   0  0  0  0  0  0  0  0  0  0  0  0
  106.6426  165.1486  156.5955 C   0  0  0  0  0  0  0  0  0  0  0  0
  107.9005  165.5843  157.2568 C   0  0  2  0  0  0  0  0  0  0  0  0
  108.2690  164.6838  158.3900 C   0  0  1  0  0  0  0  0  0  0  0  0
  109.2763  163.6257  157.9118 C   0  0  0  0  0  0  0  0  0  0  0  0
  108.9295  165.3655  159.5614 C   0  0  2  0  0  0  0  0  0  0  0  0
  108.8342  164.3409  160.7143 C   0  0  0  0  0  0  0  0  0  0  0  0
  108.2309  166.5929  160.0186 C   0  0  0  0  0  0  0  0  0  0  0  0
  107.4165  167.3091  158.9777 C   0  0  0  0  0  0  0  0  0  0  0  0
  107.9576  167.0329  157.6041 C   0  0  2  0  0  0  0  0  0  0  0  0
  107.3073  167.9387  156.5688 C   0  0  0  0  0  0  0  0  0  0  0  0
  106.6602  167.2351  155.4350 C   0  0  0  0  0  0  0  0  0  0  0  0
  105.7438  166.1589  155.9312 C   0  0  2  0  0  0  0  0  0  0  0  0
  104.7108  166.7469  156.8149 C   0  0  0  0  0  0  0  0  0  0  0  0
  105.0940  165.3554  154.7722 C   0  0  1  0  0  0  0  0  0  0  0  0
  106.2701  164.7886  154.0116 C   0  0  0  0  0  0  0  0  0  0  0  0
  104.3765  166.3285  153.9193 C   0  0  0  0  0  0  0  0  0  0  0  0
  103.3214  165.6701  153.0486 C   0  0  1  0  0  0  0  0  0  0  0  0
  103.9953  164.8606  152.1559 O   0  0  0  0  0  0  0  0  0  0  0  0
  102.3940  164.9447  153.9914 C   0  0  1  0  0  0  0  0  0  0  0  0
  101.0432  164.6973  153.4472 C   0  0  2  0  0  0  0  0  0  0  0  0
  101.0378  164.0005  152.0993 C   0  0  0  0  0  0  0  0  0  0  0  0
  100.3743  166.0411  153.1987 C   0  0  0  0  0  0  0  0  0  0  0  0
  100.0985  166.7081  154.3640 O   0  0  0  0  0  0  0  0  0  0  0  0
  100.1479  163.9144  154.3424 C   0  0  1  0  0  0  0  0  0  0  0  0
   99.1359  163.2947  153.5770 O   0  0  0  0  0  0  0  0  0  0  0  0
  100.8003  162.8759  155.1883 C   0  0  2  0  0  0  0  0  0  0  0  0
   99.9305  162.6290  156.2779 O   0  0  0  0  0  0  0  0  0  0  0  0
  102.0912  163.3137  155.7679 C   0  0  0  0  0  0  0  0  0  0  0  0
  103.0755  163.8040  154.6892 C   0  0  2  0  0  0  0  0  0  0  0  0
  103.3506  162.6181  153.8470 C   0  0  0  0  0  0  0  0  0  0  0  0
  109.3901  167.4466  157.6027 C   0  0  0  0  0  0  0  0  0  0  0  0
  110.2803  166.6928  156.8697 O   0  0  0  0  0  0  0  0  0  0  0  0
  109.7654  168.4321  158.2376 O   0  0  0  0  0  0  0  0  0  0  0  0
  1  2  1  6
  2  3  1  0
  3  4  2  0
  5  4  1  1
  5  6  1  0
  6  7  1  6
  6  8  1  0
  8  9  1  1
  8 10  1  0
 10 11  1  0
 11 12  1  0
 12 13  1  0
 13 14  1  0
 14 15  1  0
 15 16  1  1
 15 17  1  0
 17 18  1  6
 17 19  1  0
 19 20  1  0
 20 21  1  6
 22 20  1  6
 22 23  1  0
 23 24  1  6
 23 25  1  0
 25 26  1  0
 23 27  1  0
 27 28  1  6
 27 29  1  0
 29 30  1  1
 29 31  1  0
 31 32  1  0
 32 33  1  6
 12 34  1  1
 34 35  1  0
 34 36  2  0
 17  1  1  0
 32 22  1  0
 32  1  1  0
 15  4  1  0
 12  5  1  0
M  END
$$$$
