
     RDKit          3D

 36 40  0  0  0  0  0  0  0  0999 V2000
  132.6778  163.3647  154.5224 C   0  0  1  0  0  0  0  0  0  0  0  0
  131.4640  162.4850  154.4327 C   0  0  0  0  0  0  0  0  0  0  0  0
  131.2823  161.7874  155.7291 C   0  0  0  0  0  0  0  0  0  0  0  0
  132.0965  161.8518  156.7642 C   0  0  0  0  0  0  0  0  0  0  0  0
  131.7516  161.0768  157.9848 C   0  0  2  0  0  0  0  0  0  0  0  0
  130.2741  160.9275  158.1448 C   0  0  1  0  0  0  0  0  0  0  0  0
  129.8177  159.5803  157.5618 C   0  0  0  0  0  0  0  0  0  0  0  0
  129.7798  160.9359  159.5691 C   0  0  2  0  0  0  0  0  0  0  0  0
  128.2579  161.1775  159.4530 C   0  0  0  0  0  0  0  0  0  0  0  0
  130.3288  162.0423  160.3925 C   0  0  0  0  0  0  0  0  0  0  0  0
  131.6662  162.5773  159.9626 C   0  0  0  0  0  0  0  0  0  0  0  0
  132.4434  161.5230  159.2276 C   0  0  2  0  0  0  0  0  0  0  0  0
  133.8833  161.9617  159.0053 C   0  0  0  0  0  0  0  0  0  0  0  0
  134.3337  161.9492  157.5924 C   0  0  0  0  0  0  0  0  0  0  0  0
  133.3578  162.6746  156.7174 C   0  0  2  0  0  0  0  0  0  0  0  0
  133.2055  164.0715  157.1855 C   0  0  0  0  0  0  0  0  0  0  0  0
  133.7613  162.6299  155.2187 C   0  0  1  0  0  0  0  0  0  0  0  0
  133.8200  161.1548  154.8964 C   0  0  0  0  0  0  0  0  0  0  0  0
  135.1176  163.2122  155.1176 C   0  0  0  0  0  0  0  0  0  0  0  0
  135.4483  163.6724  153.7091 C   0  0  1  0  0  0  0  0  0  0  0  0
  135.5014  162.5371  152.9252 O   0  0  0  0  0  0  0  0  0  0  0  0
  134.3735  164.6597  153.3284 C   0  0  1  0  0  0  0  0  0  0  0  0
  134.7661  165.6087  152.2666 C   0  0  2  0  0  0  0  0  0  0  0  0
  135.3079  164.9454  151.0141 C   0  0  0  0  0  0  0  0  0  0  0  0
  135.9128  166.4621  152.7882 C   0  0  0  0  0  0  0  0  0  0  0  0
  137.1383  165.9312  152.4796 O   0  0  0  0  0  0  0  0  0  0  0  0
  133.6850  166.5352  151.8323 C   0  0  1  0  0  0  0  0  0  0  0  0
  133.9581  167.0049  150.5289 O   0  0  0  0  0  0  0  0  0  0  0  0
  132.2979  165.9919  151.8553 C   0  0  2  0  0  0  0  0  0  0  0  0
  131.4233  167.1035  151.9198 O   0  0  0  0  0  0  0  0  0  0  0  0
  132.0114  165.1582  153.0456 C   0  0  0  0  0  0  0  0  0  0  0  0
  133.0256  164.0104  153.2084 C   0  0  2  0  0  0  0  0  0  0  0  0
  132.8376  163.1542  152.0156 C   0  0  0  0  0  0  0  0  0  0  0  0
  132.5566  160.3452  160.1351 C   0  0  0  0  0  0  0  0  0  0  0  0
  133.0112  160.5584  161.4180 O   0  0  0  0  0  0  0  0  0  0  0  0
  132.2528  159.2167  159.7488 O   0  0  0  0  0  0  0  0  0  0  0  0
  1  2  1  6
  2  3  1  0
  3  4  2  0
  5  4  1  6
  5  6  1  0
  6  7  1  1
  6  8  1  0
  8  9  1  6
  8 10  1  0
 10 11  1  0
 11 12  1  0
 12 13  1  0
 13 14  1  0
 14 15  1  0
 15 16  1  1
 15 17  1  0
 17 18  1  6
 17 19  1  0
 19 20  1  0
 20 21  1  6
 22 20  1  6
 22 23  1  0
 23 24  1  6
 23 25  1  0
 25 26  1  0
 23 27  1  0
 27 28  1  6
 27 29  1  0
 29 30  1  1
 29 31  1  0
 31 32  1  0
 32 33  1  6
 12 34  1  1
 34 35  1  0
 34 36  2  0
 17  1  1  0
 32 22  1  0
 32  1  1  0
 15  4  1  0
 12  5  1  0
M  END
$$$$
