
     RDKit          3D

 36 40  0  0  0  0  0  0  0  0999 V2000
  164.4921  148.1044  125.8218 C   0  0  1  0  0  0  0  0  0  0  0  0
  163.9846  149.1256  124.8446 C   0  0  0  0  0  0  0  0  0  0  0  0
  164.2716  150.4803  125.3763 C   0  0  0  0  0  0  0  0  0  0  0  0
  164.8017  150.7546  126.5519 C   0  0  0  0  0  0  0  0  0  0  0  0
  165.0132  152.1799  126.9173 C   0  0  2  0  0  0  0  0  0  0  0  0
  165.2697  153.0262  125.7137 C   0  0  1  0  0  0  0  0  0  0  0  0
  163.9607  153.6836  125.2473 C   0  0  0  0  0  0  0  0  0  0  0  0
  166.2366  154.1635  125.9243 C   0  0  2  0  0  0  0  0  0  0  0  0
  166.6339  154.6077  124.4985 C   0  0  0  0  0  0  0  0  0  0  0  0
  167.4895  153.7709  126.6168 C   0  0  0  0  0  0  0  0  0  0  0  0
  167.3916  152.5717  127.5178 C   0  0  0  0  0  0  0  0  0  0  0  0
  165.9869  152.4062  128.0232 C   0  0  2  0  0  0  0  0  0  0  0  0
  165.9224  151.3565  129.1228 C   0  0  0  0  0  0  0  0  0  0  0  0
  164.9675  150.2483  128.8793 C   0  0  0  0  0  0  0  0  0  0  0  0
  165.1734  149.6593  127.5174 C   0  0  2  0  0  0  0  0  0  0  0  0
  166.5634  149.1640  127.3894 C   0  0  0  0  0  0  0  0  0  0  0  0
  164.1500  148.5360  127.1985 C   0  0  1  0  0  0  0  0  0  0  0  0
  162.8060  149.2155  127.3220 C   0  0  0  0  0  0  0  0  0  0  0  0
  164.2855  147.5127  128.2585 C   0  0  0  0  0  0  0  0  0  0  0  0
  163.7196  146.1669  127.8419 C   0  0  1  0  0  0  0  0  0  0  0  0
  162.3569  146.3384  127.7008 O   0  0  0  0  0  0  0  0  0  0  0  0
  164.4471  145.7799  126.5786 C   0  0  1  0  0  0  0  0  0  0  0  0
  164.4578  144.3291  126.3015 C   0  0  2  0  0  0  0  0  0  0  0  0
  163.0824  143.6885  126.3074 C   0  0  0  0  0  0  0  0  0  0  0  0
  165.2209  143.6344  127.4196 C   0  0  0  0  0  0  0  0  0  0  0  0
  166.5233  144.0543  127.4994 O   0  0  0  0  0  0  0  0  0  0  0  0
  165.1070  143.9478  125.0173 C   0  0  1  0  0  0  0  0  0  0  0  0
  164.6232  142.6897  124.5965 O   0  0  0  0  0  0  0  0  0  0  0  0
  164.9595  144.9097  123.8892 C   0  0  2  0  0  0  0  0  0  0  0  0
  166.0173  144.6469  122.9855 O   0  0  0  0  0  0  0  0  0  0  0  0
  165.0965  146.3260  124.3008 C   0  0  0  0  0  0  0  0  0  0  0  0
  164.1235  146.6975  125.4357 C   0  0  2  0  0  0  0  0  0  0  0  0
  162.7711  146.5363  124.8559 C   0  0  0  0  0  0  0  0  0  0  0  0
  165.6121  153.6764  128.7086 C   0  0  0  0  0  0  0  0  0  0  0  0
  166.3751  154.0819  129.7816 O   0  0  0  0  0  0  0  0  0  0  0  0
  164.6497  154.3420  128.3267 O   0  0  0  0  0  0  0  0  0  0  0  0
  1  2  1  6
  2  3  1  0
  3  4  2  0
  5  4  1  6
  5  6  1  0
  6  7  1  1
  6  8  1  0
  8  9  1  6
  8 10  1  0
 10 11  1  0
 11 12  1  0
 12 13  1  0
 13 14  1  0
 14 15  1  0
 15 16  1  1
 15 17  1  0
 17 18  1  6
 17 19  1  0
 19 20  1  0
 20 21  1  6
 22 20  1  1
 22 23  1  0
 23 24  1  6
 23 25  1  0
 25 26  1  0
 23 27  1  0
 27 28  1  6
 27 29  1  0
 29 30  1  6
 29 31  1  0
 31 32  1  0
 32 33  1  6
 12 34  1  1
 34 35  1  0
 34 36  2  0
 17  1  1  0
 32 22  1  0
 32  1  1  0
 15  4  1  0
 12  5  1  0
M  END
$$$$
