
     RDKit          3D

 36 40  0  0  0  0  0  0  0  0999 V2000
  185.9212  161.9605  135.6843 C   0  0  1  0  0  0  0  0  0  0  0  0
  186.1760  163.2520  134.9614 C   0  0  0  0  0  0  0  0  0  0  0  0
  187.1029  162.9931  133.8326 C   0  0  0  0  0  0  0  0  0  0  0  0
  187.6840  161.8425  133.5557 C   0  0  0  0  0  0  0  0  0  0  0  0
  188.5903  161.7727  132.3796 C   0  0  2  0  0  0  0  0  0  0  0  0
  188.1838  162.7343  131.3115 C   0  0  1  0  0  0  0  0  0  0  0  0
  188.9934  164.0346  131.4417 C   0  0  0  0  0  0  0  0  0  0  0  0
  188.4140  162.2585  129.8995 C   0  0  2  0  0  0  0  0  0  0  0  0
  187.5673  163.2094  129.0238 C   0  0  0  0  0  0  0  0  0  0  0  0
  187.9229  160.8823  129.6381 C   0  0  0  0  0  0  0  0  0  0  0  0
  187.8577  159.9723  130.8328 C   0  0  0  0  0  0  0  0  0  0  0  0
  188.8553  160.3961  131.8725 C   0  0  2  0  0  0  0  0  0  0  0  0
  188.9773  159.3500  132.9706 C   0  0  0  0  0  0  0  0  0  0  0  0
  188.7366  159.8504  134.3457 C   0  0  0  0  0  0  0  0  0  0  0  0
  187.4558  160.6245  134.4127 C   0  0  2  0  0  0  0  0  0  0  0  0
  186.3273  159.7663  133.9840 C   0  0  0  0  0  0  0  0  0  0  0  0
  187.1984  161.2202  135.8233 C   0  0  1  0  0  0  0  0  0  0  0  0
  188.4018  162.0975  136.0784 C   0  0  0  0  0  0  0  0  0  0  0  0
  187.1997  160.0897  136.7778 C   0  0  0  0  0  0  0  0  0  0  0  0
  186.5034  160.4312  138.0830 C   0  0  1  0  0  0  0  0  0  0  0  0
  187.2698  161.4016  138.6971 O   0  0  0  0  0  0  0  0  0  0  0  0
  185.1067  160.8630  137.7117 C   0  0  1  0  0  0  0  0  0  0  0  0
  184.1168  160.7254  138.7993 C   0  0  2  0  0  0  0  0  0  0  0  0
  184.5250  161.4000  140.0957 C   0  0  0  0  0  0  0  0  0  0  0  0
  183.9896  159.2494  139.1462 C   0  0  0  0  0  0  0  0  0  0  0  0
  183.8622  159.0413  140.4950 O   0  0  0  0  0  0  0  0  0  0  0  0
  182.7541  161.2218  138.4640 C   0  0  1  0  0  0  0  0  0  0  0  0
  182.0587  161.5376  139.6517 O   0  0  0  0  0  0  0  0  0  0  0  0
  182.6831  162.3969  137.5509 C   0  0  2  0  0  0  0  0  0  0  0  0
  181.3933  162.3847  136.9668 O   0  0  0  0  0  0  0  0  0  0  0  0
  183.6542  162.3347  136.4341 C   0  0  0  0  0  0  0  0  0  0  0  0
  185.0996  162.1452  136.9314 C   0  0  2  0  0  0  0  0  0  0  0  0
  185.4045  163.3651  137.7126 C   0  0  0  0  0  0  0  0  0  0  0  0
  190.1967  160.3999  131.2213 C   0  0  0  0  0  0  0  0  0  0  0  0
  190.7527  159.1869  130.8784 O   0  0  0  0  0  0  0  0  0  0  0  0
  190.7890  161.4554  130.9971 O   0  0  0  0  0  0  0  0  0  0  0  0
  1  2  1  1
  2  3  1  0
  3  4  2  0
  5  4  1  1
  5  6  1  0
  6  7  1  1
  6  8  1  0
  8  9  1  6
  8 10  1  0
 10 11  1  0
 11 12  1  0
 12 13  1  0
 13 14  1  0
 14 15  1  0
 15 16  1  6
 15 17  1  0
 17 18  1  1
 17 19  1  0
 19 20  1  0
 20 21  1  6
 22 20  1  1
 22 23  1  0
 23 24  1  1
 23 25  1  0
 25 26  1  0
 23 27  1  0
 27 28  1  1
 27 29  1  0
 29 30  1  6
 29 31  1  0
 31 32  1  0
 32 33  1  1
 12 34  1  6
 34 35  1  0
 34 36  2  0
 17  1  1  0
 32 22  1  0
 32  1  1  0
 15  4  1  0
 12  5  1  0
M  END
$$$$
