
     RDKit          3D

 36 40  0  0  0  0  0  0  0  0999 V2000
  184.4559  162.1626  137.8558 C   0  0  1  0  0  0  0  0  0  0  0  0
  184.6034  163.3453  136.9421 C   0  0  0  0  0  0  0  0  0  0  0  0
  185.8674  163.2049  136.1786 C   0  0  0  0  0  0  0  0  0  0  0  0
  186.7643  162.2511  136.3339 C   0  0  0  0  0  0  0  0  0  0  0  0
  187.9785  162.2755  135.4769 C   0  0  2  0  0  0  0  0  0  0  0  0
  187.7035  162.8979  134.1474 C   0  0  1  0  0  0  0  0  0  0  0  0
  188.0956  164.3841  134.1737 C   0  0  0  0  0  0  0  0  0  0  0  0
  188.4661  162.3026  132.9911 C   0  0  2  0  0  0  0  0  0  0  0  0
  187.7291  162.8133  131.7325 C   0  0  0  0  0  0  0  0  0  0  0  0
  188.4259  160.8196  132.9404 C   0  0  0  0  0  0  0  0  0  0  0  0
  188.2153  160.1248  134.2567 C   0  0  0  0  0  0  0  0  0  0  0  0
  188.7100  160.9796  135.3882 C   0  0  2  0  0  0  0  0  0  0  0  0
  188.7343  160.1975  136.6931 C   0  0  0  0  0  0  0  0  0  0  0  0
  187.9675  160.8073  137.8064 C   0  0  0  0  0  0  0  0  0  0  0  0
  186.5822  161.1660  137.3632 C   0  0  2  0  0  0  0  0  0  0  0  0
  185.8826  159.9562  136.8729 C   0  0  0  0  0  0  0  0  0  0  0  0
  185.7661  161.8660  138.4835 C   0  0  1  0  0  0  0  0  0  0  0  0
  186.5837  163.0898  138.8256 C   0  0  0  0  0  0  0  0  0  0  0  0
  185.7440  160.9467  139.6425 C   0  0  0  0  0  0  0  0  0  0  0  0
  184.6178  161.2604  140.6110 C   0  0  1  0  0  0  0  0  0  0  0  0
  184.9000  162.4967  141.1572 O   0  0  0  0  0  0  0  0  0  0  0  0
  183.3436  161.1953  139.8065 C   0  0  1  0  0  0  0  0  0  0  0  0
  182.1297  160.9371  140.6074 C   0  0  2  0  0  0  0  0  0  0  0  0
  181.9424  161.8921  141.7715 C   0  0  0  0  0  0  0  0  0  0  0  0
  182.2602  159.5611  141.2435 C   0  0  0  0  0  0  0  0  0  0  0  0
  182.5299  158.5847  140.3200 O   0  0  0  0  0  0  0  0  0  0  0  0
  180.8601  160.9484  139.8302 C   0  0  1  0  0  0  0  0  0  0  0  0
  179.7772  161.2204  140.6948 O   0  0  0  0  0  0  0  0  0  0  0  0
  180.7945  161.8955  138.6820 C   0  0  2  0  0  0  0  0  0  0  0  0
  179.7912  161.4113  137.8081 O   0  0  0  0  0  0  0  0  0  0  0  0
  182.0482  161.9554  137.8954 C   0  0  0  0  0  0  0  0  0  0  0  0
  183.2701  162.2826  138.7744 C   0  0  2  0  0  0  0  0  0  0  0  0
  183.0159  163.6422  139.3019 C   0  0  0  0  0  0  0  0  0  0  0  0
  190.1447  161.2828  135.1176 C   0  0  0  0  0  0  0  0  0  0  0  0
  190.5472  162.5996  135.1629 O   0  0  0  0  0  0  0  0  0  0  0  0
  190.9448  160.3831  134.8615 O   0  0  0  0  0  0  0  0  0  0  0  0
  1  2  1  1
  2  3  1  0
  3  4  2  0
  5  4  1  6
  5  6  1  0
  6  7  1  1
  6  8  1  0
  8  9  1  6
  8 10  1  0
 10 11  1  0
 11 12  1  0
 12 13  1  0
 13 14  1  0
 14 15  1  0
 15 16  1  6
 15 17  1  0
 17 18  1  1
 17 19  1  0
 19 20  1  0
 20 21  1  6
 22 20  1  1
 22 23  1  0
 23 24  1  1
 23 25  1  0
 25 26  1  0
 23 27  1  0
 27 28  1  1
 27 29  1  0
 29 30  1  6
 29 31  1  0
 31 32  1  0
 32 33  1  1
 12 34  1  6
 34 35  1  0
 34 36  2  0
 17  1  1  0
 32 22  1  0
 32  1  1  0
 15  4  1  0
 12  5  1  0
M  END
$$$$
