
     RDKit          3D

 36 40  0  0  0  0  0  0  0  0999 V2000
  165.3589  146.2191  126.2523 C   0  0  1  0  0  0  0  0  0  0  0  0
  165.0399  146.2318  127.7197 C   0  0  0  0  0  0  0  0  0  0  0  0
  165.2168  147.6113  128.2355 C   0  0  0  0  0  0  0  0  0  0  0  0
  165.6665  148.6432  127.5491 C   0  0  0  0  0  0  0  0  0  0  0  0
  165.7808  149.9554  128.2379 C   0  0  2  0  0  0  0  0  0  0  0  0
  164.7578  150.1039  129.3160 C   0  0  1  0  0  0  0  0  0  0  0  0
  165.3660  149.7122  130.6724 C   0  0  0  0  0  0  0  0  0  0  0  0
  164.2239  151.5011  129.5047 C   0  0  2  0  0  0  0  0  0  0  0  0
  162.9424  151.3191  130.3488 C   0  0  0  0  0  0  0  0  0  0  0  0
  163.8160  152.1675  128.2425 C   0  0  0  0  0  0  0  0  0  0  0  0
  164.5115  151.6932  126.9971 C   0  0  0  0  0  0  0  0  0  0  0  0
  165.8654  151.1351  127.3304 C   0  0  2  0  0  0  0  0  0  0  0  0
  166.6775  150.8824  126.0687 C   0  0  0  0  0  0  0  0  0  0  0  0
  167.1800  149.4960  125.9112 C   0  0  0  0  0  0  0  0  0  0  0  0
  166.0736  148.5048  126.1051 C   0  0  2  0  0  0  0  0  0  0  0  0
  164.9913  148.7626  125.1274 C   0  0  0  0  0  0  0  0  0  0  0  0
  166.5718  147.0372  126.0107 C   0  0  1  0  0  0  0  0  0  0  0  0
  167.6192  146.9328  127.0948 C   0  0  0  0  0  0  0  0  0  0  0  0
  167.2137  146.8818  124.6868 C   0  0  0  0  0  0  0  0  0  0  0  0
  167.3163  145.4290  124.2583 C   0  0  1  0  0  0  0  0  0  0  0  0
  168.1883  144.8188  125.1378 O   0  0  0  0  0  0  0  0  0  0  0  0
  165.9090  144.8867  124.2774 C   0  0  1  0  0  0  0  0  0  0  0  0
  165.6984  143.7075  123.4131 C   0  0  2  0  0  0  0  0  0  0  0  0
  166.6781  142.5759  123.6618 C   0  0  0  0  0  0  0  0  0  0  0  0
  165.9363  144.1245  121.9692 C   0  0  0  0  0  0  0  0  0  0  0  0
  164.8293  143.9338  121.1837 O   0  0  0  0  0  0  0  0  0  0  0  0
  164.3323  143.1209  123.4865 C   0  0  1  0  0  0  0  0  0  0  0  0
  164.3739  141.7694  123.0793 O   0  0  0  0  0  0  0  0  0  0  0  0
  163.6506  143.1927  124.8093 C   0  0  2  0  0  0  0  0  0  0  0  0
  162.2614  143.0772  124.5612 O   0  0  0  0  0  0  0  0  0  0  0  0
  163.8504  144.4847  125.5056 C   0  0  0  0  0  0  0  0  0  0  0  0
  165.3421  144.8333  125.6661 C   0  0  2  0  0  0  0  0  0  0  0  0
  165.8968  143.7730  126.5376 C   0  0  0  0  0  0  0  0  0  0  0  0
  166.6209  152.2055  128.0425 C   0  0  0  0  0  0  0  0  0  0  0  0
  167.0494  153.2911  127.3104 O   0  0  0  0  0  0  0  0  0  0  0  0
  166.8544  152.1210  129.2481 O   0  0  0  0  0  0  0  0  0  0  0  0
  1  2  1  1
  2  3  1  0
  3  4  2  0
  5  4  1  6
  5  6  1  0
  6  7  1  1
  6  8  1  0
  8  9  1  1
  8 10  1  0
 10 11  1  0
 11 12  1  0
 12 13  1  0
 13 14  1  0
 14 15  1  0
 15 16  1  6
 15 17  1  0
 17 18  1  1
 17 19  1  0
 19 20  1  0
 20 21  1  1
 22 20  1  1
 22 23  1  0
 23 24  1  1
 23 25  1  0
 25 26  1  0
 23 27  1  0
 27 28  1  1
 27 29  1  0
 29 30  1  6
 29 31  1  0
 31 32  1  0
 32 33  1  1
 12 34  1  1
 34 35  1  0
 34 36  2  0
 17  1  1  0
 32 22  1  0
 32  1  1  0
 15  4  1  0
 12  5  1  0
M  END
$$$$
