
     RDKit          3D

 36 40  0  0  0  0  0  0  0  0999 V2000
  132.1132  164.5565  153.9174 C   0  0  1  0  0  0  0  0  0  0  0  0
  131.8825  166.0167  153.6528 C   0  0  0  0  0  0  0  0  0  0  0  0
  131.3383  166.1740  152.2819 C   0  0  0  0  0  0  0  0  0  0  0  0
  131.1672  165.2082  151.4008 C   0  0  0  0  0  0  0  0  0  0  0  0
  130.6100  165.5573  150.0678 C   0  0  2  0  0  0  0  0  0  0  0  0
  129.6939  166.7346  150.1434 C   0  0  1  0  0  0  0  0  0  0  0  0
  130.4617  168.0190  149.7914 C   0  0  0  0  0  0  0  0  0  0  0  0
  128.5216  166.6961  149.1963 C   0  0  2  0  0  0  0  0  0  0  0  0
  127.5472  167.7668  149.7369 C   0  0  0  0  0  0  0  0  0  0  0  0
  127.7863  165.4066  149.1971 C   0  0  0  0  0  0  0  0  0  0  0  0
  128.5849  164.1976  149.5974 C   0  0  0  0  0  0  0  0  0  0  0  0
  130.0428  164.4092  149.3046 C   0  0  2  0  0  0  0  0  0  0  0  0
  130.8262  163.1152  149.4694 C   0  0  0  0  0  0  0  0  0  0  0  0
  131.9670  163.1865  150.4142 C   0  0  0  0  0  0  0  0  0  0  0  0
  131.5389  163.7834  151.7198 C   0  0  2  0  0  0  0  0  0  0  0  0
  130.4472  162.9737  152.3082 C   0  0  0  0  0  0  0  0  0  0  0  0
  132.7202  163.9341  152.7162 C   0  0  1  0  0  0  0  0  0  0  0  0
  133.7063  164.8177  151.9882 C   0  0  0  0  0  0  0  0  0  0  0  0
  133.3057  162.5879  152.9009 C   0  0  0  0  0  0  0  0  0  0  0  0
  134.1297  162.4827  154.1717 C   0  0  1  0  0  0  0  0  0  0  0  0
  135.2203  163.3128  154.0047 O   0  0  0  0  0  0  0  0  0  0  0  0
  133.2064  162.8636  155.3019 C   0  0  1  0  0  0  0  0  0  0  0  0
  133.6067  162.3329  156.6210 C   0  0  2  0  0  0  0  0  0  0  0  0
  135.0377  162.6553  157.0088 C   0  0  0  0  0  0  0  0  0  0  0  0
  133.5468  160.8136  156.5634 C   0  0  0  0  0  0  0  0  0  0  0  0
  133.3270  160.2547  157.7955 O   0  0  0  0  0  0  0  0  0  0  0  0
  132.7433  162.7686  157.7526 C   0  0  1  0  0  0  0  0  0  0  0  0
  133.4635  162.6717  158.9634 O   0  0  0  0  0  0  0  0  0  0  0  0
  132.1670  164.1392  157.6567 C   0  0  2  0  0  0  0  0  0  0  0  0
  131.0298  164.1655  158.4999 O   0  0  0  0  0  0  0  0  0  0  0  0
  131.6936  164.4853  156.2965 C   0  0  0  0  0  0  0  0  0  0  0  0
  132.7952  164.3055  155.2350 C   0  0  2  0  0  0  0  0  0  0  0  0
  133.8465  165.2827  155.5973 C   0  0  0  0  0  0  0  0  0  0  0  0
  130.1599  164.7243  147.8518 C   0  0  0  0  0  0  0  0  0  0  0  0
  129.0756  164.4619  147.0436 O   0  0  0  0  0  0  0  0  0  0  0  0
  131.1946  165.2045  147.3894 O   0  0  0  0  0  0  0  0  0  0  0  0
  1  2  1  6
  2  3  1  0
  3  4  2  0
  5  4  1  1
  5  6  1  0
  6  7  1  6
  6  8  1  0
  8  9  1  1
  8 10  1  0
 10 11  1  0
 11 12  1  0
 12 13  1  0
 13 14  1  0
 14 15  1  0
 15 16  1  1
 15 17  1  0
 17 18  1  6
 17 19  1  0
 19 20  1  0
 20 21  1  6
 22 20  1  6
 22 23  1  0
 23 24  1  1
 23 25  1  0
 25 26  1  0
 23 27  1  0
 27 28  1  1
 27 29  1  0
 29 30  1  1
 29 31  1  0
 31 32  1  0
 32 33  1  1
 12 34  1  6
 34 35  1  0
 34 36  2  0
 17  1  1  0
 32 22  1  0
 32  1  1  0
 15  4  1  0
 12  5  1  0
M  END
$$$$
