
     RDKit          3D

 36 40  0  0  0  0  0  0  0  0999 V2000
  172.3453  163.7035  111.4941 C   0  0  1  0  0  0  0  0  0  0  0  0
  171.6017  162.5137  112.0296 C   0  0  0  0  0  0  0  0  0  0  0  0
  172.2499  162.0716  113.2885 C   0  0  0  0  0  0  0  0  0  0  0  0
  173.3504  162.5754  113.8114 C   0  0  0  0  0  0  0  0  0  0  0  0
  173.8570  161.9988  115.0843 C   0  0  2  0  0  0  0  0  0  0  0  0
  172.7466  161.4680  115.9305 C   0  0  1  0  0  0  0  0  0  0  0  0
  172.5850  159.9575  115.6953 C   0  0  0  0  0  0  0  0  0  0  0  0
  172.9434  161.6234  117.4171 C   0  0  2  0  0  0  0  0  0  0  0  0
  171.5413  161.3898  118.0234 C   0  0  0  0  0  0  0  0  0  0  0  0
  173.3692  162.9838  117.8313 C   0  0  0  0  0  0  0  0  0  0  0  0
  174.1127  163.7808  116.7960 C   0  0  0  0  0  0  0  0  0  0  0  0
  174.8118  162.8672  115.8304 C   0  0  2  0  0  0  0  0  0  0  0  0
  175.7634  163.6455  114.9338 C   0  0  0  0  0  0  0  0  0  0  0  0
  175.5363  163.4761  113.4781 C   0  0  0  0  0  0  0  0  0  0  0  0
  174.0948  163.6979  113.1361 C   0  0  2  0  0  0  0  0  0  0  0  0
  173.6825  165.0571  113.5556 C   0  0  0  0  0  0  0  0  0  0  0  0
  173.8030  163.4674  111.6286 C   0  0  1  0  0  0  0  0  0  0  0  0
  174.2271  162.0377  111.3851 C   0  0  0  0  0  0  0  0  0  0  0  0
  174.6871  164.3808  110.8715 C   0  0  0  0  0  0  0  0  0  0  0  0
  174.1975  164.6206  109.4545 C   0  0  1  0  0  0  0  0  0  0  0  0
  174.3004  163.4137  108.7919 O   0  0  0  0  0  0  0  0  0  0  0  0
  172.7946  165.1596  109.5821 C   0  0  1  0  0  0  0  0  0  0  0  0
  172.3354  165.9451  108.4185 C   0  0  2  0  0  0  0  0  0  0  0  0
  172.4799  165.2251  107.0907 C   0  0  0  0  0  0  0  0  0  0  0  0
  173.2177  167.1786  108.2960 C   0  0  0  0  0  0  0  0  0  0  0  0
  172.8753  168.1543  109.1958 O   0  0  0  0  0  0  0  0  0  0  0  0
  170.9254  166.4145  108.5047 C   0  0  1  0  0  0  0  0  0  0  0  0
  170.4297  166.6680  107.2069 O   0  0  0  0  0  0  0  0  0  0  0  0
  169.9686  165.5129  109.2057 C   0  0  2  0  0  0  0  0  0  0  0  0
  168.8805  166.3161  109.6246 O   0  0  0  0  0  0  0  0  0  0  0  0
  170.5313  164.8918  110.4271 C   0  0  0  0  0  0  0  0  0  0  0  0
  171.8460  164.1409  110.1437 C   0  0  2  0  0  0  0  0  0  0  0  0
  171.4753  163.0432  109.2224 C   0  0  0  0  0  0  0  0  0  0  0  0
  175.7059  161.9811  116.6297 C   0  0  0  0  0  0  0  0  0  0  0  0
  176.6137  162.5748  117.4790 O   0  0  0  0  0  0  0  0  0  0  0  0
  175.6345  160.7561  116.5330 O   0  0  0  0  0  0  0  0  0  0  0  0
  1  2  1  6
  2  3  1  0
  3  4  2  0
  5  4  1  6
  5  6  1  0
  6  7  1  1
  6  8  1  0
  8  9  1  1
  8 10  1  0
 10 11  1  0
 11 12  1  0
 12 13  1  0
 13 14  1  0
 14 15  1  0
 15 16  1  1
 15 17  1  0
 17 18  1  6
 17 19  1  0
 19 20  1  0
 20 21  1  6
 22 20  1  6
 22 23  1  0
 23 24  1  6
 23 25  1  0
 25 26  1  0
 23 27  1  0
 27 28  1  6
 27 29  1  0
 29 30  1  1
 29 31  1  0
 31 32  1  0
 32 33  1  6
 12 34  1  1
 34 35  1  0
 34 36  2  0
 17  1  1  0
 32 22  1  0
 32  1  1  0
 15  4  1  0
 12  5  1  0
M  END
$$$$
