
     RDKit          3D

 36 40  0  0  0  0  0  0  0  0999 V2000
  128.6162  141.5857  134.7484 C   0  0  1  0  0  0  0  0  0  0  0  0
  128.6436  142.0318  136.1821 C   0  0  0  0  0  0  0  0  0  0  0  0
  128.6788  143.5142  136.2209 C   0  0  0  0  0  0  0  0  0  0  0  0
  128.7639  144.3146  135.1767 C   0  0  0  0  0  0  0  0  0  0  0  0
  128.7910  145.7823  135.4107 C   0  0  2  0  0  0  0  0  0  0  0  0
  128.0316  146.1593  136.6403 C   0  0  1  0  0  0  0  0  0  0  0  0
  128.9942  146.2853  137.8322 C   0  0  0  0  0  0  0  0  0  0  0  0
  127.3090  147.4805  136.5673 C   0  0  2  0  0  0  0  0  0  0  0  0
  126.3092  147.4447  137.7451 C   0  0  0  0  0  0  0  0  0  0  0  0
  126.5093  147.6641  135.3303 C   0  0  0  0  0  0  0  0  0  0  0  0
  126.9768  146.8929  134.1277 C   0  0  0  0  0  0  0  0  0  0  0  0
  128.4496  146.6136  134.2213 C   0  0  2  0  0  0  0  0  0  0  0  0
  128.9844  146.0580  132.9097 C   0  0  0  0  0  0  0  0  0  0  0  0
  129.6820  144.7537  133.0169 C   0  0  0  0  0  0  0  0  0  0  0  0
  128.8490  143.7667  133.7758 C   0  0  2  0  0  0  0  0  0  0  0  0
  127.5438  143.5860  133.0995 C   0  0  0  0  0  0  0  0  0  0  0  0
  129.5717  142.4055  133.9651 C   0  0  1  0  0  0  0  0  0  0  0  0
  130.8399  142.7611  134.7058 C   0  0  0  0  0  0  0  0  0  0  0  0
  129.9119  141.9041  132.6153 C   0  0  0  0  0  0  0  0  0  0  0  0
  130.1774  140.4094  132.6011 C   0  0  1  0  0  0  0  0  0  0  0  0
  131.3234  140.2050  133.3435 O   0  0  0  0  0  0  0  0  0  0  0  0
  128.9347  139.7584  133.1553 C   0  0  1  0  0  0  0  0  0  0  0  0
  128.7513  138.3503  132.7487 C   0  0  2  0  0  0  0  0  0  0  0  0
  129.9515  137.4649  133.0279 C   0  0  0  0  0  0  0  0  0  0  0  0
  128.5733  138.3081  131.2382 C   0  0  0  0  0  0  0  0  0  0  0  0
  127.9125  137.1810  130.8237 O   0  0  0  0  0  0  0  0  0  0  0  0
  127.5686  137.6791  133.3541 C   0  0  1  0  0  0  0  0  0  0  0  0
  127.7621  136.2803  133.3476 O   0  0  0  0  0  0  0  0  0  0  0  0
  127.2054  138.0972  134.7372 C   0  0  2  0  0  0  0  0  0  0  0  0
  125.8413  137.7652  134.9208 O   0  0  0  0  0  0  0  0  0  0  0  0
  127.3195  139.5571  134.9604 C   0  0  0  0  0  0  0  0  0  0  0  0
  128.7193  140.0915  134.6029 C   0  0  2  0  0  0  0  0  0  0  0  0
  129.6421  139.4276  135.5510 C   0  0  0  0  0  0  0  0  0  0  0  0
  129.1393  147.9274  134.3695 C   0  0  0  0  0  0  0  0  0  0  0  0
  130.1229  148.0370  135.3279 O   0  0  0  0  0  0  0  0  0  0  0  0
  128.8384  148.8846  133.6566 O   0  0  0  0  0  0  0  0  0  0  0  0
  1  2  1  1
  2  3  1  0
  3  4  2  0
  5  4  1  6
  5  6  1  0
  6  7  1  1
  6  8  1  0
  8  9  1  1
  8 10  1  0
 10 11  1  0
 11 12  1  0
 12 13  1  0
 13 14  1  0
 14 15  1  0
 15 16  1  6
 15 17  1  0
 17 18  1  1
 17 19  1  0
 19 20  1  0
 20 21  1  1
 22 20  1  1
 22 23  1  0
 23 24  1  6
 23 25  1  0
 25 26  1  0
 23 27  1  0
 27 28  1  1
 27 29  1  0
 29 30  1  6
 29 31  1  0
 31 32  1  0
 32 33  1  1
 12 34  1  1
 34 35  1  0
 34 36  2  0
 17  1  1  0
 32 22  1  0
 32  1  1  0
 15  4  1  0
 12  5  1  0
M  END
$$$$
