
     RDKit          3D

 36 40  0  0  0  0  0  0  0  0999 V2000
  155.0215  148.6268  123.3414 C   0  0  1  0  0  0  0  0  0  0  0  0
  153.9101  147.8461  123.9822 C   0  0  0  0  0  0  0  0  0  0  0  0
  152.6146  148.4656  123.6104 C   0  0  0  0  0  0  0  0  0  0  0  0
  152.4575  149.5711  122.9093 C   0  0  0  0  0  0  0  0  0  0  0  0
  151.0754  150.0453  122.6365 C   0  0  2  0  0  0  0  0  0  0  0  0
  150.1079  148.9103  122.5567 C   0  0  1  0  0  0  0  0  0  0  0  0
  149.4178  148.7139  123.9163 C   0  0  0  0  0  0  0  0  0  0  0  0
  148.9895  149.0903  121.5619 C   0  0  2  0  0  0  0  0  0  0  0  0
  148.3980  147.6745  121.3784 C   0  0  0  0  0  0  0  0  0  0  0  0
  149.4399  149.5446  120.2223 C   0  0  0  0  0  0  0  0  0  0  0  0
  150.7260  150.3221  120.1927 C   0  0  0  0  0  0  0  0  0  0  0  0
  150.9549  151.0113  121.5074 C   0  0  2  0  0  0  0  0  0  0  0  0
  152.1124  151.9945  121.4143 C   0  0  0  0  0  0  0  0  0  0  0  0
  153.1983  151.7834  122.4020 C   0  0  0  0  0  0  0  0  0  0  0  0
  153.6427  150.3528  122.4050 C   0  0  2  0  0  0  0  0  0  0  0  0
  154.1098  149.9691  121.0529 C   0  0  0  0  0  0  0  0  0  0  0  0
  154.7365  150.0761  123.4718 C   0  0  1  0  0  0  0  0  0  0  0  0
  154.0852  150.4674  124.7779 C   0  0  0  0  0  0  0  0  0  0  0  0
  155.8618  150.9933  123.1866 C   0  0  0  0  0  0  0  0  0  0  0  0
  157.1628  150.5296  123.8169 C   0  0  1  0  0  0  0  0  0  0  0  0
  156.9899  150.6112  125.1843 O   0  0  0  0  0  0  0  0  0  0  0  0
  157.4117  149.1391  123.2882 C   0  0  1  0  0  0  0  0  0  0  0  0
  158.8263  148.7159  123.3283 C   0  0  2  0  0  0  0  0  0  0  0  0
  159.4764  148.8606  124.6917 C   0  0  0  0  0  0  0  0  0  0  0  0
  159.6252  149.6306  122.4117 C   0  0  0  0  0  0  0  0  0  0  0  0
  159.8921  149.0483  121.1999 O   0  0  0  0  0  0  0  0  0  0  0  0
  159.0681  147.3172  122.8802 C   0  0  1  0  0  0  0  0  0  0  0  0
  160.2807  146.8460  123.4294 O   0  0  0  0  0  0  0  0  0  0  0  0
  157.9969  146.3283  123.1878 C   0  0  2  0  0  0  0  0  0  0  0  0
  158.1563  145.2551  122.2781 O   0  0  0  0  0  0  0  0  0  0  0  0
  156.6291  146.8583  122.9819 C   0  0  0  0  0  0  0  0  0  0  0  0
  156.3847  148.1575  123.7725 C   0  0  2  0  0  0  0  0  0  0  0  0
  156.4976  147.7719  125.1972 C   0  0  0  0  0  0  0  0  0  0  0  0
  149.7652  151.8717  121.7678 C   0  0  0  0  0  0  0  0  0  0  0  0
  149.0184  151.6182  122.8974 O   0  0  0  0  0  0  0  0  0  0  0  0
  149.4601  152.7808  120.9961 O   0  0  0  0  0  0  0  0  0  0  0  0
  1  2  1  1
  2  3  1  0
  3  4  2  0
  5  4  1  6
  5  6  1  0
  6  7  1  1
  6  8  1  0
  8  9  1  6
  8 10  1  0
 10 11  1  0
 11 12  1  0
 12 13  1  0
 13 14  1  0
 14 15  1  0
 15 16  1  6
 15 17  1  0
 17 18  1  1
 17 19  1  0
 19 20  1  0
 20 21  1  1
 22 20  1  1
 22 23  1  0
 23 24  1  1
 23 25  1  0
 25 26  1  0
 23 27  1  0
 27 28  1  1
 27 29  1  0
 29 30  1  6
 29 31  1  0
 31 32  1  0
 32 33  1  1
 12 34  1  1
 34 35  1  0
 34 36  2  0
 17  1  1  0
 32 22  1  0
 32  1  1  0
 15  4  1  0
 12  5  1  0
M  END
$$$$
