
     RDKit          3D

 36 40  0  0  0  0  0  0  0  0999 V2000
  164.8046  153.0842  127.0160 C   0  0  1  0  0  0  0  0  0  0  0  0
  164.8315  154.1227  128.1005 C   0  0  0  0  0  0  0  0  0  0  0  0
  165.4621  155.3548  127.5671 C   0  0  0  0  0  0  0  0  0  0  0  0
  165.9958  155.4958  126.3698 C   0  0  0  0  0  0  0  0  0  0  0  0
  166.5886  156.8106  126.0099 C   0  0  2  0  0  0  0  0  0  0  0  0
  165.9011  157.9364  126.7103 C   0  0  1  0  0  0  0  0  0  0  0  0
  166.6741  158.3096  127.9857 C   0  0  0  0  0  0  0  0  0  0  0  0
  165.7946  159.2145  125.9179 C   0  0  2  0  0  0  0  0  0  0  0  0
  164.7280  160.0485  126.6628 C   0  0  0  0  0  0  0  0  0  0  0  0
  165.3007  159.0258  124.5308 C   0  0  0  0  0  0  0  0  0  0  0  0
  165.5602  157.6766  123.9211 C   0  0  0  0  0  0  0  0  0  0  0  0
  166.7672  157.0392  124.5476 C   0  0  2  0  0  0  0  0  0  0  0  0
  167.1891  155.7958  123.7787 C   0  0  0  0  0  0  0  0  0  0  0  0
  167.2757  154.5555  124.5870 C   0  0  0  0  0  0  0  0  0  0  0  0
  166.0251  154.3543  125.3868 C   0  0  2  0  0  0  0  0  0  0  0  0
  164.8553  154.2849  124.4810 C   0  0  0  0  0  0  0  0  0  0  0  0
  166.1010  153.0982  126.2963 C   0  0  1  0  0  0  0  0  0  0  0  0
  167.3003  153.3539  127.1792 C   0  0  0  0  0  0  0  0  0  0  0  0
  166.3736  151.9412  125.4154 C   0  0  0  0  0  0  0  0  0  0  0  0
  166.0069  150.6184  126.0641 C   0  0  1  0  0  0  0  0  0  0  0  0
  166.8675  150.4499  127.1305 O   0  0  0  0  0  0  0  0  0  0  0  0
  164.5482  150.7236  126.4332 C   0  0  1  0  0  0  0  0  0  0  0  0
  163.8598  149.4242  126.5731 C   0  0  2  0  0  0  0  0  0  0  0  0
  164.5501  148.4573  127.5169 C   0  0  0  0  0  0  0  0  0  0  0  0
  163.8707  148.7292  125.2196 C   0  0  0  0  0  0  0  0  0  0  0  0
  162.6725  148.8477  124.5644 O   0  0  0  0  0  0  0  0  0  0  0  0
  162.4406  149.5186  127.0124 C   0  0  1  0  0  0  0  0  0  0  0  0
  162.0470  148.3008  127.6092 O   0  0  0  0  0  0  0  0  0  0  0  0
  162.1091  150.6295  127.9480 C   0  0  2  0  0  0  0  0  0  0  0  0
  160.7168  150.8600  127.8337 O   0  0  0  0  0  0  0  0  0  0  0  0
  162.7789  151.9061  127.6076 C   0  0  0  0  0  0  0  0  0  0  0  0
  164.3076  151.7496  127.5019 C   0  0  2  0  0  0  0  0  0  0  0  0
  164.7534  151.3671  128.8607 C   0  0  0  0  0  0  0  0  0  0  0  0
  167.9076  157.9832  124.3690 C   0  0  0  0  0  0  0  0  0  0  0  0
  168.9152  157.9653  125.3084 O   0  0  0  0  0  0  0  0  0  0  0  0
  167.9468  158.7549  123.4110 O   0  0  0  0  0  0  0  0  0  0  0  0
  1  2  1  1
  2  3  1  0
  3  4  2  0
  5  4  1  6
  5  6  1  0
  6  7  1  1
  6  8  1  0
  8  9  1  1
  8 10  1  0
 10 11  1  0
 11 12  1  0
 12 13  1  0
 13 14  1  0
 14 15  1  0
 15 16  1  6
 15 17  1  0
 17 18  1  1
 17 19  1  0
 19 20  1  0
 20 21  1  1
 22 20  1  1
 22 23  1  0
 23 24  1  1
 23 25  1  0
 25 26  1  0
 23 27  1  0
 27 28  1  1
 27 29  1  0
 29 30  1  6
 29 31  1  0
 31 32  1  0
 32 33  1  1
 12 34  1  1
 34 35  1  0
 34 36  2  0
 17  1  1  0
 32 22  1  0
 32  1  1  0
 15  4  1  0
 12  5  1  0
M  END
$$$$
