
     RDKit          3D

 36 40  0  0  0  0  0  0  0  0999 V2000
  163.9652  148.4721  125.6119 C   0  0  1  0  0  0  0  0  0  0  0  0
  162.9594  149.4969  126.0518 C   0  0  0  0  0  0  0  0  0  0  0  0
  163.6707  150.5971  126.7474 C   0  0  0  0  0  0  0  0  0  0  0  0
  164.9601  150.6355  127.0199 C   0  0  0  0  0  0  0  0  0  0  0  0
  165.4976  151.8247  127.7314 C   0  0  2  0  0  0  0  0  0  0  0  0
  164.7159  153.0574  127.4149 C   0  0  1  0  0  0  0  0  0  0  0  0
  163.6556  153.2984  128.5015 C   0  0  0  0  0  0  0  0  0  0  0  0
  165.5226  154.3295  127.3530 C   0  0  2  0  0  0  0  0  0  0  0  0
  164.6026  155.3410  126.6329 C   0  0  0  0  0  0  0  0  0  0  0  0
  166.7605  154.2209  126.5408 C   0  0  0  0  0  0  0  0  0  0  0  0
  167.3512  152.8432  126.4285 C   0  0  0  0  0  0  0  0  0  0  0  0
  166.9726  152.0095  127.6190 C   0  0  2  0  0  0  0  0  0  0  0  0
  167.7585  150.7068  127.6454 C   0  0  0  0  0  0  0  0  0  0  0  0
  166.9337  149.4755  127.6981 C   0  0  0  0  0  0  0  0  0  0  0  0
  165.8744  149.5001  126.6390 C   0  0  2  0  0  0  0  0  0  0  0  0
  166.5020  149.6295  125.3038 C   0  0  0  0  0  0  0  0  0  0  0  0
  164.9478  148.2557  126.7010 C   0  0  1  0  0  0  0  0  0  0  0  0
  164.3573  148.3044  128.0910 C   0  0  0  0  0  0  0  0  0  0  0  0
  165.8146  147.0634  126.5739 C   0  0  0  0  0  0  0  0  0  0  0  0
  165.0438  145.8287  126.1419 C   0  0  1  0  0  0  0  0  0  0  0  0
  164.1822  145.5197  127.1756 O   0  0  0  0  0  0  0  0  0  0  0  0
  164.3733  146.1884  124.8396 C   0  0  1  0  0  0  0  0  0  0  0  0
  164.0304  145.0296  123.9903 C   0  0  2  0  0  0  0  0  0  0  0  0
  163.2160  143.9633  124.6989 C   0  0  0  0  0  0  0  0  0  0  0  0
  165.3220  144.3348  123.5853 C   0  0  0  0  0  0  0  0  0  0  0  0
  165.3346  143.0113  123.9421 O   0  0  0  0  0  0  0  0  0  0  0  0
  163.2995  145.3722  122.7396 C   0  0  1  0  0  0  0  0  0  0  0  0
  162.5782  144.2453  122.2879 O   0  0  0  0  0  0  0  0  0  0  0  0
  162.3646  146.5298  122.8145 C   0  0  2  0  0  0  0  0  0  0  0  0
  162.1856  146.9984  121.4904 O   0  0  0  0  0  0  0  0  0  0  0  0
  162.8981  147.6682  123.5978 C   0  0  0  0  0  0  0  0  0  0  0  0
  163.3245  147.2474  125.0169 C   0  0  2  0  0  0  0  0  0  0  0  0
  162.0786  146.8018  125.6804 C   0  0  0  0  0  0  0  0  0  0  0  0
  167.4351  152.7395  128.8342 C   0  0  0  0  0  0  0  0  0  0  0  0
  166.6366  152.6991  129.9561 O   0  0  0  0  0  0  0  0  0  0  0  0
  168.4985  153.3594  128.8342 O   0  0  0  0  0  0  0  0  0  0  0  0
  1  2  1  1
  2  3  1  0
  3  4  2  0
  5  4  1  6
  5  6  1  0
  6  7  1  1
  6  8  1  0
  8  9  1  6
  8 10  1  0
 10 11  1  0
 11 12  1  0
 12 13  1  0
 13 14  1  0
 14 15  1  0
 15 16  1  6
 15 17  1  0
 17 18  1  1
 17 19  1  0
 19 20  1  0
 20 21  1  1
 22 20  1  1
 22 23  1  0
 23 24  1  1
 23 25  1  0
 25 26  1  0
 23 27  1  0
 27 28  1  1
 27 29  1  0
 29 30  1  6
 29 31  1  0
 31 32  1  0
 32 33  1  1
 12 34  1  1
 34 35  1  0
 34 36  2  0
 17  1  1  0
 32 22  1  0
 32  1  1  0
 15  4  1  0
 12  5  1  0
M  END
$$$$
