
     RDKit          3D

 36 40  0  0  0  0  0  0  0  0999 V2000
  164.8344  154.7763  126.6416 C   0  0  1  0  0  0  0  0  0  0  0  0
  164.0978  154.2359  125.4497 C   0  0  0  0  0  0  0  0  0  0  0  0
  164.2729  152.7635  125.4067 C   0  0  0  0  0  0  0  0  0  0  0  0
  165.0231  152.0486  126.2217 C   0  0  0  0  0  0  0  0  0  0  0  0
  165.0797  150.5766  126.0227 C   0  0  2  0  0  0  0  0  0  0  0  0
  163.8073  150.0482  125.4459 C   0  0  1  0  0  0  0  0  0  0  0  0
  163.9354  149.9268  123.9188 C   0  0  0  0  0  0  0  0  0  0  0  0
  163.4080  148.6756  125.9249 C   0  0  2  0  0  0  0  0  0  0  0  0
  161.9215  148.5393  125.5250 C   0  0  0  0  0  0  0  0  0  0  0  0
  163.4736  148.5072  127.3984 C   0  0  0  0  0  0  0  0  0  0  0  0
  164.4473  149.3991  128.1167 C   0  0  0  0  0  0  0  0  0  0  0  0
  165.5667  149.8026  127.2001 C   0  0  2  0  0  0  0  0  0  0  0  0
  166.6815  150.4939  127.9711 C   0  0  0  0  0  0  0  0  0  0  0  0
  167.0431  151.8450  127.4782 C   0  0  0  0  0  0  0  0  0  0  0  0
  165.8215  152.6980  127.3221 C   0  0  2  0  0  0  0  0  0  0  0  0
  165.1160  152.8071  128.6198 C   0  0  0  0  0  0  0  0  0  0  0  0
  166.1509  154.1022  126.7471 C   0  0  1  0  0  0  0  0  0  0  0  0
  166.8096  153.8115  125.4186 C   0  0  0  0  0  0  0  0  0  0  0  0
  167.1343  154.7247  127.6605 C   0  0  0  0  0  0  0  0  0  0  0  0
  167.1896  156.2347  127.5122 C   0  0  1  0  0  0  0  0  0  0  0  0
  167.6839  156.4892  126.2484 O   0  0  0  0  0  0  0  0  0  0  0  0
  165.7869  156.7311  127.7595 C   0  0  1  0  0  0  0  0  0  0  0  0
  165.7067  158.1418  128.1897 C   0  0  2  0  0  0  0  0  0  0  0  0
  166.4296  159.1101  127.2720 C   0  0  0  0  0  0  0  0  0  0  0  0
  166.4094  158.2728  129.5329 C   0  0  0  0  0  0  0  0  0  0  0  0
  165.8393  157.4829  130.4973 O   0  0  0  0  0  0  0  0  0  0  0  0
  164.3218  158.6601  128.3608 C   0  0  1  0  0  0  0  0  0  0  0  0
  164.3248  160.0677  128.2476 O   0  0  0  0  0  0  0  0  0  0  0  0
  163.2913  158.1160  127.4325 C   0  0  2  0  0  0  0  0  0  0  0  0
  162.0349  158.3103  128.0556 O   0  0  0  0  0  0  0  0  0  0  0  0
  163.4243  156.6603  127.1928 C   0  0  0  0  0  0  0  0  0  0  0  0
  164.8311  156.2802  126.6937 C   0  0  2  0  0  0  0  0  0  0  0  0
  164.9747  156.9569  125.3850 C   0  0  0  0  0  0  0  0  0  0  0  0
  166.1959  148.5491  126.6937 C   0  0  0  0  0  0  0  0  0  0  0  0
  166.6153  148.5202  125.3817 O   0  0  0  0  0  0  0  0  0  0  0  0
  166.3362  147.5701  127.4264 O   0  0  0  0  0  0  0  0  0  0  0  0
  1  2  1  6
  2  3  1  0
  3  4  2  0
  5  4  1  1
  5  6  1  0
  6  7  1  6
  6  8  1  0
  8  9  1  1
  8 10  1  0
 10 11  1  0
 11 12  1  0
 12 13  1  0
 13 14  1  0
 14 15  1  0
 15 16  1  1
 15 17  1  0
 17 18  1  6
 17 19  1  0
 19 20  1  0
 20 21  1  6
 22 20  1  6
 22 23  1  0
 23 24  1  6
 23 25  1  0
 25 26  1  0
 23 27  1  0
 27 28  1  6
 27 29  1  0
 29 30  1  1
 29 31  1  0
 31 32  1  0
 32 33  1  6
 12 34  1  6
 34 35  1  0
 34 36  2  0
 17  1  1  0
 32 22  1  0
 32  1  1  0
 15  4  1  0
 12  5  1  0
M  END
$$$$
