
     RDKit          3D

 36 40  0  0  0  0  0  0  0  0999 V2000
  163.4735  148.4185  125.6963 C   0  0  1  0  0  0  0  0  0  0  0  0
  163.4757  149.7569  125.0151 C   0  0  0  0  0  0  0  0  0  0  0  0
  164.7360  150.4628  125.3523 C   0  0  0  0  0  0  0  0  0  0  0  0
  165.6653  150.0343  126.1835 C   0  0  0  0  0  0  0  0  0  0  0  0
  166.8655  150.8838  126.4016 C   0  0  2  0  0  0  0  0  0  0  0  0
  167.1953  151.6945  125.1914 C   0  0  1  0  0  0  0  0  0  0  0  0
  166.5854  153.0997  125.3204 C   0  0  0  0  0  0  0  0  0  0  0  0
  168.6669  151.9169  124.9507 C   0  0  2  0  0  0  0  0  0  0  0  0
  168.7545  152.4003  123.4855 C   0  0  0  0  0  0  0  0  0  0  0  0
  169.4877  150.6837  125.0461 C   0  0  0  0  0  0  0  0  0  0  0  0
  168.9331  149.5939  125.9202 C   0  0  0  0  0  0  0  0  0  0  0  0
  168.0407  150.1726  126.9807 C   0  0  2  0  0  0  0  0  0  0  0  0
  167.6728  149.1217  128.0178 C   0  0  0  0  0  0  0  0  0  0  0  0
  166.2176  148.9231  128.2233 C   0  0  0  0  0  0  0  0  0  0  0  0
  165.5185  148.7244  126.9134 C   0  0  2  0  0  0  0  0  0  0  0  0
  166.0925  147.5541  126.2102 C   0  0  0  0  0  0  0  0  0  0  0  0
  163.9819  148.5758  127.0803 C   0  0  1  0  0  0  0  0  0  0  0  0
  163.5586  149.8589  127.7569 C   0  0  0  0  0  0  0  0  0  0  0  0
  163.7537  147.4360  127.9956 C   0  0  0  0  0  0  0  0  0  0  0  0
  162.3486  146.8723  127.8817 C   0  0  1  0  0  0  0  0  0  0  0  0
  161.4913  147.8551  128.3348 O   0  0  0  0  0  0  0  0  0  0  0  0
  162.1682  146.4873  126.4345 C   0  0  1  0  0  0  0  0  0  0  0  0
  161.1310  145.4617  126.2015 C   0  0  2  0  0  0  0  0  0  0  0  0
  159.7807  145.7998  126.8052 C   0  0  0  0  0  0  0  0  0  0  0  0
  161.5630  144.1785  126.8957 C   0  0  0  0  0  0  0  0  0  0  0  0
  162.3184  143.3755  126.0812 O   0  0  0  0  0  0  0  0  0  0  0  0
  160.8944  145.1335  124.7689 C   0  0  1  0  0  0  0  0  0  0  0  0
  159.6010  144.5880  124.6148 O   0  0  0  0  0  0  0  0  0  0  0  0
  161.0515  146.2527  123.7981 C   0  0  2  0  0  0  0  0  0  0  0  0
  161.2956  145.6663  122.5327 O   0  0  0  0  0  0  0  0  0  0  0  0
  162.2107  147.1275  124.0901 C   0  0  0  0  0  0  0  0  0  0  0  0
  162.1721  147.6824  125.5265 C   0  0  2  0  0  0  0  0  0  0  0  0
  160.9576  148.5269  125.5838 C   0  0  0  0  0  0  0  0  0  0  0  0
  168.8481  151.1691  127.7413 C   0  0  0  0  0  0  0  0  0  0  0  0
  168.2026  152.2796  128.2395 O   0  0  0  0  0  0  0  0  0  0  0  0
  170.0549  151.0039  127.9184 O   0  0  0  0  0  0  0  0  0  0  0  0
  1  2  1  1
  2  3  1  0
  3  4  2  0
  5  4  1  6
  5  6  1  0
  6  7  1  1
  6  8  1  0
  8  9  1  6
  8 10  1  0
 10 11  1  0
 11 12  1  0
 12 13  1  0
 13 14  1  0
 14 15  1  0
 15 16  1  6
 15 17  1  0
 17 18  1  1
 17 19  1  0
 19 20  1  0
 20 21  1  6
 22 20  1  1
 22 23  1  0
 23 24  1  1
 23 25  1  0
 25 26  1  0
 23 27  1  0
 27 28  1  1
 27 29  1  0
 29 30  1  6
 29 31  1  0
 31 32  1  0
 32 33  1  6
 12 34  1  1
 34 35  1  0
 34 36  2  0
 17  1  1  0
 32 22  1  0
 32  1  1  0
 15  4  1  0
 12  5  1  0
M  END
$$$$
