
     RDKit          3D

 36 40  0  0  0  0  0  0  0  0999 V2000
  165.1385  150.4129  127.6876 C   0  0  1  0  0  0  0  0  0  0  0  0
  163.8726  150.2688  128.4828 C   0  0  0  0  0  0  0  0  0  0  0  0
  163.3054  148.9201  128.2383 C   0  0  0  0  0  0  0  0  0  0  0  0
  163.7768  148.0228  127.3950 C   0  0  0  0  0  0  0  0  0  0  0  0
  163.0701  146.7201  127.2802 C   0  0  2  0  0  0  0  0  0  0  0  0
  162.4112  146.3344  128.5639 C   0  0  1  0  0  0  0  0  0  0  0  0
  160.9346  146.7613  128.5435 C   0  0  0  0  0  0  0  0  0  0  0  0
  162.3970  144.8558  128.8579 C   0  0  2  0  0  0  0  0  0  0  0  0
  162.0525  144.7596  130.3613 C   0  0  0  0  0  0  0  0  0  0  0  0
  163.7115  144.1908  128.6749 C   0  0  0  0  0  0  0  0  0  0  0  0
  164.6459  144.8455  127.6962 C   0  0  0  0  0  0  0  0  0  0  0  0
  163.8729  145.6225  126.6694 C   0  0  2  0  0  0  0  0  0  0  0  0
  164.7787  146.0816  125.5362 C   0  0  0  0  0  0  0  0  0  0  0  0
  164.7745  147.5422  125.2799 C   0  0  0  0  0  0  0  0  0  0  0  0
  164.9921  148.3052  126.5506 C   0  0  2  0  0  0  0  0  0  0  0  0
  166.2801  147.9047  127.1625 C   0  0  0  0  0  0  0  0  0  0  0  0
  164.9315  149.8417  126.3351 C   0  0  1  0  0  0  0  0  0  0  0  0
  163.5533  150.0797  125.7630 C   0  0  0  0  0  0  0  0  0  0  0  0
  165.9531  150.1773  125.3188 C   0  0  0  0  0  0  0  0  0  0  0  0
  166.3427  151.6444  125.3499 C   0  0  1  0  0  0  0  0  0  0  0  0
  165.2253  152.3577  124.9639 O   0  0  0  0  0  0  0  0  0  0  0  0
  166.8213  151.9206  126.7533 C   0  0  1  0  0  0  0  0  0  0  0  0
  167.7238  153.0839  126.8716 C   0  0  2  0  0  0  0  0  0  0  0  0
  167.1691  154.3606  126.2678 C   0  0  0  0  0  0  0  0  0  0  0  0
  168.9888  152.7902  126.0786 C   0  0  0  0  0  0  0  0  0  0  0  0
  169.6572  151.6918  126.5537 O   0  0  0  0  0  0  0  0  0  0  0  0
  168.1380  153.4084  128.2641 C   0  0  1  0  0  0  0  0  0  0  0  0
  168.5271  154.7638  128.3395 O   0  0  0  0  0  0  0  0  0  0  0  0
  167.1326  153.1477  129.3321 C   0  0  2  0  0  0  0  0  0  0  0  0
  167.8486  153.0215  130.5471 O   0  0  0  0  0  0  0  0  0  0  0  0
  166.3895  151.8800  129.1450 C   0  0  0  0  0  0  0  0  0  0  0  0
  165.7162  151.8004  127.7619 C   0  0  2  0  0  0  0  0  0  0  0  0
  164.7236  152.8985  127.7496 C   0  0  0  0  0  0  0  0  0  0  0  0
  162.9261  144.6726  126.0178 C   0  0  0  0  0  0  0  0  0  0  0  0
  161.6190  145.0747  125.8508 O   0  0  0  0  0  0  0  0  0  0  0  0
  163.3017  143.5628  125.6406 O   0  0  0  0  0  0  0  0  0  0  0  0
  1  2  1  6
  2  3  1  0
  3  4  2  0
  5  4  1  1
  5  6  1  0
  6  7  1  6
  6  8  1  0
  8  9  1  1
  8 10  1  0
 10 11  1  0
 11 12  1  0
 12 13  1  0
 13 14  1  0
 14 15  1  0
 15 16  1  1
 15 17  1  0
 17 18  1  6
 17 19  1  0
 19 20  1  0
 20 21  1  1
 22 20  1  6
 22 23  1  0
 23 24  1  6
 23 25  1  0
 25 26  1  0
 23 27  1  0
 27 28  1  6
 27 29  1  0
 29 30  1  1
 29 31  1  0
 31 32  1  0
 32 33  1  6
 12 34  1  6
 34 35  1  0
 34 36  2  0
 17  1  1  0
 32 22  1  0
 32  1  1  0
 15  4  1  0
 12  5  1  0
M  END
$$$$
