
     RDKit          3D

 36 40  0  0  0  0  0  0  0  0999 V2000
  146.3465  170.0580  130.6280 C   0  0  1  0  0  0  0  0  0  0  0  0
  145.2605  169.7955  131.6315 C   0  0  0  0  0  0  0  0  0  0  0  0
  145.6695  168.6586  132.4921 C   0  0  0  0  0  0  0  0  0  0  0  0
  146.7615  167.9335  132.3504 C   0  0  0  0  0  0  0  0  0  0  0  0
  147.0045  166.8255  133.3110 C   0  0  2  0  0  0  0  0  0  0  0  0
  146.4134  167.1172  134.6512 C   0  0  1  0  0  0  0  0  0  0  0  0
  145.0245  166.4679  134.7635 C   0  0  0  0  0  0  0  0  0  0  0  0
  147.1981  166.5907  135.8260 C   0  0  2  0  0  0  0  0  0  0  0  0
  146.6286  167.3474  137.0471 C   0  0  0  0  0  0  0  0  0  0  0  0
  148.6494  166.8974  135.7692 C   0  0  0  0  0  0  0  0  0  0  0  0
  149.2236  167.0954  134.3942 C   0  0  0  0  0  0  0  0  0  0  0  0
  148.4151  166.3471  133.3733 C   0  0  2  0  0  0  0  0  0  0  0  0
  149.1185  166.3318  132.0242 C   0  0  0  0  0  0  0  0  0  0  0  0
  148.3210  166.8640  130.8928 C   0  0  0  0  0  0  0  0  0  0  0  0
  147.7392  168.2012  131.2357 C   0  0  2  0  0  0  0  0  0  0  0  0
  148.8252  169.1489  131.5766 C   0  0  0  0  0  0  0  0  0  0  0  0
  146.8438  168.7650  130.0994 C   0  0  1  0  0  0  0  0  0  0  0  0
  145.7736  167.7140  129.9172 C   0  0  0  0  0  0  0  0  0  0  0  0
  147.6813  168.8338  128.8816 C   0  0  0  0  0  0  0  0  0  0  0  0
  147.1164  169.7847  127.8415 C   0  0  1  0  0  0  0  0  0  0  0  0
  145.9254  169.2354  127.4101 O   0  0  0  0  0  0  0  0  0  0  0  0
  146.9901  171.1239  128.5238 C   0  0  1  0  0  0  0  0  0  0  0  0
  146.9796  172.2786  127.6026 C   0  0  2  0  0  0  0  0  0  0  0  0
  145.9465  172.1772  126.4961 C   0  0  0  0  0  0  0  0  0  0  0  0
  148.3208  172.3307  126.8860 C   0  0  0  0  0  0  0  0  0  0  0  0
  148.3777  173.3414  125.9618 O   0  0  0  0  0  0  0  0  0  0  0  0
  146.7778  173.5971  128.2634 C   0  0  1  0  0  0  0  0  0  0  0  0
  146.2674  174.5233  127.3276 O   0  0  0  0  0  0  0  0  0  0  0  0
  145.8966  173.6082  129.4646 C   0  0  2  0  0  0  0  0  0  0  0  0
  146.2349  174.7632  130.2104 O   0  0  0  0  0  0  0  0  0  0  0  0
  146.1082  172.4483  130.3613 C   0  0  0  0  0  0  0  0  0  0  0  0
  145.9637  171.1065  129.6187 C   0  0  2  0  0  0  0  0  0  0  0  0
  144.5547  171.0626  129.1671 C   0  0  0  0  0  0  0  0  0  0  0  0
  148.3937  164.9156  133.7901 C   0  0  0  0  0  0  0  0  0  0  0  0
  148.2756  163.9574  132.8073 O   0  0  0  0  0  0  0  0  0  0  0  0
  148.4789  164.6002  134.9769 O   0  0  0  0  0  0  0  0  0  0  0  0
  1  2  1  6
  2  3  1  0
  3  4  2  0
  5  4  1  6
  5  6  1  0
  6  7  1  6
  6  8  1  0
  8  9  1  1
  8 10  1  0
 10 11  1  0
 11 12  1  0
 12 13  1  0
 13 14  1  0
 14 15  1  0
 15 16  1  1
 15 17  1  0
 17 18  1  6
 17 19  1  0
 19 20  1  0
 20 21  1  1
 22 20  1  6
 22 23  1  0
 23 24  1  6
 23 25  1  0
 25 26  1  0
 23 27  1  0
 27 28  1  6
 27 29  1  0
 29 30  1  1
 29 31  1  0
 31 32  1  0
 32 33  1  6
 12 34  1  1
 34 35  1  0
 34 36  2  0
 17  1  1  0
 32 22  1  0
 32  1  1  0
 15  4  1  0
 12  5  1  0
M  END
$$$$
