
     RDKit          3D

 36 40  0  0  0  0  0  0  0  0999 V2000
  190.6365  160.6024  127.8400 C   0  0  1  0  0  0  0  0  0  0  0  0
  191.6012  160.8851  126.7243 C   0  0  0  0  0  0  0  0  0  0  0  0
  191.7742  159.6521  125.9180 C   0  0  0  0  0  0  0  0  0  0  0  0
  191.2447  158.4737  126.1812 C   0  0  0  0  0  0  0  0  0  0  0  0
  191.5337  157.3459  125.2571 C   0  0  2  0  0  0  0  0  0  0  0  0
  191.7578  157.8213  123.8591 C   0  0  1  0  0  0  0  0  0  0  0  0
  193.2635  157.9872  123.5975 C   0  0  0  0  0  0  0  0  0  0  0  0
  191.2634  156.8924  122.7794 C   0  0  2  0  0  0  0  0  0  0  0  0
  191.2357  157.7593  121.5005 C   0  0  0  0  0  0  0  0  0  0  0  0
  189.8799  156.3990  122.9939 C   0  0  0  0  0  0  0  0  0  0  0  0
  189.4158  156.3511  124.4229 C   0  0  0  0  0  0  0  0  0  0  0  0
  190.5863  156.1988  125.3516 C   0  0  2  0  0  0  0  0  0  0  0  0
  190.1228  155.9003  126.7698 C   0  0  0  0  0  0  0  0  0  0  0  0
  190.6210  156.8382  127.8050 C   0  0  0  0  0  0  0  0  0  0  0  0
  190.3789  158.2587  127.3954 C   0  0  2  0  0  0  0  0  0  0  0  0
  188.9311  158.4772  127.1723 C   0  0  0  0  0  0  0  0  0  0  0  0
  190.9438  159.2748  128.4247 C   0  0  1  0  0  0  0  0  0  0  0  0
  192.4180  158.9505  128.4922 C   0  0  0  0  0  0  0  0  0  0  0  0
  190.3106  158.9700  129.7267 C   0  0  0  0  0  0  0  0  0  0  0  0
  190.3836  160.1371  130.6951 C   0  0  1  0  0  0  0  0  0  0  0  0
  191.7191  160.3178  130.9952 O   0  0  0  0  0  0  0  0  0  0  0  0
  189.7242  161.3009  129.9982 C   0  0  1  0  0  0  0  0  0  0  0  0
  189.2104  162.3446  130.9084 C   0  0  2  0  0  0  0  0  0  0  0  0
  190.2387  162.8650  131.8954 C   0  0  0  0  0  0  0  0  0  0  0  0
  188.1141  161.7323  131.7677 C   0  0  0  0  0  0  0  0  0  0  0  0
  188.5595  161.4014  133.0211 O   0  0  0  0  0  0  0  0  0  0  0  0
  188.6277  163.5316  130.2247 C   0  0  1  0  0  0  0  0  0  0  0  0
  188.6581  164.6429  131.0955 O   0  0  0  0  0  0  0  0  0  0  0  0
  189.2574  163.9282  128.9341 C   0  0  2  0  0  0  0  0  0  0  0  0
  188.2960  164.6889  128.2256 O   0  0  0  0  0  0  0  0  0  0  0  0
  189.6061  162.7764  128.0703 C   0  0  0  0  0  0  0  0  0  0  0  0
  190.5014  161.7555  128.7973 C   0  0  2  0  0  0  0  0  0  0  0  0
  191.7576  162.4812  129.0919 C   0  0  0  0  0  0  0  0  0  0  0  0
  191.3187  154.9668  124.9402 C   0  0  0  0  0  0  0  0  0  0  0  0
  192.6958  155.0057  124.9308 O   0  0  0  0  0  0  0  0  0  0  0  0
  190.7106  153.9461  124.6186 O   0  0  0  0  0  0  0  0  0  0  0  0
  1  2  1  6
  2  3  1  0
  3  4  2  0
  5  4  1  1
  5  6  1  0
  6  7  1  6
  6  8  1  0
  8  9  1  6
  8 10  1  0
 10 11  1  0
 11 12  1  0
 12 13  1  0
 13 14  1  0
 14 15  1  0
 15 16  1  6
 15 17  1  0
 17 18  1  1
 17 19  1  0
 19 20  1  0
 20 21  1  6
 22 20  1  1
 22 23  1  0
 23 24  1  1
 23 25  1  0
 25 26  1  0
 23 27  1  0
 27 28  1  1
 27 29  1  0
 29 30  1  6
 29 31  1  0
 31 32  1  0
 32 33  1  1
 12 34  1  6
 34 35  1  0
 34 36  2  0
 17  1  1  0
 32 22  1  0
 32  1  1  0
 15  4  1  0
 12  5  1  0
M  END
$$$$
