
     RDKit          3D

 36 40  0  0  0  0  0  0  0  0999 V2000
  174.9619  164.7847  107.2845 C   0  0  1  0  0  0  0  0  0  0  0  0
  174.2580  166.0771  107.5840 C   0  0  0  0  0  0  0  0  0  0  0  0
  173.7241  166.0214  108.9668 C   0  0  0  0  0  0  0  0  0  0  0  0
  173.7744  164.9811  109.7753 C   0  0  0  0  0  0  0  0  0  0  0  0
  173.1800  165.1099  111.1316 C   0  0  2  0  0  0  0  0  0  0  0  0
  173.2575  166.5131  111.6374 C   0  0  1  0  0  0  0  0  0  0  0  0
  171.9375  167.2468  111.3503 C   0  0  0  0  0  0  0  0  0  0  0  0
  173.4759  166.6475  113.1230 C   0  0  2  0  0  0  0  0  0  0  0  0
  173.9175  168.1150  113.3219 C   0  0  0  0  0  0  0  0  0  0  0  0
  174.5692  165.7944  113.6526 C   0  0  0  0  0  0  0  0  0  0  0  0
  174.8649  164.5468  112.8678 C   0  0  0  0  0  0  0  0  0  0  0  0
  173.6442  164.0942  112.1191 C   0  0  2  0  0  0  0  0  0  0  0  0
  173.8509  162.7090  111.5243 C   0  0  0  0  0  0  0  0  0  0  0  0
  173.6358  162.6146  110.0600 C   0  0  0  0  0  0  0  0  0  0  0  0
  174.4021  163.6822  109.3408 C   0  0  2  0  0  0  0  0  0  0  0  0
  175.8458  163.5572  109.6472 C   0  0  0  0  0  0  0  0  0  0  0  0
  174.1535  163.6573  107.8083 C   0  0  1  0  0  0  0  0  0  0  0  0
  172.6604  163.8466  107.6737 C   0  0  0  0  0  0  0  0  0  0  0  0
  174.5254  162.3073  107.3308 C   0  0  0  0  0  0  0  0  0  0  0  0
  174.7934  162.2732  105.8368 C   0  0  1  0  0  0  0  0  0  0  0  0
  173.5903  162.5397  105.2140 O   0  0  0  0  0  0  0  0  0  0  0  0
  175.8803  163.2878  105.5834 C   0  0  1  0  0  0  0  0  0  0  0  0
  176.6550  163.0551  104.3475 C   0  0  2  0  0  0  0  0  0  0  0  0
  175.8018  162.9086  103.1014 C   0  0  0  0  0  0  0  0  0  0  0  0
  177.3850  161.7270  104.4837 C   0  0  0  0  0  0  0  0  0  0  0  0
  177.9947  161.5914  105.7038 O   0  0  0  0  0  0  0  0  0  0  0  0
  177.6777  164.0955  104.0516 C   0  0  1  0  0  0  0  0  0  0  0  0
  177.9735  164.0906  102.6708 O   0  0  0  0  0  0  0  0  0  0  0  0
  177.3408  165.4895  104.4554 C   0  0  2  0  0  0  0  0  0  0  0  0
  178.5658  166.1900  104.5711 O   0  0  0  0  0  0  0  0  0  0  0  0
  176.6773  165.5759  105.7770 C   0  0  0  0  0  0  0  0  0  0  0  0
  175.4193  164.6903  105.8541 C   0  0  2  0  0  0  0  0  0  0  0  0
  174.4850  165.2552  104.8545 C   0  0  0  0  0  0  0  0  0  0  0  0
  172.5573  163.9023  113.1218 C   0  0  0  0  0  0  0  0  0  0  0  0
  172.8424  163.1685  114.2524 O   0  0  0  0  0  0  0  0  0  0  0  0
  171.4392  164.3854  112.9441 O   0  0  0  0  0  0  0  0  0  0  0  0
  1  2  1  6
  2  3  1  0
  3  4  2  0
  5  4  1  6
  5  6  1  0
  6  7  1  1
  6  8  1  0
  8  9  1  6
  8 10  1  0
 10 11  1  0
 11 12  1  0
 12 13  1  0
 13 14  1  0
 14 15  1  0
 15 16  1  6
 15 17  1  0
 17 18  1  1
 17 19  1  0
 19 20  1  0
 20 21  1  6
 22 20  1  6
 22 23  1  0
 23 24  1  6
 23 25  1  0
 25 26  1  0
 23 27  1  0
 27 28  1  6
 27 29  1  0
 29 30  1  1
 29 31  1  0
 31 32  1  0
 32 33  1  6
 12 34  1  1
 34 35  1  0
 34 36  2  0
 17  1  1  0
 32 22  1  0
 32  1  1  0
 15  4  1  0
 12  5  1  0
M  END
$$$$
