
     RDKit          3D

 45 52  0  0  0  0  0  0  0  0999 V2000
  139.9619  155.7433  120.7055 C   0  0  2  0  0  0  0  0  0  0  0  0
  139.1626  156.0429  119.5147 C   0  0  0  0  0  0  0  0  0  0  0  0
  139.7035  156.1362  118.1456 C   0  0  0  0  0  0  0  0  0  0  0  0
  140.9763  156.3997  117.6801 C   0  0  0  0  0  0  0  0  0  0  0  0
  141.1706  156.3318  116.3286 C   0  0  0  0  0  0  0  0  0  0  0  0
  142.4715  156.5298  115.6704 O   0  0  0  0  0  0  0  0  0  0  0  0
  143.5076  155.6292  116.2663 C   0  0  0  0  0  0  0  0  0  0  0  0
  144.2270  156.0918  117.3183 C   0  0  0  0  0  0  0  0  0  0  0  0
  145.1926  155.3146  118.0101 C   0  0  0  0  0  0  0  0  0  0  0  0
  145.4285  154.0161  117.6021 C   0  0  0  0  0  0  0  0  0  0  0  0
  146.3056  153.0686  118.4274 C   0  0  0  0  0  0  0  0  0  0  0  0
  147.3473  153.7644  119.1761 C   0  0  2  0  0  0  0  0  0  0  0  0
  148.4993  152.8508  119.1526 N   0  0  0  0  0  0  0  0  0  0  0  0
  148.9479  152.6597  117.7852 C   0  0  0  0  0  0  0  0  0  0  0  0
  149.5414  153.1343  120.0514 C   0  0  0  0  0  0  0  0  0  0  0  0
  149.6078  154.6510  120.2160 C   0  0  0  0  0  0  0  0  0  0  0  0
  148.3257  154.9295  120.9782 C   0  0  0  0  0  0  0  0  0  0  0  0
  147.1393  154.3808  120.4653 C   0  0  0  0  0  0  0  0  0  0  0  0
  145.9854  154.6035  121.2382 C   0  0  0  0  0  0  0  0  0  0  0  0
  144.7706  154.1172  120.8548 O   0  0  0  0  0  0  0  0  0  0  0  0
  143.4203  154.0336  120.7629 C   0  0  0  0  0  0  0  0  0  0  0  0
  142.4748  155.0681  120.7333 C   0  0  0  0  0  0  0  0  0  0  0  0
  141.1291  154.8213  120.6555 C   0  0  0  0  0  0  0  0  0  0  0  0
  140.6898  153.4959  120.6022 C   0  0  0  0  0  0  0  0  0  0  0  0
  139.2509  153.0994  120.5380 C   0  0  0  0  0  0  0  0  0  0  0  0
  138.4145  154.0145  121.3774 C   0  0  0  0  0  0  0  0  0  0  0  0
  139.0438  155.2002  121.7842 N   0  0  0  0  0  0  0  0  0  0  0  0
  139.7735  155.0466  123.0004 C   0  0  0  0  0  0  0  0  0  0  0  0
  141.5861  152.4123  120.6240 C   0  0  0  0  0  0  0  0  0  0  0  0
  142.8996  152.7370  120.7035 C   0  0  0  0  0  0  0  0  0  0  0  0
  143.7467  151.5990  120.7228 O   0  0  0  0  0  0  0  0  0  0  0  0
  144.7732  151.4384  121.6582 C   0  0  0  0  0  0  0  0  0  0  0  0
  146.1307  155.3463  122.4322 C   0  0  0  0  0  0  0  0  0  0  0  0
  145.2300  155.7654  123.4431 O   0  0  0  0  0  0  0  0  0  0  0  0
  145.9253  156.0738  124.6180 C   0  0  0  0  0  0  0  0  0  0  0  0
  147.1584  156.5566  124.0914 O   0  0  0  0  0  0  0  0  0  0  0  0
  147.3220  155.8606  122.8822 C   0  0  0  0  0  0  0  0  0  0  0  0
  148.4493  155.6389  122.1272 C   0  0  0  0  0  0  0  0  0  0  0  0
  144.6969  153.5531  116.5081 C   0  0  0  0  0  0  0  0  0  0  0  0
  143.7360  154.3707  115.8433 C   0  0  0  0  0  0  0  0  0  0  0  0
  140.1903  156.0429  115.4281 C   0  0  0  0  0  0  0  0  0  0  0  0
  140.4004  155.9873  114.0330 O   0  0  0  0  0  0  0  0  0  0  0  0
  141.1702  156.9368  113.3455 C   0  0  0  0  0  0  0  0  0  0  0  0
  138.8887  155.7743  115.8332 C   0  0  0  0  0  0  0  0  0  0  0  0
  138.6991  155.8310  117.1840 C   0  0  0  0  0  0  0  0  0  0  0  0
  1  2  1  0
  2  3  1  0
  3  4  2  0
  4  5  1  0
  5  6  1  0
  6  7  1  0
  7  8  2  0
  8  9  1  0
  9 10  2  0
 10 11  1  0
 11 12  1  0
 12 13  1  1
 13 14  1  0
 13 15  1  0
 15 16  1  0
 16 17  1  0
 17 18  2  0
 18 19  1  0
 19 20  1  0
 20 21  1  0
 21 22  2  0
 22 23  1  0
 23 24  2  0
 24 25  1  0
 25 26  1  0
 26 27  1  0
 27 28  1  0
 24 29  1  0
 29 30  2  0
 30 31  1  0
 31 32  1  0
 19 33  2  0
 33 34  1  0
 34 35  1  0
 35 36  1  0
 36 37  1  0
 37 38  2  0
 10 39  1  0
 39 40  2  0
  5 41  2  0
 41 42  1  0
 42 43  1  0
 41 44  1  0
 44 45  2  0
 23  1  1  0
 37 33  1  0
  1 27  1  1
 45  3  1  0
 40  7  1  0
 18 12  1  0
 30 21  1  0
 38 17  1  0
M  END
$$$$
