
     RDKit          3D

 45 52  0  0  0  0  0  0  0  0999 V2000
  143.9293  173.1334  131.4904 C   0  0  2  0  0  0  0  0  0  0  0  0
  143.1477  173.4479  132.6891 C   0  0  0  0  0  0  0  0  0  0  0  0
  143.0268  172.5651  133.8646 C   0  0  0  0  0  0  0  0  0  0  0  0
  143.1843  171.2006  134.0048 C   0  0  0  0  0  0  0  0  0  0  0  0
  143.0827  170.6896  135.2688 C   0  0  0  0  0  0  0  0  0  0  0  0
  143.2767  169.2701  135.6036 O   0  0  0  0  0  0  0  0  0  0  0  0
  144.5900  168.7787  135.0810 C   0  0  0  0  0  0  0  0  0  0  0  0
  144.6237  168.2526  133.8317 C   0  0  0  0  0  0  0  0  0  0  0  0
  145.8151  167.8105  133.1991 C   0  0  0  0  0  0  0  0  0  0  0  0
  147.0139  167.9101  133.8781 C   0  0  0  0  0  0  0  0  0  0  0  0
  148.3503  167.6389  133.1791 C   0  0  0  0  0  0  0  0  0  0  0  0
  148.2400  166.6644  132.0983 C   0  0  2  0  0  0  0  0  0  0  0  0
  149.5004  165.9085  132.1454 N   0  0  0  0  0  0  0  0  0  0  0  0
  149.6038  165.2023  133.4095 C   0  0  0  0  0  0  0  0  0  0  0  0
  149.7916  165.1070  131.0286 C   0  0  0  0  0  0  0  0  0  0  0  0
  148.4653  164.5977  130.4688 C   0  0  0  0  0  0  0  0  0  0  0  0
  147.8630  165.8729  129.9089 C   0  0  0  0  0  0  0  0  0  0  0  0
  147.8264  166.9933  130.7544 C   0  0  0  0  0  0  0  0  0  0  0  0
  147.3250  168.1730  130.1753 C   0  0  0  0  0  0  0  0  0  0  0  0
  147.2435  169.3331  130.8872 O   0  0  0  0  0  0  0  0  0  0  0  0
  146.7956  170.5624  131.2434 C   0  0  0  0  0  0  0  0  0  0  0  0
  145.4936  171.0775  131.1777 C   0  0  0  0  0  0  0  0  0  0  0  0
  145.1984  172.3594  131.5619 C   0  0  0  0  0  0  0  0  0  0  0  0
  146.2299  173.1747  132.0351 C   0  0  0  0  0  0  0  0  0  0  0  0
  146.0383  174.5934  132.4620 C   0  0  0  0  0  0  0  0  0  0  0  0
  145.0379  175.2774  131.5829 C   0  0  0  0  0  0  0  0  0  0  0  0
  144.2668  174.4282  130.7756 N   0  0  0  0  0  0  0  0  0  0  0  0
  144.8938  174.1362  129.5279 C   0  0  0  0  0  0  0  0  0  0  0  0
  147.5568  172.7182  132.1298 C   0  0  0  0  0  0  0  0  0  0  0  0
  147.7692  171.4407  131.7299 C   0  0  0  0  0  0  0  0  0  0  0  0
  149.1267  171.0459  131.8500 O   0  0  0  0  0  0  0  0  0  0  0  0
  150.0520  171.2006  130.8134 C   0  0  0  0  0  0  0  0  0  0  0  0
  146.9126  168.1148  128.8244 C   0  0  0  0  0  0  0  0  0  0  0  0
  146.3694  169.0636  127.9224 O   0  0  0  0  0  0  0  0  0  0  0  0
  146.5558  168.6419  126.6009 C   0  0  0  0  0  0  0  0  0  0  0  0
  146.4881  167.2263  126.7498 O   0  0  0  0  0  0  0  0  0  0  0  0
  146.9714  166.9845  128.0464 C   0  0  0  0  0  0  0  0  0  0  0  0
  147.4650  165.8334  128.6133 C   0  0  0  0  0  0  0  0  0  0  0  0
  146.9687  168.4364  135.1695 C   0  0  0  0  0  0  0  0  0  0  0  0
  145.7471  168.8682  135.7652 C   0  0  0  0  0  0  0  0  0  0  0  0
  142.8194  171.4362  136.3772 C   0  0  0  0  0  0  0  0  0  0  0  0
  142.7049  170.8954  137.6764 O   0  0  0  0  0  0  0  0  0  0  0  0
  141.4707  170.7335  138.3224 C   0  0  0  0  0  0  0  0  0  0  0  0
  142.6451  172.8126  136.3008 C   0  0  0  0  0  0  0  0  0  0  0  0
  142.7585  173.3227  135.0396 C   0  0  0  0  0  0  0  0  0  0  0  0
  1  2  1  0
  2  3  1  0
  3  4  2  0
  4  5  1  0
  5  6  1  0
  6  7  1  0
  7  8  2  0
  8  9  1  0
  9 10  2  0
 10 11  1  0
 11 12  1  0
 12 13  1  6
 13 14  1  0
 13 15  1  0
 15 16  1  0
 16 17  1  0
 17 18  2  0
 18 19  1  0
 19 20  1  0
 20 21  1  0
 21 22  2  0
 22 23  1  0
 23 24  2  0
 24 25  1  0
 25 26  1  0
 26 27  1  0
 27 28  1  0
 24 29  1  0
 29 30  2  0
 30 31  1  0
 31 32  1  0
 19 33  2  0
 33 34  1  0
 34 35  1  0
 35 36  1  0
 36 37  1  0
 37 38  2  0
 10 39  1  0
 39 40  2  0
  5 41  2  0
 41 42  1  0
 42 43  1  0
 41 44  1  0
 44 45  2  0
 23  1  1  0
 37 33  1  0
  1 27  1  1
 45  3  1  0
 40  7  1  0
 18 12  1  0
 30 21  1  0
 38 17  1  0
M  END
$$$$
