
     RDKit          3D

 45 52  0  0  0  0  0  0  0  0999 V2000
  206.9392  129.2386  130.8336 C   0  0  2  0  0  0  0  0  0  0  0  0
  208.2816  128.6548  130.8942 C   0  0  0  0  0  0  0  0  0  0  0  0
  209.3663  129.1399  131.7683 C   0  0  0  0  0  0  0  0  0  0  0  0
  209.5886  130.3698  132.3548 C   0  0  0  0  0  0  0  0  0  0  0  0
  210.6642  130.4741  133.1922 C   0  0  0  0  0  0  0  0  0  0  0  0
  211.0136  131.6923  133.9396 O   0  0  0  0  0  0  0  0  0  0  0  0
  209.8427  132.1785  134.7346 C   0  0  0  0  0  0  0  0  0  0  0  0
  208.9931  133.0573  134.1479 C   0  0  0  0  0  0  0  0  0  0  0  0
  207.8144  133.5437  134.7717 C   0  0  0  0  0  0  0  0  0  0  0  0
  207.5011  133.1130  136.0462 C   0  0  0  0  0  0  0  0  0  0  0  0
  206.1498  133.4430  136.6890 C   0  0  0  0  0  0  0  0  0  0  0  0
  205.5924  134.7092  136.2242 C   0  0  2  0  0  0  0  0  0  0  0  0
  204.9165  135.2754  137.4010 N   0  0  0  0  0  0  0  0  0  0  0  0
  205.8886  135.5424  138.4457 C   0  0  0  0  0  0  0  0  0  0  0  0
  204.0385  136.3464  137.1635 C   0  0  0  0  0  0  0  0  0  0  0  0
  204.5906  137.1413  135.9823 C   0  0  0  0  0  0  0  0  0  0  0  0
  204.3705  136.1723  134.8356 C   0  0  0  0  0  0  0  0  0  0  0  0
  204.8293  134.8564  135.0072 C   0  0  0  0  0  0  0  0  0  0  0  0
  204.5439  133.9728  133.9505 C   0  0  0  0  0  0  0  0  0  0  0  0
  204.9280  132.6653  133.9964 O   0  0  0  0  0  0  0  0  0  0  0  0
  205.2833  131.4409  133.5344 C   0  0  0  0  0  0  0  0  0  0  0  0
  206.0125  131.1125  132.3833 C   0  0  0  0  0  0  0  0  0  0  0  0
  206.2785  129.8135  132.0368 C   0  0  0  0  0  0  0  0  0  0  0  0
  205.8080  128.7874  132.8604 C   0  0  0  0  0  0  0  0  0  0  0  0
  206.0142  127.3350  132.5784 C   0  0  0  0  0  0  0  0  0  0  0  0
  205.9211  127.0656  131.1085 C   0  0  0  0  0  0  0  0  0  0  0  0
  205.9805  128.1990  130.2845 N   0  0  0  0  0  0  0  0  0  0  0  0
  204.7008  128.7932  130.0730 C   0  0  0  0  0  0  0  0  0  0  0  0
  205.0739  129.0489  134.0312 C   0  0  0  0  0  0  0  0  0  0  0  0
  204.8505  130.3573  134.3054 C   0  0  0  0  0  0  0  0  0  0  0  0
  204.1046  130.5494  135.4970 O   0  0  0  0  0  0  0  0  0  0  0  0
  202.9987  131.4019  135.5657 C   0  0  0  0  0  0  0  0  0  0  0  0
  203.8383  134.4880  132.8391 C   0  0  0  0  0  0  0  0  0  0  0  0
  203.3825  133.9268  131.6201 O   0  0  0  0  0  0  0  0  0  0  0  0
  202.3618  134.7130  131.0733 C   0  0  0  0  0  0  0  0  0  0  0  0
  202.7478  136.0126  131.5124 O   0  0  0  0  0  0  0  0  0  0  0  0
  203.4159  135.7901  132.7278 C   0  0  0  0  0  0  0  0  0  0  0  0
  203.6927  136.6512  133.7632 C   0  0  0  0  0  0  0  0  0  0  0  0
  208.3892  132.2223  136.6500 C   0  0  0  0  0  0  0  0  0  0  0  0
  209.5626  131.7601  135.9843 C   0  0  0  0  0  0  0  0  0  0  0  0
  211.5266  129.4546  133.4608 C   0  0  0  0  0  0  0  0  0  0  0  0
  212.6413  129.5776  134.3185 O   0  0  0  0  0  0  0  0  0  0  0  0
  212.5315  130.0286  135.6419 C   0  0  0  0  0  0  0  0  0  0  0  0
  211.3602  128.1955  132.8973 C   0  0  0  0  0  0  0  0  0  0  0  0
  210.2789  128.0899  132.0706 C   0  0  0  0  0  0  0  0  0  0  0  0
  1  2  1  0
  2  3  1  0
  3  4  2  0
  4  5  1  0
  5  6  1  0
  6  7  1  0
  7  8  2  0
  8  9  1  0
  9 10  2  0
 10 11  1  0
 11 12  1  0
 12 13  1  1
 13 14  1  0
 13 15  1  0
 15 16  1  0
 16 17  1  0
 17 18  2  0
 18 19  1  0
 19 20  1  0
 20 21  1  0
 21 22  2  0
 22 23  1  0
 23 24  2  0
 24 25  1  0
 25 26  1  0
 26 27  1  0
 27 28  1  0
 24 29  1  0
 29 30  2  0
 30 31  1  0
 31 32  1  0
 19 33  2  0
 33 34  1  0
 34 35  1  0
 35 36  1  0
 36 37  1  0
 37 38  2  0
 10 39  1  0
 39 40  2  0
  5 41  2  0
 41 42  1  0
 42 43  1  0
 41 44  1  0
 44 45  2  0
 23  1  1  0
 37 33  1  0
  1 27  1  1
 45  3  1  0
 40  7  1  0
 18 12  1  0
 30 21  1  0
 38 17  1  0
M  END
$$$$
