
     RDKit          3D

 45 52  0  0  0  0  0  0  0  0999 V2000
  133.5367  140.4845  129.1178 C   0  0  2  0  0  0  0  0  0  0  0  0
  134.8085  139.8094  129.3887 C   0  0  0  0  0  0  0  0  0  0  0  0
  135.1612  139.1728  130.6718 C   0  0  0  0  0  0  0  0  0  0  0  0
  134.6957  139.3799  131.9550 C   0  0  0  0  0  0  0  0  0  0  0  0
  135.1758  138.5525  132.9317 C   0  0  0  0  0  0  0  0  0  0  0  0
  134.7462  138.5992  134.3381 O   0  0  0  0  0  0  0  0  0  0  0  0
  133.2559  138.5091  134.4386 C   0  0  0  0  0  0  0  0  0  0  0  0
  132.5437  139.6629  134.4211 C   0  0  0  0  0  0  0  0  0  0  0  0
  131.1252  139.7089  134.4462 C   0  0  0  0  0  0  0  0  0  0  0  0
  130.4145  138.5254  134.4949 C   0  0  0  0  0  0  0  0  0  0  0  0
  128.8921  138.5027  134.3223 C   0  0  0  0  0  0  0  0  0  0  0  0
  128.2471  139.7231  134.7959 C   0  0  2  0  0  0  0  0  0  0  0  0
  126.9695  139.2737  135.3685 N   0  0  0  0  0  0  0  0  0  0  0  0
  127.2179  138.4006  136.5013 C   0  0  0  0  0  0  0  0  0  0  0  0
  126.0141  140.2712  135.6269 C   0  0  0  0  0  0  0  0  0  0  0  0
  126.7678  141.5420  136.0128 C   0  0  0  0  0  0  0  0  0  0  0  0
  127.4105  141.9258  134.6930 C   0  0  0  0  0  0  0  0  0  0  0  0
  128.1229  140.9277  134.0091 C   0  0  0  0  0  0  0  0  0  0  0  0
  128.6435  141.3044  132.7579 C   0  0  0  0  0  0  0  0  0  0  0  0
  129.3487  140.4259  131.9897 O   0  0  0  0  0  0  0  0  0  0  0  0
  130.2365  140.0004  131.0573 C   0  0  0  0  0  0  0  0  0  0  0  0
  131.4731  140.5565  130.7014 C   0  0  0  0  0  0  0  0  0  0  0  0
  132.2568  140.0161  129.7156 C   0  0  0  0  0  0  0  0  0  0  0  0
  131.8066  138.8741  129.0481 C   0  0  0  0  0  0  0  0  0  0  0  0
  132.5588  138.2067  127.9433 C   0  0  0  0  0  0  0  0  0  0  0  0
  133.2379  139.2237  127.0793 C   0  0  0  0  0  0  0  0  0  0  0  0
  133.3124  140.5166  127.6178 N   0  0  0  0  0  0  0  0  0  0  0  0
  132.1588  141.3026  127.3235 C   0  0  0  0  0  0  0  0  0  0  0  0
  130.5779  138.2647  129.3593 C   0  0  0  0  0  0  0  0  0  0  0  0
  129.8597  138.8581  130.3437 C   0  0  0  0  0  0  0  0  0  0  0  0
  128.6332  138.1946  130.6054 O   0  0  0  0  0  0  0  0  0  0  0  0
  127.7230  138.6431  131.5670 C   0  0  0  0  0  0  0  0  0  0  0  0
  128.4045  142.6276  132.3213 C   0  0  0  0  0  0  0  0  0  0  0  0
  128.7573  143.3559  131.1576 O   0  0  0  0  0  0  0  0  0  0  0  0
  127.9132  144.4610  130.9999 C   0  0  0  0  0  0  0  0  0  0  0  0
  127.6299  144.7892  132.3574 O   0  0  0  0  0  0  0  0  0  0  0  0
  127.6991  143.5626  133.0385 C   0  0  0  0  0  0  0  0  0  0  0  0
  127.1881  143.1912  134.2596 C   0  0  0  0  0  0  0  0  0  0  0  0
  131.1546  137.3432  134.5301 C   0  0  0  0  0  0  0  0  0  0  0  0
  132.5804  137.3453  134.5030 C   0  0  0  0  0  0  0  0  0  0  0  0
  136.0880  137.5641  132.7171 C   0  0  0  0  0  0  0  0  0  0  0  0
  136.5857  136.7233  133.7364 O   0  0  0  0  0  0  0  0  0  0  0  0
  136.9819  135.3992  133.4986 C   0  0  0  0  0  0  0  0  0  0  0  0
  136.5985  137.3099  131.4501 C   0  0  0  0  0  0  0  0  0  0  0  0
  136.1092  138.1293  130.4740 C   0  0  0  0  0  0  0  0  0  0  0  0
  1  2  1  0
  2  3  1  0
  3  4  2  0
  4  5  1  0
  5  6  1  0
  6  7  1  0
  7  8  2  0
  8  9  1  0
  9 10  2  0
 10 11  1  0
 11 12  1  0
 12 13  1  6
 13 14  1  0
 13 15  1  0
 15 16  1  0
 16 17  1  0
 17 18  2  0
 18 19  1  0
 19 20  1  0
 20 21  1  0
 21 22  2  0
 22 23  1  0
 23 24  2  0
 24 25  1  0
 25 26  1  0
 26 27  1  0
 27 28  1  0
 24 29  1  0
 29 30  2  0
 30 31  1  0
 31 32  1  0
 19 33  2  0
 33 34  1  0
 34 35  1  0
 35 36  1  0
 36 37  1  0
 37 38  2  0
 10 39  1  0
 39 40  2  0
  5 41  2  0
 41 42  1  0
 42 43  1  0
 41 44  1  0
 44 45  2  0
 23  1  1  0
 37 33  1  0
  1 27  1  6
 45  3  1  0
 40  7  1  0
 18 12  1  0
 30 21  1  0
 38 17  1  0
M  END
$$$$
