
     RDKit          3D

 45 52  0  0  0  0  0  0  0  0999 V2000
  131.1576  135.9933  131.5603 C   0  0  2  0  0  0  0  0  0  0  0  0
  131.9521  135.8691  130.3356 C   0  0  0  0  0  0  0  0  0  0  0  0
  132.3145  136.9960  129.4554 C   0  0  0  0  0  0  0  0  0  0  0  0
  131.7326  138.2336  129.2661 C   0  0  0  0  0  0  0  0  0  0  0  0
  132.3719  139.0988  128.4224 C   0  0  0  0  0  0  0  0  0  0  0  0
  131.9202  140.4724  128.1507 O   0  0  0  0  0  0  0  0  0  0  0  0
  131.7325  141.2292  129.4279 C   0  0  0  0  0  0  0  0  0  0  0  0
  130.5136  141.1895  130.0206 C   0  0  0  0  0  0  0  0  0  0  0  0
  130.2257  141.8116  131.2636 C   0  0  0  0  0  0  0  0  0  0  0  0
  131.2272  142.5022  131.9181 C   0  0  0  0  0  0  0  0  0  0  0  0
  131.0348  143.0203  133.3473 C   0  0  0  0  0  0  0  0  0  0  0  0
  129.6462  143.3518  133.6506 C   0  0  2  0  0  0  0  0  0  0  0  0
  129.7255  144.5234  134.5356 N   0  0  0  0  0  0  0  0  0  0  0  0
  130.3325  145.6353  133.8267 C   0  0  0  0  0  0  0  0  0  0  0  0
  128.5496  144.8698  135.2223 C   0  0  0  0  0  0  0  0  0  0  0  0
  127.3684  144.5065  134.3253 C   0  0  0  0  0  0  0  0  0  0  0  0
  127.4234  142.9903  134.3509 C   0  0  0  0  0  0  0  0  0  0  0  0
  128.6606  142.3860  134.0761 C   0  0  0  0  0  0  0  0  0  0  0  0
  128.6855  140.9833  134.1785 C   0  0  0  0  0  0  0  0  0  0  0  0
  129.8272  140.2755  133.9442 O   0  0  0  0  0  0  0  0  0  0  0  0
  130.6053  139.2177  133.6061 C   0  0  0  0  0  0  0  0  0  0  0  0
  130.3654  138.2182  132.6530 C   0  0  0  0  0  0  0  0  0  0  0  0
  131.2486  137.1930  132.4363 C   0  0  0  0  0  0  0  0  0  0  0  0
  132.4247  137.1472  133.1896 C   0  0  0  0  0  0  0  0  0  0  0  0
  133.4524  136.0707  133.0609 C   0  0  0  0  0  0  0  0  0  0  0  0
  132.7993  134.7454  132.8181 C   0  0  0  0  0  0  0  0  0  0  0  0
  131.4466  134.8000  132.4513 N   0  0  0  0  0  0  0  0  0  0  0  0
  130.5714  134.8212  133.5777 C   0  0  0  0  0  0  0  0  0  0  0  0
  132.7275  138.1206  134.1585 C   0  0  0  0  0  0  0  0  0  0  0  0
  131.8048  139.1010  134.3156 C   0  0  0  0  0  0  0  0  0  0  0  0
  132.1716  140.0467  135.3076 O   0  0  0  0  0  0  0  0  0  0  0  0
  131.3576  140.3432  136.4049 C   0  0  0  0  0  0  0  0  0  0  0  0
  127.4838  140.3320  134.5390 C   0  0  0  0  0  0  0  0  0  0  0  0
  127.1234  138.9754  134.7354 O   0  0  0  0  0  0  0  0  0  0  0  0
  125.9622  138.8871  135.5117 C   0  0  0  0  0  0  0  0  0  0  0  0
  125.2774  140.0744  135.1217 O   0  0  0  0  0  0  0  0  0  0  0  0
  126.3001  140.9801  134.7947 C   0  0  0  0  0  0  0  0  0  0  0  0
  126.2788  142.3513  134.6976 C   0  0  0  0  0  0  0  0  0  0  0  0
  132.4738  142.5532  131.2936 C   0  0  0  0  0  0  0  0  0  0  0  0
  132.7173  141.9124  130.0432 C   0  0  0  0  0  0  0  0  0  0  0  0
  133.5216  138.8059  127.7533 C   0  0  0  0  0  0  0  0  0  0  0  0
  134.1665  139.7037  126.8748 O   0  0  0  0  0  0  0  0  0  0  0  0
  133.6594  140.9800  126.5910 C   0  0  0  0  0  0  0  0  0  0  0  0
  134.1522  137.5761  127.8971 C   0  0  0  0  0  0  0  0  0  0  0  0
  133.5188  136.7178  128.7490 C   0  0  0  0  0  0  0  0  0  0  0  0
  1  2  1  0
  2  3  1  0
  3  4  2  0
  4  5  1  0
  5  6  1  0
  6  7  1  0
  7  8  2  0
  8  9  1  0
  9 10  2  0
 10 11  1  0
 11 12  1  0
 12 13  1  1
 13 14  1  0
 13 15  1  0
 15 16  1  0
 16 17  1  0
 17 18  2  0
 18 19  1  0
 19 20  1  0
 20 21  1  0
 21 22  2  0
 22 23  1  0
 23 24  2  0
 24 25  1  0
 25 26  1  0
 26 27  1  0
 27 28  1  0
 24 29  1  0
 29 30  2  0
 30 31  1  0
 31 32  1  0
 19 33  2  0
 33 34  1  0
 34 35  1  0
 35 36  1  0
 36 37  1  0
 37 38  2  0
 10 39  1  0
 39 40  2  0
  5 41  2  0
 41 42  1  0
 42 43  1  0
 41 44  1  0
 44 45  2  0
 23  1  1  0
 37 33  1  0
  1 27  1  1
 45  3  1  0
 40  7  1  0
 18 12  1  0
 30 21  1  0
 38 17  1  0
M  END
$$$$
