
     RDKit          3D

 45 52  0  0  0  0  0  0  0  0999 V2000
  118.7272  169.3682  139.7544 C   0  0  2  0  0  0  0  0  0  0  0  0
  117.4289  169.9473  139.3994 C   0  0  0  0  0  0  0  0  0  0  0  0
  116.1283  169.4415  139.8773 C   0  0  0  0  0  0  0  0  0  0  0  0
  115.7434  168.1991  140.3405 C   0  0  0  0  0  0  0  0  0  0  0  0
  114.4595  168.0748  140.7937 C   0  0  0  0  0  0  0  0  0  0  0  0
  113.9031  166.8406  141.3696 O   0  0  0  0  0  0  0  0  0  0  0  0
  114.7678  166.3410  142.4841 C   0  0  0  0  0  0  0  0  0  0  0  0
  115.7669  165.4767  142.1790 C   0  0  0  0  0  0  0  0  0  0  0  0
  116.6930  164.9804  143.1335 C   0  0  0  0  0  0  0  0  0  0  0  0
  116.5844  165.3855  144.4496 C   0  0  0  0  0  0  0  0  0  0  0  0
  117.6670  165.0457  145.4796 C   0  0  0  0  0  0  0  0  0  0  0  0
  118.3539  163.7908  145.1907 C   0  0  2  0  0  0  0  0  0  0  0  0
  118.6290  163.2021  146.5098 N   0  0  0  0  0  0  0  0  0  0  0  0
  117.3796  162.9111  147.1891 C   0  0  0  0  0  0  0  0  0  0  0  0
  119.5466  162.1384  146.5412 C   0  0  0  0  0  0  0  0  0  0  0  0
  119.4024  161.3667  145.2314 C   0  0  0  0  0  0  0  0  0  0  0  0
  119.9643  162.3598  144.2312 C   0  0  0  0  0  0  0  0  0  0  0  0
  119.4631  163.6707  144.2740 C   0  0  0  0  0  0  0  0  0  0  0  0
  120.0593  164.5767  143.3782 C   0  0  0  0  0  0  0  0  0  0  0  0
  119.6687  165.8819  143.3251 O   0  0  0  0  0  0  0  0  0  0  0  0
  119.4663  167.1147  142.7978 C   0  0  0  0  0  0  0  0  0  0  0  0
  119.1345  167.4651  141.4818 C   0  0  0  0  0  0  0  0  0  0  0  0
  118.9798  168.7702  141.0936 C   0  0  0  0  0  0  0  0  0  0  0  0
  119.1573  169.7803  142.0428 C   0  0  0  0  0  0  0  0  0  0  0  0
  119.0376  171.2377  141.7374 C   0  0  0  0  0  0  0  0  0  0  0  0
  119.5871  171.5377  140.3774 C   0  0  0  0  0  0  0  0  0  0  0  0
  119.8008  170.4214  139.5556 N   0  0  0  0  0  0  0  0  0  0  0  0
  121.0871  169.8350  139.7474 C   0  0  0  0  0  0  0  0  0  0  0  0
  119.4870  169.4965  143.3802 C   0  0  0  0  0  0  0  0  0  0  0  0
  119.6242  168.1833  143.6862 C   0  0  0  0  0  0  0  0  0  0  0  0
  119.9579  167.9685  145.0484 O   0  0  0  0  0  0  0  0  0  0  0  0
  119.0031  167.6454  146.0172 C   0  0  0  0  0  0  0  0  0  0  0  0
  121.0839  164.0863  142.5367 C   0  0  0  0  0  0  0  0  0  0  0  0
  121.8960  164.6738  141.5345 O   0  0  0  0  0  0  0  0  0  0  0  0
  123.0440  163.9016  141.3230 C   0  0  0  0  0  0  0  0  0  0  0  0
  122.5507  162.5923  141.5933 O   0  0  0  0  0  0  0  0  0  0  0  0
  121.5314  162.7879  142.5398 C   0  0  0  0  0  0  0  0  0  0  0  0
  120.9499  161.9049  143.4186 C   0  0  0  0  0  0  0  0  0  0  0  0
  115.5434  166.2613  144.7590 C   0  0  0  0  0  0  0  0  0  0  0  0
  114.6358  166.7341  143.7659 C   0  0  0  0  0  0  0  0  0  0  0  0
  113.5474  169.0864  140.7955 C   0  0  0  0  0  0  0  0  0  0  0  0
  112.2201  168.9429  141.2553 O   0  0  0  0  0  0  0  0  0  0  0  0
  111.3923  167.8830  140.8577 C   0  0  0  0  0  0  0  0  0  0  0  0
  113.8718  170.3573  140.3372 C   0  0  0  0  0  0  0  0  0  0  0  0
  115.1576  170.4827  139.8959 C   0  0  0  0  0  0  0  0  0  0  0  0
  1  2  1  0
  2  3  1  0
  3  4  2  0
  4  5  1  0
  5  6  1  0
  6  7  1  0
  7  8  2  0
  8  9  1  0
  9 10  2  0
 10 11  1  0
 11 12  1  0
 12 13  1  1
 13 14  1  0
 13 15  1  0
 15 16  1  0
 16 17  1  0
 17 18  2  0
 18 19  1  0
 19 20  1  0
 20 21  1  0
 21 22  2  0
 22 23  1  0
 23 24  2  0
 24 25  1  0
 25 26  1  0
 26 27  1  0
 27 28  1  0
 24 29  1  0
 29 30  2  0
 30 31  1  0
 31 32  1  0
 19 33  2  0
 33 34  1  0
 34 35  1  0
 35 36  1  0
 36 37  1  0
 37 38  2  0
 10 39  1  0
 39 40  2  0
  5 41  2  0
 41 42  1  0
 42 43  1  0
 41 44  1  0
 44 45  2  0
 23  1  1  0
 37 33  1  0
  1 27  1  1
 45  3  1  0
 40  7  1  0
 18 12  1  0
 30 21  1  0
 38 17  1  0
M  END
$$$$
