
     RDKit          3D

 45 52  0  0  0  0  0  0  0  0999 V2000
  193.7865  158.3197  129.9538 C   0  0  2  0  0  0  0  0  0  0  0  0
  193.9818  159.2102  131.1008 C   0  0  0  0  0  0  0  0  0  0  0  0
  193.4981  160.6020  131.1714 C   0  0  0  0  0  0  0  0  0  0  0  0
  193.1828  161.5128  130.1830 C   0  0  0  0  0  0  0  0  0  0  0  0
  192.6735  162.7160  130.5857 C   0  0  0  0  0  0  0  0  0  0  0  0
  192.2352  163.7767  129.6652 O   0  0  0  0  0  0  0  0  0  0  0  0
  191.2518  163.2416  128.6722 C   0  0  0  0  0  0  0  0  0  0  0  0
  191.7296  162.7425  127.5056 C   0  0  0  0  0  0  0  0  0  0  0  0
  190.9077  162.1500  126.5114 C   0  0  0  0  0  0  0  0  0  0  0  0
  189.5451  162.0718  126.7241 C   0  0  0  0  0  0  0  0  0  0  0  0
  188.6371  161.2694  125.7861 C   0  0  0  0  0  0  0  0  0  0  0  0
  189.1321  161.2260  124.4139 C   0  0  2  0  0  0  0  0  0  0  0  0
  187.9227  161.2579  123.5782 N   0  0  0  0  0  0  0  0  0  0  0  0
  187.2141  162.5078  123.7854 C   0  0  0  0  0  0  0  0  0  0  0  0
  188.0892  160.9244  122.2234 C   0  0  0  0  0  0  0  0  0  0  0  0
  189.4793  161.3944  121.8008 C   0  0  0  0  0  0  0  0  0  0  0  0
  190.3699  160.4354  122.5687 C   0  0  0  0  0  0  0  0  0  0  0  0
  190.1220  160.2862  123.9426 C   0  0  0  0  0  0  0  0  0  0  0  0
  190.9230  159.3371  124.6030 C   0  0  0  0  0  0  0  0  0  0  0  0
  190.7774  159.0912  125.9362 O   0  0  0  0  0  0  0  0  0  0  0  0
  191.1220  158.7072  127.1903 C   0  0  0  0  0  0  0  0  0  0  0  0
  192.3569  158.8343  127.8412 C   0  0  0  0  0  0  0  0  0  0  0  0
  192.5570  158.3760  129.1171 C   0  0  0  0  0  0  0  0  0  0  0  0
  191.4938  157.7654  129.7874 C   0  0  0  0  0  0  0  0  0  0  0  0
  191.5938  157.2073  131.1695 C   0  0  0  0  0  0  0  0  0  0  0  0
  192.9322  156.5719  131.3854 C   0  0  0  0  0  0  0  0  0  0  0  0
  193.9073  156.8833  130.4265 N   0  0  0  0  0  0  0  0  0  0  0  0
  193.8736  156.0055  129.3023 C   0  0  0  0  0  0  0  0  0  0  0  0
  190.2287  157.6102  129.1930 C   0  0  0  0  0  0  0  0  0  0  0  0
  190.1099  158.0871  127.9299 C   0  0  0  0  0  0  0  0  0  0  0  0
  188.8113  157.8972  127.3908 O   0  0  0  0  0  0  0  0  0  0  0  0
  188.4083  158.4616  126.1769 C   0  0  0  0  0  0  0  0  0  0  0  0
  191.8828  158.6414  123.8328 C   0  0  0  0  0  0  0  0  0  0  0  0
  192.8447  157.6441  124.1310 O   0  0  0  0  0  0  0  0  0  0  0  0
  193.2266  156.9711  122.9647 C   0  0  0  0  0  0  0  0  0  0  0  0
  193.1044  158.0076  121.9944 O   0  0  0  0  0  0  0  0  0  0  0  0
  192.0804  158.8332  122.4872 C   0  0  0  0  0  0  0  0  0  0  0  0
  191.2940  159.7587  121.8430 C   0  0  0  0  0  0  0  0  0  0  0  0
  189.0590  162.6031  127.9192 C   0  0  0  0  0  0  0  0  0  0  0  0
  189.9234  163.1894  128.8901 C   0  0  0  0  0  0  0  0  0  0  0  0
  192.4813  163.0685  131.8872 C   0  0  0  0  0  0  0  0  0  0  0  0
  191.9656  164.3192  132.2915 O   0  0  0  0  0  0  0  0  0  0  0  0
  192.7885  165.3983  132.6449 C   0  0  0  0  0  0  0  0  0  0  0  0
  192.7845  162.1986  132.9274 C   0  0  0  0  0  0  0  0  0  0  0  0
  193.2819  160.9933  132.5230 C   0  0  0  0  0  0  0  0  0  0  0  0
  1  2  1  0
  2  3  1  0
  3  4  2  0
  4  5  1  0
  5  6  1  0
  6  7  1  0
  7  8  2  0
  8  9  1  0
  9 10  2  0
 10 11  1  0
 11 12  1  0
 12 13  1  6
 13 14  1  0
 13 15  1  0
 15 16  1  0
 16 17  1  0
 17 18  2  0
 18 19  1  0
 19 20  1  0
 20 21  1  0
 21 22  2  0
 22 23  1  0
 23 24  2  0
 24 25  1  0
 25 26  1  0
 26 27  1  0
 27 28  1  0
 24 29  1  0
 29 30  2  0
 30 31  1  0
 31 32  1  0
 19 33  2  0
 33 34  1  0
 34 35  1  0
 35 36  1  0
 36 37  1  0
 37 38  2  0
 10 39  1  0
 39 40  2  0
  5 41  2  0
 41 42  1  0
 42 43  1  0
 41 44  1  0
 44 45  2  0
 23  1  1  0
 37 33  1  0
  1 27  1  1
 45  3  1  0
 40  7  1  0
 18 12  1  0
 30 21  1  0
 38 17  1  0
M  END
$$$$
