
     RDKit          3D

 45 52  0  0  0  0  0  0  0  0999 V2000
  189.4720  173.9100  149.8443 C   0  0  2  0  0  0  0  0  0  0  0  0
  188.7506  172.6354  149.8024 C   0  0  0  0  0  0  0  0  0  0  0  0
  189.3865  171.3203  149.5970 C   0  0  0  0  0  0  0  0  0  0  0  0
  190.5828  170.9641  149.0069 C   0  0  0  0  0  0  0  0  0  0  0  0
  190.9284  169.6421  149.0508 C   0  0  0  0  0  0  0  0  0  0  0  0
  192.1893  169.1003  148.5205 O   0  0  0  0  0  0  0  0  0  0  0  0
  193.3614  169.8362  149.0896 C   0  0  0  0  0  0  0  0  0  0  0  0
  193.8155  170.9265  148.4236 C   0  0  0  0  0  0  0  0  0  0  0  0
  194.8769  171.7449  148.8911 C   0  0  0  0  0  0  0  0  0  0  0  0
  195.4952  171.4277  150.0850 C   0  0  0  0  0  0  0  0  0  0  0  0
  196.5038  172.3792  150.7373 C   0  0  0  0  0  0  0  0  0  0  0  0
  197.2354  173.1863  149.7661 C   0  0  2  0  0  0  0  0  0  0  0  0
  198.5868  173.3181  150.3306 N   0  0  0  0  0  0  0  0  0  0  0  0
  199.2107  172.0106  150.4239 C   0  0  0  0  0  0  0  0  0  0  0  0
  199.4141  174.2955  149.7522 C   0  0  0  0  0  0  0  0  0  0  0  0
  199.0520  174.3880  148.2716 C   0  0  0  0  0  0  0  0  0  0  0  0
  197.6698  175.0108  148.3361 C   0  0  0  0  0  0  0  0  0  0  0  0
  196.7354  174.4171  149.1998 C   0  0  0  0  0  0  0  0  0  0  0  0
  195.4899  175.0654  149.2828 C   0  0  0  0  0  0  0  0  0  0  0  0
  194.4980  174.5945  150.0912 O   0  0  0  0  0  0  0  0  0  0  0  0
  193.2374  174.3801  150.5425 C   0  0  0  0  0  0  0  0  0  0  0  0
  192.0567  174.2089  149.8066 C   0  0  0  0  0  0  0  0  0  0  0  0
  190.8430  174.0173  150.4133 C   0  0  0  0  0  0  0  0  0  0  0  0
  190.7850  173.9904  151.8092 C   0  0  0  0  0  0  0  0  0  0  0  0
  189.5210  173.8112  152.5850 C   0  0  0  0  0  0  0  0  0  0  0  0
  188.3860  174.5203  151.9137 C   0  0  0  0  0  0  0  0  0  0  0  0
  188.6266  174.9236  150.5920 N   0  0  0  0  0  0  0  0  0  0  0  0
  189.2394  176.2094  150.5119 C   0  0  0  0  0  0  0  0  0  0  0  0
  191.9326  174.1519  152.6060 C   0  0  0  0  0  0  0  0  0  0  0  0
  193.0944  174.3381  151.9331 C   0  0  0  0  0  0  0  0  0  0  0  0
  194.2098  174.4953  152.7957 O   0  0  0  0  0  0  0  0  0  0  0  0
  195.4293  173.8474  152.5777 C   0  0  0  0  0  0  0  0  0  0  0  0
  195.3042  176.2283  148.5007 C   0  0  0  0  0  0  0  0  0  0  0  0
  194.2233  177.1271  148.3200 O   0  0  0  0  0  0  0  0  0  0  0  0
  194.6830  178.3450  147.8060 C   0  0  0  0  0  0  0  0  0  0  0  0
  195.7885  177.9131  147.0172 O   0  0  0  0  0  0  0  0  0  0  0  0
  196.2590  176.7618  147.6702 C   0  0  0  0  0  0  0  0  0  0  0  0
  197.4769  176.1286  147.5932 C   0  0  0  0  0  0  0  0  0  0  0  0
  195.0339  170.2946  150.7557 C   0  0  0  0  0  0  0  0  0  0  0  0
  193.9633  169.5014  150.2475 C   0  0  0  0  0  0  0  0  0  0  0  0
  190.1618  168.6692  149.6175 C   0  0  0  0  0  0  0  0  0  0  0  0
  190.5238  167.3047  149.6463 O   0  0  0  0  0  0  0  0  0  0  0  0
  190.8397  166.6308  150.8348 C   0  0  0  0  0  0  0  0  0  0  0  0
  188.9457  168.9630  150.2218 C   0  0  0  0  0  0  0  0  0  0  0  0
  188.6077  170.2852  150.1874 C   0  0  0  0  0  0  0  0  0  0  0  0
  1  2  1  0
  2  3  1  0
  3  4  2  0
  4  5  1  0
  5  6  1  0
  6  7  1  0
  7  8  2  0
  8  9  1  0
  9 10  2  0
 10 11  1  0
 11 12  1  0
 12 13  1  1
 13 14  1  0
 13 15  1  0
 15 16  1  0
 16 17  1  0
 17 18  2  0
 18 19  1  0
 19 20  1  0
 20 21  1  0
 21 22  2  0
 22 23  1  0
 23 24  2  0
 24 25  1  0
 25 26  1  0
 26 27  1  0
 27 28  1  0
 24 29  1  0
 29 30  2  0
 30 31  1  0
 31 32  1  0
 19 33  2  0
 33 34  1  0
 34 35  1  0
 35 36  1  0
 36 37  1  0
 37 38  2  0
 10 39  1  0
 39 40  2  0
  5 41  2  0
 41 42  1  0
 42 43  1  0
 41 44  1  0
 44 45  2  0
 23  1  1  0
 37 33  1  0
  1 27  1  1
 45  3  1  0
 40  7  1  0
 18 12  1  0
 30 21  1  0
 38 17  1  0
M  END
$$$$
