
     RDKit          3D

 45 52  0  0  0  0  0  0  0  0999 V2000
  183.3315  158.5694  137.8849 C   0  0  2  0  0  0  0  0  0  0  0  0
  182.3786  158.6367  138.9958 C   0  0  0  0  0  0  0  0  0  0  0  0
  182.4936  159.5578  140.1422 C   0  0  0  0  0  0  0  0  0  0  0  0
  183.5831  160.2038  140.6917 C   0  0  0  0  0  0  0  0  0  0  0  0
  183.3382  161.0712  141.7197 C   0  0  0  0  0  0  0  0  0  0  0  0
  184.3734  161.8805  142.3815 O   0  0  0  0  0  0  0  0  0  0  0  0
  185.1524  162.6676  141.3750 C   0  0  0  0  0  0  0  0  0  0  0  0
  186.2616  162.1000  140.8403 C   0  0  0  0  0  0  0  0  0  0  0  0
  187.0492  162.7159  139.8326 C   0  0  0  0  0  0  0  0  0  0  0  0
  186.6840  163.9619  139.3612 C   0  0  0  0  0  0  0  0  0  0  0  0
  187.3720  164.5856  138.1422 C   0  0  0  0  0  0  0  0  0  0  0  0
  188.7615  164.1643  137.9952 C   0  0  2  0  0  0  0  0  0  0  0  0
  189.4585  165.3483  137.4713 N   0  0  0  0  0  0  0  0  0  0  0  0
  189.3921  166.4273  138.4403 C   0  0  0  0  0  0  0  0  0  0  0  0
  190.7473  165.1375  136.9528 C   0  0  0  0  0  0  0  0  0  0  0  0
  191.3873  164.0067  137.7552 C   0  0  0  0  0  0  0  0  0  0  0  0
  190.5665  162.8128  137.3041 C   0  0  0  0  0  0  0  0  0  0  0  0
  189.1688  162.9367  137.3530 C   0  0  0  0  0  0  0  0  0  0  0  0
  188.4455  161.8350  136.8612 C   0  0  0  0  0  0  0  0  0  0  0  0
  187.0821  161.8318  136.8458 O   0  0  0  0  0  0  0  0  0  0  0  0
  185.8246  161.3245  136.8454 C   0  0  0  0  0  0  0  0  0  0  0  0
  185.3382  160.1780  137.4886 C   0  0  0  0  0  0  0  0  0  0  0  0
  184.0315  159.7805  137.3770 C   0  0  0  0  0  0  0  0  0  0  0  0
  183.1594  160.5458  136.5983 C   0  0  0  0  0  0  0  0  0  0  0  0
  181.7212  160.2043  136.3825 C   0  0  0  0  0  0  0  0  0  0  0  0
  181.5432  158.7221  136.2684 C   0  0  0  0  0  0  0  0  0  0  0  0
  182.6382  157.9512  136.6855 N   0  0  0  0  0  0  0  0  0  0  0  0
  183.5879  157.7352  135.6431 C   0  0  0  0  0  0  0  0  0  0  0  0
  183.5824  161.7088  135.9301 C   0  0  0  0  0  0  0  0  0  0  0  0
  184.8884  162.0356  136.0878 C   0  0  0  0  0  0  0  0  0  0  0  0
  185.2478  163.2159  135.3874 O   0  0  0  0  0  0  0  0  0  0  0  0
  185.0754  164.4946  135.9256 C   0  0  0  0  0  0  0  0  0  0  0  0
  189.1838  160.7308  136.3774 C   0  0  0  0  0  0  0  0  0  0  0  0
  188.8242  159.4771  135.8225 O   0  0  0  0  0  0  0  0  0  0  0  0
  189.8937  158.9412  135.0958 C   0  0  0  0  0  0  0  0  0  0  0  0
  191.0069  159.4472  135.8276 O   0  0  0  0  0  0  0  0  0  0  0  0
  190.5556  160.6674  136.3571 C   0  0  0  0  0  0  0  0  0  0  0  0
  191.2606  161.7467  136.8349 C   0  0  0  0  0  0  0  0  0  0  0  0
  185.5515  164.5468  139.9286 C   0  0  0  0  0  0  0  0  0  0  0  0
  184.7902  163.8900  140.9398 C   0  0  0  0  0  0  0  0  0  0  0  0
  182.1020  161.3149  142.2373 C   0  0  0  0  0  0  0  0  0  0  0  0
  181.8629  162.2043  143.3075 O   0  0  0  0  0  0  0  0  0  0  0  0
  181.8590  161.7914  144.6477 C   0  0  0  0  0  0  0  0  0  0  0  0
  180.9676  160.6919  141.7318 C   0  0  0  0  0  0  0  0  0  0  0  0
  181.2125  159.8351  140.6976 C   0  0  0  0  0  0  0  0  0  0  0  0
  1  2  1  0
  2  3  1  0
  3  4  2  0
  4  5  1  0
  5  6  1  0
  6  7  1  0
  7  8  2  0
  8  9  1  0
  9 10  2  0
 10 11  1  0
 11 12  1  0
 12 13  1  6
 13 14  1  0
 13 15  1  0
 15 16  1  0
 16 17  1  0
 17 18  2  0
 18 19  1  0
 19 20  1  0
 20 21  1  0
 21 22  2  0
 22 23  1  0
 23 24  2  0
 24 25  1  0
 25 26  1  0
 26 27  1  0
 27 28  1  0
 24 29  1  0
 29 30  2  0
 30 31  1  0
 31 32  1  0
 19 33  2  0
 33 34  1  0
 34 35  1  0
 35 36  1  0
 36 37  1  0
 37 38  2  0
 10 39  1  0
 39 40  2  0
  5 41  2  0
 41 42  1  0
 42 43  1  0
 41 44  1  0
 44 45  2  0
 23  1  1  0
 37 33  1  0
  1 27  1  6
 45  3  1  0
 40  7  1  0
 18 12  1  0
 30 21  1  0
 38 17  1  0
M  END
$$$$
