
     RDKit          3D

 45 52  0  0  0  0  0  0  0  0999 V2000
  117.0451  164.0454  141.0347 C   0  0  2  0  0  0  0  0  0  0  0  0
  116.1602  164.4799  139.9509 C   0  0  0  0  0  0  0  0  0  0  0  0
  115.2827  165.6641  140.0110 C   0  0  0  0  0  0  0  0  0  0  0  0
  114.7439  166.3509  141.0807 C   0  0  0  0  0  0  0  0  0  0  0  0
  114.0248  167.4785  140.7970 C   0  0  0  0  0  0  0  0  0  0  0  0
  113.4294  168.3563  141.8167 O   0  0  0  0  0  0  0  0  0  0  0  0
  114.4606  168.7833  142.8136 C   0  0  0  0  0  0  0  0  0  0  0  0
  114.6436  168.0117  143.9134 C   0  0  0  0  0  0  0  0  0  0  0  0
  115.6309  168.2733  144.8991 C   0  0  0  0  0  0  0  0  0  0  0  0
  116.4569  169.3703  144.7493 C   0  0  0  0  0  0  0  0  0  0  0  0
  117.6640  169.5900  145.6673 C   0  0  0  0  0  0  0  0  0  0  0  0
  117.4685  169.0422  147.0057 C   0  0  2  0  0  0  0  0  0  0  0  0
  118.1540  169.9862  147.9007 N   0  0  0  0  0  0  0  0  0  0  0  0
  117.5156  171.2878  147.8253 C   0  0  0  0  0  0  0  0  0  0  0  0
  118.3826  169.5480  149.2161 C   0  0  0  0  0  0  0  0  0  0  0  0
  117.2253  168.6302  149.6035 C   0  0  0  0  0  0  0  0  0  0  0  0
  117.4868  167.4238  148.7211 C   0  0  0  0  0  0  0  0  0  0  0  0
  117.7017  167.6602  147.3539 C   0  0  0  0  0  0  0  0  0  0  0  0
  118.0094  166.5241  146.5837 C   0  0  0  0  0  0  0  0  0  0  0  0
  118.2476  166.6187  145.2446 O   0  0  0  0  0  0  0  0  0  0  0  0
  118.3259  166.2253  143.9492 C   0  0  0  0  0  0  0  0  0  0  0  0
  117.5014  165.3337  143.2491 C   0  0  0  0  0  0  0  0  0  0  0  0
  117.7218  165.0196  141.9335 C   0  0  0  0  0  0  0  0  0  0  0  0
  118.8019  165.6102  141.2723 C   0  0  0  0  0  0  0  0  0  0  0  0
  119.1574  165.3316  139.8484 C   0  0  0  0  0  0  0  0  0  0  0  0
  118.9187  163.8909  139.5181 C   0  0  0  0  0  0  0  0  0  0  0  0
  118.1452  163.1810  140.4482 N   0  0  0  0  0  0  0  0  0  0  0  0
  118.9276  162.6223  141.5022 C   0  0  0  0  0  0  0  0  0  0  0  0
  119.6646  166.5157  141.9155 C   0  0  0  0  0  0  0  0  0  0  0  0
  119.3826  166.7744  143.2157 C   0  0  0  0  0  0  0  0  0  0  0  0
  120.2910  167.6926  143.8028 O   0  0  0  0  0  0  0  0  0  0  0  0
  120.1057  168.2231  145.0829 C   0  0  0  0  0  0  0  0  0  0  0  0
  118.0685  165.2785  147.2497 C   0  0  0  0  0  0  0  0  0  0  0  0
  118.3380  163.9523  146.8285 O   0  0  0  0  0  0  0  0  0  0  0  0
  118.7185  163.1624  147.9195 C   0  0  0  0  0  0  0  0  0  0  0  0
  117.9665  163.7619  148.9711 O   0  0  0  0  0  0  0  0  0  0  0  0
  117.8461  165.1098  148.5944 C   0  0  0  0  0  0  0  0  0  0  0  0
  117.5490  166.2220  149.3460 C   0  0  0  0  0  0  0  0  0  0  0  0
  116.2511  170.1691  143.6240 C   0  0  0  0  0  0  0  0  0  0  0  0
  115.2456  169.8672  142.6589 C   0  0  0  0  0  0  0  0  0  0  0  0
  113.7968  167.9441  139.5375 C   0  0  0  0  0  0  0  0  0  0  0  0
  113.0421  169.1037  139.2561 O   0  0  0  0  0  0  0  0  0  0  0  0
  111.8024  169.3639  139.8578 C   0  0  0  0  0  0  0  0  0  0  0  0
  114.3069  167.2946  138.4200 C   0  0  0  0  0  0  0  0  0  0  0  0
  115.0345  166.1754  138.7058 C   0  0  0  0  0  0  0  0  0  0  0  0
  1  2  1  0
  2  3  1  0
  3  4  2  0
  4  5  1  0
  5  6  1  0
  6  7  1  0
  7  8  2  0
  8  9  1  0
  9 10  2  0
 10 11  1  0
 11 12  1  0
 12 13  1  1
 13 14  1  0
 13 15  1  0
 15 16  1  0
 16 17  1  0
 17 18  2  0
 18 19  1  0
 19 20  1  0
 20 21  1  0
 21 22  2  0
 22 23  1  0
 23 24  2  0
 24 25  1  0
 25 26  1  0
 26 27  1  0
 27 28  1  0
 24 29  1  0
 29 30  2  0
 30 31  1  0
 31 32  1  0
 19 33  2  0
 33 34  1  0
 34 35  1  0
 35 36  1  0
 36 37  1  0
 37 38  2  0
 10 39  1  0
 39 40  2  0
  5 41  2  0
 41 42  1  0
 42 43  1  0
 41 44  1  0
 44 45  2  0
 23  1  1  0
 37 33  1  0
  1 27  1  6
 45  3  1  0
 40  7  1  0
 18 12  1  0
 30 21  1  0
 38 17  1  0
M  END
$$$$
