
     RDKit          3D

 45 52  0  0  0  0  0  0  0  0999 V2000
  199.5770  179.6269  139.0164 C   0  0  2  0  0  0  0  0  0  0  0  0
  198.6960  178.4746  138.8093 C   0  0  0  0  0  0  0  0  0  0  0  0
  197.2599  178.4482  139.1452 C   0  0  0  0  0  0  0  0  0  0  0  0
  196.5154  179.1899  140.0407 C   0  0  0  0  0  0  0  0  0  0  0  0
  195.1653  178.9752  140.0546 C   0  0  0  0  0  0  0  0  0  0  0  0
  194.2203  179.7155  140.9053 O   0  0  0  0  0  0  0  0  0  0  0  0
  194.3859  181.1911  140.7188 C   0  0  0  0  0  0  0  0  0  0  0  0
  195.2637  181.8417  141.5217 C   0  0  0  0  0  0  0  0  0  0  0  0
  195.5570  183.2255  141.4035 C   0  0  0  0  0  0  0  0  0  0  0  0
  194.9212  183.9668  140.4265 C   0  0  0  0  0  0  0  0  0  0  0  0
  195.3412  185.4084  140.1206 C   0  0  0  0  0  0  0  0  0  0  0  0
  195.8772  186.1047  141.2858 C   0  0  2  0  0  0  0  0  0  0  0  0
  195.4194  187.4940  141.1354 N   0  0  0  0  0  0  0  0  0  0  0  0
  193.9693  187.5421  141.1822 C   0  0  0  0  0  0  0  0  0  0  0  0
  196.0400  188.4498  141.9574 C   0  0  0  0  0  0  0  0  0  0  0  0
  196.3942  187.7640  143.2750 C   0  0  0  0  0  0  0  0  0  0  0  0
  197.5010  186.8222  142.8385 C   0  0  0  0  0  0  0  0  0  0  0  0
  197.2492  186.0045  141.7251 C   0  0  0  0  0  0  0  0  0  0  0  0
  198.3242  185.1975  141.3108 C   0  0  0  0  0  0  0  0  0  0  0  0
  198.2122  184.3636  140.2379 O   0  0  0  0  0  0  0  0  0  0  0  0
  198.4713  183.2992  139.4386 C   0  0  0  0  0  0  0  0  0  0  0  0
  198.8406  181.9964  139.8006 C   0  0  0  0  0  0  0  0  0  0  0  0
  199.0888  181.0248  138.8666 C   0  0  0  0  0  0  0  0  0  0  0  0
  198.9668  181.3463  137.5122 C   0  0  0  0  0  0  0  0  0  0  0  0
  199.2314  180.3821  136.4023 C   0  0  0  0  0  0  0  0  0  0  0  0
  200.3837  179.4891  136.7439 C   0  0  0  0  0  0  0  0  0  0  0  0
  200.7725  179.4983  138.0915 N   0  0  0  0  0  0  0  0  0  0  0  0
  201.7168  180.5266  138.3848 C   0  0  0  0  0  0  0  0  0  0  0  0
  198.5962  182.6330  137.0821 C   0  0  0  0  0  0  0  0  0  0  0  0
  198.3692  183.5388  138.0645 C   0  0  0  0  0  0  0  0  0  0  0  0
  198.0015  184.8137  137.5620 O   0  0  0  0  0  0  0  0  0  0  0  0
  197.8659  185.0756  136.1955 C   0  0  0  0  0  0  0  0  0  0  0  0
  199.5294  185.2859  142.0443 C   0  0  0  0  0  0  0  0  0  0  0  0
  200.7920  184.6507  141.9376 O   0  0  0  0  0  0  0  0  0  0  0  0
  201.7715  185.3990  142.6006 C   0  0  0  0  0  0  0  0  0  0  0  0
  201.0103  185.9764  143.6579 O   0  0  0  0  0  0  0  0  0  0  0  0
  199.7152  186.1065  143.1298 C   0  0  0  0  0  0  0  0  0  0  0  0
  198.6644  186.8970  143.5310 C   0  0  0  0  0  0  0  0  0  0  0  0
  194.0066  183.2940  139.6157 C   0  0  0  0  0  0  0  0  0  0  0  0
  193.7436  181.9011  139.7710 C   0  0  0  0  0  0  0  0  0  0  0  0
  194.5260  178.0711  139.2615 C   0  0  0  0  0  0  0  0  0  0  0  0
  193.1319  177.8496  139.2933 O   0  0  0  0  0  0  0  0  0  0  0  0
  192.5288  176.7366  138.6899 C   0  0  0  0  0  0  0  0  0  0  0  0
  195.2198  177.2910  138.3447 C   0  0  0  0  0  0  0  0  0  0  0  0
  196.5663  177.5150  138.3238 C   0  0  0  0  0  0  0  0  0  0  0  0
  1  2  1  0
  2  3  1  0
  3  4  2  0
  4  5  1  0
  5  6  1  0
  6  7  1  0
  7  8  2  0
  8  9  1  0
  9 10  2  0
 10 11  1  0
 11 12  1  0
 12 13  1  6
 13 14  1  0
 13 15  1  0
 15 16  1  0
 16 17  1  0
 17 18  2  0
 18 19  1  0
 19 20  1  0
 20 21  1  0
 21 22  2  0
 22 23  1  0
 23 24  2  0
 24 25  1  0
 25 26  1  0
 26 27  1  0
 27 28  1  0
 24 29  1  0
 29 30  2  0
 30 31  1  0
 31 32  1  0
 19 33  2  0
 33 34  1  0
 34 35  1  0
 35 36  1  0
 36 37  1  0
 37 38  2  0
 10 39  1  0
 39 40  2  0
  5 41  2  0
 41 42  1  0
 42 43  1  0
 41 44  1  0
 44 45  2  0
 23  1  1  0
 37 33  1  0
  1 27  1  6
 45  3  1  0
 40  7  1  0
 18 12  1  0
 30 21  1  0
 38 17  1  0
M  END
$$$$
