
     RDKit          3D

 45 52  0  0  0  0  0  0  0  0999 V2000
  147.1432  172.1936  152.8773 C   0  0  2  0  0  0  0  0  0  0  0  0
  147.0096  170.8800  153.5123 C   0  0  0  0  0  0  0  0  0  0  0  0
  147.2603  170.6118  154.9409 C   0  0  0  0  0  0  0  0  0  0  0  0
  148.0246  171.2790  155.8773 C   0  0  0  0  0  0  0  0  0  0  0  0
  147.9812  170.8128  157.1618 C   0  0  0  0  0  0  0  0  0  0  0  0
  148.6892  171.4363  158.2908 O   0  0  0  0  0  0  0  0  0  0  0  0
  148.3548  172.8918  158.3852 C   0  0  0  0  0  0  0  0  0  0  0  0
  149.1336  173.7713  157.7080 C   0  0  0  0  0  0  0  0  0  0  0  0
  148.8844  175.1681  157.6658 C   0  0  0  0  0  0  0  0  0  0  0  0
  147.7970  175.6783  158.3480 C   0  0  0  0  0  0  0  0  0  0  0  0
  147.3629  177.1379  158.1776 C   0  0  0  0  0  0  0  0  0  0  0  0
  148.4760  178.0310  157.8722 C   0  0  2  0  0  0  0  0  0  0  0  0
  148.1495  179.2866  158.5643 N   0  0  0  0  0  0  0  0  0  0  0  0
  148.1044  179.0611  159.9977 C   0  0  0  0  0  0  0  0  0  0  0  0
  148.8990  180.4170  158.1968 C   0  0  0  0  0  0  0  0  0  0  0  0
  150.3016  179.9395  157.8274 C   0  0  0  0  0  0  0  0  0  0  0  0
  150.0360  179.1893  156.5355 C   0  0  0  0  0  0  0  0  0  0  0  0
  149.0044  178.2368  156.5441 C   0  0  0  0  0  0  0  0  0  0  0  0
  148.7443  177.6144  155.3098 C   0  0  0  0  0  0  0  0  0  0  0  0
  147.7629  176.6765  155.1817 O   0  0  0  0  0  0  0  0  0  0  0  0
  147.1000  175.6104  154.6692 C   0  0  0  0  0  0  0  0  0  0  0  0
  147.6218  174.4423  154.0963 C   0  0  0  0  0  0  0  0  0  0  0  0
  146.8146  173.4519  153.6009 C   0  0  0  0  0  0  0  0  0  0  0  0
  145.4285  173.6143  153.6729 C   0  0  0  0  0  0  0  0  0  0  0  0
  144.4469  172.6176  153.1488 C   0  0  0  0  0  0  0  0  0  0  0  0
  144.9509  171.9977  151.8826 C   0  0  0  0  0  0  0  0  0  0  0  0
  146.3104  172.2086  151.6095 N   0  0  0  0  0  0  0  0  0  0  0  0
  146.5466  173.4214  150.8964 C   0  0  0  0  0  0  0  0  0  0  0  0
  144.8408  174.7599  154.2387 C   0  0  0  0  0  0  0  0  0  0  0  0
  145.7045  175.6946  154.7050 C   0  0  0  0  0  0  0  0  0  0  0  0
  145.0463  176.8224  155.2601 O   0  0  0  0  0  0  0  0  0  0  0  0
  144.9910  178.0591  154.6104 C   0  0  0  0  0  0  0  0  0  0  0  0
  149.5344  178.0004  154.2030 C   0  0  0  0  0  0  0  0  0  0  0  0
  149.5722  177.6108  152.8407 O   0  0  0  0  0  0  0  0  0  0  0  0
  150.2078  178.5918  152.0709 C   0  0  0  0  0  0  0  0  0  0  0  0
  151.1494  179.1109  153.0061 O   0  0  0  0  0  0  0  0  0  0  0  0
  150.5342  178.9405  154.2574 C   0  0  0  0  0  0  0  0  0  0  0  0
  150.7844  179.5502  155.4639 C   0  0  0  0  0  0  0  0  0  0  0  0
  147.0105  174.7694  159.0566 C   0  0  0  0  0  0  0  0  0  0  0  0
  147.2993  173.3730  159.0704 C   0  0  0  0  0  0  0  0  0  0  0  0
  147.2536  169.7322  157.5594 C   0  0  0  0  0  0  0  0  0  0  0  0
  147.2261  169.2526  158.8872 O   0  0  0  0  0  0  0  0  0  0  0  0
  146.7538  170.0225  159.9599 C   0  0  0  0  0  0  0  0  0  0  0  0
  146.4693  169.0156  156.6639 C   0  0  0  0  0  0  0  0  0  0  0  0
  146.5046  169.4896  155.3842 C   0  0  0  0  0  0  0  0  0  0  0  0
  1  2  1  0
  2  3  1  0
  3  4  2  0
  4  5  1  0
  5  6  1  0
  6  7  1  0
  7  8  2  0
  8  9  1  0
  9 10  2  0
 10 11  1  0
 11 12  1  0
 12 13  1  6
 13 14  1  0
 13 15  1  0
 15 16  1  0
 16 17  1  0
 17 18  2  0
 18 19  1  0
 19 20  1  0
 20 21  1  0
 21 22  2  0
 22 23  1  0
 23 24  2  0
 24 25  1  0
 25 26  1  0
 26 27  1  0
 27 28  1  0
 24 29  1  0
 29 30  2  0
 30 31  1  0
 31 32  1  0
 19 33  2  0
 33 34  1  0
 34 35  1  0
 35 36  1  0
 36 37  1  0
 37 38  2  0
 10 39  1  0
 39 40  2  0
  5 41  2  0
 41 42  1  0
 42 43  1  0
 41 44  1  0
 44 45  2  0
 23  1  1  0
 37 33  1  0
  1 27  1  6
 45  3  1  0
 40  7  1  0
 18 12  1  0
 30 21  1  0
 38 17  1  0
M  END
$$$$
