
     RDKit          3D

 45 52  0  0  0  0  0  0  0  0999 V2000
  141.8999  148.9948  129.7585 C   0  0  2  0  0  0  0  0  0  0  0  0
  142.5249  150.1763  129.1584 C   0  0  0  0  0  0  0  0  0  0  0  0
  142.4659  151.5352  129.7292 C   0  0  0  0  0  0  0  0  0  0  0  0
  141.5687  152.1254  130.5970 C   0  0  0  0  0  0  0  0  0  0  0  0
  141.8461  153.4001  131.0061 C   0  0  0  0  0  0  0  0  0  0  0  0
  141.0278  154.1550  131.9679 O   0  0  0  0  0  0  0  0  0  0  0  0
  140.8304  153.3684  133.2255 C   0  0  0  0  0  0  0  0  0  0  0  0
  139.7542  152.5472  133.3029 C   0  0  0  0  0  0  0  0  0  0  0  0
  139.4903  151.7033  134.4133 C   0  0  0  0  0  0  0  0  0  0  0  0
  140.3633  151.7075  135.4839 C   0  0  0  0  0  0  0  0  0  0  0  0
  140.2427  150.6800  136.6143 C   0  0  0  0  0  0  0  0  0  0  0  0
  138.8704  150.2354  136.8355 C   0  0  2  0  0  0  0  0  0  0  0  0
  138.7697  150.0399  138.2894 N   0  0  0  0  0  0  0  0  0  0  0  0
  138.9720  151.3054  138.9713 C   0  0  0  0  0  0  0  0  0  0  0  0
  137.6496  149.3269  138.7489 C   0  0  0  0  0  0  0  0  0  0  0  0
  136.4882  149.6367  137.8071 C   0  0  0  0  0  0  0  0  0  0  0  0
  136.9292  148.9292  136.5392 C   0  0  0  0  0  0  0  0  0  0  0  0
  138.2298  149.1867  136.0771 C   0  0  0  0  0  0  0  0  0  0  0  0
  138.6236  148.4588  134.9397 C   0  0  0  0  0  0  0  0  0  0  0  0
  139.8645  148.6108  134.3954 O   0  0  0  0  0  0  0  0  0  0  0  0
  140.8319  148.6013  133.4452 C   0  0  0  0  0  0  0  0  0  0  0  0
  140.7258  148.8951  132.0787 C   0  0  0  0  0  0  0  0  0  0  0  0
  141.8021  148.8227  131.2335 C   0  0  0  0  0  0  0  0  0  0  0  0
  143.0427  148.4457  131.7545 C   0  0  0  0  0  0  0  0  0  0  0  0
  144.2825  148.3098  130.9322 C   0  0  0  0  0  0  0  0  0  0  0  0
  143.9603  147.7467  129.5828 C   0  0  0  0  0  0  0  0  0  0  0  0
  142.6011  147.7550  129.2367 N   0  0  0  0  0  0  0  0  0  0  0  0
  141.9114  146.5903  129.6873 C   0  0  0  0  0  0  0  0  0  0  0  0
  143.2179  148.1417  133.1163 C   0  0  0  0  0  0  0  0  0  0  0  0
  142.1070  148.2346  133.8873 C   0  0  0  0  0  0  0  0  0  0  0  0
  142.3536  147.9137  135.2472 O   0  0  0  0  0  0  0  0  0  0  0  0
  141.3271  147.6387  136.1556 C   0  0  0  0  0  0  0  0  0  0  0  0
  137.6873  147.5579  134.3828 C   0  0  0  0  0  0  0  0  0  0  0  0
  137.7135  146.6770  133.2727 O   0  0  0  0  0  0  0  0  0  0  0  0
  136.7299  145.6908  133.4101 C   0  0  0  0  0  0  0  0  0  0  0  0
  135.7196  146.4039  134.1181 O   0  0  0  0  0  0  0  0  0  0  0  0
  136.4244  147.3499  134.8808 C   0  0  0  0  0  0  0  0  0  0  0  0
  136.0426  148.0598  135.9945 C   0  0  0  0  0  0  0  0  0  0  0  0
  141.4588  152.5678  135.4043 C   0  0  0  0  0  0  0  0  0  0  0  0
  141.6840  153.3986  134.2674 C   0  0  0  0  0  0  0  0  0  0  0  0
  142.9300  154.1163  130.5968 C   0  0  0  0  0  0  0  0  0  0  0  0
  143.1998  155.4370  131.0171 O   0  0  0  0  0  0  0  0  0  0  0  0
  144.0373  156.3030  130.2994 C   0  0  0  0  0  0  0  0  0  0  0  0
  143.8656  153.5803  129.7204 C   0  0  0  0  0  0  0  0  0  0  0  0
  143.5932  152.3033  129.3222 C   0  0  0  0  0  0  0  0  0  0  0  0
  1  2  1  0
  2  3  1  0
  3  4  2  0
  4  5  1  0
  5  6  1  0
  6  7  1  0
  7  8  2  0
  8  9  1  0
  9 10  2  0
 10 11  1  0
 11 12  1  0
 12 13  1  1
 13 14  1  0
 13 15  1  0
 15 16  1  0
 16 17  1  0
 17 18  2  0
 18 19  1  0
 19 20  1  0
 20 21  1  0
 21 22  2  0
 22 23  1  0
 23 24  2  0
 24 25  1  0
 25 26  1  0
 26 27  1  0
 27 28  1  0
 24 29  1  0
 29 30  2  0
 30 31  1  0
 31 32  1  0
 19 33  2  0
 33 34  1  0
 34 35  1  0
 35 36  1  0
 36 37  1  0
 37 38  2  0
 10 39  1  0
 39 40  2  0
  5 41  2  0
 41 42  1  0
 42 43  1  0
 41 44  1  0
 44 45  2  0
 23  1  1  0
 37 33  1  0
  1 27  1  1
 45  3  1  0
 40  7  1  0
 18 12  1  0
 30 21  1  0
 38 17  1  0
M  END
$$$$
