
     RDKit          3D

 45 52  0  0  0  0  0  0  0  0999 V2000
  210.1707  132.7069  135.6442 C   0  0  2  0  0  0  0  0  0  0  0  0
  210.8988  131.8554  134.7000 C   0  0  0  0  0  0  0  0  0  0  0  0
  210.2609  130.9361  133.7388 C   0  0  0  0  0  0  0  0  0  0  0  0
  209.0212  130.3284  133.7378 C   0  0  0  0  0  0  0  0  0  0  0  0
  208.6945  129.5841  132.6386 C   0  0  0  0  0  0  0  0  0  0  0  0
  207.3975  128.9155  132.4500 O   0  0  0  0  0  0  0  0  0  0  0  0
  206.2724  129.8873  132.6201 C   0  0  0  0  0  0  0  0  0  0  0  0
  205.7502  130.0488  133.8610 C   0  0  0  0  0  0  0  0  0  0  0  0
  204.7256  130.9831  134.1649 C   0  0  0  0  0  0  0  0  0  0  0  0
  204.2179  131.7768  133.1547 C   0  0  0  0  0  0  0  0  0  0  0  0
  203.2607  132.9348  133.4562 C   0  0  0  0  0  0  0  0  0  0  0  0
  202.4383  132.7005  134.6389 C   0  0  2  0  0  0  0  0  0  0  0  0
  201.1405  133.3139  134.3202 N   0  0  0  0  0  0  0  0  0  0  0  0
  200.5407  132.6352  133.1857 C   0  0  0  0  0  0  0  0  0  0  0  0
  200.2554  133.5003  135.3955 C   0  0  0  0  0  0  0  0  0  0  0  0
  200.4852  132.3593  136.3842 C   0  0  0  0  0  0  0  0  0  0  0  0
  201.8612  132.6999  136.9256 C   0  0  0  0  0  0  0  0  0  0  0  0
  202.8739  132.9655  135.9899 C   0  0  0  0  0  0  0  0  0  0  0  0
  204.1151  133.3449  136.5321 C   0  0  0  0  0  0  0  0  0  0  0  0
  205.1790  133.6374  135.7310 O   0  0  0  0  0  0  0  0  0  0  0  0
  206.4765  133.7851  135.3659 C   0  0  0  0  0  0  0  0  0  0  0  0
  207.5897  133.0227  135.7459 C   0  0  0  0  0  0  0  0  0  0  0  0
  208.8540  133.3104  135.3023 C   0  0  0  0  0  0  0  0  0  0  0  0
  209.0346  134.3973  134.4427 C   0  0  0  0  0  0  0  0  0  0  0  0
  210.3636  134.8233  133.9101 C   0  0  0  0  0  0  0  0  0  0  0  0
  211.4279  134.6485  134.9486 C   0  0  0  0  0  0  0  0  0  0  0  0
  211.0680  133.8603  136.0515 N   0  0  0  0  0  0  0  0  0  0  0  0
  210.4373  134.6150  137.0849 C   0  0  0  0  0  0  0  0  0  0  0  0
  207.9598  135.1999  134.0202 C   0  0  0  0  0  0  0  0  0  0  0  0
  206.7416  134.8531  134.5027 C   0  0  0  0  0  0  0  0  0  0  0  0
  205.7047  135.7033  134.0390 O   0  0  0  0  0  0  0  0  0  0  0  0
  204.6754  135.2532  133.2070 C   0  0  0  0  0  0  0  0  0  0  0  0
  204.2194  133.4177  137.9400 C   0  0  0  0  0  0  0  0  0  0  0  0
  205.2709  133.7504  138.8303 O   0  0  0  0  0  0  0  0  0  0  0  0
  204.7552  134.1101  140.0807 C   0  0  0  0  0  0  0  0  0  0  0  0
  203.5892  133.2933  140.1449 O   0  0  0  0  0  0  0  0  0  0  0  0
  203.1898  133.1432  138.8065 C   0  0  0  0  0  0  0  0  0  0  0  0
  201.9764  132.7760  138.2745 C   0  0  0  0  0  0  0  0  0  0  0  0
  204.7481  131.5926  131.8773 C   0  0  0  0  0  0  0  0  0  0  0  0
  205.7780  130.6408  131.6187 C   0  0  0  0  0  0  0  0  0  0  0  0
  209.5178  129.3950  131.5702 C   0  0  0  0  0  0  0  0  0  0  0  0
  209.1739  128.6140  130.4453 O   0  0  0  0  0  0  0  0  0  0  0  0
  208.0302  128.8626  129.6728 C   0  0  0  0  0  0  0  0  0  0  0  0
  210.7793  129.9748  131.5141 C   0  0  0  0  0  0  0  0  0  0  0  0
  211.0992  130.7273  132.6074 C   0  0  0  0  0  0  0  0  0  0  0  0
  1  2  1  0
  2  3  1  0
  3  4  2  0
  4  5  1  0
  5  6  1  0
  6  7  1  0
  7  8  2  0
  8  9  1  0
  9 10  2  0
 10 11  1  0
 11 12  1  0
 12 13  1  6
 13 14  1  0
 13 15  1  0
 15 16  1  0
 16 17  1  0
 17 18  2  0
 18 19  1  0
 19 20  1  0
 20 21  1  0
 21 22  2  0
 22 23  1  0
 23 24  2  0
 24 25  1  0
 25 26  1  0
 26 27  1  0
 27 28  1  0
 24 29  1  0
 29 30  2  0
 30 31  1  0
 31 32  1  0
 19 33  2  0
 33 34  1  0
 34 35  1  0
 35 36  1  0
 36 37  1  0
 37 38  2  0
 10 39  1  0
 39 40  2  0
  5 41  2  0
 41 42  1  0
 42 43  1  0
 41 44  1  0
 44 45  2  0
 23  1  1  0
 37 33  1  0
  1 27  1  6
 45  3  1  0
 40  7  1  0
 18 12  1  0
 30 21  1  0
 38 17  1  0
M  END
$$$$
