
     RDKit          3D

 45 52  0  0  0  0  0  0  0  0999 V2000
  128.4516  184.2508  153.9563 C   0  0  2  0  0  0  0  0  0  0  0  0
  129.4158  185.0675  154.6979 C   0  0  0  0  0  0  0  0  0  0  0  0
  130.8589  185.1353  154.4003 C   0  0  0  0  0  0  0  0  0  0  0  0
  131.7032  184.2527  153.7565 C   0  0  0  0  0  0  0  0  0  0  0  0
  132.9957  184.6555  153.5659 C   0  0  0  0  0  0  0  0  0  0  0  0
  134.0105  183.8642  152.8528 O   0  0  0  0  0  0  0  0  0  0  0  0
  133.5146  183.4669  151.4979 C   0  0  0  0  0  0  0  0  0  0  0  0
  132.8471  182.2925  151.3813 C   0  0  0  0  0  0  0  0  0  0  0  0
  132.2734  181.8342  150.1664 C   0  0  0  0  0  0  0  0  0  0  0  0
  132.3943  182.6107  149.0304 C   0  0  0  0  0  0  0  0  0  0  0  0
  131.6302  182.2692  147.7468 C   0  0  0  0  0  0  0  0  0  0  0  0
  131.3902  180.8381  147.5909 C   0  0  2  0  0  0  0  0  0  0  0  0
  131.4984  180.5956  146.1446 N   0  0  0  0  0  0  0  0  0  0  0  0
  132.8441  180.9008  145.6937 C   0  0  0  0  0  0  0  0  0  0  0  0
  131.0166  179.3603  145.6794 C   0  0  0  0  0  0  0  0  0  0  0  0
  131.2585  178.3281  146.7785 C   0  0  0  0  0  0  0  0  0  0  0  0
  130.2704  178.7773  147.8388 C   0  0  0  0  0  0  0  0  0  0  0  0
  130.2883  180.1333  148.2027 C   0  0  0  0  0  0  0  0  0  0  0  0
  129.3112  180.5228  149.1367 C   0  0  0  0  0  0  0  0  0  0  0  0
  129.2165  181.8130  149.5674 O   0  0  0  0  0  0  0  0  0  0  0  0
  128.9140  182.8454  150.3929 C   0  0  0  0  0  0  0  0  0  0  0  0
  128.9414  182.8889  151.7936 C   0  0  0  0  0  0  0  0  0  0  0  0
  128.5865  184.0124  152.4935 C   0  0  0  0  0  0  0  0  0  0  0  0
  128.1873  185.1487  151.7848 C   0  0  0  0  0  0  0  0  0  0  0  0
  127.7572  186.4238  152.4333 C   0  0  0  0  0  0  0  0  0  0  0  0
  126.9766  186.1435  153.6799 C   0  0  0  0  0  0  0  0  0  0  0  0
  127.0642  184.8290  154.1613 N   0  0  0  0  0  0  0  0  0  0  0  0
  126.0938  183.9628  153.5755 C   0  0  0  0  0  0  0  0  0  0  0  0
  128.1415  185.1725  150.3793 C   0  0  0  0  0  0  0  0  0  0  0  0
  128.5055  184.0234  149.7594 C   0  0  0  0  0  0  0  0  0  0  0  0
  128.4351  184.1159  148.3454 O   0  0  0  0  0  0  0  0  0  0  0  0
  127.3193  183.6938  147.6163 C   0  0  0  0  0  0  0  0  0  0  0  0
  128.4253  179.5281  149.6101 C   0  0  0  0  0  0  0  0  0  0  0  0
  127.3446  179.5323  150.5272 O   0  0  0  0  0  0  0  0  0  0  0  0
  126.5181  178.4236  150.3115 C   0  0  0  0  0  0  0  0  0  0  0  0
  127.4629  177.4578  149.8584 O   0  0  0  0  0  0  0  0  0  0  0  0
  128.4586  178.2126  149.2166 C   0  0  0  0  0  0  0  0  0  0  0  0
  129.4121  177.8348  148.3010 C   0  0  0  0  0  0  0  0  0  0  0  0
  133.0974  183.8094  149.1544 C   0  0  0  0  0  0  0  0  0  0  0  0
  133.6573  184.2299  150.3968 C   0  0  0  0  0  0  0  0  0  0  0  0
  133.4945  185.8512  153.9864 C   0  0  0  0  0  0  0  0  0  0  0  0
  134.8349  186.2514  153.7944 O   0  0  0  0  0  0  0  0  0  0  0  0
  135.5319  186.0134  152.6010 C   0  0  0  0  0  0  0  0  0  0  0  0
  132.6972  186.7793  154.6448 C   0  0  0  0  0  0  0  0  0  0  0  0
  131.4040  186.3803  154.8238 C   0  0  0  0  0  0  0  0  0  0  0  0
  1  2  1  0
  2  3  1  0
  3  4  2  0
  4  5  1  0
  5  6  1  0
  6  7  1  0
  7  8  2  0
  8  9  1  0
  9 10  2  0
 10 11  1  0
 11 12  1  0
 12 13  1  6
 13 14  1  0
 13 15  1  0
 15 16  1  0
 16 17  1  0
 17 18  2  0
 18 19  1  0
 19 20  1  0
 20 21  1  0
 21 22  2  0
 22 23  1  0
 23 24  2  0
 24 25  1  0
 25 26  1  0
 26 27  1  0
 27 28  1  0
 24 29  1  0
 29 30  2  0
 30 31  1  0
 31 32  1  0
 19 33  2  0
 33 34  1  0
 34 35  1  0
 35 36  1  0
 36 37  1  0
 37 38  2  0
 10 39  1  0
 39 40  2  0
  5 41  2  0
 41 42  1  0
 42 43  1  0
 41 44  1  0
 44 45  2  0
 23  1  1  0
 37 33  1  0
  1 27  1  6
 45  3  1  0
 40  7  1  0
 18 12  1  0
 30 21  1  0
 38 17  1  0
M  END
$$$$
