
     RDKit          3D

 45 52  0  0  0  0  0  0  0  0999 V2000
  136.5713  179.8366  147.8213 C   0  0  2  0  0  0  0  0  0  0  0  0
  135.1962  180.0384  148.2851 C   0  0  0  0  0  0  0  0  0  0  0  0
  134.7205  181.2408  148.9949 C   0  0  0  0  0  0  0  0  0  0  0  0
  135.3912  182.1874  149.7434 C   0  0  0  0  0  0  0  0  0  0  0  0
  134.6601  183.2455  150.2072 C   0  0  0  0  0  0  0  0  0  0  0  0
  135.2259  184.3679  150.9719 O   0  0  0  0  0  0  0  0  0  0  0  0
  136.3831  184.9743  150.2423 C   0  0  0  0  0  0  0  0  0  0  0  0
  137.6221  184.4811  150.4878 C   0  0  0  0  0  0  0  0  0  0  0  0
  138.7905  184.9265  149.8158 C   0  0  0  0  0  0  0  0  0  0  0  0
  138.6800  185.9173  148.8596 C   0  0  0  0  0  0  0  0  0  0  0  0
  139.8645  186.2958  147.9641 C   0  0  0  0  0  0  0  0  0  0  0  0
  141.1561  186.0939  148.6129 C   0  0  2  0  0  0  0  0  0  0  0  0
  141.9991  187.1930  148.1194 N   0  0  0  0  0  0  0  0  0  0  0  0
  141.4489  188.4660  148.5484 C   0  0  0  0  0  0  0  0  0  0  0  0
  143.3805  187.0728  148.3467 C   0  0  0  0  0  0  0  0  0  0  0  0
  143.5670  186.3276  149.6665 C   0  0  0  0  0  0  0  0  0  0  0  0
  143.0923  184.9344  149.2977 C   0  0  0  0  0  0  0  0  0  0  0  0
  141.8467  184.8265  148.6586 C   0  0  0  0  0  0  0  0  0  0  0  0
  141.4753  183.5263  148.2711 C   0  0  0  0  0  0  0  0  0  0  0  0
  140.2934  183.2865  147.6350 O   0  0  0  0  0  0  0  0  0  0  0  0
  139.2054  182.5912  147.2208 C   0  0  0  0  0  0  0  0  0  0  0  0
  138.4872  181.5960  147.8978 C   0  0  0  0  0  0  0  0  0  0  0  0
  137.4086  180.9662  147.3337 C   0  0  0  0  0  0  0  0  0  0  0  0
  137.0145  181.3319  146.0439 C   0  0  0  0  0  0  0  0  0  0  0  0
  135.8711  180.7047  145.3153 C   0  0  0  0  0  0  0  0  0  0  0  0
  135.7977  179.2391  145.6125 C   0  0  0  0  0  0  0  0  0  0  0  0
  136.5630  178.8082  146.7061 N   0  0  0  0  0  0  0  0  0  0  0  0
  137.9045  178.4836  146.3451 C   0  0  0  0  0  0  0  0  0  0  0  0
  137.6893  182.3253  145.3120 C   0  0  0  0  0  0  0  0  0  0  0  0
  138.7459  182.9003  145.9365 C   0  0  0  0  0  0  0  0  0  0  0  0
  139.3807  183.8906  145.1431 O   0  0  0  0  0  0  0  0  0  0  0  0
  140.7417  183.8455  144.8266 C   0  0  0  0  0  0  0  0  0  0  0  0
  142.3752  182.4752  148.5603 C   0  0  0  0  0  0  0  0  0  0  0  0
  142.3547  181.0759  148.3356 O   0  0  0  0  0  0  0  0  0  0  0  0
  143.6521  180.5540  148.3935 C   0  0  0  0  0  0  0  0  0  0  0  0
  144.2570  181.4212  149.3489 O   0  0  0  0  0  0  0  0  0  0  0  0
  143.5831  182.6436  149.1919 C   0  0  0  0  0  0  0  0  0  0  0  0
  143.9458  183.9157  149.5666 C   0  0  0  0  0  0  0  0  0  0  0  0
  137.4045  186.4317  148.6249 C   0  0  0  0  0  0  0  0  0  0  0  0
  136.2581  185.9530  149.3250 C   0  0  0  0  0  0  0  0  0  0  0  0
  133.3246  183.4055  149.9927 C   0  0  0  0  0  0  0  0  0  0  0  0
  132.5776  184.4969  150.4872 O   0  0  0  0  0  0  0  0  0  0  0  0
  131.2207  184.6833  150.1858 C   0  0  0  0  0  0  0  0  0  0  0  0
  132.5927  182.4850  149.2528 C   0  0  0  0  0  0  0  0  0  0  0  0
  133.3266  181.4353  148.7805 C   0  0  0  0  0  0  0  0  0  0  0  0
  1  2  1  0
  2  3  1  0
  3  4  2  0
  4  5  1  0
  5  6  1  0
  6  7  1  0
  7  8  2  0
  8  9  1  0
  9 10  2  0
 10 11  1  0
 11 12  1  0
 12 13  1  6
 13 14  1  0
 13 15  1  0
 15 16  1  0
 16 17  1  0
 17 18  2  0
 18 19  1  0
 19 20  1  0
 20 21  1  0
 21 22  2  0
 22 23  1  0
 23 24  2  0
 24 25  1  0
 25 26  1  0
 26 27  1  0
 27 28  1  0
 24 29  1  0
 29 30  2  0
 30 31  1  0
 31 32  1  0
 19 33  2  0
 33 34  1  0
 34 35  1  0
 35 36  1  0
 36 37  1  0
 37 38  2  0
 10 39  1  0
 39 40  2  0
  5 41  2  0
 41 42  1  0
 42 43  1  0
 41 44  1  0
 44 45  2  0
 23  1  1  0
 37 33  1  0
  1 27  1  6
 45  3  1  0
 40  7  1  0
 18 12  1  0
 30 21  1  0
 38 17  1  0
M  END
$$$$
