
     RDKit          3D

 45 52  0  0  0  0  0  0  0  0999 V2000
  114.3892  170.5454  144.4787 C   0  0  2  0  0  0  0  0  0  0  0  0
  114.2423  170.8770  145.8983 C   0  0  0  0  0  0  0  0  0  0  0  0
  114.8330  170.1003  147.0045 C   0  0  0  0  0  0  0  0  0  0  0  0
  115.2390  168.7831  147.0836 C   0  0  0  0  0  0  0  0  0  0  0  0
  115.8337  168.3846  148.2483 C   0  0  0  0  0  0  0  0  0  0  0  0
  116.3727  167.0355  148.4806 O   0  0  0  0  0  0  0  0  0  0  0  0
  117.3303  166.6550  147.3954 C   0  0  0  0  0  0  0  0  0  0  0  0
  116.8378  166.0216  146.3023 C   0  0  0  0  0  0  0  0  0  0  0  0
  117.6298  165.6652  145.1795 C   0  0  0  0  0  0  0  0  0  0  0  0
  118.9775  165.9683  145.1836 C   0  0  0  0  0  0  0  0  0  0  0  0
  119.8376  165.7916  143.9278 C   0  0  0  0  0  0  0  0  0  0  0  0
  119.3680  164.7138  143.0631 C   0  0  2  0  0  0  0  0  0  0  0  0
  120.5926  164.1191  142.5071 N   0  0  0  0  0  0  0  0  0  0  0  0
  121.3936  163.5517  143.5766 C   0  0  0  0  0  0  0  0  0  0  0  0
  120.4272  163.2561  141.4106 C   0  0  0  0  0  0  0  0  0  0  0  0
  119.0873  162.5441  141.5829 C   0  0  0  0  0  0  0  0  0  0  0  0
  118.1085  163.6815  141.3572 C   0  0  0  0  0  0  0  0  0  0  0  0
  118.3165  164.8642  142.0849 C   0  0  0  0  0  0  0  0  0  0  0  0
  117.4299  165.9172  141.7956 C   0  0  0  0  0  0  0  0  0  0  0  0
  117.5291  167.1213  142.4275 O   0  0  0  0  0  0  0  0  0  0  0  0
  117.1304  168.3174  142.9266 C   0  0  0  0  0  0  0  0  0  0  0  0
  115.8967  168.6674  143.4926 C   0  0  0  0  0  0  0  0  0  0  0  0
  115.6357  169.9361  143.9402 C   0  0  0  0  0  0  0  0  0  0  0  0
  116.6337  170.9078  143.8289 C   0  0  0  0  0  0  0  0  0  0  0  0
  116.4625  172.3279  144.2598 C   0  0  0  0  0  0  0  0  0  0  0  0
  115.0740  172.8040  143.9648 C   0  0  0  0  0  0  0  0  0  0  0  0
  114.1458  171.7980  143.6584 N   0  0  0  0  0  0  0  0  0  0  0  0
  114.1323  171.4659  142.2710 C   0  0  0  0  0  0  0  0  0  0  0  0
  117.8941  170.6214  143.2746 C   0  0  0  0  0  0  0  0  0  0  0  0
  118.0754  169.3458  142.8536 C   0  0  0  0  0  0  0  0  0  0  0  0
  119.3654  169.1264  142.3050 O   0  0  0  0  0  0  0  0  0  0  0  0
  119.7450  167.9082  141.7338 C   0  0  0  0  0  0  0  0  0  0  0  0
  116.4335  165.6844  140.8201 C   0  0  0  0  0  0  0  0  0  0  0  0
  115.3900  166.4738  140.2753 O   0  0  0  0  0  0  0  0  0  0  0  0
  114.9794  165.9548  139.0421 C   0  0  0  0  0  0  0  0  0  0  0  0
  115.2024  164.5613  139.2400 O   0  0  0  0  0  0  0  0  0  0  0  0
  116.2786  164.5008  140.1408 C   0  0  0  0  0  0  0  0  0  0  0  0
  117.1483  163.4740  140.4225 C   0  0  0  0  0  0  0  0  0  0  0  0
  119.4802  166.6044  146.3190 C   0  0  0  0  0  0  0  0  0  0  0  0
  118.6459  166.9437  147.4247 C   0  0  0  0  0  0  0  0  0  0  0  0
  116.0273  169.1958  149.3252 C   0  0  0  0  0  0  0  0  0  0  0  0
  116.6323  168.7695  150.5277 O   0  0  0  0  0  0  0  0  0  0  0  0
  116.5004  169.4752  151.7324 C   0  0  0  0  0  0  0  0  0  0  0  0
  115.6357  170.5288  149.3097 C   0  0  0  0  0  0  0  0  0  0  0  0
  115.0527  170.9281  148.1416 C   0  0  0  0  0  0  0  0  0  0  0  0
  1  2  1  0
  2  3  1  0
  3  4  2  0
  4  5  1  0
  5  6  1  0
  6  7  1  0
  7  8  2  0
  8  9  1  0
  9 10  2  0
 10 11  1  0
 11 12  1  0
 12 13  1  6
 13 14  1  0
 13 15  1  0
 15 16  1  0
 16 17  1  0
 17 18  2  0
 18 19  1  0
 19 20  1  0
 20 21  1  0
 21 22  2  0
 22 23  1  0
 23 24  2  0
 24 25  1  0
 25 26  1  0
 26 27  1  0
 27 28  1  0
 24 29  1  0
 29 30  2  0
 30 31  1  0
 31 32  1  0
 19 33  2  0
 33 34  1  0
 34 35  1  0
 35 36  1  0
 36 37  1  0
 37 38  2  0
 10 39  1  0
 39 40  2  0
  5 41  2  0
 41 42  1  0
 42 43  1  0
 41 44  1  0
 44 45  2  0
 23  1  1  0
 37 33  1  0
  1 27  1  6
 45  3  1  0
 40  7  1  0
 18 12  1  0
 30 21  1  0
 38 17  1  0
M  END
$$$$
