
     RDKit          3D

 45 52  0  0  0  0  0  0  0  0999 V2000
  190.5816  163.6662  123.2871 C   0  0  2  0  0  0  0  0  0  0  0  0
  190.1222  162.2961  123.0457 C   0  0  0  0  0  0  0  0  0  0  0  0
  188.8742  161.9436  122.3428 C   0  0  0  0  0  0  0  0  0  0  0  0
  187.7060  162.6512  122.1409 C   0  0  0  0  0  0  0  0  0  0  0  0
  186.7494  162.0629  121.3613 C   0  0  0  0  0  0  0  0  0  0  0  0
  185.4722  162.6982  121.0010 O   0  0  0  0  0  0  0  0  0  0  0  0
  185.7053  164.0461  120.3942 C   0  0  0  0  0  0  0  0  0  0  0  0
  185.7442  165.1204  121.2205 C   0  0  0  0  0  0  0  0  0  0  0  0
  186.0194  166.4406  120.7775 C   0  0  0  0  0  0  0  0  0  0  0  0
  186.2594  166.6634  119.4355 C   0  0  0  0  0  0  0  0  0  0  0  0
  186.7566  168.0219  118.9300 C   0  0  0  0  0  0  0  0  0  0  0  0
  186.2970  169.1377  119.7507 C   0  0  2  0  0  0  0  0  0  0  0  0
  186.0673  170.2339  118.7979 N   0  0  0  0  0  0  0  0  0  0  0  0
  185.0143  169.8658  117.8689 C   0  0  0  0  0  0  0  0  0  0  0  0
  185.9086  171.5175  119.3471 C   0  0  0  0  0  0  0  0  0  0  0  0
  185.2278  171.3568  120.7045 C   0  0  0  0  0  0  0  0  0  0  0  0
  186.3264  170.6986  121.5185 C   0  0  0  0  0  0  0  0  0  0  0  0
  186.9500  169.5693  120.9643 C   0  0  0  0  0  0  0  0  0  0  0  0
  188.0090  169.0313  121.7177 C   0  0  0  0  0  0  0  0  0  0  0  0
  188.7024  167.9392  121.2869 O   0  0  0  0  0  0  0  0  0  0  0  0
  189.4645  166.8204  121.3661 C   0  0  0  0  0  0  0  0  0  0  0  0
  189.4807  165.8358  122.3637 C   0  0  0  0  0  0  0  0  0  0  0  0
  190.3300  164.7615  122.3114 C   0  0  0  0  0  0  0  0  0  0  0  0
  191.2041  164.6466  121.2273 C   0  0  0  0  0  0  0  0  0  0  0  0
  192.1899  163.5355  121.0690 C   0  0  0  0  0  0  0  0  0  0  0  0
  192.7664  163.1499  122.3959 C   0  0  0  0  0  0  0  0  0  0  0  0
  192.0811  163.6438  123.5156 N   0  0  0  0  0  0  0  0  0  0  0  0
  192.5252  164.9429  123.9036 C   0  0  0  0  0  0  0  0  0  0  0  0
  191.2355  165.5973  120.1914 C   0  0  0  0  0  0  0  0  0  0  0  0
  190.3674  166.6309  120.3151 C   0  0  0  0  0  0  0  0  0  0  0  0
  190.4526  167.5517  119.2390 O   0  0  0  0  0  0  0  0  0  0  0  0
  190.8448  167.1734  117.9516 C   0  0  0  0  0  0  0  0  0  0  0  0
  188.3335  169.6677  122.9376 C   0  0  0  0  0  0  0  0  0  0  0  0
  189.3037  169.4269  123.9425 O   0  0  0  0  0  0  0  0  0  0  0  0
  189.5125  170.5819  124.7050 C   0  0  0  0  0  0  0  0  0  0  0  0
  188.2192  171.1790  124.6630 O   0  0  0  0  0  0  0  0  0  0  0  0
  187.6831  170.7727  123.4298 C   0  0  0  0  0  0  0  0  0  0  0  0
  186.6507  171.2991  122.6902 C   0  0  0  0  0  0  0  0  0  0  0  0
  186.2006  165.5559  118.5891 C   0  0  0  0  0  0  0  0  0  0  0  0
  185.9202  164.2465  119.0794 C   0  0  0  0  0  0  0  0  0  0  0  0
  186.8740  160.8291  120.7977 C   0  0  0  0  0  0  0  0  0  0  0  0
  185.8738  160.2265  120.0039 O   0  0  0  0  0  0  0  0  0  0  0  0
  184.5580  160.7086  119.9501 C   0  0  0  0  0  0  0  0  0  0  0  0
  188.0221  160.0655  120.9685 C   0  0  0  0  0  0  0  0  0  0  0  0
  188.9810  160.6595  121.7376 C   0  0  0  0  0  0  0  0  0  0  0  0
  1  2  1  0
  2  3  1  0
  3  4  2  0
  4  5  1  0
  5  6  1  0
  6  7  1  0
  7  8  2  0
  8  9  1  0
  9 10  2  0
 10 11  1  0
 11 12  1  0
 12 13  1  6
 13 14  1  0
 13 15  1  0
 15 16  1  0
 16 17  1  0
 17 18  2  0
 18 19  1  0
 19 20  1  0
 20 21  1  0
 21 22  2  0
 22 23  1  0
 23 24  2  0
 24 25  1  0
 25 26  1  0
 26 27  1  0
 27 28  1  0
 24 29  1  0
 29 30  2  0
 30 31  1  0
 31 32  1  0
 19 33  2  0
 33 34  1  0
 34 35  1  0
 35 36  1  0
 36 37  1  0
 37 38  2  0
 10 39  1  0
 39 40  2  0
  5 41  2  0
 41 42  1  0
 42 43  1  0
 41 44  1  0
 44 45  2  0
 23  1  1  0
 37 33  1  0
  1 27  1  6
 45  3  1  0
 40  7  1  0
 18 12  1  0
 30 21  1  0
 38 17  1  0
M  END
$$$$
