
     RDKit          3D

 45 52  0  0  0  0  0  0  0  0999 V2000
  211.2648  171.6277  125.2218 C   0  0  2  0  0  0  0  0  0  0  0  0
  210.9479  173.0144  124.8703 C   0  0  0  0  0  0  0  0  0  0  0  0
  211.0811  174.1616  125.7879 C   0  0  0  0  0  0  0  0  0  0  0  0
  211.0867  174.2353  127.1666 C   0  0  0  0  0  0  0  0  0  0  0  0
  211.3166  175.4629  127.7227 C   0  0  0  0  0  0  0  0  0  0  0  0
  211.4097  175.7092  129.1702 O   0  0  0  0  0  0  0  0  0  0  0  0
  212.4136  174.7944  129.7983 C   0  0  0  0  0  0  0  0  0  0  0  0
  211.9828  173.5951  130.2617 C   0  0  0  0  0  0  0  0  0  0  0  0
  212.8445  172.6149  130.8199 C   0  0  0  0  0  0  0  0  0  0  0  0
  214.1974  172.8802  130.9078 C   0  0  0  0  0  0  0  0  0  0  0  0
  215.1979  171.7922  131.3120 C   0  0  0  0  0  0  0  0  0  0  0  0
  214.6232  170.7953  132.2096 C   0  0  2  0  0  0  0  0  0  0  0  0
  215.7194  170.4357  133.1212 N   0  0  0  0  0  0  0  0  0  0  0  0
  216.1154  171.5972  133.8969 C   0  0  0  0  0  0  0  0  0  0  0  0
  215.5345  169.2787  133.8968 C   0  0  0  0  0  0  0  0  0  0  0  0
  214.0431  169.1640  134.2045 C   0  0  0  0  0  0  0  0  0  0  0  0
  213.4761  168.8324  132.8367 C   0  0  0  0  0  0  0  0  0  0  0  0
  213.8591  169.6537  131.7642 C   0  0  0  0  0  0  0  0  0  0  0  0
  213.3679  169.2712  130.5029 C   0  0  0  0  0  0  0  0  0  0  0  0
  213.6724  169.9803  129.3787 O   0  0  0  0  0  0  0  0  0  0  0  0
  213.5307  170.4684  128.1216 C   0  0  0  0  0  0  0  0  0  0  0  0
  212.3566  170.8218  127.4422 C   0  0  0  0  0  0  0  0  0  0  0  0
  212.3743  171.2885  126.1538 C   0  0  0  0  0  0  0  0  0  0  0  0
  213.6033  171.4165  125.5012 C   0  0  0  0  0  0  0  0  0  0  0  0
  213.7505  171.8919  124.0927 C   0  0  0  0  0  0  0  0  0  0  0  0
  212.6286  171.3793  123.2439 C   0  0  0  0  0  0  0  0  0  0  0  0
  211.5354  170.8518  123.9467 N   0  0  0  0  0  0  0  0  0  0  0  0
  211.6948  169.4678  124.2538 C   0  0  0  0  0  0  0  0  0  0  0  0
  214.8178  171.0832  126.1271 C   0  0  0  0  0  0  0  0  0  0  0  0
  214.7179  170.6277  127.3998 C   0  0  0  0  0  0  0  0  0  0  0  0
  215.9776  170.3093  127.9698 O   0  0  0  0  0  0  0  0  0  0  0  0
  216.6114  171.1312  128.9064 C   0  0  0  0  0  0  0  0  0  0  0  0
  212.5500  168.1199  130.4408 C   0  0  0  0  0  0  0  0  0  0  0  0
  211.8869  167.4428  129.3869 O   0  0  0  0  0  0  0  0  0  0  0  0
  211.5912  166.1274  129.7626 C   0  0  0  0  0  0  0  0  0  0  0  0
  211.3808  166.2803  131.1638 O   0  0  0  0  0  0  0  0  0  0  0  0
  212.2075  167.3555  131.5293 C   0  0  0  0  0  0  0  0  0  0  0  0
  212.6915  167.7290  132.7606 C   0  0  0  0  0  0  0  0  0  0  0  0
  214.6305  174.1231  130.4449 C   0  0  0  0  0  0  0  0  0  0  0  0
  213.7274  175.0777  129.8911 C   0  0  0  0  0  0  0  0  0  0  0  0
  211.5176  176.6027  127.0047 C   0  0  0  0  0  0  0  0  0  0  0  0
  211.7424  177.8676  127.5905 O   0  0  0  0  0  0  0  0  0  0  0  0
  211.9225  178.0409  128.9704 C   0  0  0  0  0  0  0  0  0  0  0  0
  211.5179  176.5950  125.6152 C   0  0  0  0  0  0  0  0  0  0  0  0
  211.2999  175.3663  125.0616 C   0  0  0  0  0  0  0  0  0  0  0  0
  1  2  1  0
  2  3  1  0
  3  4  2  0
  4  5  1  0
  5  6  1  0
  6  7  1  0
  7  8  2  0
  8  9  1  0
  9 10  2  0
 10 11  1  0
 11 12  1  0
 12 13  1  6
 13 14  1  0
 13 15  1  0
 15 16  1  0
 16 17  1  0
 17 18  2  0
 18 19  1  0
 19 20  1  0
 20 21  1  0
 21 22  2  0
 22 23  1  0
 23 24  2  0
 24 25  1  0
 25 26  1  0
 26 27  1  0
 27 28  1  0
 24 29  1  0
 29 30  2  0
 30 31  1  0
 31 32  1  0
 19 33  2  0
 33 34  1  0
 34 35  1  0
 35 36  1  0
 36 37  1  0
 37 38  2  0
 10 39  1  0
 39 40  2  0
  5 41  2  0
 41 42  1  0
 42 43  1  0
 41 44  1  0
 44 45  2  0
 23  1  1  0
 37 33  1  0
  1 27  1  6
 45  3  1  0
 40  7  1  0
 18 12  1  0
 30 21  1  0
 38 17  1  0
M  END
$$$$
