
     RDKit          3D

 45 52  0  0  0  0  0  0  0  0999 V2000
  190.5852  161.2946  118.8041 C   0  0  2  0  0  0  0  0  0  0  0  0
  189.3754  160.6082  118.3438 C   0  0  0  0  0  0  0  0  0  0  0  0
  187.9993  161.0477  118.6423 C   0  0  0  0  0  0  0  0  0  0  0  0
  187.4875  161.8261  119.6612 C   0  0  0  0  0  0  0  0  0  0  0  0
  186.1542  162.1237  119.6067 C   0  0  0  0  0  0  0  0  0  0  0  0
  185.4597  162.9832  120.5782 O   0  0  0  0  0  0  0  0  0  0  0  0
  186.1558  164.3013  120.7098 C   0  0  0  0  0  0  0  0  0  0  0  0
  187.1290  164.4189  121.6465 C   0  0  0  0  0  0  0  0  0  0  0  0
  187.9049  165.5937  121.8278 C   0  0  0  0  0  0  0  0  0  0  0  0
  187.6680  166.6877  121.0183 C   0  0  0  0  0  0  0  0  0  0  0  0
  188.5996  167.9043  121.0303 C   0  0  0  0  0  0  0  0  0  0  0  0
  189.2375  168.1201  122.3251 C   0  0  2  0  0  0  0  0  0  0  0  0
  189.3199  169.5817  122.4632 N   0  0  0  0  0  0  0  0  0  0  0  0
  187.9840  170.1490  122.4945 C   0  0  0  0  0  0  0  0  0  0  0  0
  190.1607  170.0680  123.4785 C   0  0  0  0  0  0  0  0  0  0  0  0
  190.1238  169.0631  124.6278 C   0  0  0  0  0  0  0  0  0  0  0  0
  190.8587  167.8821  124.0214 C   0  0  0  0  0  0  0  0  0  0  0  0
  190.4371  167.4417  122.7566 C   0  0  0  0  0  0  0  0  0  0  0  0
  191.1883  166.3909  122.1997 C   0  0  0  0  0  0  0  0  0  0  0  0
  190.8872  165.8765  120.9734 O   0  0  0  0  0  0  0  0  0  0  0  0
  190.8238  164.9642  119.9722 C   0  0  0  0  0  0  0  0  0  0  0  0
  190.6703  163.5735  120.0576 C   0  0  0  0  0  0  0  0  0  0  0  0
  190.6423  162.7751  118.9441 C   0  0  0  0  0  0  0  0  0  0  0  0
  190.7689  163.3701  117.6860 C   0  0  0  0  0  0  0  0  0  0  0  0
  190.7751  162.6059  116.4024 C   0  0  0  0  0  0  0  0  0  0  0  0
  191.4975  161.3048  116.5676 C   0  0  0  0  0  0  0  0  0  0  0  0
  191.7372  160.9143  117.8932 N   0  0  0  0  0  0  0  0  0  0  0  0
  192.9539  161.4482  118.4127 C   0  0  0  0  0  0  0  0  0  0  0  0
  190.9217  164.7595  117.5307 C   0  0  0  0  0  0  0  0  0  0  0  0
  190.9416  165.4809  118.6779 C   0  0  0  0  0  0  0  0  0  0  0  0
  191.0997  166.8722  118.4494 O   0  0  0  0  0  0  0  0  0  0  0  0
  192.0794  167.6357  119.0912 C   0  0  0  0  0  0  0  0  0  0  0  0
  192.2725  165.8894  122.9556 C   0  0  0  0  0  0  0  0  0  0  0  0
  193.2307  164.8678  122.7389 O   0  0  0  0  0  0  0  0  0  0  0  0
  194.3462  165.0635  123.5613 C   0  0  0  0  0  0  0  0  0  0  0  0
  193.7455  165.6678  124.7035 O   0  0  0  0  0  0  0  0  0  0  0  0
  192.6363  166.3621  124.1928 C   0  0  0  0  0  0  0  0  0  0  0  0
  191.9030  167.3915  124.7337 C   0  0  0  0  0  0  0  0  0  0  0  0
  186.6534  166.5650  120.0685 C   0  0  0  0  0  0  0  0  0  0  0  0
  185.8989  165.3638  119.9222 C   0  0  0  0  0  0  0  0  0  0  0  0
  185.3118  161.6860  118.6301 C   0  0  0  0  0  0  0  0  0  0  0  0
  183.9335  161.9901  118.5908 O   0  0  0  0  0  0  0  0  0  0  0  0
  183.1052  161.8940  119.7184 C   0  0  0  0  0  0  0  0  0  0  0  0
  185.7647  160.8951  117.5813 C   0  0  0  0  0  0  0  0  0  0  0  0
  187.0986  160.6086  117.6310 C   0  0  0  0  0  0  0  0  0  0  0  0
  1  2  1  0
  2  3  1  0
  3  4  2  0
  4  5  1  0
  5  6  1  0
  6  7  1  0
  7  8  2  0
  8  9  1  0
  9 10  2  0
 10 11  1  0
 11 12  1  0
 12 13  1  6
 13 14  1  0
 13 15  1  0
 15 16  1  0
 16 17  1  0
 17 18  2  0
 18 19  1  0
 19 20  1  0
 20 21  1  0
 21 22  2  0
 22 23  1  0
 23 24  2  0
 24 25  1  0
 25 26  1  0
 26 27  1  0
 27 28  1  0
 24 29  1  0
 29 30  2  0
 30 31  1  0
 31 32  1  0
 19 33  2  0
 33 34  1  0
 34 35  1  0
 35 36  1  0
 36 37  1  0
 37 38  2  0
 10 39  1  0
 39 40  2  0
  5 41  2  0
 41 42  1  0
 42 43  1  0
 41 44  1  0
 44 45  2  0
 23  1  1  0
 37 33  1  0
  1 27  1  6
 45  3  1  0
 40  7  1  0
 18 12  1  0
 30 21  1  0
 38 17  1  0
M  END
$$$$
