
     RDKit          3D

 45 52  0  0  0  0  0  0  0  0999 V2000
  203.9710  131.1781  131.4365 C   0  0  2  0  0  0  0  0  0  0  0  0
  205.3506  131.2373  130.9467 C   0  0  0  0  0  0  0  0  0  0  0  0
  206.4858  131.7914  131.7083 C   0  0  0  0  0  0  0  0  0  0  0  0
  206.5356  132.7039  132.7432 C   0  0  0  0  0  0  0  0  0  0  0  0
  207.7611  132.9494  133.2973 C   0  0  0  0  0  0  0  0  0  0  0  0
  207.9855  133.8489  134.4397 O   0  0  0  0  0  0  0  0  0  0  0  0
  207.0984  133.4780  135.5864 C   0  0  0  0  0  0  0  0  0  0  0  0
  205.8758  134.0594  135.6621 C   0  0  0  0  0  0  0  0  0  0  0  0
  204.9193  133.7460  136.6629 C   0  0  0  0  0  0  0  0  0  0  0  0
  205.2339  132.8031  137.6223 C   0  0  0  0  0  0  0  0  0  0  0  0
  204.1776  132.2794  138.6011 C   0  0  0  0  0  0  0  0  0  0  0  0
  203.1441  133.2643  138.9041 C   0  0  2  0  0  0  0  0  0  0  0  0
  202.8104  133.0344  140.3176 N   0  0  0  0  0  0  0  0  0  0  0  0
  203.9722  133.2986  141.1468 C   0  0  0  0  0  0  0  0  0  0  0  0
  201.6338  133.6406  140.7894 C   0  0  0  0  0  0  0  0  0  0  0  0
  201.4576  134.9552  140.0327 C   0  0  0  0  0  0  0  0  0  0  0  0
  201.1286  134.4595  138.6367 C   0  0  0  0  0  0  0  0  0  0  0  0
  201.9825  133.4951  138.0779 C   0  0  0  0  0  0  0  0  0  0  0  0
  201.6038  133.0113  136.8125 C   0  0  0  0  0  0  0  0  0  0  0  0
  202.3433  132.0668  136.1642 O   0  0  0  0  0  0  0  0  0  0  0  0
  202.8476  131.3591  135.1233 C   0  0  0  0  0  0  0  0  0  0  0  0
  203.1682  131.8009  133.8322 C   0  0  0  0  0  0  0  0  0  0  0  0
  203.6577  130.9524  132.8738 C   0  0  0  0  0  0  0  0  0  0  0  0
  203.8433  129.6060  133.1983 C   0  0  0  0  0  0  0  0  0  0  0  0
  204.3485  128.5814  132.2356 C   0  0  0  0  0  0  0  0  0  0  0  0
  203.8088  128.8374  130.8627 C   0  0  0  0  0  0  0  0  0  0  0  0
  203.2282  130.0997  130.6706 N   0  0  0  0  0  0  0  0  0  0  0  0
  201.8460  130.1289  131.0227 C   0  0  0  0  0  0  0  0  0  0  0  0
  203.5452  129.0993  134.4759 C   0  0  0  0  0  0  0  0  0  0  0  0
  203.0643  129.9993  135.3680 C   0  0  0  0  0  0  0  0  0  0  0  0
  202.7837  129.4224  136.6335 O   0  0  0  0  0  0  0  0  0  0  0  0
  202.0579  130.0915  137.6234 C   0  0  0  0  0  0  0  0  0  0  0  0
  200.4237  133.5359  136.2377 C   0  0  0  0  0  0  0  0  0  0  0  0
  199.7405  133.3064  135.0172 O   0  0  0  0  0  0  0  0  0  0  0  0
  198.4085  133.7241  135.1183 C   0  0  0  0  0  0  0  0  0  0  0  0
  198.5289  134.8161  136.0260 O   0  0  0  0  0  0  0  0  0  0  0  0
  199.6280  134.4830  136.8347 C   0  0  0  0  0  0  0  0  0  0  0  0
  199.9980  134.9520  138.0730 C   0  0  0  0  0  0  0  0  0  0  0  0
  206.5001  132.2220  137.5479 C   0  0  0  0  0  0  0  0  0  0  0  0
  207.4295  132.5683  136.5233 C   0  0  0  0  0  0  0  0  0  0  0  0
  208.9201  132.3687  132.8793 C   0  0  0  0  0  0  0  0  0  0  0  0
  210.1822  132.6392  133.4517 O   0  0  0  0  0  0  0  0  0  0  0  0
  210.4212  132.5539  134.8309 C   0  0  0  0  0  0  0  0  0  0  0  0
  208.9366  131.4473  131.8394 C   0  0  0  0  0  0  0  0  0  0  0  0
  207.7104  131.1945  131.2951 C   0  0  0  0  0  0  0  0  0  0  0  0
  1  2  1  0
  2  3  1  0
  3  4  2  0
  4  5  1  0
  5  6  1  0
  6  7  1  0
  7  8  2  0
  8  9  1  0
  9 10  2  0
 10 11  1  0
 11 12  1  0
 12 13  1  1
 13 14  1  0
 13 15  1  0
 15 16  1  0
 16 17  1  0
 17 18  2  0
 18 19  1  0
 19 20  1  0
 20 21  1  0
 21 22  2  0
 22 23  1  0
 23 24  2  0
 24 25  1  0
 25 26  1  0
 26 27  1  0
 27 28  1  0
 24 29  1  0
 29 30  2  0
 30 31  1  0
 31 32  1  0
 19 33  2  0
 33 34  1  0
 34 35  1  0
 35 36  1  0
 36 37  1  0
 37 38  2  0
 10 39  1  0
 39 40  2  0
  5 41  2  0
 41 42  1  0
 42 43  1  0
 41 44  1  0
 44 45  2  0
 23  1  1  0
 37 33  1  0
  1 27  1  6
 45  3  1  0
 40  7  1  0
 18 12  1  0
 30 21  1  0
 38 17  1  0
M  END
$$$$
