
     RDKit          3D

 35 39  0  0  0  0  0  0  0  0999 V2000
  167.1002  150.2268  132.6771 C   0  0  2  0  0  0  0  0  0  0  0  0
  165.7714  150.8243  132.3885 C   0  0  0  0  0  0  0  0  0  0  0  0
  165.7849  151.5091  131.0557 C   0  0  0  0  0  0  0  0  0  0  0  0
  166.2076  150.5352  129.9741 C   0  0  2  0  0  0  0  0  0  0  0  0
  165.0571  149.5646  129.8494 C   0  0  0  0  0  0  0  0  0  0  0  0
  167.5160  149.9100  130.2512 C   0  0  2  0  0  0  0  0  0  0  0  0
  167.9607  149.0042  129.1527 C   0  0  0  0  0  0  0  0  0  0  0  0
  167.1965  149.1703  127.9011 C   0  0  0  0  0  0  0  0  0  0  0  0
  166.4240  150.2303  127.6127 C   0  0  0  0  0  0  0  0  0  0  0  0
  165.6622  150.3628  126.3354 C   0  0  2  0  0  0  0  0  0  0  0  0
  166.2390  149.4665  125.2827 C   0  0  1  0  0  0  0  0  0  0  0  0
  165.5831  148.0900  125.4540 C   0  0  0  0  0  0  0  0  0  0  0  0
  166.0288  149.8555  123.8663 C   0  0  2  0  0  0  0  0  0  0  0  0
  167.0520  149.0143  123.0545 C   0  0  0  0  0  0  0  0  0  0  0  0
  166.3344  151.2832  123.6147 C   0  0  0  0  0  0  0  0  0  0  0  0
  166.6074  152.0669  124.8786 C   0  0  0  0  0  0  0  0  0  0  0  0
  165.4786  151.7444  125.8380 C   0  0  2  0  0  0  0  0  0  0  0  0
  165.3744  152.7428  126.9441 C   0  0  0  0  0  0  0  0  0  0  0  0
  165.2598  152.1988  128.3250 C   0  0  0  0  0  0  0  0  0  0  0  0
  166.3600  151.2887  128.6437 C   0  0  1  0  0  0  0  0  0  0  0  0
  167.6518  152.1057  128.6970 C   0  0  0  0  0  0  0  0  0  0  0  0
  164.1964  151.8823  125.0576 C   0  0  0  0  0  0  0  0  0  0  0  0
  163.9037  153.0709  124.4450 O   0  0  0  0  0  0  0  0  0  0  0  0
  163.4388  150.9098  124.9921 O   0  0  0  0  0  0  0  0  0  0  0  0
  167.6967  149.3393  131.6397 C   0  0  2  0  0  0  0  0  0  0  0  0
  167.3209  147.9178  131.6068 C   0  0  0  0  0  0  0  0  0  0  0  0
  169.2125  149.3618  131.9170 C   0  0  0  0  0  0  0  0  0  0  0  0
  169.5926  149.4789  133.3210 C   0  0  1  0  0  0  0  0  0  0  0  0
  170.1561  150.7545  133.5755 O   0  0  0  0  0  0  0  0  0  0  0  0
  168.5701  149.1775  134.3499 C   0  0  2  0  0  0  0  0  0  0  0  0
  168.5566  147.8205  134.7568 O   0  0  0  0  0  0  0  0  0  0  0  0
  167.1939  149.7180  134.0814 C   0  0  2  0  0  0  0  0  0  0  0  0
  166.1033  148.7456  134.4709 C   0  0  0  0  0  0  0  0  0  0  0  0
  166.9776  150.9272  134.9921 C   0  0  0  0  0  0  0  0  0  0  0  0
  166.7965  152.0345  134.1227 O   0  0  0  0  0  0  0  0  0  0  0  0
  1  2  1  6
  2  3  1  0
  3  4  1  0
  4  5  1  6
  4  6  1  0
  6  7  1  6
  7  8  1  0
  8  9  2  0
 10  9  1  1
 10 11  1  0
 11 12  1  6
 11 13  1  0
 13 14  1  6
 13 15  1  0
 15 16  1  0
 16 17  1  0
 17 18  1  0
 18 19  1  0
 19 20  1  0
 20 21  1  1
 17 22  1  6
 22 23  1  0
 22 24  2  0
  6 25  1  0
 25 26  1  6
 25 27  1  0
 27 28  1  0
 28 29  1  6
 28 30  1  0
 30 31  1  6
 30 32  1  0
 32 33  1  1
 32 34  1  0
 34 35  1  0
 25  1  1  0
 32  1  1  0
 20  4  1  0
 20  9  1  0
 17 10  1  0
M  END
$$$$
