
     RDKit          3D

 35 39  0  0  0  0  0  0  0  0999 V2000
  108.3477  148.5284  158.5772 C   0  0  2  0  0  0  0  0  0  0  0  0
  109.5059  149.3485  159.0156 C   0  0  0  0  0  0  0  0  0  0  0  0
  110.7461  148.5099  159.0777 C   0  0  0  0  0  0  0  0  0  0  0  0
  111.0001  147.8555  157.7345 C   0  0  2  0  0  0  0  0  0  0  0  0
  111.3968  148.9870  156.8161 C   0  0  0  0  0  0  0  0  0  0  0  0
  109.8525  147.0533  157.2664 C   0  0  2  0  0  0  0  0  0  0  0  0
  110.1305  146.3557  155.9776 C   0  0  0  0  0  0  0  0  0  0  0  0
  111.5603  146.3311  155.6131 C   0  0  0  0  0  0  0  0  0  0  0  0
  112.5700  146.5757  156.4641 C   0  0  0  0  0  0  0  0  0  0  0  0
  114.0066  146.5444  156.0584 C   0  0  2  0  0  0  0  0  0  0  0  0
  114.1802  145.7572  154.7957 C   0  0  1  0  0  0  0  0  0  0  0  0
  113.9395  146.7214  153.6267 C   0  0  0  0  0  0  0  0  0  0  0  0
  115.5059  145.1349  154.5572 C   0  0  2  0  0  0  0  0  0  0  0  0
  115.2689  144.0818  153.4399 C   0  0  0  0  0  0  0  0  0  0  0  0
  116.0185  144.4104  155.7435 C   0  0  0  0  0  0  0  0  0  0  0  0
  115.1766  144.6213  156.9816 C   0  0  0  0  0  0  0  0  0  0  0  0
  114.9602  146.1168  157.1060 C   0  0  2  0  0  0  0  0  0  0  0  0
  114.5202  146.5119  158.4776 C   0  0  0  0  0  0  0  0  0  0  0  0
  113.3475  147.4247  158.5648 C   0  0  0  0  0  0  0  0  0  0  0  0
  112.1854  146.8856  157.8582 C   0  0  1  0  0  0  0  0  0  0  0  0
  111.7121  145.6379  158.6055 C   0  0  0  0  0  0  0  0  0  0  0  0
  116.3085  146.7647  156.9203 C   0  0  0  0  0  0  0  0  0  0  0  0
  116.4379  147.8178  156.0555 O   0  0  0  0  0  0  0  0  0  0  0  0
  117.2677  146.3231  157.5598 O   0  0  0  0  0  0  0  0  0  0  0  0
  108.5017  147.7302  157.3286 C   0  0  2  0  0  0  0  0  0  0  0  0
  108.2462  148.3704  156.0296 C   0  0  0  0  0  0  0  0  0  0  0  0
  107.4618  146.5989  157.4458 C   0  0  0  0  0  0  0  0  0  0  0  0
  106.2255  146.9511  158.1362 C   0  0  1  0  0  0  0  0  0  0  0  0
  106.1590  146.2997  159.3935 O   0  0  0  0  0  0  0  0  0  0  0  0
  105.9049  148.3873  158.3076 C   0  0  2  0  0  0  0  0  0  0  0  0
  105.1372  148.9284  157.2469 O   0  0  0  0  0  0  0  0  0  0  0  0
  107.0543  149.2707  158.7034 C   0  0  2  0  0  0  0  0  0  0  0  0
  107.0267  150.6082  157.9983 C   0  0  0  0  0  0  0  0  0  0  0  0
  106.8970  149.6114  160.1858 C   0  0  0  0  0  0  0  0  0  0  0  0
  108.1782  149.4114  160.7632 O   0  0  0  0  0  0  0  0  0  0  0  0
  1  2  1  6
  2  3  1  0
  3  4  1  0
  4  5  1  6
  4  6  1  0
  6  7  1  6
  7  8  1  0
  8  9  2  0
 10  9  1  1
 10 11  1  0
 11 12  1  6
 11 13  1  0
 13 14  1  6
 13 15  1  0
 15 16  1  0
 16 17  1  0
 17 18  1  0
 18 19  1  0
 19 20  1  0
 20 21  1  1
 17 22  1  6
 22 23  1  0
 22 24  2  0
  6 25  1  0
 25 26  1  6
 25 27  1  0
 27 28  1  0
 28 29  1  1
 28 30  1  0
 30 31  1  6
 30 32  1  0
 32 33  1  6
 32 34  1  0
 34 35  1  0
 25  1  1  0
 32  1  1  0
 20  4  1  0
 20  9  1  0
 17 10  1  0
M  END
$$$$
