
     RDKit          3D

 35 39  0  0  0  0  0  0  0  0999 V2000
  148.4064  169.3331  129.5202 C   0  0  2  0  0  0  0  0  0  0  0  0
  149.0545  168.7685  128.3089 C   0  0  0  0  0  0  0  0  0  0  0  0
  149.5029  167.3616  128.5640 C   0  0  0  0  0  0  0  0  0  0  0  0
  148.3302  166.5154  129.0174 C   0  0  2  0  0  0  0  0  0  0  0  0
  147.4504  166.3791  127.7973 C   0  0  0  0  0  0  0  0  0  0  0  0
  147.6548  167.0701  130.2072 C   0  0  2  0  0  0  0  0  0  0  0  0
  146.5443  166.1999  130.6917 C   0  0  0  0  0  0  0  0  0  0  0  0
  146.5607  164.8415  130.1151 C   0  0  0  0  0  0  0  0  0  0  0  0
  147.6173  164.2850  129.5008 C   0  0  0  0  0  0  0  0  0  0  0  0
  147.5963  162.9070  128.9265 C   0  0  2  0  0  0  0  0  0  0  0  0
  146.4920  162.0990  129.5363 C   0  0  1  0  0  0  0  0  0  0  0  0
  145.2223  162.3856  128.7239 C   0  0  0  0  0  0  0  0  0  0  0  0
  146.6543  160.6242  129.5506 C   0  0  2  0  0  0  0  0  0  0  0  0
  145.6077  160.1070  130.5757 C   0  0  0  0  0  0  0  0  0  0  0  0
  147.9896  160.2012  130.0332 C   0  0  0  0  0  0  0  0  0  0  0  0
  148.9488  161.3545  130.2228 C   0  0  0  0  0  0  0  0  0  0  0  0
  148.8855  162.1809  128.9532 C   0  0  2  0  0  0  0  0  0  0  0  0
  150.0601  163.0928  128.8133 C   0  0  0  0  0  0  0  0  0  0  0  0
  149.7664  164.5105  128.4671 C   0  0  0  0  0  0  0  0  0  0  0  0
  148.8351  165.1201  129.4165 C   0  0  1  0  0  0  0  0  0  0  0  0
  149.5404  165.2307  130.7690 C   0  0  0  0  0  0  0  0  0  0  0  0
  148.9958  161.2132  127.8027 C   0  0  0  0  0  0  0  0  0  0  0  0
  148.2529  161.4214  126.6720 O   0  0  0  0  0  0  0  0  0  0  0  0
  149.7606  160.2505  127.9136 O   0  0  0  0  0  0  0  0  0  0  0  0
  147.3117  168.5415  130.1485 C   0  0  2  0  0  0  0  0  0  0  0  0
  145.9406  168.6755  129.6336 C   0  0  0  0  0  0  0  0  0  0  0  0
  147.2555  169.0260  131.6104 C   0  0  0  0  0  0  0  0  0  0  0  0
  147.5743  170.4347  131.8181 C   0  0  1  0  0  0  0  0  0  0  0  0
  148.8238  170.5668  132.4745 O   0  0  0  0  0  0  0  0  0  0  0  0
  147.5347  171.3409  130.6467 C   0  0  2  0  0  0  0  0  0  0  0  0
  146.2708  171.9466  130.4397 O   0  0  0  0  0  0  0  0  0  0  0  0
  148.1340  170.7980  129.3801 C   0  0  2  0  0  0  0  0  0  0  0  0
  147.3336  171.1731  128.1531 C   0  0  0  0  0  0  0  0  0  0  0  0
  149.4923  171.4703  129.1766 C   0  0  0  0  0  0  0  0  0  0  0  0
  150.0416  170.8791  128.0088 O   0  0  0  0  0  0  0  0  0  0  0  0
  1  2  1  6
  2  3  1  0
  3  4  1  0
  4  5  1  6
  4  6  1  0
  6  7  1  6
  7  8  1  0
  8  9  2  0
 10  9  1  1
 10 11  1  0
 11 12  1  6
 11 13  1  0
 13 14  1  1
 13 15  1  0
 15 16  1  0
 16 17  1  0
 17 18  1  0
 18 19  1  0
 19 20  1  0
 20 21  1  1
 17 22  1  6
 22 23  1  0
 22 24  2  0
  6 25  1  0
 25 26  1  6
 25 27  1  0
 27 28  1  0
 28 29  1  6
 28 30  1  0
 30 31  1  6
 30 32  1  0
 32 33  1  6
 32 34  1  0
 34 35  1  0
 25  1  1  0
 32  1  1  0
 20  4  1  0
 20  9  1  0
 17 10  1  0
M  END
$$$$
