
     RDKit          3D

 35 39  0  0  0  0  0  0  0  0999 V2000
  185.1734  133.8525  127.4057 C   0  0  2  0  0  0  0  0  0  0  0  0
  184.8843  134.4035  128.7544 C   0  0  0  0  0  0  0  0  0  0  0  0
  184.8483  135.9008  128.7103 C   0  0  0  0  0  0  0  0  0  0  0  0
  183.8336  136.3673  127.6857 C   0  0  2  0  0  0  0  0  0  0  0  0
  182.4895  136.0091  128.2742 C   0  0  0  0  0  0  0  0  0  0  0  0
  184.0868  135.8130  126.3410 C   0  0  2  0  0  0  0  0  0  0  0  0
  183.1277  136.3274  125.3209 C   0  0  0  0  0  0  0  0  0  0  0  0
  182.3598  137.5051  125.7696 C   0  0  0  0  0  0  0  0  0  0  0  0
  182.6897  138.2785  126.8167 C   0  0  0  0  0  0  0  0  0  0  0  0
  181.8862  139.4624  127.2435 C   0  0  2  0  0  0  0  0  0  0  0  0
  181.0162  139.9407  126.1216 C   0  0  1  0  0  0  0  0  0  0  0  0
  179.7190  139.1232  126.1772 C   0  0  0  0  0  0  0  0  0  0  0  0
  180.6110  141.3680  126.1342 C   0  0  2  0  0  0  0  0  0  0  0  0
  180.0970  141.6604  124.6975 C   0  0  0  0  0  0  0  0  0  0  0  0
  181.7483  142.2824  126.3896 C   0  0  0  0  0  0  0  0  0  0  0  0
  183.0223  141.5601  126.7655 C   0  0  0  0  0  0  0  0  0  0  0  0
  182.6522  140.5717  127.8539 C   0  0  2  0  0  0  0  0  0  0  0  0
  183.8463  140.0940  128.6134 C   0  0  0  0  0  0  0  0  0  0  0  0
  183.9640  138.6238  128.8155 C   0  0  0  0  0  0  0  0  0  0  0  0
  183.9171  137.8954  127.5477 C   0  0  1  0  0  0  0  0  0  0  0  0
  185.1788  138.2402  126.7550 C   0  0  0  0  0  0  0  0  0  0  0  0
  181.8201  141.3274  128.8583 C   0  0  0  0  0  0  0  0  0  0  0  0
  180.5000  141.5731  128.5928 O   0  0  0  0  0  0  0  0  0  0  0  0
  182.3580  141.7074  129.9025 O   0  0  0  0  0  0  0  0  0  0  0  0
  184.3262  134.3215  126.2736 C   0  0  2  0  0  0  0  0  0  0  0  0
  183.0388  133.6588  126.0160 C   0  0  0  0  0  0  0  0  0  0  0  0
  185.1766  134.0819  125.0109 C   0  0  0  0  0  0  0  0  0  0  0  0
  186.0470  132.9114  125.0526 C   0  0  1  0  0  0  0  0  0  0  0  0
  187.4052  133.3085  125.1369 O   0  0  0  0  0  0  0  0  0  0  0  0
  185.7730  131.8720  126.0722 C   0  0  2  0  0  0  0  0  0  0  0  0
  184.8944  130.8548  125.6245 O   0  0  0  0  0  0  0  0  0  0  0  0
  185.4263  132.3779  127.4441 C   0  0  2  0  0  0  0  0  0  0  0  0
  184.3291  131.5697  128.0995 C   0  0  0  0  0  0  0  0  0  0  0  0
  186.6466  132.1742  128.3428 C   0  0  0  0  0  0  0  0  0  0  0  0
  186.6952  133.3139  129.1875 O   0  0  0  0  0  0  0  0  0  0  0  0
  1  2  1  1
  2  3  1  0
  3  4  1  0
  4  5  1  1
  4  6  1  0
  6  7  1  6
  7  8  1  0
  8  9  2  0
 10  9  1  6
 10 11  1  0
 11 12  1  1
 11 13  1  0
 13 14  1  6
 13 15  1  0
 15 16  1  0
 16 17  1  0
 17 18  1  0
 18 19  1  0
 19 20  1  0
 20 21  1  6
 17 22  1  1
 22 23  1  0
 22 24  2  0
  6 25  1  0
 25 26  1  6
 25 27  1  0
 27 28  1  0
 28 29  1  1
 28 30  1  0
 30 31  1  6
 30 32  1  0
 32 33  1  1
 32 34  1  0
 34 35  1  0
 25  1  1  0
 32  1  1  0
 20  4  1  0
 20  9  1  0
 17 10  1  0
M  END
$$$$
