
     RDKit          3D

 35 39  0  0  0  0  0  0  0  0999 V2000
  163.7154  149.9129  126.4240 C   0  0  2  0  0  0  0  0  0  0  0  0
  164.3919  151.2001  126.7264 C   0  0  0  0  0  0  0  0  0  0  0  0
  165.4384  151.0051  127.7810 C   0  0  0  0  0  0  0  0  0  0  0  0
  166.4267  149.9426  127.3438 C   0  0  2  0  0  0  0  0  0  0  0  0
  167.1983  150.5692  126.2066 C   0  0  0  0  0  0  0  0  0  0  0  0
  165.7743  148.6598  127.0147 C   0  0  2  0  0  0  0  0  0  0  0  0
  166.7551  147.5965  126.6506 C   0  0  0  0  0  0  0  0  0  0  0  0
  168.1481  147.9269  127.0091 C   0  0  0  0  0  0  0  0  0  0  0  0
  168.5065  148.8894  127.8744 C   0  0  0  0  0  0  0  0  0  0  0  0
  169.9281  149.1975  128.2111 C   0  0  2  0  0  0  0  0  0  0  0  0
  170.8127  148.0363  127.8744 C   0  0  1  0  0  0  0  0  0  0  0  0
  171.2009  148.1790  126.3968 C   0  0  0  0  0  0  0  0  0  0  0  0
  172.0836  147.9062  128.6291 C   0  0  2  0  0  0  0  0  0  0  0  0
  172.5614  146.4493  128.3785 C   0  0  0  0  0  0  0  0  0  0  0  0
  171.8987  148.0637  130.0906 C   0  0  0  0  0  0  0  0  0  0  0  0
  170.5038  148.5058  130.4716 C   0  0  0  0  0  0  0  0  0  0  0  0
  170.1699  149.6898  129.5854 C   0  0  2  0  0  0  0  0  0  0  0  0
  169.0259  150.4892  130.1176 C   0  0  0  0  0  0  0  0  0  0  0  0
  167.9492  150.8382  129.1508 C   0  0  0  0  0  0  0  0  0  0  0  0
  167.4010  149.6506  128.4955 C   0  0  1  0  0  0  0  0  0  0  0  0
  166.6665  148.8224  129.5509 C   0  0  0  0  0  0  0  0  0  0  0  0
  171.3582  150.6159  129.6370 C   0  0  0  0  0  0  0  0  0  0  0  0
  172.0585  150.8797  128.4909 O   0  0  0  0  0  0  0  0  0  0  0  0
  171.6694  151.1154  130.7222 O   0  0  0  0  0  0  0  0  0  0  0  0
  164.5766  148.7423  126.0955 C   0  0  2  0  0  0  0  0  0  0  0  0
  165.0425  148.5578  124.7128 C   0  0  0  0  0  0  0  0  0  0  0  0
  163.7103  147.5071  126.4101 C   0  0  0  0  0  0  0  0  0  0  0  0
  162.2805  147.6635  126.1645 C   0  0  1  0  0  0  0  0  0  0  0  0
  161.5700  147.7022  127.3906 O   0  0  0  0  0  0  0  0  0  0  0  0
  161.8373  148.7838  125.3024 C   0  0  2  0  0  0  0  0  0  0  0  0
  161.7511  148.4444  123.9296 O   0  0  0  0  0  0  0  0  0  0  0  0
  162.5264  150.0989  125.5343 C   0  0  2  0  0  0  0  0  0  0  0  0
  162.8155  150.8367  124.2464 C   0  0  0  0  0  0  0  0  0  0  0  0
  161.5599  151.0090  126.2932 C   0  0  0  0  0  0  0  0  0  0  0  0
  161.7646  150.7238  127.6686 O   0  0  0  0  0  0  0  0  0  0  0  0
  1  2  1  6
  2  3  1  0
  3  4  1  0
  4  5  1  6
  4  6  1  0
  6  7  1  6
  7  8  1  0
  8  9  2  0
 10  9  1  1
 10 11  1  0
 11 12  1  6
 11 13  1  0
 13 14  1  1
 13 15  1  0
 15 16  1  0
 16 17  1  0
 17 18  1  0
 18 19  1  0
 19 20  1  0
 20 21  1  1
 17 22  1  6
 22 23  1  0
 22 24  2  0
  6 25  1  0
 25 26  1  6
 25 27  1  0
 27 28  1  0
 28 29  1  1
 28 30  1  0
 30 31  1  6
 30 32  1  0
 32 33  1  6
 32 34  1  0
 34 35  1  0
 25  1  1  0
 32  1  1  0
 20  4  1  0
 20  9  1  0
 17 10  1  0
M  END
$$$$
