
     RDKit          3D

 35 39  0  0  0  0  0  0  0  0999 V2000
  106.3098  166.8553  157.7315 C   0  0  2  0  0  0  0  0  0  0  0  0
  107.0818  166.7694  156.4655 C   0  0  0  0  0  0  0  0  0  0  0  0
  107.0052  165.3839  155.8999 C   0  0  0  0  0  0  0  0  0  0  0  0
  105.5575  164.9818  155.7010 C   0  0  2  0  0  0  0  0  0  0  0  0
  105.0640  165.8444  154.5637 C   0  0  0  0  0  0  0  0  0  0  0  0
  104.7637  165.0820  156.9418 C   0  0  2  0  0  0  0  0  0  0  0  0
  103.3569  164.6210  156.7591 C   0  0  0  0  0  0  0  0  0  0  0  0
  103.1384  163.8640  155.5112 C   0  0  0  0  0  0  0  0  0  0  0  0
  104.1147  163.3200  154.7667 C   0  0  0  0  0  0  0  0  0  0  0  0
  103.8557  162.5619  153.5067 C   0  0  2  0  0  0  0  0  0  0  0  0
  102.4368  162.0832  153.4624 C   0  0  1  0  0  0  0  0  0  0  0  0
  101.5951  163.2222  152.8722 C   0  0  0  0  0  0  0  0  0  0  0  0
  102.1482  160.8819  152.6408 C   0  0  2  0  0  0  0  0  0  0  0  0
  100.7486  160.3941  153.1062 C   0  0  0  0  0  0  0  0  0  0  0  0
  103.1041  159.7774  152.8882 C   0  0  0  0  0  0  0  0  0  0  0  0
  104.2632  160.1781  153.7727 C   0  0  0  0  0  0  0  0  0  0  0  0
  104.8110  161.4728  153.2051 C   0  0  2  0  0  0  0  0  0  0  0  0
  106.1900  161.7671  153.6976 C   0  0  0  0  0  0  0  0  0  0  0  0
  106.4370  163.1442  154.2061 C   0  0  0  0  0  0  0  0  0  0  0  0
  105.4947  163.5102  155.2637 C   0  0  1  0  0  0  0  0  0  0  0  0
  105.7836  162.6319  156.4820 C   0  0  0  0  0  0  0  0  0  0  0  0
  104.9568  161.2649  151.7192 C   0  0  0  0  0  0  0  0  0  0  0  0
  106.2046  161.2699  151.1563 O   0  0  0  0  0  0  0  0  0  0  0  0
  103.9369  161.0941  151.0451 O   0  0  0  0  0  0  0  0  0  0  0  0
  104.8992  166.3760  157.7123 C   0  0  2  0  0  0  0  0  0  0  0  0
  103.8351  167.2898  157.2702 C   0  0  0  0  0  0  0  0  0  0  0  0
  104.5719  166.0361  159.1794 C   0  0  0  0  0  0  0  0  0  0  0  0
  105.2166  166.8814  160.1790 C   0  0  1  0  0  0  0  0  0  0  0  0
  106.2073  166.1492  160.8803 O   0  0  0  0  0  0  0  0  0  0  0  0
  105.7813  168.1785  159.7389 C   0  0  2  0  0  0  0  0  0  0  0  0
  104.8652  169.2557  159.8263 O   0  0  0  0  0  0  0  0  0  0  0  0
  106.5310  168.1566  158.4368 C   0  0  2  0  0  0  0  0  0  0  0  0
  106.2619  169.3819  157.5925 C   0  0  0  0  0  0  0  0  0  0  0  0
  108.0255  168.2253  158.7534 C   0  0  0  0  0  0  0  0  0  0  0  0
  108.5994  167.0784  158.1449 O   0  0  0  0  0  0  0  0  0  0  0  0
  1  2  1  6
  2  3  1  0
  3  4  1  0
  4  5  1  6
  4  6  1  0
  6  7  1  6
  7  8  1  0
  8  9  2  0
 10  9  1  1
 10 11  1  0
 11 12  1  6
 11 13  1  0
 13 14  1  1
 13 15  1  0
 15 16  1  0
 16 17  1  0
 17 18  1  0
 18 19  1  0
 19 20  1  0
 20 21  1  1
 17 22  1  6
 22 23  1  0
 22 24  2  0
  6 25  1  0
 25 26  1  6
 25 27  1  0
 27 28  1  0
 28 29  1  6
 28 30  1  0
 30 31  1  6
 30 32  1  0
 32 33  1  6
 32 34  1  0
 34 35  1  0
 25  1  1  0
 32  1  1  0
 20  4  1  0
 20  9  1  0
 17 10  1  0
M  END
$$$$
