
     RDKit          3D

 35 39  0  0  0  0  0  0  0  0999 V2000
  166.4302  150.3497  126.4052 C   0  0  2  0  0  0  0  0  0  0  0  0
  166.5549  149.3216  125.3405 C   0  0  0  0  0  0  0  0  0  0  0  0
  165.6872  148.1401  125.6511 C   0  0  0  0  0  0  0  0  0  0  0  0
  164.2497  148.5836  125.8351 C   0  0  2  0  0  0  0  0  0  0  0  0
  163.7875  148.9961  124.4577 C   0  0  0  0  0  0  0  0  0  0  0  0
  164.1038  149.6235  126.8728 C   0  0  2  0  0  0  0  0  0  0  0  0
  162.6807  150.0090  127.0995 C   0  0  0  0  0  0  0  0  0  0  0  0
  161.7100  149.0673  126.5087 C   0  0  0  0  0  0  0  0  0  0  0  0
  162.0019  147.8178  126.1124 C   0  0  0  0  0  0  0  0  0  0  0  0
  160.9929  146.8931  125.5156 C   0  0  2  0  0  0  0  0  0  0  0  0
  159.6041  147.3309  125.8675 C   0  0  1  0  0  0  0  0  0  0  0  0
  159.1784  148.3663  124.8182 C   0  0  0  0  0  0  0  0  0  0  0  0
  158.5450  146.2919  125.8822 C   0  0  2  0  0  0  0  0  0  0  0  0
  157.3588  146.9271  126.6588 C   0  0  0  0  0  0  0  0  0  0  0  0
  158.9512  145.0726  126.6192 C   0  0  0  0  0  0  0  0  0  0  0  0
  160.4071  145.0789  127.0273 C   0  0  0  0  0  0  0  0  0  0  0  0
  161.1997  145.4539  125.7904 C   0  0  2  0  0  0  0  0  0  0  0  0
  162.6444  145.0958  125.9149 C   0  0  0  0  0  0  0  0  0  0  0  0
  163.6273  146.1516  125.5472 C   0  0  0  0  0  0  0  0  0  0  0  0
  163.4045  147.3870  126.2984 C   0  0  1  0  0  0  0  0  0  0  0  0
  163.7219  147.1124  127.7691 C   0  0  0  0  0  0  0  0  0  0  0  0
  160.6749  144.5981  124.6659 C   0  0  0  0  0  0  0  0  0  0  0  0
  160.4462  145.1611  123.4393 O   0  0  0  0  0  0  0  0  0  0  0  0
  160.4639  143.4017  124.8849 O   0  0  0  0  0  0  0  0  0  0  0  0
  165.0574  150.7931  126.7775 C   0  0  2  0  0  0  0  0  0  0  0  0
  164.4078  151.8555  125.9951 C   0  0  0  0  0  0  0  0  0  0  0  0
  165.1914  151.3529  128.2071 C   0  0  0  0  0  0  0  0  0  0  0  0
  166.4576  152.0134  128.5070 C   0  0  1  0  0  0  0  0  0  0  0  0
  167.2216  151.2306  129.4088 O   0  0  0  0  0  0  0  0  0  0  0  0
  167.3128  152.4341  127.3728 C   0  0  2  0  0  0  0  0  0  0  0  0
  167.0530  153.7526  126.9241 O   0  0  0  0  0  0  0  0  0  0  0  0
  167.4332  151.4489  126.2445 C   0  0  2  0  0  0  0  0  0  0  0  0
  167.4205  152.1169  124.8880 C   0  0  0  0  0  0  0  0  0  0  0  0
  168.8104  150.7912  126.3393 C   0  0  0  0  0  0  0  0  0  0  0  0
  168.6526  149.6974  127.2301 O   0  0  0  0  0  0  0  0  0  0  0  0
  1  2  1  6
  2  3  1  0
  3  4  1  0
  4  5  1  6
  4  6  1  0
  6  7  1  6
  7  8  1  0
  8  9  2  0
 10  9  1  1
 10 11  1  0
 11 12  1  6
 11 13  1  0
 13 14  1  1
 13 15  1  0
 15 16  1  0
 16 17  1  0
 17 18  1  0
 18 19  1  0
 19 20  1  0
 20 21  1  1
 17 22  1  6
 22 23  1  0
 22 24  2  0
  6 25  1  0
 25 26  1  6
 25 27  1  0
 27 28  1  0
 28 29  1  1
 28 30  1  0
 30 31  1  6
 30 32  1  0
 32 33  1  6
 32 34  1  0
 34 35  1  0
 25  1  1  0
 32  1  1  0
 20  4  1  0
 20  9  1  0
 17 10  1  0
M  END
$$$$
