
     RDKit          3D

 35 39  0  0  0  0  0  0  0  0999 V2000
  171.6365  166.1785  109.1089 C   0  0  2  0  0  0  0  0  0  0  0  0
  172.6101  166.9475  109.9255 C   0  0  0  0  0  0  0  0  0  0  0  0
  172.8606  166.2540  111.2300 C   0  0  0  0  0  0  0  0  0  0  0  0
  173.3340  164.8356  110.9833 C   0  0  2  0  0  0  0  0  0  0  0  0
  174.7197  164.9808  110.4003 C   0  0  0  0  0  0  0  0  0  0  0  0
  172.3929  164.0581  110.1530 C   0  0  2  0  0  0  0  0  0  0  0  0
  172.8278  162.6432  109.9687 C   0  0  0  0  0  0  0  0  0  0  0  0
  173.8939  162.2246  110.8994 C   0  0  0  0  0  0  0  0  0  0  0  0
  174.2242  162.8769  112.0258 C   0  0  0  0  0  0  0  0  0  0  0  0
  175.3120  162.4244  112.9431 C   0  0  2  0  0  0  0  0  0  0  0  0
  175.6158  160.9738  112.7247 C   0  0  1  0  0  0  0  0  0  0  0  0
  176.6367  160.8943  111.5819 C   0  0  0  0  0  0  0  0  0  0  0  0
  176.2022  160.2216  113.8612 C   0  0  2  0  0  0  0  0  0  0  0  0
  176.0193  158.7222  113.4978 C   0  0  0  0  0  0  0  0  0  0  0  0
  175.4820  160.4571  115.1344 C   0  0  0  0  0  0  0  0  0  0  0  0
  174.4375  161.5460  115.0367 C   0  0  0  0  0  0  0  0  0  0  0  0
  175.1122  162.7325  114.3766 C   0  0  2  0  0  0  0  0  0  0  0  0
  174.3566  164.0031  114.5901 C   0  0  0  0  0  0  0  0  0  0  0  0
  174.1140  164.8450  113.3867 C   0  0  0  0  0  0  0  0  0  0  0  0
  173.4415  164.0955  112.3255 C   0  0  1  0  0  0  0  0  0  0  0  0
  172.0290  163.7574  112.8048 C   0  0  0  0  0  0  0  0  0  0  0  0
  176.4278  162.9299  115.0855 C   0  0  0  0  0  0  0  0  0  0  0  0
  177.4588  163.5516  114.4341 O   0  0  0  0  0  0  0  0  0  0  0  0
  176.5396  162.5214  116.2450 O   0  0  0  0  0  0  0  0  0  0  0  0
  171.9144  164.7317  108.8866 C   0  0  2  0  0  0  0  0  0  0  0  0
  172.8041  164.3310  107.7863 C   0  0  0  0  0  0  0  0  0  0  0  0
  170.5440  164.1062  108.5614 C   0  0  0  0  0  0  0  0  0  0  0  0
  169.6207  164.9637  107.8255 C   0  0  1  0  0  0  0  0  0  0  0  0
  168.5454  165.3618  108.6591 O   0  0  0  0  0  0  0  0  0  0  0  0
  170.1714  166.1507  107.1308 C   0  0  2  0  0  0  0  0  0  0  0  0
  170.5602  165.8958  105.7925 O   0  0  0  0  0  0  0  0  0  0  0  0
  171.1987  166.9370  107.8952 C   0  0  2  0  0  0  0  0  0  0  0  0
  172.3296  167.4217  107.0161 C   0  0  0  0  0  0  0  0  0  0  0  0
  170.5299  168.2143  108.4047 C   0  0  0  0  0  0  0  0  0  0  0  0
  169.8162  167.8342  109.5714 O   0  0  0  0  0  0  0  0  0  0  0  0
  1  2  1  6
  2  3  1  0
  3  4  1  0
  4  5  1  6
  4  6  1  0
  6  7  1  6
  7  8  1  0
  8  9  2  0
 10  9  1  6
 10 11  1  0
 11 12  1  6
 11 13  1  0
 13 14  1  6
 13 15  1  0
 15 16  1  0
 16 17  1  0
 17 18  1  0
 18 19  1  0
 19 20  1  0
 20 21  1  1
 17 22  1  1
 22 23  1  0
 22 24  2  0
  6 25  1  0
 25 26  1  6
 25 27  1  0
 27 28  1  0
 28 29  1  1
 28 30  1  0
 30 31  1  6
 30 32  1  0
 32 33  1  6
 32 34  1  0
 34 35  1  0
 25  1  1  0
 32  1  1  0
 20  4  1  0
 20  9  1  0
 17 10  1  0
M  END
$$$$
