
     RDKit          3D

 35 39  0  0  0  0  0  0  0  0999 V2000
  131.0350  163.0687  155.7586 C   0  0  2  0  0  0  0  0  0  0  0  0
  131.5800  163.1673  157.1368 C   0  0  0  0  0  0  0  0  0  0  0  0
  132.9537  162.5720  157.1992 C   0  0  0  0  0  0  0  0  0  0  0  0
  133.8601  163.2468  156.1893 C   0  0  2  0  0  0  0  0  0  0  0  0
  134.0676  164.6448  156.7218 C   0  0  0  0  0  0  0  0  0  0  0  0
  133.3270  163.1823  154.8141 C   0  0  2  0  0  0  0  0  0  0  0  0
  134.2531  163.7869  153.8132 C   0  0  0  0  0  0  0  0  0  0  0  0
  135.6174  164.0133  154.3285 C   0  0  0  0  0  0  0  0  0  0  0  0
  136.1204  163.4426  155.4352 C   0  0  0  0  0  0  0  0  0  0  0  0
  137.5064  163.6977  155.9284 C   0  0  2  0  0  0  0  0  0  0  0  0
  138.3681  164.2315  154.8253 C   0  0  1  0  0  0  0  0  0  0  0  0
  138.1700  165.7527  154.7945 C   0  0  0  0  0  0  0  0  0  0  0  0
  139.8304  164.0032  154.9314 C   0  0  2  0  0  0  0  0  0  0  0  0
  140.3917  164.2761  153.5087 C   0  0  0  0  0  0  0  0  0  0  0  0
  140.1662  162.6019  155.2758 C   0  0  0  0  0  0  0  0  0  0  0  0
  138.9554  161.7668  155.6262 C   0  0  0  0  0  0  0  0  0  0  0  0
  138.1548  162.5694  156.6329 C   0  0  2  0  0  0  0  0  0  0  0  0
  137.1777  161.7234  157.3815 C   0  0  0  0  0  0  0  0  0  0  0  0
  135.7855  162.2412  157.4803 C   0  0  0  0  0  0  0  0  0  0  0  0
  135.2166  162.5255  156.1629 C   0  0  1  0  0  0  0  0  0  0  0  0
  135.0429  161.1977  155.4240 C   0  0  0  0  0  0  0  0  0  0  0  0
  139.1328  163.0579  157.6708 C   0  0  0  0  0  0  0  0  0  0  0  0
  139.9711  164.0978  157.3717 O   0  0  0  0  0  0  0  0  0  0  0  0
  139.1503  162.5009  158.7723 O   0  0  0  0  0  0  0  0  0  0  0  0
  131.8794  163.5853  154.6451 C   0  0  2  0  0  0  0  0  0  0  0  0
  131.8348  165.0173  154.3133 C   0  0  0  0  0  0  0  0  0  0  0  0
  131.3756  162.8515  153.3870 C   0  0  0  0  0  0  0  0  0  0  0  0
  129.9474  162.5533  153.3633 C   0  0  1  0  0  0  0  0  0  0  0  0
  129.7314  161.1595  153.5049 O   0  0  0  0  0  0  0  0  0  0  0  0
  129.0642  163.2867  154.2998 C   0  0  2  0  0  0  0  0  0  0  0  0
  128.5373  164.4867  153.7617 O   0  0  0  0  0  0  0  0  0  0  0  0
  129.5911  163.4576  155.6966 C   0  0  2  0  0  0  0  0  0  0  0  0
  129.2837  164.8231  156.2690 C   0  0  0  0  0  0  0  0  0  0  0  0
  128.8434  162.4802  156.6043 C   0  0  0  0  0  0  0  0  0  0  0  0
  129.7088  161.3664  156.7638 O   0  0  0  0  0  0  0  0  0  0  0  0
  1  2  1  1
  2  3  1  0
  3  4  1  0
  4  5  1  1
  4  6  1  0
  6  7  1  6
  7  8  1  0
  8  9  2  0
 10  9  1  6
 10 11  1  0
 11 12  1  1
 11 13  1  0
 13 14  1  6
 13 15  1  0
 15 16  1  0
 16 17  1  0
 17 18  1  0
 18 19  1  0
 19 20  1  0
 20 21  1  6
 17 22  1  1
 22 23  1  0
 22 24  2  0
  6 25  1  0
 25 26  1  6
 25 27  1  0
 27 28  1  0
 28 29  1  1
 28 30  1  0
 30 31  1  6
 30 32  1  0
 32 33  1  1
 32 34  1  0
 34 35  1  0
 25  1  1  0
 32  1  1  0
 20  4  1  0
 20  9  1  0
 17 10  1  0
M  END
$$$$
