
     RDKit          3D

 35 39  0  0  0  0  0  0  0  0999 V2000
  135.1434  164.7183  156.3092 C   0  0  2  0  0  0  0  0  0  0  0  0
  133.9704  164.5809  157.2099 C   0  0  0  0  0  0  0  0  0  0  0  0
  132.9433  163.6788  156.5960 C   0  0  0  0  0  0  0  0  0  0  0  0
  133.5599  162.3331  156.2707 C   0  0  2  0  0  0  0  0  0  0  0  0
  133.8249  161.6892  157.6110 C   0  0  0  0  0  0  0  0  0  0  0  0
  134.7431  162.4462  155.3950 C   0  0  2  0  0  0  0  0  0  0  0  0
  135.3068  161.1167  155.0213 C   0  0  0  0  0  0  0  0  0  0  0  0
  134.4021  159.9868  155.3095 C   0  0  0  0  0  0  0  0  0  0  0  0
  133.0857  160.1039  155.5482 C   0  0  0  0  0  0  0  0  0  0  0  0
  132.2010  158.9368  155.8391 C   0  0  2  0  0  0  0  0  0  0  0  0
  132.8299  157.6658  155.3562 C   0  0  1  0  0  0  0  0  0  0  0  0
  133.7497  157.1638  156.4770 C   0  0  0  0  0  0  0  0  0  0  0  0
  131.9227  156.5394  155.0248 C   0  0  2  0  0  0  0  0  0  0  0  0
  132.7831  155.5534  154.1875 C   0  0  0  0  0  0  0  0  0  0  0  0
  130.7807  156.9560  154.1779 C   0  0  0  0  0  0  0  0  0  0  0  0
  130.6872  158.4541  153.9967 C   0  0  0  0  0  0  0  0  0  0  0  0
  130.7999  159.0635  155.3803 C   0  0  2  0  0  0  0  0  0  0  0  0
  130.3095  160.4738  155.4184 C   0  0  0  0  0  0  0  0  0  0  0  0
  131.1924  161.4693  156.0859 C   0  0  0  0  0  0  0  0  0  0  0  0
  132.5367  161.4767  155.5087 C   0  0  1  0  0  0  0  0  0  0  0  0
  132.4359  162.0050  154.0770 C   0  0  0  0  0  0  0  0  0  0  0  0
  129.8580  158.2923  156.2694 C   0  0  0  0  0  0  0  0  0  0  0  0
  128.5116  158.5256  156.1897 O   0  0  0  0  0  0  0  0  0  0  0  0
  130.3321  157.4638  157.0521 O   0  0  0  0  0  0  0  0  0  0  0  0
  135.7789  163.4668  155.8095 C   0  0  2  0  0  0  0  0  0  0  0  0
  136.7863  162.7904  156.6405 C   0  0  0  0  0  0  0  0  0  0  0  0
  136.5136  163.8785  154.5189 C   0  0  0  0  0  0  0  0  0  0  0  0
  137.0695  165.2277  154.5156 C   0  0  1  0  0  0  0  0  0  0  0  0
  136.3417  166.0595  153.6279 O   0  0  0  0  0  0  0  0  0  0  0  0
  137.2348  165.9193  155.8153 C   0  0  2  0  0  0  0  0  0  0  0  0
  138.4986  165.7020  156.4175 O   0  0  0  0  0  0  0  0  0  0  0  0
  136.0956  165.7708  156.7840 C   0  0  2  0  0  0  0  0  0  0  0  0
  136.5669  165.5938  158.2100 C   0  0  0  0  0  0  0  0  0  0  0  0
  135.3134  167.0847  156.7952 C   0  0  0  0  0  0  0  0  0  0  0  0
  134.2622  166.9130  155.8568 O   0  0  0  0  0  0  0  0  0  0  0  0
  1  2  1  1
  2  3  1  0
  3  4  1  0
  4  5  1  1
  4  6  1  0
  6  7  1  1
  7  8  1  0
  8  9  2  0
 10  9  1  6
 10 11  1  0
 11 12  1  1
 11 13  1  0
 13 14  1  6
 13 15  1  0
 15 16  1  0
 16 17  1  0
 17 18  1  0
 18 19  1  0
 19 20  1  0
 20 21  1  6
 17 22  1  1
 22 23  1  0
 22 24  2  0
  6 25  1  0
 25 26  1  1
 25 27  1  0
 27 28  1  0
 28 29  1  6
 28 30  1  0
 30 31  1  1
 30 32  1  0
 32 33  1  1
 32 34  1  0
 34 35  1  0
 25  1  1  0
 32  1  1  0
 20  4  1  0
 20  9  1  0
 17 10  1  0
M  END
$$$$
