
     RDKit          3D

 35 39  0  0  0  0  0  0  0  0999 V2000
  168.1263  145.6482  126.0365 C   0  0  2  0  0  0  0  0  0  0  0  0
  166.6514  145.8002  126.1250 C   0  0  0  0  0  0  0  0  0  0  0  0
  166.2984  146.9927  126.9608 C   0  0  0  0  0  0  0  0  0  0  0  0
  166.9566  148.2365  126.3980 C   0  0  2  0  0  0  0  0  0  0  0  0
  166.2385  148.5050  125.0967 C   0  0  0  0  0  0  0  0  0  0  0  0
  168.4217  148.1002  126.2784 C   0  0  2  0  0  0  0  0  0  0  0  0
  169.0738  149.3492  125.7886 C   0  0  0  0  0  0  0  0  0  0  0  0
  168.1987  150.5363  125.8447 C   0  0  0  0  0  0  0  0  0  0  0  0
  167.0686  150.6188  126.5655 C   0  0  0  0  0  0  0  0  0  0  0  0
  166.2060  151.8372  126.5959 C   0  0  2  0  0  0  0  0  0  0  0  0
  166.9807  153.0421  126.1576 C   0  0  1  0  0  0  0  0  0  0  0  0
  166.8952  153.1005  124.6267 C   0  0  0  0  0  0  0  0  0  0  0  0
  166.5224  154.3640  126.6519 C   0  0  2  0  0  0  0  0  0  0  0  0
  167.7105  155.3315  126.3953 C   0  0  0  0  0  0  0  0  0  0  0  0
  166.2580  154.3683  128.1096 C   0  0  0  0  0  0  0  0  0  0  0  0
  166.3295  152.9928  128.7334 C   0  0  0  0  0  0  0  0  0  0  0  0
  165.4848  152.0813  127.8648 C   0  0  2  0  0  0  0  0  0  0  0  0
  165.1145  150.8158  128.5665 C   0  0  0  0  0  0  0  0  0  0  0  0
  165.3262  149.5492  127.8136 C   0  0  0  0  0  0  0  0  0  0  0  0
  166.7071  149.4175  127.3488 C   0  0  1  0  0  0  0  0  0  0  0  0
  167.6066  149.2490  128.5742 C   0  0  0  0  0  0  0  0  0  0  0  0
  164.1806  152.7988  127.6271 C   0  0  0  0  0  0  0  0  0  0  0  0
  163.6259  152.7939  126.3757 O   0  0  0  0  0  0  0  0  0  0  0  0
  163.6441  153.3765  128.5771 O   0  0  0  0  0  0  0  0  0  0  0  0
  168.9173  146.8370  125.6113 C   0  0  2  0  0  0  0  0  0  0  0  0
  169.0902  147.1101  124.1766 C   0  0  0  0  0  0  0  0  0  0  0  0
  170.3359  146.5915  126.1613 C   0  0  0  0  0  0  0  0  0  0  0  0
  170.7640  145.1969  126.1951 C   0  0  1  0  0  0  0  0  0  0  0  0
  170.8373  144.7350  127.5333 O   0  0  0  0  0  0  0  0  0  0  0  0
  170.0158  144.2155  125.3753 C   0  0  2  0  0  0  0  0  0  0  0  0
  170.5378  144.0520  124.0684 O   0  0  0  0  0  0  0  0  0  0  0  0
  168.5199  144.3567  125.3907 C   0  0  2  0  0  0  0  0  0  0  0  0
  167.9015  144.1207  124.0310 C   0  0  0  0  0  0  0  0  0  0  0  0
  167.9515  143.2443  126.2727 C   0  0  0  0  0  0  0  0  0  0  0  0
  167.2401  143.9028  127.3096 O   0  0  0  0  0  0  0  0  0  0  0  0
  1  2  1  6
  2  3  1  0
  3  4  1  0
  4  5  1  6
  4  6  1  0
  6  7  1  6
  7  8  1  0
  8  9  2  0
 10  9  1  1
 10 11  1  0
 11 12  1  6
 11 13  1  0
 13 14  1  1
 13 15  1  0
 15 16  1  0
 16 17  1  0
 17 18  1  0
 18 19  1  0
 19 20  1  0
 20 21  1  1
 17 22  1  6
 22 23  1  0
 22 24  2  0
  6 25  1  0
 25 26  1  6
 25 27  1  0
 27 28  1  0
 28 29  1  1
 28 30  1  0
 30 31  1  6
 30 32  1  0
 32 33  1  6
 32 34  1  0
 34 35  1  0
 25  1  1  0
 32  1  1  0
 20  4  1  0
 20  9  1  0
 17 10  1  0
M  END
$$$$
