
     RDKit          3D

 35 39  0  0  0  0  0  0  0  0999 V2000
  128.1007  165.2047  149.4742 C   0  0  2  0  0  0  0  0  0  0  0  0
  127.6333  164.9853  148.0815 C   0  0  0  0  0  0  0  0  0  0  0  0
  126.1463  164.8022  148.0524 C   0  0  0  0  0  0  0  0  0  0  0  0
  125.4622  165.9942  148.6912 C   0  0  2  0  0  0  0  0  0  0  0  0
  125.6860  167.1366  147.7290 C   0  0  0  0  0  0  0  0  0  0  0  0
  125.9284  166.2465  150.0691 C   0  0  2  0  0  0  0  0  0  0  0  0
  125.2049  167.3774  150.7191 C   0  0  0  0  0  0  0  0  0  0  0  0
  123.9775  167.7835  150.0073 C   0  0  0  0  0  0  0  0  0  0  0  0
  123.3477  167.0384  149.0845 C   0  0  0  0  0  0  0  0  0  0  0  0
  122.1077  167.4837  148.3820 C   0  0  2  0  0  0  0  0  0  0  0  0
  121.4229  168.5670  149.1580 C   0  0  1  0  0  0  0  0  0  0  0  0
  122.0610  169.8967  148.7347 C   0  0  0  0  0  0  0  0  0  0  0  0
  119.9606  168.7250  148.9629 C   0  0  2  0  0  0  0  0  0  0  0  0
  119.4802  169.5967  150.1558 C   0  0  0  0  0  0  0  0  0  0  0  0
  119.2320  167.4371  149.0372 C   0  0  0  0  0  0  0  0  0  0  0  0
  120.1480  166.2361  149.1051 C   0  0  0  0  0  0  0  0  0  0  0  0
  121.1674  166.4083  147.9961 C   0  0  2  0  0  0  0  0  0  0  0  0
  121.8639  165.1291  147.6651 C   0  0  0  0  0  0  0  0  0  0  0  0
  123.3484  165.1837  147.5686 C   0  0  0  0  0  0  0  0  0  0  0  0
  123.9530  165.7221  148.7871 C   0  0  1  0  0  0  0  0  0  0  0  0
  123.7139  164.7208  149.9182 C   0  0  0  0  0  0  0  0  0  0  0  0
  120.3955  166.7721  146.7534 C   0  0  0  0  0  0  0  0  0  0  0  0
  119.7135  165.7994  146.0735 O   0  0  0  0  0  0  0  0  0  0  0  0
  120.4002  167.9489  146.3802 O   0  0  0  0  0  0  0  0  0  0  0  0
  127.4273  166.2711  150.2673 C   0  0  2  0  0  0  0  0  0  0  0  0
  127.8870  167.6621  150.1382 C   0  0  0  0  0  0  0  0  0  0  0  0
  127.6700  165.8884  151.7402 C   0  0  0  0  0  0  0  0  0  0  0  0
  128.9458  165.2369  152.0180 C   0  0  1  0  0  0  0  0  0  0  0  0
  128.7430  163.8723  152.3441 O   0  0  0  0  0  0  0  0  0  0  0  0
  130.0224  165.3472  151.0062 C   0  0  2  0  0  0  0  0  0  0  0  0
  130.8706  166.4654  151.1990 O   0  0  0  0  0  0  0  0  0  0  0  0
  129.5938  165.1821  149.5754 C   0  0  2  0  0  0  0  0  0  0  0  0
  130.3007  166.1413  148.6443 C   0  0  0  0  0  0  0  0  0  0  0  0
  130.0352  163.7942  149.1094 C   0  0  0  0  0  0  0  0  0  0  0  0
  129.0455  162.8962  149.5880 O   0  0  0  0  0  0  0  0  0  0  0  0
  1  2  1  6
  2  3  1  0
  3  4  1  0
  4  5  1  6
  4  6  1  0
  6  7  1  6
  7  8  1  0
  8  9  2  0
 10  9  1  1
 10 11  1  0
 11 12  1  6
 11 13  1  0
 13 14  1  1
 13 15  1  0
 15 16  1  0
 16 17  1  0
 17 18  1  0
 18 19  1  0
 19 20  1  0
 20 21  1  1
 17 22  1  6
 22 23  1  0
 22 24  2  0
  6 25  1  0
 25 26  1  6
 25 27  1  0
 27 28  1  0
 28 29  1  6
 28 30  1  0
 30 31  1  6
 30 32  1  0
 32 33  1  6
 32 34  1  0
 34 35  1  0
 25  1  1  0
 32  1  1  0
 20  4  1  0
 20  9  1  0
 17 10  1  0
M  END
$$$$
