
     RDKit          3D

 35 39  0  0  0  0  0  0  0  0999 V2000
  208.0394  134.8100  134.8843 C   0  0  2  0  0  0  0  0  0  0  0  0
  207.2479  135.9411  134.3364 C   0  0  0  0  0  0  0  0  0  0  0  0
  206.0526  135.4297  133.5913 C   0  0  0  0  0  0  0  0  0  0  0  0
  205.2152  134.5459  134.4939 C   0  0  2  0  0  0  0  0  0  0  0  0
  204.6100  135.4852  135.5100 C   0  0  0  0  0  0  0  0  0  0  0  0
  205.9872  133.4271  135.0698 C   0  0  2  0  0  0  0  0  0  0  0  0
  205.1450  132.5205  135.9028 C   0  0  0  0  0  0  0  0  0  0  0  0
  203.6947  132.7197  135.7150 C   0  0  0  0  0  0  0  0  0  0  0  0
  203.1409  133.3717  134.6798 C   0  0  0  0  0  0  0  0  0  0  0  0
  201.6674  133.5561  134.5242 C   0  0  2  0  0  0  0  0  0  0  0  0
  200.9210  132.5483  135.3437 C   0  0  1  0  0  0  0  0  0  0  0  0
  200.7783  133.1319  136.7555 C   0  0  0  0  0  0  0  0  0  0  0  0
  199.5514  132.1890  134.9002 C   0  0  2  0  0  0  0  0  0  0  0  0
  199.2082  130.8751  135.6550 C   0  0  0  0  0  0  0  0  0  0  0  0
  199.4793  131.8953  133.4499 C   0  0  0  0  0  0  0  0  0  0  0  0
  200.7623  132.2070  132.7131 C   0  0  0  0  0  0  0  0  0  0  0  0
  201.1704  133.6060  133.1313 C   0  0  2  0  0  0  0  0  0  0  0  0
  202.1605  134.2108  132.1906 C   0  0  0  0  0  0  0  0  0  0  0  0
  203.3618  134.8425  132.8021 C   0  0  0  0  0  0  0  0  0  0  0  0
  204.0803  133.9130  133.6739 C   0  0  1  0  0  0  0  0  0  0  0  0
  204.6746  132.8064  132.8012 C   0  0  0  0  0  0  0  0  0  0  0  0
  199.9384  134.4670  133.0173 C   0  0  0  0  0  0  0  0  0  0  0  0
  198.7683  134.0506  133.5928 O   0  0  0  0  0  0  0  0  0  0  0  0
  200.0200  135.5340  132.4019 O   0  0  0  0  0  0  0  0  0  0  0  0
  207.3152  133.7909  135.6947 C   0  0  2  0  0  0  0  0  0  0  0  0
  207.0992  134.0336  137.1290 C   0  0  0  0  0  0  0  0  0  0  0  0
  208.1869  132.5225  135.6148 C   0  0  0  0  0  0  0  0  0  0  0  0
  209.6262  132.7528  135.5448 C   0  0  1  0  0  0  0  0  0  0  0  0
  210.1176  132.4200  134.2574 O   0  0  0  0  0  0  0  0  0  0  0  0
  210.1415  134.0844  135.9401 C   0  0  2  0  0  0  0  0  0  0  0  0
  210.4762  134.1791  137.3134 O   0  0  0  0  0  0  0  0  0  0  0  0
  209.3478  135.2634  135.4522 C   0  0  2  0  0  0  0  0  0  0  0  0
  209.2362  136.3567  136.4909 C   0  0  0  0  0  0  0  0  0  0  0  0
  210.1187  135.9039  134.2973 C   0  0  0  0  0  0  0  0  0  0  0  0
  209.6319  135.2804  133.1187 O   0  0  0  0  0  0  0  0  0  0  0  0
  1  2  1  1
  2  3  1  0
  3  4  1  0
  4  5  1  1
  4  6  1  0
  6  7  1  1
  7  8  1  0
  8  9  2  0
 10  9  1  6
 10 11  1  0
 11 12  1  1
 11 13  1  0
 13 14  1  1
 13 15  1  0
 15 16  1  0
 16 17  1  0
 17 18  1  0
 18 19  1  0
 19 20  1  0
 20 21  1  6
 17 22  1  1
 22 23  1  0
 22 24  2  0
  6 25  1  0
 25 26  1  1
 25 27  1  0
 27 28  1  0
 28 29  1  6
 28 30  1  0
 30 31  1  1
 30 32  1  0
 32 33  1  1
 32 34  1  0
 34 35  1  0
 25  1  1  0
 32  1  1  0
 20  4  1  0
 20  9  1  0
 17 10  1  0
M  END
$$$$
