
     RDKit          3D

 35 39  0  0  0  0  0  0  0  0999 V2000
  162.9870  148.9222  126.0965 C   0  0  2  0  0  0  0  0  0  0  0  0
  163.1304  150.3750  126.3698 C   0  0  0  0  0  0  0  0  0  0  0  0
  164.0394  150.5992  127.5398 C   0  0  0  0  0  0  0  0  0  0  0  0
  165.3817  149.9415  127.2900 C   0  0  2  0  0  0  0  0  0  0  0  0
  166.0225  150.7619  126.1957 C   0  0  0  0  0  0  0  0  0  0  0  0
  165.2625  148.5004  126.9923 C   0  0  2  0  0  0  0  0  0  0  0  0
  166.5890  147.8419  126.8142 C   0  0  0  0  0  0  0  0  0  0  0  0
  167.7240  148.6562  127.2906 C   0  0  0  0  0  0  0  0  0  0  0  0
  167.6145  149.7119  128.1133 C   0  0  0  0  0  0  0  0  0  0  0  0
  168.7866  150.5148  128.5728 C   0  0  2  0  0  0  0  0  0  0  0  0
  170.0544  149.7316  128.4192 C   0  0  1  0  0  0  0  0  0  0  0  0
  170.5495  149.9525  126.9838 C   0  0  0  0  0  0  0  0  0  0  0  0
  171.1865  150.0857  129.3104 C   0  0  2  0  0  0  0  0  0  0  0  0
  172.1683  148.8850  129.2220 C   0  0  0  0  0  0  0  0  0  0  0  0
  170.7779  150.2169  130.7284 C   0  0  0  0  0  0  0  0  0  0  0  0
  169.2805  150.1488  130.9268 C   0  0  0  0  0  0  0  0  0  0  0  0
  168.6688  151.1071  129.9237 C   0  0  2  0  0  0  0  0  0  0  0  0
  167.2615  151.4668  130.2713 C   0  0  0  0  0  0  0  0  0  0  0  0
  166.2600  151.3790  129.1735 C   0  0  0  0  0  0  0  0  0  0  0  0
  166.2452  150.0528  128.5561 C   0  0  1  0  0  0  0  0  0  0  0  0
  165.7191  149.0543  129.5884 C   0  0  0  0  0  0  0  0  0  0  0  0
  169.4447  152.3952  130.0292 C   0  0  0  0  0  0  0  0  0  0  0  0
  169.8637  153.0261  128.8889 O   0  0  0  0  0  0  0  0  0  0  0  0
  169.6827  152.8496  131.1521 O   0  0  0  0  0  0  0  0  0  0  0  0
  164.2352  148.1222  125.9492 C   0  0  2  0  0  0  0  0  0  0  0  0
  164.9046  148.0680  124.6408 C   0  0  0  0  0  0  0  0  0  0  0  0
  163.8206  146.6716  126.2640 C   0  0  0  0  0  0  0  0  0  0  0  0
  162.4680  146.3029  125.8589 C   0  0  1  0  0  0  0  0  0  0  0  0
  161.6416  146.1289  126.9975 O   0  0  0  0  0  0  0  0  0  0  0  0
  161.7740  147.1638  124.8730 C   0  0  2  0  0  0  0  0  0  0  0  0
  161.9830  146.7697  123.5283 O   0  0  0  0  0  0  0  0  0  0  0  0
  161.9282  148.6448  125.0757 C   0  0  2  0  0  0  0  0  0  0  0  0
  162.1007  149.3931  123.7730 C   0  0  0  0  0  0  0  0  0  0  0  0
  160.6191  149.1786  125.6583 C   0  0  0  0  0  0  0  0  0  0  0  0
  160.9963  150.0572  126.7075 O   0  0  0  0  0  0  0  0  0  0  0  0
  1  2  1  6
  2  3  1  0
  3  4  1  0
  4  5  1  6
  4  6  1  0
  6  7  1  6
  7  8  1  0
  8  9  2  0
 10  9  1  1
 10 11  1  0
 11 12  1  6
 11 13  1  0
 13 14  1  1
 13 15  1  0
 15 16  1  0
 16 17  1  0
 17 18  1  0
 18 19  1  0
 19 20  1  0
 20 21  1  1
 17 22  1  6
 22 23  1  0
 22 24  2  0
  6 25  1  0
 25 26  1  6
 25 27  1  0
 27 28  1  0
 28 29  1  1
 28 30  1  0
 30 31  1  6
 30 32  1  0
 32 33  1  6
 32 34  1  0
 34 35  1  0
 25  1  1  0
 32  1  1  0
 20  4  1  0
 20  9  1  0
 17 10  1  0
M  END
$$$$
