
     RDKit          3D

 35 39  0  0  0  0  0  0  0  0999 V2000
  116.6662  169.3994  146.8932 C   0  0  2  0  0  0  0  0  0  0  0  0
  117.6277  168.3126  147.2098 C   0  0  0  0  0  0  0  0  0  0  0  0
  117.5835  167.2515  146.1527 C   0  0  0  0  0  0  0  0  0  0  0  0
  117.8554  167.8605  144.7918 C   0  0  2  0  0  0  0  0  0  0  0  0
  119.3135  168.2533  144.8226 C   0  0  0  0  0  0  0  0  0  0  0  0
  116.9262  168.9601  144.4646 C   0  0  2  0  0  0  0  0  0  0  0  0
  117.1525  169.5119  143.0974 C   0  0  0  0  0  0  0  0  0  0  0  0
  118.0006  168.6559  142.2454 C   0  0  0  0  0  0  0  0  0  0  0  0
  118.2720  167.3638  142.4905 C   0  0  0  0  0  0  0  0  0  0  0  0
  119.1379  166.5286  141.6061 C   0  0  2  0  0  0  0  0  0  0  0  0
  119.2351  167.1348  140.2396 C   0  0  1  0  0  0  0  0  0  0  0  0
  120.3777  168.1580  140.2807 C   0  0  0  0  0  0  0  0  0  0  0  0
  119.5329  166.2218  139.1086 C   0  0  2  0  0  0  0  0  0  0  0  0
  119.1664  167.0224  137.8286 C   0  0  0  0  0  0  0  0  0  0  0  0
  118.6911  165.0027  139.1216 C   0  0  0  0  0  0  0  0  0  0  0  0
  117.8558  164.8675  140.3746 C   0  0  0  0  0  0  0  0  0  0  0  0
  118.7943  165.0906  141.5443 C   0  0  2  0  0  0  0  0  0  0  0  0
  118.2275  164.5808  142.8288 C   0  0  0  0  0  0  0  0  0  0  0  0
  118.2891  165.5014  143.9969 C   0  0  0  0  0  0  0  0  0  0  0  0
  117.6587  166.7895  143.7077 C   0  0  1  0  0  0  0  0  0  0  0  0
  116.1582  166.5542  143.5283 C   0  0  0  0  0  0  0  0  0  0  0  0
  120.0144  164.2440  141.2860 C   0  0  0  0  0  0  0  0  0  0  0  0
  119.8639  162.9172  140.9850 O   0  0  0  0  0  0  0  0  0  0  0  0
  121.1262  164.7763  141.3539 O   0  0  0  0  0  0  0  0  0  0  0  0
  116.7392  170.0104  145.5363 C   0  0  2  0  0  0  0  0  0  0  0  0
  117.6969  171.0985  145.2880 C   0  0  0  0  0  0  0  0  0  0  0  0
  115.3449  170.6216  145.2969 C   0  0  0  0  0  0  0  0  0  0  0  0
  114.6792  171.1514  146.4825 C   0  0  1  0  0  0  0  0  0  0  0  0
  113.5763  170.3340  146.8363 O   0  0  0  0  0  0  0  0  0  0  0  0
  115.5013  171.4180  147.6858 C   0  0  2  0  0  0  0  0  0  0  0  0
  116.0250  172.7335  147.7356 O   0  0  0  0  0  0  0  0  0  0  0  0
  116.5252  170.3711  148.0227 C   0  0  2  0  0  0  0  0  0  0  0  0
  117.8286  170.9687  148.5030 C   0  0  0  0  0  0  0  0  0  0  0  0
  116.0037  169.5701  149.2163 C   0  0  0  0  0  0  0  0  0  0  0  0
  116.6687  168.3173  149.1573 O   0  0  0  0  0  0  0  0  0  0  0  0
  1  2  1  1
  2  3  1  0
  3  4  1  0
  4  5  1  1
  4  6  1  0
  6  7  1  6
  7  8  1  0
  8  9  2  0
 10  9  1  1
 10 11  1  0
 11 12  1  1
 11 13  1  0
 13 14  1  6
 13 15  1  0
 15 16  1  0
 16 17  1  0
 17 18  1  0
 18 19  1  0
 19 20  1  0
 20 21  1  6
 17 22  1  6
 22 23  1  0
 22 24  2  0
  6 25  1  0
 25 26  1  1
 25 27  1  0
 27 28  1  0
 28 29  1  1
 28 30  1  0
 30 31  1  6
 30 32  1  0
 32 33  1  1
 32 34  1  0
 34 35  1  0
 25  1  1  0
 32  1  1  0
 20  4  1  0
 20  9  1  0
 17 10  1  0
M  END
$$$$
