
     RDKit          3D

 35 39  0  0  0  0  0  0  0  0999 V2000
  117.0190  146.9329  165.0663 C   0  0  2  0  0  0  0  0  0  0  0  0
  118.3307  147.6216  164.9607 C   0  0  0  0  0  0  0  0  0  0  0  0
  119.1858  146.9606  163.9229 C   0  0  0  0  0  0  0  0  0  0  0  0
  118.4606  146.9309  162.5924 C   0  0  2  0  0  0  0  0  0  0  0  0
  118.4190  148.3702  162.1366 C   0  0  0  0  0  0  0  0  0  0  0  0
  117.1425  146.2715  162.6776 C   0  0  2  0  0  0  0  0  0  0  0  0
  116.4610  146.1830  161.3537 C   0  0  0  0  0  0  0  0  0  0  0  0
  117.3522  146.4536  160.2088 C   0  0  0  0  0  0  0  0  0  0  0  0
  118.6938  146.4377  160.2646 C   0  0  0  0  0  0  0  0  0  0  0  0
  119.5642  146.7194  159.0846 C   0  0  2  0  0  0  0  0  0  0  0  0
  118.8011  146.5282  157.8097 C   0  0  1  0  0  0  0  0  0  0  0  0
  118.0824  147.8507  157.5120 C   0  0  0  0  0  0  0  0  0  0  0  0
  119.5807  146.1936  156.5924 C   0  0  2  0  0  0  0  0  0  0  0  0
  118.5377  145.6600  155.5720 C   0  0  0  0  0  0  0  0  0  0  0  0
  120.5643  145.1101  156.8239 C   0  0  0  0  0  0  0  0  0  0  0  0
  120.6894  144.7183  158.2788 C   0  0  0  0  0  0  0  0  0  0  0  0
  120.8609  146.0069  159.0590 C   0  0  2  0  0  0  0  0  0  0  0  0
  121.4122  145.7703  160.4268 C   0  0  0  0  0  0  0  0  0  0  0  0
  120.7126  146.4457  161.5539 C   0  0  0  0  0  0  0  0  0  0  0  0
  119.2867  146.1200  161.5819 C   0  0  1  0  0  0  0  0  0  0  0  0
  119.1451  144.6359  161.9232 C   0  0  0  0  0  0  0  0  0  0  0  0
  121.9154  146.8093  158.3402 C   0  0  0  0  0  0  0  0  0  0  0  0
  122.0410  148.1469  158.6021 O   0  0  0  0  0  0  0  0  0  0  0  0
  122.6432  146.2318  157.5273 O   0  0  0  0  0  0  0  0  0  0  0  0
  116.2473  146.7240  163.8091 C   0  0  2  0  0  0  0  0  0  0  0  0
  115.3813  147.8024  163.3092 C   0  0  0  0  0  0  0  0  0  0  0  0
  115.3062  145.5409  164.1088 C   0  0  0  0  0  0  0  0  0  0  0  0
  114.8199  145.4573  165.4821 C   0  0  1  0  0  0  0  0  0  0  0  0
  115.4078  144.3525  166.1479 O   0  0  0  0  0  0  0  0  0  0  0  0
  114.9280  146.6625  166.3369 C   0  0  2  0  0  0  0  0  0  0  0  0
  113.7885  147.5025  166.2811 O   0  0  0  0  0  0  0  0  0  0  0  0
  116.2184  147.4251  166.2310 C   0  0  2  0  0  0  0  0  0  0  0  0
  116.0108  148.9227  166.2620 C   0  0  0  0  0  0  0  0  0  0  0  0
  117.0470  147.1233  167.4803 C   0  0  0  0  0  0  0  0  0  0  0  0
  117.6737  145.8740  167.2323 O   0  0  0  0  0  0  0  0  0  0  0  0
  1  2  1  6
  2  3  1  0
  3  4  1  0
  4  5  1  6
  4  6  1  0
  6  7  1  6
  7  8  1  0
  8  9  2  0
 10  9  1  1
 10 11  1  0
 11 12  1  6
 11 13  1  0
 13 14  1  6
 13 15  1  0
 15 16  1  0
 16 17  1  0
 17 18  1  0
 18 19  1  0
 19 20  1  0
 20 21  1  1
 17 22  1  6
 22 23  1  0
 22 24  2  0
  6 25  1  0
 25 26  1  6
 25 27  1  0
 27 28  1  0
 28 29  1  1
 28 30  1  0
 30 31  1  6
 30 32  1  0
 32 33  1  6
 32 34  1  0
 34 35  1  0
 25  1  1  0
 32  1  1  0
 20  4  1  0
 20  9  1  0
 17 10  1  0
M  END
$$$$
