
     RDKit          3D

 35 39  0  0  0  0  0  0  0  0999 V2000
  166.2213  150.0972  127.0644 C   0  0  2  0  0  0  0  0  0  0  0  0
  165.9824  150.7618  128.3710 C   0  0  0  0  0  0  0  0  0  0  0  0
  164.6257  150.4056  128.8980 C   0  0  0  0  0  0  0  0  0  0  0  0
  164.4862  148.9001  129.0021 C   0  0  2  0  0  0  0  0  0  0  0  0
  165.4082  148.4981  130.1288 C   0  0  0  0  0  0  0  0  0  0  0  0
  164.7427  148.2151  127.7197 C   0  0  2  0  0  0  0  0  0  0  0  0
  164.5381  146.7402  127.8086 C   0  0  0  0  0  0  0  0  0  0  0  0
  163.8161  146.3139  129.0232 C   0  0  0  0  0  0  0  0  0  0  0  0
  163.0969  147.1302  129.8104 C   0  0  0  0  0  0  0  0  0  0  0  0
  162.3810  146.6631  131.0347 C   0  0  2  0  0  0  0  0  0  0  0  0
  162.1629  145.1818  130.9844 C   0  0  1  0  0  0  0  0  0  0  0  0
  163.4262  144.5208  131.5512 C   0  0  0  0  0  0  0  0  0  0  0  0
  161.0220  144.6342  131.7589 C   0  0  2  0  0  0  0  0  0  0  0  0
  160.7981  143.2018  131.2007 C   0  0  0  0  0  0  0  0  0  0  0  0
  159.7678  145.3924  131.5416 C   0  0  0  0  0  0  0  0  0  0  0  0
  159.9664  146.6566  130.7364 C   0  0  0  0  0  0  0  0  0  0  0  0
  161.1350  147.3894  131.3658 C   0  0  2  0  0  0  0  0  0  0  0  0
  161.1845  148.8266  130.9621 C   0  0  0  0  0  0  0  0  0  0  0  0
  162.5018  149.3451  130.5018 C   0  0  0  0  0  0  0  0  0  0  0  0
  163.0439  148.5501  129.3999 C   0  0  1  0  0  0  0  0  0  0  0  0
  162.1440  148.7533  128.1801 C   0  0  0  0  0  0  0  0  0  0  0  0
  160.8850  147.4038  132.8523 C   0  0  0  0  0  0  0  0  0  0  0  0
  160.8066  146.2199  133.5350 O   0  0  0  0  0  0  0  0  0  0  0  0
  160.7569  148.4936  133.4178 O   0  0  0  0  0  0  0  0  0  0  0  0
  166.0015  148.6255  126.9894 C   0  0  2  0  0  0  0  0  0  0  0  0
  167.0849  147.7153  127.3900 C   0  0  0  0  0  0  0  0  0  0  0  0
  165.7446  148.3345  125.4980 C   0  0  0  0  0  0  0  0  0  0  0  0
  166.4740  149.1797  124.5583 C   0  0  1  0  0  0  0  0  0  0  0  0
  165.5858  150.0662  123.8991 O   0  0  0  0  0  0  0  0  0  0  0  0
  167.6435  149.9374  125.0615 C   0  0  2  0  0  0  0  0  0  0  0  0
  168.8681  149.2343  124.9463 O   0  0  0  0  0  0  0  0  0  0  0  0
  167.4712  150.5892  126.4044 C   0  0  2  0  0  0  0  0  0  0  0  0
  168.7138  150.4902  127.2604 C   0  0  0  0  0  0  0  0  0  0  0  0
  167.2758  152.0888  126.1777 C   0  0  0  0  0  0  0  0  0  0  0  0
  165.8719  152.2861  126.1059 O   0  0  0  0  0  0  0  0  0  0  0  0
  1  2  1  1
  2  3  1  0
  3  4  1  0
  4  5  1  1
  4  6  1  0
  6  7  1  1
  7  8  1  0
  8  9  2  0
 10  9  1  6
 10 11  1  0
 11 12  1  1
 11 13  1  0
 13 14  1  6
 13 15  1  0
 15 16  1  0
 16 17  1  0
 17 18  1  0
 18 19  1  0
 19 20  1  0
 20 21  1  6
 17 22  1  1
 22 23  1  0
 22 24  2  0
  6 25  1  0
 25 26  1  1
 25 27  1  0
 27 28  1  0
 28 29  1  1
 28 30  1  0
 30 31  1  1
 30 32  1  0
 32 33  1  1
 32 34  1  0
 34 35  1  0
 25  1  1  0
 32  1  1  0
 20  4  1  0
 20  9  1  0
 17 10  1  0
M  END
$$$$
