
     RDKit          3D

 35 39  0  0  0  0  0  0  0  0999 V2000
  167.0079  146.3809  126.9786 C   0  0  2  0  0  0  0  0  0  0  0  0
  167.2484  147.1663  128.2161 C   0  0  0  0  0  0  0  0  0  0  0  0
  167.4833  148.6081  127.8824 C   0  0  0  0  0  0  0  0  0  0  0  0
  166.3136  149.1565  127.0899 C   0  0  2  0  0  0  0  0  0  0  0  0
  165.1676  149.2140  128.0719 C   0  0  0  0  0  0  0  0  0  0  0  0
  166.0402  148.3770  125.8663 C   0  0  2  0  0  0  0  0  0  0  0  0
  164.9328  148.9587  125.0536 C   0  0  0  0  0  0  0  0  0  0  0  0
  164.5724  150.3361  125.4423 C   0  0  0  0  0  0  0  0  0  0  0  0
  165.3423  151.1459  126.1873 C   0  0  0  0  0  0  0  0  0  0  0  0
  164.9429  152.5345  126.5635 C   0  0  2  0  0  0  0  0  0  0  0  0
  163.8814  153.0462  125.6386 C   0  0  1  0  0  0  0  0  0  0  0  0
  162.5318  152.5773  126.1981 C   0  0  0  0  0  0  0  0  0  0  0  0
  163.7752  154.5165  125.4700 C   0  0  2  0  0  0  0  0  0  0  0  0
  162.9164  154.7211  124.1916 C   0  0  0  0  0  0  0  0  0  0  0  0
  165.0874  155.1599  125.2265 C   0  0  0  0  0  0  0  0  0  0  0  0
  166.2555  154.2139  125.3903 C   0  0  0  0  0  0  0  0  0  0  0  0
  166.0519  153.5027  126.7137 C   0  0  2  0  0  0  0  0  0  0  0  0
  167.3072  152.8641  127.2111 C   0  0  0  0  0  0  0  0  0  0  0  0
  167.2013  151.4509  127.6667 C   0  0  0  0  0  0  0  0  0  0  0  0
  166.6378  150.5863  126.6299 C   0  0  1  0  0  0  0  0  0  0  0  0
  167.6427  150.5071  125.4797 C   0  0  0  0  0  0  0  0  0  0  0  0
  165.7196  154.5667  127.7285 C   0  0  0  0  0  0  0  0  0  0  0  0
  166.5251  155.6678  127.8403 O   0  0  0  0  0  0  0  0  0  0  0  0
  164.7206  154.4136  128.4373 O   0  0  0  0  0  0  0  0  0  0  0  0
  165.9627  146.8769  126.0398 C   0  0  2  0  0  0  0  0  0  0  0  0
  164.5570  146.5111  126.2702 C   0  0  0  0  0  0  0  0  0  0  0  0
  166.3315  146.2689  124.6726 C   0  0  0  0  0  0  0  0  0  0  0  0
  166.9371  144.9420  124.7179 C   0  0  1  0  0  0  0  0  0  0  0  0
  168.3067  145.0117  124.3589 O   0  0  0  0  0  0  0  0  0  0  0  0
  166.7930  144.1495  125.9613 C   0  0  2  0  0  0  0  0  0  0  0  0
  165.6452  143.3192  125.9758 O   0  0  0  0  0  0  0  0  0  0  0  0
  166.9781  144.9084  127.2450 C   0  0  2  0  0  0  0  0  0  0  0  0
  165.9983  144.4839  128.3156 C   0  0  0  0  0  0  0  0  0  0  0  0
  168.3515  144.5463  127.8116 C   0  0  0  0  0  0  0  0  0  0  0  0
  169.2925  145.2512  127.0163 O   0  0  0  0  0  0  0  0  0  0  0  0
  1  2  1  1
  2  3  1  0
  3  4  1  0
  4  5  1  1
  4  6  1  0
  6  7  1  1
  7  8  1  0
  8  9  2  0
 10  9  1  6
 10 11  1  0
 11 12  1  1
 11 13  1  0
 13 14  1  6
 13 15  1  0
 15 16  1  0
 16 17  1  0
 17 18  1  0
 18 19  1  0
 19 20  1  0
 20 21  1  6
 17 22  1  1
 22 23  1  0
 22 24  2  0
  6 25  1  0
 25 26  1  1
 25 27  1  0
 27 28  1  0
 28 29  1  1
 28 30  1  0
 30 31  1  1
 30 32  1  0
 32 33  1  1
 32 34  1  0
 34 35  1  0
 25  1  1  0
 32  1  1  0
 20  4  1  0
 20  9  1  0
 17 10  1  0
M  END
$$$$
