
     RDKit          3D

 35 39  0  0  0  0  0  0  0  0999 V2000
  128.4715  149.9213  135.2178 C   0  0  2  0  0  0  0  0  0  0  0  0
  128.3619  149.4454  133.8151 C   0  0  0  0  0  0  0  0  0  0  0  0
  128.9676  148.0817  133.6774 C   0  0  0  0  0  0  0  0  0  0  0  0
  128.3114  147.1200  134.6476 C   0  0  2  0  0  0  0  0  0  0  0  0
  126.9092  146.9274  134.1204 C   0  0  0  0  0  0  0  0  0  0  0  0
  128.3869  147.5839  136.0471 C   0  0  2  0  0  0  0  0  0  0  0  0
  127.8010  146.6036  137.0066 C   0  0  0  0  0  0  0  0  0  0  0  0
  127.5798  145.2650  136.4258 C   0  0  0  0  0  0  0  0  0  0  0  0
  128.1422  144.8230  135.2892 C   0  0  0  0  0  0  0  0  0  0  0  0
  127.8928  143.4614  134.7296 C   0  0  2  0  0  0  0  0  0  0  0  0
  127.3783  142.5409  135.7937 C   0  0  1  0  0  0  0  0  0  0  0  0
  125.8560  142.7242  135.8507 C   0  0  0  0  0  0  0  0  0  0  0  0
  127.6172  141.0878  135.6118 C   0  0  2  0  0  0  0  0  0  0  0  0
  127.3646  140.4535  137.0073 C   0  0  0  0  0  0  0  0  0  0  0  0
  129.0172  140.7818  135.2359 C   0  0  0  0  0  0  0  0  0  0  0  0
  129.8386  142.0157  134.9379 C   0  0  0  0  0  0  0  0  0  0  0  0
  129.0184  142.8589  133.9814 C   0  0  2  0  0  0  0  0  0  0  0  0
  129.8481  143.8796  133.2739 C   0  0  0  0  0  0  0  0  0  0  0  0
  129.3180  145.2705  133.2507 C   0  0  0  0  0  0  0  0  0  0  0  0
  129.0438  145.7701  134.5981 C   0  0  1  0  0  0  0  0  0  0  0  0
  130.3783  145.9180  135.3304 C   0  0  0  0  0  0  0  0  0  0  0  0
  128.5262  141.9301  132.9009 C   0  0  0  0  0  0  0  0  0  0  0  0
  127.2025  141.9414  132.5525 O   0  0  0  0  0  0  0  0  0  0  0  0
  129.3389  141.1780  132.3552 O   0  0  0  0  0  0  0  0  0  0  0  0
  127.9742  149.0177  136.2930 C   0  0  2  0  0  0  0  0  0  0  0  0
  126.5456  149.0332  136.6419 C   0  0  0  0  0  0  0  0  0  0  0  0
  128.7178  149.4640  137.5669 C   0  0  0  0  0  0  0  0  0  0  0  0
  129.0048  150.8917  137.6592 C   0  0  1  0  0  0  0  0  0  0  0  0
  130.3951  151.1266  137.5137 O   0  0  0  0  0  0  0  0  0  0  0  0
  128.2539  151.8145  136.7762 C   0  0  2  0  0  0  0  0  0  0  0  0
  127.0558  152.3033  137.3529 O   0  0  0  0  0  0  0  0  0  0  0  0
  128.0717  151.3569  135.3565 C   0  0  2  0  0  0  0  0  0  0  0  0
  126.6975  151.6809  134.8151 C   0  0  0  0  0  0  0  0  0  0  0  0
  129.0329  152.1576  134.4772 C   0  0  0  0  0  0  0  0  0  0  0  0
  130.0143  151.2304  134.0388 O   0  0  0  0  0  0  0  0  0  0  0  0
  1  2  1  6
  2  3  1  0
  3  4  1  0
  4  5  1  6
  4  6  1  0
  6  7  1  1
  7  8  1  0
  8  9  2  0
 10  9  1  1
 10 11  1  0
 11 12  1  6
 11 13  1  0
 13 14  1  1
 13 15  1  0
 15 16  1  0
 16 17  1  0
 17 18  1  0
 18 19  1  0
 19 20  1  0
 20 21  1  1
 17 22  1  6
 22 23  1  0
 22 24  2  0
  6 25  1  0
 25 26  1  1
 25 27  1  0
 27 28  1  0
 28 29  1  6
 28 30  1  0
 30 31  1  1
 30 32  1  0
 32 33  1  6
 32 34  1  0
 34 35  1  0
 25  1  1  0
 32  1  1  0
 20  4  1  0
 20  9  1  0
 17 10  1  0
M  END
$$$$
