
     RDKit          3D

 35 39  0  0  0  0  0  0  0  0999 V2000
  128.8105  139.0579  134.0383 C   0  0  2  0  0  0  0  0  0  0  0  0
  129.8563  139.6044  134.9403 C   0  0  0  0  0  0  0  0  0  0  0  0
  130.1646  141.0262  134.5816 C   0  0  0  0  0  0  0  0  0  0  0  0
  128.8993  141.8596  134.6221 C   0  0  2  0  0  0  0  0  0  0  0  0
  128.5339  141.9464  136.0850 C   0  0  0  0  0  0  0  0  0  0  0  0
  127.8359  141.3219  133.7505 C   0  0  2  0  0  0  0  0  0  0  0  0
  126.6167  142.1812  133.7399 C   0  0  0  0  0  0  0  0  0  0  0  0
  126.8329  143.5244  134.3117 C   0  0  0  0  0  0  0  0  0  0  0  0
  128.0368  144.0865  134.5078 C   0  0  0  0  0  0  0  0  0  0  0  0
  128.2173  145.4486  135.0921 C   0  0  2  0  0  0  0  0  0  0  0  0
  126.9578  146.2491  134.9608 C   0  0  1  0  0  0  0  0  0  0  0  0
  126.0831  145.9157  136.1766 C   0  0  0  0  0  0  0  0  0  0  0  0
  127.0891  147.7268  134.9339 C   0  0  2  0  0  0  0  0  0  0  0  0
  125.7320  148.2486  134.3866 C   0  0  0  0  0  0  0  0  0  0  0  0
  128.1459  148.1895  134.0042 C   0  0  0  0  0  0  0  0  0  0  0  0
  128.9772  147.0613  133.4364 C   0  0  0  0  0  0  0  0  0  0  0  0
  129.3974  146.2015  134.6123 C   0  0  2  0  0  0  0  0  0  0  0  0
  130.5488  145.3106  134.2781 C   0  0  0  0  0  0  0  0  0  0  0  0
  130.4180  143.8788  134.6637 C   0  0  0  0  0  0  0  0  0  0  0  0
  129.2068  143.2747  134.1084 C   0  0  1  0  0  0  0  0  0  0  0  0
  129.3608  143.2135  132.5880 C   0  0  0  0  0  0  0  0  0  0  0  0
  129.9176  147.1413  135.6698 C   0  0  0  0  0  0  0  0  0  0  0  0
  129.5408  146.9650  136.9739 O   0  0  0  0  0  0  0  0  0  0  0  0
  130.6763  148.0527  135.3268 O   0  0  0  0  0  0  0  0  0  0  0  0
  127.5532  139.8427  133.8859 C   0  0  2  0  0  0  0  0  0  0  0  0
  126.4725  139.6674  134.8678 C   0  0  0  0  0  0  0  0  0  0  0  0
  126.9631  139.3949  132.5344 C   0  0  0  0  0  0  0  0  0  0  0  0
  127.1956  137.9988  132.1791 C   0  0  1  0  0  0  0  0  0  0  0  0
  128.1134  137.9094  131.1025 O   0  0  0  0  0  0  0  0  0  0  0  0
  127.6021  137.0622  133.2526 C   0  0  2  0  0  0  0  0  0  0  0  0
  126.5112  136.4255  133.8941 O   0  0  0  0  0  0  0  0  0  0  0  0
  128.6234  137.5845  134.2233 C   0  0  2  0  0  0  0  0  0  0  0  0
  128.3392  137.1617  135.6470 C   0  0  0  0  0  0  0  0  0  0  0  0
  129.9666  136.9353  133.8875 C   0  0  0  0  0  0  0  0  0  0  0  0
  130.9507  137.9140  134.1851 O   0  0  0  0  0  0  0  0  0  0  0  0
  1  2  1  1
  2  3  1  0
  3  4  1  0
  4  5  1  1
  4  6  1  0
  6  7  1  1
  7  8  1  0
  8  9  2  0
 10  9  1  6
 10 11  1  0
 11 12  1  1
 11 13  1  0
 13 14  1  6
 13 15  1  0
 15 16  1  0
 16 17  1  0
 17 18  1  0
 18 19  1  0
 19 20  1  0
 20 21  1  6
 17 22  1  1
 22 23  1  0
 22 24  2  0
  6 25  1  0
 25 26  1  1
 25 27  1  0
 27 28  1  0
 28 29  1  6
 28 30  1  0
 30 31  1  1
 30 32  1  0
 32 33  1  1
 32 34  1  0
 34 35  1  0
 25  1  1  0
 32  1  1  0
 20  4  1  0
 20  9  1  0
 17 10  1  0
M  END
$$$$
