
     RDKit          3D

 35 39  0  0  0  0  0  0  0  0999 V2000
  130.9482  137.0773  128.0208 C   0  0  2  0  0  0  0  0  0  0  0  0
  129.9066  138.0994  128.2974 C   0  0  0  0  0  0  0  0  0  0  0  0
  129.4443  138.0025  129.7195 C   0  0  0  0  0  0  0  0  0  0  0  0
  130.6242  138.1367  130.6611 C   0  0  2  0  0  0  0  0  0  0  0  0
  131.0604  139.5776  130.5397 C   0  0  0  0  0  0  0  0  0  0  0  0
  131.6840  137.1454  130.3898 C   0  0  2  0  0  0  0  0  0  0  0  0
  132.8129  137.2356  131.3607 C   0  0  0  0  0  0  0  0  0  0  0  0
  132.5013  138.0376  132.5597 C   0  0  0  0  0  0  0  0  0  0  0  0
  131.2620  138.3736  132.9531 C   0  0  0  0  0  0  0  0  0  0  0  0
  130.9847  139.1898  134.1723 C   0  0  2  0  0  0  0  0  0  0  0  0
  132.1525  139.1496  135.1098 C   0  0  1  0  0  0  0  0  0  0  0  0
  133.1214  140.2552  134.6705 C   0  0  0  0  0  0  0  0  0  0  0  0
  131.8790  139.3819  136.5495 C   0  0  2  0  0  0  0  0  0  0  0  0
  133.1475  138.8805  137.2934 C   0  0  0  0  0  0  0  0  0  0  0  0
  130.7328  138.5871  137.0487 C   0  0  0  0  0  0  0  0  0  0  0  0
  129.9830  137.8664  135.9512 C   0  0  0  0  0  0  0  0  0  0  0  0
  129.7131  138.8923  134.8681 C   0  0  2  0  0  0  0  0  0  0  0  0
  128.6355  138.4547  133.9310 C   0  0  0  0  0  0  0  0  0  0  0  0
  128.9239  138.5832  132.4763 C   0  0  0  0  0  0  0  0  0  0  0  0
  130.1546  137.8861  132.1025 C   0  0  1  0  0  0  0  0  0  0  0  0
  129.9228  136.3849  132.2805 C   0  0  0  0  0  0  0  0  0  0  0  0
  129.1650  140.1149  135.5589 C   0  0  0  0  0  0  0  0  0  0  0  0
  129.7144  141.3411  135.2977 O   0  0  0  0  0  0  0  0  0  0  0  0
  128.2267  139.9745  136.3488 O   0  0  0  0  0  0  0  0  0  0  0  0
  132.1141  137.0136  128.9462 C   0  0  2  0  0  0  0  0  0  0  0  0
  133.2596  137.9084  128.7225 C   0  0  0  0  0  0  0  0  0  0  0  0
  132.6682  135.5836  128.7943 C   0  0  0  0  0  0  0  0  0  0  0  0
  132.5511  135.0029  127.4607 C   0  0  1  0  0  0  0  0  0  0  0  0
  131.5876  133.9631  127.4576 O   0  0  0  0  0  0  0  0  0  0  0  0
  132.2964  135.9144  126.3208 C   0  0  2  0  0  0  0  0  0  0  0  0
  133.4773  136.3944  125.7026 O   0  0  0  0  0  0  0  0  0  0  0  0
  131.2854  136.9990  126.5648 C   0  0  2  0  0  0  0  0  0  0  0  0
  131.6875  138.3169  125.9418 C   0  0  0  0  0  0  0  0  0  0  0  0
  129.9939  136.6087  125.8449 C   0  0  0  0  0  0  0  0  0  0  0  0
  129.2683  135.8086  126.7659 O   0  0  0  0  0  0  0  0  0  0  0  0
  1  2  1  6
  2  3  1  0
  3  4  1  0
  4  5  1  1
  4  6  1  0
  6  7  1  1
  7  8  1  0
  8  9  2  0
 10  9  1  6
 10 11  1  0
 11 12  1  6
 11 13  1  0
 13 14  1  1
 13 15  1  0
 15 16  1  0
 16 17  1  0
 17 18  1  0
 18 19  1  0
 19 20  1  0
 20 21  1  6
 17 22  1  1
 22 23  1  0
 22 24  2  0
  6 25  1  0
 25 26  1  6
 25 27  1  0
 27 28  1  0
 28 29  1  1
 28 30  1  0
 30 31  1  1
 30 32  1  0
 32 33  1  6
 32 34  1  0
 34 35  1  0
 25  1  1  0
 32  1  1  0
 20  4  1  0
 20  9  1  0
 17 10  1  0
M  END
$$$$
