
     RDKit          3D

 35 39  0  0  0  0  0  0  0  0999 V2000
  147.6705  169.6405  129.7165 C   0  0  2  0  0  0  0  0  0  0  0  0
  148.4197  168.9570  128.6313 C   0  0  0  0  0  0  0  0  0  0  0  0
  148.9889  167.6618  129.1250 C   0  0  0  0  0  0  0  0  0  0  0  0
  147.8840  166.7854  129.6802 C   0  0  2  0  0  0  0  0  0  0  0  0
  147.0733  166.3672  128.4764 C   0  0  0  0  0  0  0  0  0  0  0  0
  147.1094  167.4529  130.7451 C   0  0  2  0  0  0  0  0  0  0  0  0
  146.0674  166.5643  131.3364 C   0  0  0  0  0  0  0  0  0  0  0  0
  146.2373  165.1396  130.9908 C   0  0  0  0  0  0  0  0  0  0  0  0
  147.3670  164.6012  130.5037 C   0  0  0  0  0  0  0  0  0  0  0  0
  147.5015  163.1538  130.1624 C   0  0  2  0  0  0  0  0  0  0  0  0
  146.4544  162.3470  130.8674 C   0  0  1  0  0  0  0  0  0  0  0  0
  145.1985  162.3702  129.9862 C   0  0  0  0  0  0  0  0  0  0  0  0
  146.7556  160.9176  131.1272 C   0  0  2  0  0  0  0  0  0  0  0  0
  145.7208  160.4687  132.1956 C   0  0  0  0  0  0  0  0  0  0  0  0
  148.1037  160.7142  131.7072 C   0  0  0  0  0  0  0  0  0  0  0  0
  148.9398  161.9737  131.7302 C   0  0  0  0  0  0  0  0  0  0  0  0
  148.8516  162.5751  130.3413 C   0  0  2  0  0  0  0  0  0  0  0  0
  149.9389  163.5664  130.0845 C   0  0  0  0  0  0  0  0  0  0  0  0
  149.5264  164.8733  129.5033 C   0  0  0  0  0  0  0  0  0  0  0  0
  148.5023  165.5303  130.3154 C   0  0  1  0  0  0  0  0  0  0  0  0
  149.1363  165.9269  131.6495 C   0  0  0  0  0  0  0  0  0  0  0  0
  149.1018  161.4515  129.3680 C   0  0  0  0  0  0  0  0  0  0  0  0
  148.2797  161.3020  128.2838 O   0  0  0  0  0  0  0  0  0  0  0  0
  150.0505  160.6900  129.5782 O   0  0  0  0  0  0  0  0  0  0  0  0
  146.6306  168.8537  130.4373 C   0  0  2  0  0  0  0  0  0  0  0  0
  145.2759  168.7645  129.8718 C   0  0  0  0  0  0  0  0  0  0  0  0
  146.4671  169.5582  131.7981 C   0  0  0  0  0  0  0  0  0  0  0  0
  146.6414  171.0069  131.7805 C   0  0  1  0  0  0  0  0  0  0  0  0
  147.8439  171.3678  132.4388 O   0  0  0  0  0  0  0  0  0  0  0  0
  146.5650  171.7048  130.4759 C   0  0  2  0  0  0  0  0  0  0  0  0
  145.2591  172.1390  130.1397 O   0  0  0  0  0  0  0  0  0  0  0  0
  147.2660  171.0289  129.3313 C   0  0  2  0  0  0  0  0  0  0  0  0
  146.4859  171.1198  128.0391 C   0  0  0  0  0  0  0  0  0  0  0  0
  148.5614  171.7933  129.0559 C   0  0  0  0  0  0  0  0  0  0  0  0
  149.6122  170.8847  129.3480 O   0  0  0  0  0  0  0  0  0  0  0  0
  1  2  1  6
  2  3  1  0
  3  4  1  0
  4  5  1  6
  4  6  1  0
  6  7  1  6
  7  8  1  0
  8  9  2  0
 10  9  1  1
 10 11  1  0
 11 12  1  6
 11 13  1  0
 13 14  1  1
 13 15  1  0
 15 16  1  0
 16 17  1  0
 17 18  1  0
 18 19  1  0
 19 20  1  0
 20 21  1  1
 17 22  1  6
 22 23  1  0
 22 24  2  0
  6 25  1  0
 25 26  1  6
 25 27  1  0
 27 28  1  0
 28 29  1  6
 28 30  1  0
 30 31  1  6
 30 32  1  0
 32 33  1  6
 32 34  1  0
 34 35  1  0
 25  1  1  0
 32  1  1  0
 20  4  1  0
 20  9  1  0
 17 10  1  0
M  END
$$$$
