
     RDKit          3D

 35 39  0  0  0  0  0  0  0  0999 V2000
  148.5304  166.5727  128.6088 C   0  0  2  0  0  0  0  0  0  0  0  0
  148.2076  165.5805  129.6659 C   0  0  0  0  0  0  0  0  0  0  0  0
  148.1939  166.2378  131.0125 C   0  0  0  0  0  0  0  0  0  0  0  0
  147.2178  167.3972  131.0162 C   0  0  2  0  0  0  0  0  0  0  0  0
  145.8514  166.7593  130.9319 C   0  0  0  0  0  0  0  0  0  0  0  0
  147.5046  168.3855  129.9576 C   0  0  2  0  0  0  0  0  0  0  0  0
  146.5847  169.5587  130.0067 C   0  0  0  0  0  0  0  0  0  0  0  0
  145.8199  169.6604  131.2648 C   0  0  0  0  0  0  0  0  0  0  0  0
  146.1281  169.0134  132.4005 C   0  0  0  0  0  0  0  0  0  0  0  0
  145.3284  169.1387  133.6552 C   0  0  2  0  0  0  0  0  0  0  0  0
  144.5002  170.3868  133.6295 C   0  0  1  0  0  0  0  0  0  0  0  0
  143.1906  170.0438  132.9074 C   0  0  0  0  0  0  0  0  0  0  0  0
  144.1147  170.9760  134.9355 C   0  0  2  0  0  0  0  0  0  0  0  0
  143.6494  172.4223  134.6109 C   0  0  0  0  0  0  0  0  0  0  0  0
  145.2563  171.0809  135.8741 C   0  0  0  0  0  0  0  0  0  0  0  0
  146.5079  170.3984  135.3703 C   0  0  0  0  0  0  0  0  0  0  0  0
  146.0907  169.0130  134.9173 C   0  0  2  0  0  0  0  0  0  0  0  0
  147.2540  168.0843  134.7944 C   0  0  0  0  0  0  0  0  0  0  0  0
  147.3448  167.2916  133.5377 C   0  0  0  0  0  0  0  0  0  0  0  0
  147.3269  168.1485  132.3521 C   0  0  1  0  0  0  0  0  0  0  0  0
  148.6171  168.9697  132.3400 C   0  0  0  0  0  0  0  0  0  0  0  0
  145.2387  168.4370  136.0195 C   0  0  0  0  0  0  0  0  0  0  0  0
  145.7349  168.3751  137.2937 O   0  0  0  0  0  0  0  0  0  0  0  0
  144.1062  168.0334  135.7392 O   0  0  0  0  0  0  0  0  0  0  0  0
  147.7251  167.8255  128.5705 C   0  0  2  0  0  0  0  0  0  0  0  0
  146.4371  167.8311  127.8605 C   0  0  0  0  0  0  0  0  0  0  0  0
  148.6106  168.8483  127.8324 C   0  0  0  0  0  0  0  0  0  0  0  0
  149.4628  168.2996  126.7827 C   0  0  1  0  0  0  0  0  0  0  0  0
  150.8232  168.3401  127.1793 O   0  0  0  0  0  0  0  0  0  0  0  0
  149.1431  166.9526  126.2550 C   0  0  2  0  0  0  0  0  0  0  0  0
  148.2646  166.9718  125.1437 O   0  0  0  0  0  0  0  0  0  0  0  0
  148.7613  165.9228  127.2805 C   0  0  2  0  0  0  0  0  0  0  0  0
  147.6333  165.0305  126.8137 C   0  0  0  0  0  0  0  0  0  0  0  0
  149.9504  164.9791  127.4647 C   0  0  0  0  0  0  0  0  0  0  0  0
  150.3600  165.1372  128.8146 O   0  0  0  0  0  0  0  0  0  0  0  0
  1  2  1  1
  2  3  1  0
  3  4  1  0
  4  5  1  6
  4  6  1  0
  6  7  1  6
  7  8  1  0
  8  9  2  0
 10  9  1  6
 10 11  1  0
 11 12  1  1
 11 13  1  0
 13 14  1  6
 13 15  1  0
 15 16  1  0
 16 17  1  0
 17 18  1  0
 18 19  1  0
 19 20  1  0
 20 21  1  6
 17 22  1  1
 22 23  1  0
 22 24  2  0
  6 25  1  0
 25 26  1  6
 25 27  1  0
 27 28  1  0
 28 29  1  1
 28 30  1  0
 30 31  1  6
 30 32  1  0
 32 33  1  6
 32 34  1  0
 34 35  1  0
 25  1  1  0
 32  1  1  0
 20  4  1  0
 20  9  1  0
 17 10  1  0
M  END
$$$$
