
     RDKit          3D

 35 39  0  0  0  0  0  0  0  0999 V2000
  172.3691  165.0873  108.7689 C   0  0  2  0  0  0  0  0  0  0  0  0
  171.3657  164.1734  109.3723 C   0  0  0  0  0  0  0  0  0  0  0  0
  172.0385  163.1743  110.2637 C   0  0  0  0  0  0  0  0  0  0  0  0
  172.8542  163.8878  111.3232 C   0  0  2  0  0  0  0  0  0  0  0  0
  171.8359  164.5302  112.2350 C   0  0  0  0  0  0  0  0  0  0  0  0
  173.8432  164.8204  110.7473 C   0  0  2  0  0  0  0  0  0  0  0  0
  174.6905  165.4699  111.7891 C   0  0  0  0  0  0  0  0  0  0  0  0
  174.6064  164.8202  113.1116 C   0  0  0  0  0  0  0  0  0  0  0  0
  174.1230  163.5859  113.3270 C   0  0  0  0  0  0  0  0  0  0  0  0
  174.0510  162.9613  114.6812 C   0  0  2  0  0  0  0  0  0  0  0  0
  174.9942  163.6414  115.6257 C   0  0  1  0  0  0  0  0  0  0  0  0
  174.2506  164.8473  116.2149 C   0  0  0  0  0  0  0  0  0  0  0  0
  175.4899  162.8521  116.7801 C   0  0  2  0  0  0  0  0  0  0  0  0
  176.7192  163.6370  117.3153 C   0  0  0  0  0  0  0  0  0  0  0  0
  175.9645  161.5042  116.3889 C   0  0  0  0  0  0  0  0  0  0  0  0
  175.6672  161.1621  114.9464 C   0  0  0  0  0  0  0  0  0  0  0  0
  174.2046  161.4900  114.7184 C   0  0  2  0  0  0  0  0  0  0  0  0
  173.6604  160.8257  113.4963 C   0  0  0  0  0  0  0  0  0  0  0  0
  172.8847  161.6844  112.5598 C   0  0  0  0  0  0  0  0  0  0  0  0
  173.6529  162.8533  112.1312 C   0  0  1  0  0  0  0  0  0  0  0  0
  174.8197  162.3655  111.2713 C   0  0  0  0  0  0  0  0  0  0  0  0
  173.4424  160.8862  115.8703 C   0  0  0  0  0  0  0  0  0  0  0  0
  172.4180  161.5895  116.4443 O   0  0  0  0  0  0  0  0  0  0  0  0
  173.7668  159.7633  116.2675 O   0  0  0  0  0  0  0  0  0  0  0  0
  173.3233  165.7673  109.6893 C   0  0  2  0  0  0  0  0  0  0  0  0
  172.9190  167.0184  110.3481 C   0  0  0  0  0  0  0  0  0  0  0  0
  174.5352  166.1333  108.8105 C   0  0  0  0  0  0  0  0  0  0  0  0
  174.2265  166.4783  107.4267 C   0  0  1  0  0  0  0  0  0  0  0  0
  174.6846  165.4625  106.5504 O   0  0  0  0  0  0  0  0  0  0  0  0
  172.8268  166.8268  107.0883 C   0  0  2  0  0  0  0  0  0  0  0  0
  172.5426  168.2100  107.2021 O   0  0  0  0  0  0  0  0  0  0  0  0
  171.7687  165.9622  107.7135 C   0  0  2  0  0  0  0  0  0  0  0  0
  170.5645  166.7565  108.1668 C   0  0  0  0  0  0  0  0  0  0  0  0
  171.2291  165.0240  106.6332 C   0  0  0  0  0  0  0  0  0  0  0  0
  171.2711  165.7668  105.4243 O   0  0  0  0  0  0  0  0  0  0  0  0
  1  2  1  1
  2  3  1  0
  3  4  1  0
  4  5  1  1
  4  6  1  0
  6  7  1  1
  7  8  1  0
  8  9  2  0
 10  9  1  6
 10 11  1  0
 11 12  1  1
 11 13  1  0
 13 14  1  6
 13 15  1  0
 15 16  1  0
 16 17  1  0
 17 18  1  0
 18 19  1  0
 19 20  1  0
 20 21  1  6
 17 22  1  1
 22 23  1  0
 22 24  2  0
  6 25  1  0
 25 26  1  1
 25 27  1  0
 27 28  1  0
 28 29  1  6
 28 30  1  0
 30 31  1  1
 30 32  1  0
 32 33  1  1
 32 34  1  0
 34 35  1  0
 25  1  1  0
 32  1  1  0
 20  4  1  0
 20  9  1  0
 17 10  1  0
M  END
$$$$
