
     RDKit          3D

 35 39  0  0  0  0  0  0  0  0999 V2000
  170.2592  160.9828  110.7109 C   0  0  2  0  0  0  0  0  0  0  0  0
  170.4901  161.4549  112.1001 C   0  0  0  0  0  0  0  0  0  0  0  0
  171.8175  162.1424  112.2044 C   0  0  0  0  0  0  0  0  0  0  0  0
  171.8945  163.2804  111.2065 C   0  0  2  0  0  0  0  0  0  0  0  0
  170.9282  164.3201  111.7226 C   0  0  0  0  0  0  0  0  0  0  0  0
  171.6446  162.8390  109.8200 C   0  0  2  0  0  0  0  0  0  0  0  0
  171.7881  163.9478  108.8326 C   0  0  0  0  0  0  0  0  0  0  0  0
  172.4608  165.1433  109.3770 C   0  0  0  0  0  0  0  0  0  0  0  0
  173.1910  165.1622  110.5039 C   0  0  0  0  0  0  0  0  0  0  0  0
  173.8557  166.3930  111.0263 C   0  0  2  0  0  0  0  0  0  0  0  0
  174.0162  167.4080  109.9362 C   0  0  1  0  0  0  0  0  0  0  0  0
  172.7133  168.2163  109.8777 C   0  0  0  0  0  0  0  0  0  0  0  0
  175.1140  168.3956  110.0807 C   0  0  2  0  0  0  0  0  0  0  0  0
  175.2953  169.0160  108.6680 C   0  0  0  0  0  0  0  0  0  0  0  0
  176.4024  167.7669  110.4543 C   0  0  0  0  0  0  0  0  0  0  0  0
  176.2751  166.2977  110.7880 C   0  0  0  0  0  0  0  0  0  0  0  0
  175.1205  166.1757  111.7630 C   0  0  2  0  0  0  0  0  0  0  0  0
  175.1385  164.8771  112.5007 C   0  0  0  0  0  0  0  0  0  0  0  0
  173.8553  164.1248  112.5583 C   0  0  0  0  0  0  0  0  0  0  0  0
  173.3109  163.8757  111.2234 C   0  0  1  0  0  0  0  0  0  0  0  0
  174.2496  162.9084  110.5007 C   0  0  0  0  0  0  0  0  0  0  0  0
  175.3320  167.2328  112.8166 C   0  0  0  0  0  0  0  0  0  0  0  0
  174.2499  167.7724  113.4581 O   0  0  0  0  0  0  0  0  0  0  0  0
  176.4867  167.5857  113.0739 O   0  0  0  0  0  0  0  0  0  0  0  0
  170.4224  161.9737  109.6103 C   0  0  2  0  0  0  0  0  0  0  0  0
  169.2937  162.8474  109.2560 C   0  0  0  0  0  0  0  0  0  0  0  0
  170.7063  161.1309  108.3517 C   0  0  0  0  0  0  0  0  0  0  0  0
  170.0357  159.8360  108.2983 C   0  0  1  0  0  0  0  0  0  0  0  0
  170.9752  158.7862  108.4556 O   0  0  0  0  0  0  0  0  0  0  0  0
  168.8844  159.6068  109.2022 C   0  0  2  0  0  0  0  0  0  0  0  0
  167.6364  159.9621  108.6336 O   0  0  0  0  0  0  0  0  0  0  0  0
  169.0474  160.1105  110.6085 C   0  0  2  0  0  0  0  0  0  0  0  0
  167.7800  160.7303  111.1526 C   0  0  0  0  0  0  0  0  0  0  0  0
  169.3079  158.9051  111.5126 C   0  0  0  0  0  0  0  0  0  0  0  0
  170.7199  158.7892  111.5999 O   0  0  0  0  0  0  0  0  0  0  0  0
  1  2  1  1
  2  3  1  0
  3  4  1  0
  4  5  1  1
  4  6  1  0
  6  7  1  6
  7  8  1  0
  8  9  2  0
 10  9  1  6
 10 11  1  0
 11 12  1  1
 11 13  1  0
 13 14  1  6
 13 15  1  0
 15 16  1  0
 16 17  1  0
 17 18  1  0
 18 19  1  0
 19 20  1  0
 20 21  1  6
 17 22  1  1
 22 23  1  0
 22 24  2  0
  6 25  1  0
 25 26  1  6
 25 27  1  0
 27 28  1  0
 28 29  1  1
 28 30  1  0
 30 31  1  6
 30 32  1  0
 32 33  1  1
 32 34  1  0
 34 35  1  0
 25  1  1  0
 32  1  1  0
 20  4  1  0
 20  9  1  0
 17 10  1  0
M  END
$$$$
