
     RDKit          3D

 35 39  0  0  0  0  0  0  0  0999 V2000
  168.8470  146.2258  126.3452 C   0  0  2  0  0  0  0  0  0  0  0  0
  168.4262  146.3002  127.7677 C   0  0  0  0  0  0  0  0  0  0  0  0
  168.3659  147.7273  128.2207 C   0  0  0  0  0  0  0  0  0  0  0  0
  167.4399  148.5207  127.3208 C   0  0  2  0  0  0  0  0  0  0  0  0
  166.0549  148.0038  127.6304 C   0  0  0  0  0  0  0  0  0  0  0  0
  167.8247  148.4423  125.8977 C   0  0  2  0  0  0  0  0  0  0  0  0
  166.9527  149.2786  125.0229 C   0  0  0  0  0  0  0  0  0  0  0  0
  166.1251  150.2495  125.7649 C   0  0  0  0  0  0  0  0  0  0  0  0
  166.3438  150.6262  127.0353 C   0  0  0  0  0  0  0  0  0  0  0  0
  165.4824  151.6105  127.7555 C   0  0  2  0  0  0  0  0  0  0  0  0
  164.7092  152.4456  126.7814 C   0  0  1  0  0  0  0  0  0  0  0  0
  163.4279  151.6723  126.4425 C   0  0  0  0  0  0  0  0  0  0  0  0
  164.2775  153.7923  127.2304 C   0  0  2  0  0  0  0  0  0  0  0  0
  163.8908  154.5524  125.9318 C   0  0  0  0  0  0  0  0  0  0  0  0
  165.3693  154.5554  127.8788 C   0  0  0  0  0  0  0  0  0  0  0  0
  166.6173  153.7334  128.1087 C   0  0  0  0  0  0  0  0  0  0  0  0
  166.1686  152.4438  128.7676 C   0  0  2  0  0  0  0  0  0  0  0  0
  167.2977  151.7258  129.4315 C   0  0  0  0  0  0  0  0  0  0  0  0
  167.4243  150.2709  129.1434 C   0  0  0  0  0  0  0  0  0  0  0  0
  167.5066  150.0064  127.7069 C   0  0  1  0  0  0  0  0  0  0  0  0
  168.8284  150.5796  127.1935 C   0  0  0  0  0  0  0  0  0  0  0  0
  165.2346  152.8326  129.8851 C   0  0  0  0  0  0  0  0  0  0  0  0
  165.7353  153.4508  130.9990 O   0  0  0  0  0  0  0  0  0  0  0  0
  164.0324  152.5801  129.7631 O   0  0  0  0  0  0  0  0  0  0  0  0
  168.0974  147.0554  125.3605 C   0  0  2  0  0  0  0  0  0  0  0  0
  166.8516  146.5322  124.7800 C   0  0  0  0  0  0  0  0  0  0  0  0
  169.0635  147.2390  124.1739 C   0  0  0  0  0  0  0  0  0  0  0  0
  169.9485  146.1106  123.9040 C   0  0  1  0  0  0  0  0  0  0  0  0
  171.2857  146.4401  124.2401 O   0  0  0  0  0  0  0  0  0  0  0  0
  169.6028  144.7947  124.4903 C   0  0  2  0  0  0  0  0  0  0  0  0
  168.7879  143.9954  123.6511 O   0  0  0  0  0  0  0  0  0  0  0  0
  169.1233  144.8195  125.9142 C   0  0  2  0  0  0  0  0  0  0  0  0
  167.9865  143.8529  126.1599 C   0  0  0  0  0  0  0  0  0  0  0  0
  170.2605  144.3132  126.8024 C   0  0  0  0  0  0  0  0  0  0  0  0
  170.9700  145.4716  127.2144 O   0  0  0  0  0  0  0  0  0  0  0  0
  1  2  1  1
  2  3  1  0
  3  4  1  0
  4  5  1  6
  4  6  1  0
  6  7  1  6
  7  8  1  0
  8  9  2  0
 10  9  1  6
 10 11  1  0
 11 12  1  1
 11 13  1  0
 13 14  1  6
 13 15  1  0
 15 16  1  0
 16 17  1  0
 17 18  1  0
 18 19  1  0
 19 20  1  0
 20 21  1  6
 17 22  1  1
 22 23  1  0
 22 24  2  0
  6 25  1  0
 25 26  1  6
 25 27  1  0
 27 28  1  0
 28 29  1  1
 28 30  1  0
 30 31  1  6
 30 32  1  0
 32 33  1  6
 32 34  1  0
 34 35  1  0
 25  1  1  0
 32  1  1  0
 20  4  1  0
 20  9  1  0
 17 10  1  0
M  END
$$$$
