
     RDKit          3D

 40 44  0  0  0  0  0  0  0  0999 V2000
  134.1503  164.9308  155.5530 C   0  0  2  0  0  0  0  0  0  0  0  0
  135.4242  165.6186  155.7905 C   0  0  0  0  0  0  0  0  0  0  0  0
  136.4867  164.8482  156.4676 C   0  0  0  0  0  0  0  0  0  0  0  0
  137.7145  165.4918  156.7268 C   0  0  0  0  0  0  0  0  0  0  0  0
  137.8273  166.7967  156.3283 F   0  0  0  0  0  0  0  0  0  0  0  0
  138.7375  164.8314  157.3480 C   0  0  0  0  0  0  0  0  0  0  0  0
  138.6451  163.5187  157.7573 C   0  0  0  0  0  0  0  0  0  0  0  0
  139.7042  162.8146  158.3992 N   0  0  0  0  0  0  0  0  0  0  0  0
  140.4128  161.7752  157.7540 C   0  0  0  0  0  0  0  0  0  0  0  0
  140.4687  161.7931  156.4900 O   0  0  0  0  0  0  0  0  0  0  0  0
  141.0435  160.7349  158.5809 C   0  0  0  0  0  0  0  0  0  0  0  0
  141.8922  159.8266  157.8987 N   0  0  0  0  0  0  0  0  0  0  0  0
  141.2980  158.6465  157.3801 C   0  0  0  0  0  0  0  0  0  0  0  0
  142.3138  157.5351  157.4659 C   0  0  0  0  0  0  0  0  0  0  0  0
  143.3816  158.0474  158.4010 C   0  0  0  0  0  0  0  0  0  0  0  0
  143.1450  159.5291  158.4927 C   0  0  0  0  0  0  0  0  0  0  0  0
  137.4505  162.8941  157.5051 C   0  0  0  0  0  0  0  0  0  0  0  0
  137.2393  161.5794  157.8690 O   0  0  0  0  0  0  0  0  0  0  0  0
  136.3831  163.5579  156.8651 C   0  0  0  0  0  0  0  0  0  0  0  0
  135.1449  162.8186  156.6289 C   0  0  0  0  0  0  0  0  0  0  0  0
  135.0398  161.6318  156.9911 O   0  0  0  0  0  0  0  0  0  0  0  0
  134.0603  163.5146  155.9650 C   0  0  0  0  0  0  0  0  0  0  0  0
  132.9145  162.8905  155.6896 C   0  0  0  0  0  0  0  0  0  0  0  0
  132.7665  161.5636  156.0506 O   0  0  0  0  0  0  0  0  0  0  0  0
  131.8636  163.6831  155.0010 C   0  0  2  0  0  0  0  0  0  0  0  0
  131.2422  164.6052  155.8390 O   0  0  0  0  0  0  0  0  0  0  0  0
  130.8029  162.7253  154.5941 C   0  0  0  0  0  0  0  0  0  0  0  0
  130.1897  162.1326  155.5114 O   0  0  0  0  0  0  0  0  0  0  0  0
  130.4531  162.4518  153.2166 C   0  0  0  0  0  0  0  0  0  0  0  0
  129.1523  161.8775  152.8554 C   0  0  0  0  0  0  0  0  0  0  0  0
  128.5675  160.9280  153.7338 N   0  0  0  0  0  0  0  0  0  0  0  0
  128.5604  162.2082  151.8004 O   0  0  0  0  0  0  0  0  0  0  0  0
  131.3483  162.7371  152.2875 C   0  0  0  0  0  0  0  0  0  0  0  0
  131.0278  162.4800  150.9540 O   0  0  0  0  0  0  0  0  0  0  0  0
  132.6426  163.3125  152.6991 C   0  0  1  0  0  0  0  0  0  0  0  0
  133.3878  163.8588  151.5810 N   0  0  0  0  0  0  0  0  0  0  0  0
  132.4908  164.4321  150.6270 C   0  0  0  0  0  0  0  0  0  0  0  0
  134.4492  164.7504  151.9802 C   0  0  0  0  0  0  0  0  0  0  0  0
  132.4657  164.3700  153.7918 C   0  0  2  0  0  0  0  0  0  0  0  0
  133.8182  164.9440  154.0449 C   0  0  0  0  0  0  0  0  0  0  0  0
  1  2  1  6
  2  3  1  0
  3  4  2  0
  4  5  1  0
  4  6  1  0
  6  7  2  0
  7  8  1  0
  8  9  1  0
  9 10  2  0
  9 11  1  0
 11 12  1  0
 12 13  1  0
 13 14  1  0
 14 15  1  0
 15 16  1  0
  7 17  1  0
 17 18  1  0
 17 19  2  0
 19 20  1  0
 20 21  2  0
 20 22  1  0
 22 23  2  0
 23 24  1  0
 23 25  1  0
 25 26  1  1
 25 27  1  0
 27 28  2  0
 27 29  1  0
 29 30  1  0
 30 31  1  0
 30 32  2  0
 29 33  2  0
 33 34  1  0
 33 35  1  0
 35 36  1  6
 36 37  1  0
 36 38  1  0
 35 39  1  0
 39 40  1  1
 22  1  1  0
 39 25  1  0
 40  1  1  0
 19  3  1  0
 16 12  1  0
M  END
$$$$
