
     RDKit          3D

 40 44  0  0  0  0  0  0  0  0999 V2000
  167.9791  150.9623  125.5817 C   0  0  2  0  0  0  0  0  0  0  0  0
  168.3059  150.4439  124.2488 C   0  0  0  0  0  0  0  0  0  0  0  0
  169.0829  149.1894  124.1887 C   0  0  0  0  0  0  0  0  0  0  0  0
  169.4284  148.6797  122.9200 C   0  0  0  0  0  0  0  0  0  0  0  0
  169.0143  149.3963  121.8295 F   0  0  0  0  0  0  0  0  0  0  0  0
  170.1443  147.5215  122.7984 C   0  0  0  0  0  0  0  0  0  0  0  0
  170.5710  146.7850  123.8822 C   0  0  0  0  0  0  0  0  0  0  0  0
  171.3113  145.5729  123.7721 N   0  0  0  0  0  0  0  0  0  0  0  0
  170.7392  144.3150  124.0707 C   0  0  0  0  0  0  0  0  0  0  0  0
  170.7710  143.9209  125.2728 O   0  0  0  0  0  0  0  0  0  0  0  0
  170.1411  143.5363  122.9754 C   0  0  0  0  0  0  0  0  0  0  0  0
  170.7532  142.2889  122.6918 N   0  0  0  0  0  0  0  0  0  0  0  0
  170.8692  141.3638  123.7619 C   0  0  0  0  0  0  0  0  0  0  0  0
  172.1422  140.5795  123.5659 C   0  0  0  0  0  0  0  0  0  0  0  0
  172.9319  141.3578  122.5422 C   0  0  0  0  0  0  0  0  0  0  0  0
  171.9431  142.3040  121.9205 C   0  0  0  0  0  0  0  0  0  0  0  0
  170.2348  147.2820  125.1155 C   0  0  0  0  0  0  0  0  0  0  0  0
  170.6066  146.6318  126.2749 O   0  0  0  0  0  0  0  0  0  0  0  0
  169.4965  148.4750  125.2621 C   0  0  0  0  0  0  0  0  0  0  0  0
  169.1750  148.9333  126.6119 C   0  0  0  0  0  0  0  0  0  0  0  0
  169.5513  148.2834  127.6052 O   0  0  0  0  0  0  0  0  0  0  0  0
  168.4109  150.1582  126.7437 C   0  0  0  0  0  0  0  0  0  0  0  0
  168.0555  150.6164  127.9446 C   0  0  0  0  0  0  0  0  0  0  0  0
  168.4299  149.9097  129.0730 O   0  0  0  0  0  0  0  0  0  0  0  0
  167.2675  151.8752  127.9798 C   0  0  2  0  0  0  0  0  0  0  0  0
  168.0333  153.0033  127.6974 O   0  0  0  0  0  0  0  0  0  0  0  0
  166.7948  152.0453  129.3783 C   0  0  0  0  0  0  0  0  0  0  0  0
  167.6708  152.2058  130.2590 O   0  0  0  0  0  0  0  0  0  0  0  0
  165.3992  152.0343  129.7613 C   0  0  0  0  0  0  0  0  0  0  0  0
  164.9447  152.6365  131.0194 C   0  0  0  0  0  0  0  0  0  0  0  0
  165.5397  152.1966  132.2308 N   0  0  0  0  0  0  0  0  0  0  0  0
  164.0538  153.5190  131.0391 O   0  0  0  0  0  0  0  0  0  0  0  0
  164.5407  151.4605  128.9366 C   0  0  0  0  0  0  0  0  0  0  0  0
  163.1909  151.4410  129.2900 O   0  0  0  0  0  0  0  0  0  0  0  0
  165.0449  150.8678  127.6836 C   0  0  1  0  0  0  0  0  0  0  0  0
  163.9806  150.5613  126.7471 N   0  0  0  0  0  0  0  0  0  0  0  0
  162.7126  150.8847  127.3225 C   0  0  0  0  0  0  0  0  0  0  0  0
  164.1828  151.1383  125.4404 C   0  0  0  0  0  0  0  0  0  0  0  0
  166.0979  151.7612  127.0229 C   0  0  2  0  0  0  0  0  0  0  0  0
  166.4490  151.1111  125.7281 C   0  0  0  0  0  0  0  0  0  0  0  0
  1  2  1  6
  2  3  1  0
  3  4  2  0
  4  5  1  0
  4  6  1  0
  6  7  2  0
  7  8  1  0
  8  9  1  0
  9 10  2  0
  9 11  1  0
 11 12  1  0
 12 13  1  0
 13 14  1  0
 14 15  1  0
 15 16  1  0
  7 17  1  0
 17 18  1  0
 17 19  2  0
 19 20  1  0
 20 21  2  0
 20 22  1  0
 22 23  2  0
 23 24  1  0
 23 25  1  0
 25 26  1  6
 25 27  1  0
 27 28  2  0
 27 29  1  0
 29 30  1  0
 30 31  1  0
 30 32  2  0
 29 33  2  0
 33 34  1  0
 33 35  1  0
 35 36  1  6
 36 37  1  0
 36 38  1  0
 35 39  1  0
 39 40  1  6
 22  1  1  0
 39 25  1  0
 40  1  1  0
 19  3  1  0
 16 12  1  0
M  END
$$$$
