
     RDKit          3D

 40 44  0  0  0  0  0  0  0  0999 V2000
  125.9765  160.8078  146.0822 C   0  0  2  0  0  0  0  0  0  0  0  0
  127.1848  160.6277  146.8946 C   0  0  0  0  0  0  0  0  0  0  0  0
  128.0575  161.8061  147.0696 C   0  0  0  0  0  0  0  0  0  0  0  0
  129.2364  161.6554  147.8289 C   0  0  0  0  0  0  0  0  0  0  0  0
  129.4849  160.4138  148.3493 F   0  0  0  0  0  0  0  0  0  0  0  0
  130.0836  162.7094  148.0291 C   0  0  0  0  0  0  0  0  0  0  0  0
  129.8527  163.9668  147.5146 C   0  0  0  0  0  0  0  0  0  0  0  0
  130.7220  165.0767  147.7200 N   0  0  0  0  0  0  0  0  0  0  0  0
  131.2003  165.8631  146.6470 C   0  0  0  0  0  0  0  0  0  0  0  0
  131.5806  165.2651  145.5986 O   0  0  0  0  0  0  0  0  0  0  0  0
  131.2306  167.3253  146.8051 C   0  0  0  0  0  0  0  0  0  0  0  0
  132.3959  167.9790  146.3302 N   0  0  0  0  0  0  0  0  0  0  0  0
  133.5041  168.0549  147.2136 C   0  0  0  0  0  0  0  0  0  0  0  0
  134.2240  169.3535  146.9500 C   0  0  0  0  0  0  0  0  0  0  0  0
  133.2590  170.1822  146.1380 C   0  0  0  0  0  0  0  0  0  0  0  0
  132.2236  169.2095  145.6467 C   0  0  0  0  0  0  0  0  0  0  0  0
  128.7063  164.1119  146.7759 C   0  0  0  0  0  0  0  0  0  0  0  0
  128.3683  165.3245  146.2097 O   0  0  0  0  0  0  0  0  0  0  0  0
  127.8192  163.0371  146.5582 C   0  0  0  0  0  0  0  0  0  0  0  0
  126.6165  163.2770  145.7637 C   0  0  0  0  0  0  0  0  0  0  0  0
  126.3887  164.4055  145.2889 O   0  0  0  0  0  0  0  0  0  0  0  0
  125.7132  162.1627  145.5547 C   0  0  0  0  0  0  0  0  0  0  0  0
  124.5816  162.3195  144.8666 C   0  0  0  0  0  0  0  0  0  0  0  0
  124.2773  163.5639  144.3453 O   0  0  0  0  0  0  0  0  0  0  0  0
  123.7160  161.1224  144.7106 C   0  0  2  0  0  0  0  0  0  0  0  0
  124.2246  160.1993  143.8008 O   0  0  0  0  0  0  0  0  0  0  0  0
  122.4312  161.5956  144.1332 C   0  0  0  0  0  0  0  0  0  0  0  0
  122.4736  162.0964  142.9860 O   0  0  0  0  0  0  0  0  0  0  0  0
  121.1606  161.5065  144.8204 C   0  0  0  0  0  0  0  0  0  0  0  0
  119.8891  161.5517  144.0901 C   0  0  0  0  0  0  0  0  0  0  0  0
  119.9186  161.8559  142.7039 N   0  0  0  0  0  0  0  0  0  0  0  0
  118.7961  161.3290  144.6633 O   0  0  0  0  0  0  0  0  0  0  0  0
  121.1814  161.3825  146.1359 C   0  0  0  0  0  0  0  0  0  0  0  0
  119.9655  161.2950  146.8148 O   0  0  0  0  0  0  0  0  0  0  0  0
  122.4841  161.3424  146.8265 C   0  0  1  0  0  0  0  0  0  0  0  0
  122.3698  160.8951  148.2015 N   0  0  0  0  0  0  0  0  0  0  0  0
  121.0293  161.0723  148.6651 C   0  0  0  0  0  0  0  0  0  0  0  0
  122.8808  159.5631  148.4155 C   0  0  0  0  0  0  0  0  0  0  0  0
  123.4971  160.4821  146.0666 C   0  0  2  0  0  0  0  0  0  0  0  0
  124.7263  160.4363  146.9090 C   0  0  0  0  0  0  0  0  0  0  0  0
  1  2  1  1
  2  3  1  0
  3  4  2  0
  4  5  1  0
  4  6  1  0
  6  7  2  0
  7  8  1  0
  8  9  1  0
  9 10  2  0
  9 11  1  0
 11 12  1  0
 12 13  1  0
 13 14  1  0
 14 15  1  0
 15 16  1  0
  7 17  1  0
 17 18  1  0
 17 19  2  0
 19 20  1  0
 20 21  2  0
 20 22  1  0
 22 23  2  0
 23 24  1  0
 23 25  1  0
 25 26  1  6
 25 27  1  0
 27 28  2  0
 27 29  1  0
 29 30  1  0
 30 31  1  0
 30 32  2  0
 29 33  2  0
 33 34  1  0
 33 35  1  0
 35 36  1  1
 36 37  1  0
 36 38  1  0
 35 39  1  0
 39 40  1  1
 22  1  1  0
 39 25  1  0
 40  1  1  0
 19  3  1  0
 16 12  1  0
M  END
$$$$
