
     RDKit          3D

 40 44  0  0  0  0  0  0  0  0999 V2000
  181.0747  163.3886  107.7212 C   0  0  2  0  0  0  0  0  0  0  0  0
  181.8788  162.6638  108.7114 C   0  0  0  0  0  0  0  0  0  0  0  0
  183.3079  163.0236  108.8083 C   0  0  0  0  0  0  0  0  0  0  0  0
  184.1086  162.3279  109.7378 C   0  0  0  0  0  0  0  0  0  0  0  0
  183.4931  161.3602  110.4853 F   0  0  0  0  0  0  0  0  0  0  0  0
  185.4376  162.6168  109.8764 C   0  0  0  0  0  0  0  0  0  0  0  0
  186.0767  163.5863  109.1343 C   0  0  0  0  0  0  0  0  0  0  0  0
  187.4587  163.9039  109.2719 N   0  0  0  0  0  0  0  0  0  0  0  0
  188.3875  163.6765  108.2306 C   0  0  0  0  0  0  0  0  0  0  0  0
  187.9333  163.4527  107.0709 O   0  0  0  0  0  0  0  0  0  0  0  0
  189.8233  163.7115  108.5485 C   0  0  0  0  0  0  0  0  0  0  0  0
  190.4511  164.9796  108.4547 N   0  0  0  0  0  0  0  0  0  0  0  0
  190.0059  165.9924  109.3437 C   0  0  0  0  0  0  0  0  0  0  0  0
  190.1101  167.3180  108.6320 C   0  0  0  0  0  0  0  0  0  0  0  0
  190.2794  166.9708  107.1733 C   0  0  0  0  0  0  0  0  0  0  0  0
  190.6541  165.5151  107.1574 C   0  0  0  0  0  0  0  0  0  0  0  0
  185.2971  164.2617  108.2305 C   0  0  0  0  0  0  0  0  0  0  0  0
  185.8256  165.2547  107.4306 O   0  0  0  0  0  0  0  0  0  0  0  0
  183.9242  163.9789  108.0727 C   0  0  0  0  0  0  0  0  0  0  0  0
  183.1632  164.7484  107.0908 C   0  0  0  0  0  0  0  0  0  0  0  0
  183.7212  165.6287  106.4093 O   0  0  0  0  0  0  0  0  0  0  0  0
  181.7524  164.4482  106.9458 C   0  0  0  0  0  0  0  0  0  0  0  0
  180.9918  165.1339  106.0916 C   0  0  0  0  0  0  0  0  0  0  0  0
  181.5666  166.1388  105.3348 O   0  0  0  0  0  0  0  0  0  0  0  0
  179.5561  164.7599  106.0172 C   0  0  2  0  0  0  0  0  0  0  0  0
  179.3423  163.5557  105.3515 O   0  0  0  0  0  0  0  0  0  0  0  0
  178.8844  165.8015  105.1975 C   0  0  0  0  0  0  0  0  0  0  0  0
  179.2393  165.8994  104.0004 O   0  0  0  0  0  0  0  0  0  0  0  0
  177.8610  166.6888  105.7076 C   0  0  0  0  0  0  0  0  0  0  0  0
  176.9214  167.3711  104.8110 C   0  0  0  0  0  0  0  0  0  0  0  0
  177.3182  167.6015  103.4677 N   0  0  0  0  0  0  0  0  0  0  0  0
  175.7926  167.7465  105.2079 O   0  0  0  0  0  0  0  0  0  0  0  0
  177.7990  166.8668  107.0155 C   0  0  0  0  0  0  0  0  0  0  0  0
  176.8183  167.7189  107.5247 O   0  0  0  0  0  0  0  0  0  0  0  0
  178.7656  166.1600  107.8766 C   0  0  1  0  0  0  0  0  0  0  0  0
  178.3911  166.1964  109.2774 N   0  0  0  0  0  0  0  0  0  0  0  0
  177.0174  165.8306  109.4276 C   0  0  0  0  0  0  0  0  0  0  0  0
  179.2821  165.4465  110.1288 C   0  0  0  0  0  0  0  0  0  0  0  0
  178.9767  164.7151  107.4168 C   0  0  2  0  0  0  0  0  0  0  0  0
  179.8839  164.0833  108.4170 C   0  0  0  0  0  0  0  0  0  0  0  0
  1  2  1  1
  2  3  1  0
  3  4  2  0
  4  5  1  0
  4  6  1  0
  6  7  2  0
  7  8  1  0
  8  9  1  0
  9 10  2  0
  9 11  1  0
 11 12  1  0
 12 13  1  0
 13 14  1  0
 14 15  1  0
 15 16  1  0
  7 17  1  0
 17 18  1  0
 17 19  2  0
 19 20  1  0
 20 21  2  0
 20 22  1  0
 22 23  2  0
 23 24  1  0
 23 25  1  0
 25 26  1  6
 25 27  1  0
 27 28  2  0
 27 29  1  0
 29 30  1  0
 30 31  1  0
 30 32  2  0
 29 33  2  0
 33 34  1  0
 33 35  1  0
 35 36  1  1
 36 37  1  0
 36 38  1  0
 35 39  1  0
 39 40  1  1
 22  1  1  0
 39 25  1  0
 40  1  1  0
 19  3  1  0
 16 12  1  0
M  END
$$$$
