
     RDKit          3D

 40 44  0  0  0  0  0  0  0  0999 V2000
  132.5247  163.3465  156.1632 C   0  0  2  0  0  0  0  0  0  0  0  0
  133.5015  164.4331  156.2950 C   0  0  0  0  0  0  0  0  0  0  0  0
  134.9207  164.0470  156.4284 C   0  0  0  0  0  0  0  0  0  0  0  0
  135.8788  165.0712  156.5773 C   0  0  0  0  0  0  0  0  0  0  0  0
  135.4140  166.3588  156.5892 F   0  0  0  0  0  0  0  0  0  0  0  0
  137.2081  164.7780  156.7027 C   0  0  0  0  0  0  0  0  0  0  0  0
  137.6972  163.4896  156.6934 C   0  0  0  0  0  0  0  0  0  0  0  0
  139.0796  163.1681  156.8158 N   0  0  0  0  0  0  0  0  0  0  0  0
  139.8692  163.6482  157.8858 C   0  0  0  0  0  0  0  0  0  0  0  0
  139.7123  164.8518  158.2433 O   0  0  0  0  0  0  0  0  0  0  0  0
  140.8250  162.7290  158.5224 C   0  0  0  0  0  0  0  0  0  0  0  0
  142.1933  163.0888  158.4265 N   0  0  0  0  0  0  0  0  0  0  0  0
  142.5536  164.3934  158.8537 C   0  0  0  0  0  0  0  0  0  0  0  0
  143.6924  164.8710  157.9880 C   0  0  0  0  0  0  0  0  0  0  0  0
  143.7129  163.9304  156.8082 C   0  0  0  0  0  0  0  0  0  0  0  0
  142.8754  162.7550  157.2289 C   0  0  0  0  0  0  0  0  0  0  0  0
  136.7645  162.4946  156.5490 C   0  0  0  0  0  0  0  0  0  0  0  0
  137.1342  161.1649  156.5253 O   0  0  0  0  0  0  0  0  0  0  0  0
  135.3886  162.7763  156.4179 C   0  0  0  0  0  0  0  0  0  0  0  0
  134.4606  161.6582  156.2628 C   0  0  0  0  0  0  0  0  0  0  0  0
  134.8812  160.4861  156.2523 O   0  0  0  0  0  0  0  0  0  0  0  0
  133.0509  161.9663  156.1238 C   0  0  0  0  0  0  0  0  0  0  0  0
  132.1532  160.9962  155.9466 C   0  0  0  0  0  0  0  0  0  0  0  0
  132.5817  159.6820  155.9016 O   0  0  0  0  0  0  0  0  0  0  0  0
  130.7331  161.4091  155.8068 C   0  0  2  0  0  0  0  0  0  0  0  0
  130.1639  161.8131  157.0116 O   0  0  0  0  0  0  0  0  0  0  0  0
  129.9761  160.2021  155.3848 C   0  0  0  0  0  0  0  0  0  0  0  0
  129.9400  159.2433  156.1899 O   0  0  0  0  0  0  0  0  0  0  0  0
  129.2932  160.0858  154.1141 C   0  0  0  0  0  0  0  0  0  0  0  0
  128.2135  159.1138  153.9100 C   0  0  0  0  0  0  0  0  0  0  0  0
  128.4607  157.9992  153.0665 N   0  0  0  0  0  0  0  0  0  0  0  0
  127.0954  159.2514  154.4610 O   0  0  0  0  0  0  0  0  0  0  0  0
  129.6754  160.8880  153.1361 C   0  0  0  0  0  0  0  0  0  0  0  0
  129.0277  160.7896  151.9040 O   0  0  0  0  0  0  0  0  0  0  0  0
  130.7659  161.8485  153.3884 C   0  0  1  0  0  0  0  0  0  0  0  0
  130.8661  162.8591  152.3529 N   0  0  0  0  0  0  0  0  0  0  0  0
  130.3032  162.3695  151.1335 C   0  0  0  0  0  0  0  0  0  0  0  0
  130.3436  164.1431  152.7523 C   0  0  0  0  0  0  0  0  0  0  0  0
  130.6300  162.5046  154.7648 C   0  0  2  0  0  0  0  0  0  0  0  0
  131.7189  163.5187  154.8571 C   0  0  0  0  0  0  0  0  0  0  0  0
  1  2  1  6
  2  3  1  0
  3  4  2  0
  4  5  1  0
  4  6  1  0
  6  7  2  0
  7  8  1  0
  8  9  1  0
  9 10  2  0
  9 11  1  0
 11 12  1  0
 12 13  1  0
 13 14  1  0
 14 15  1  0
 15 16  1  0
  7 17  1  0
 17 18  1  0
 17 19  2  0
 19 20  1  0
 20 21  2  0
 20 22  1  0
 22 23  2  0
 23 24  1  0
 23 25  1  0
 25 26  1  1
 25 27  1  0
 27 28  2  0
 27 29  1  0
 29 30  1  0
 30 31  1  0
 30 32  2  0
 29 33  2  0
 33 34  1  0
 33 35  1  0
 35 36  1  6
 36 37  1  0
 36 38  1  0
 35 39  1  0
 39 40  1  1
 22  1  1  0
 39 25  1  0
 40  1  1  0
 19  3  1  0
 16 12  1  0
M  END
$$$$
