
     RDKit          3D

 40 44  0  0  0  0  0  0  0  0999 V2000
  129.0640  140.9487  132.2431 C   0  0  2  0  0  0  0  0  0  0  0  0
  130.0764  139.8939  132.1214 C   0  0  0  0  0  0  0  0  0  0  0  0
  131.0791  140.0471  131.0480 C   0  0  0  0  0  0  0  0  0  0  0  0
  132.0516  139.0371  130.8956 C   0  0  0  0  0  0  0  0  0  0  0  0
  131.9890  137.9794  131.7625 F   0  0  0  0  0  0  0  0  0  0  0  0
  133.0079  139.1226  129.9225 C   0  0  0  0  0  0  0  0  0  0  0  0
  133.0889  140.1778  129.0398 C   0  0  0  0  0  0  0  0  0  0  0  0
  134.0833  140.2850  128.0253 N   0  0  0  0  0  0  0  0  0  0  0  0
  133.7594  140.6182  126.6901 C   0  0  0  0  0  0  0  0  0  0  0  0
  132.5895  141.0376  126.4520 O   0  0  0  0  0  0  0  0  0  0  0  0
  134.7928  140.4607  125.6551 C   0  0  0  0  0  0  0  0  0  0  0  0
  134.3598  140.6169  124.3139 N   0  0  0  0  0  0  0  0  0  0  0  0
  133.3215  139.7609  123.8625 C   0  0  0  0  0  0  0  0  0  0  0  0
  133.5564  139.4715  122.4012 C   0  0  0  0  0  0  0  0  0  0  0  0
  134.9799  139.8975  122.1381 C   0  0  0  0  0  0  0  0  0  0  0  0
  135.3576  140.7524  123.3155 C   0  0  0  0  0  0  0  0  0  0  0  0
  132.1423  141.1590  129.1888 C   0  0  0  0  0  0  0  0  0  0  0  0
  132.1219  142.2651  128.3633 O   0  0  0  0  0  0  0  0  0  0  0  0
  131.1477  141.0895  130.1865 C   0  0  0  0  0  0  0  0  0  0  0  0
  130.1794  142.1797  130.2814 C   0  0  0  0  0  0  0  0  0  0  0  0
  130.2340  143.1425  129.4934 O   0  0  0  0  0  0  0  0  0  0  0  0
  129.1676  142.0946  131.3161 C   0  0  0  0  0  0  0  0  0  0  0  0
  128.2729  143.0699  131.4794 C   0  0  0  0  0  0  0  0  0  0  0  0
  128.3156  144.1702  130.6425 O   0  0  0  0  0  0  0  0  0  0  0  0
  127.2794  142.8977  132.5703 C   0  0  2  0  0  0  0  0  0  0  0  0
  126.3010  141.9537  132.2699 O   0  0  0  0  0  0  0  0  0  0  0  0
  126.5648  144.1934  132.7068 C   0  0  0  0  0  0  0  0  0  0  0  0
  125.8832  144.5728  131.7269 O   0  0  0  0  0  0  0  0  0  0  0  0
  126.6189  145.0192  133.8941 C   0  0  0  0  0  0  0  0  0  0  0  0
  125.5876  146.0234  134.1772 C   0  0  0  0  0  0  0  0  0  0  0  0
  125.5134  146.5622  135.4883 N   0  0  0  0  0  0  0  0  0  0  0  0
  124.7852  146.4057  133.2924 O   0  0  0  0  0  0  0  0  0  0  0  0
  127.6337  144.8396  134.7213 C   0  0  0  0  0  0  0  0  0  0  0  0
  127.7016  145.6272  135.8712 O   0  0  0  0  0  0  0  0  0  0  0  0
  128.6465  143.8186  134.3940 C   0  0  1  0  0  0  0  0  0  0  0  0
  129.5111  143.5142  135.5181 N   0  0  0  0  0  0  0  0  0  0  0  0
  130.3690  144.6243  135.7918 C   0  0  0  0  0  0  0  0  0  0  0  0
  128.7972  143.0396  136.6785 C   0  0  0  0  0  0  0  0  0  0  0  0
  128.0014  142.5397  133.8537 C   0  0  2  0  0  0  0  0  0  0  0  0
  129.1078  141.5591  133.6609 C   0  0  0  0  0  0  0  0  0  0  0  0
  1  2  1  1
  2  3  1  0
  3  4  2  0
  4  5  1  0
  4  6  1  0
  6  7  2  0
  7  8  1  0
  8  9  1  0
  9 10  2  0
  9 11  1  0
 11 12  1  0
 12 13  1  0
 13 14  1  0
 14 15  1  0
 15 16  1  0
  7 17  1  0
 17 18  1  0
 17 19  2  0
 19 20  1  0
 20 21  2  0
 20 22  1  0
 22 23  2  0
 23 24  1  0
 23 25  1  0
 25 26  1  6
 25 27  1  0
 27 28  2  0
 27 29  1  0
 29 30  1  0
 30 31  1  0
 30 32  2  0
 29 33  2  0
 33 34  1  0
 33 35  1  0
 35 36  1  1
 36 37  1  0
 36 38  1  0
 35 39  1  0
 39 40  1  6
 22  1  1  0
 39 25  1  0
 40  1  1  0
 19  3  1  0
 16 12  1  0
M  END
$$$$
