
     RDKit          3D

 40 44  0  0  0  0  0  0  0  0999 V2000
  148.2860  175.7028  153.0194 C   0  0  2  0  0  0  0  0  0  0  0  0
  148.3694  176.8969  152.1711 C   0  0  0  0  0  0  0  0  0  0  0  0
  149.4063  176.9017  151.1194 C   0  0  0  0  0  0  0  0  0  0  0  0
  149.5219  178.0457  150.3029 C   0  0  0  0  0  0  0  0  0  0  0  0
  148.6560  179.0763  150.5524 F   0  0  0  0  0  0  0  0  0  0  0  0
  150.4601  178.1098  149.3107 C   0  0  0  0  0  0  0  0  0  0  0  0
  151.3411  177.0845  149.0428 C   0  0  0  0  0  0  0  0  0  0  0  0
  152.3193  177.1331  148.0083 N   0  0  0  0  0  0  0  0  0  0  0  0
  152.1979  176.3688  146.8251 C   0  0  0  0  0  0  0  0  0  0  0  0
  151.3395  176.7340  145.9702 O   0  0  0  0  0  0  0  0  0  0  0  0
  153.0703  175.1970  146.6520 C   0  0  0  0  0  0  0  0  0  0  0  0
  153.0862  174.6185  145.3574 N   0  0  0  0  0  0  0  0  0  0  0  0
  154.1345  175.0090  144.4840 C   0  0  0  0  0  0  0  0  0  0  0  0
  153.5939  175.0105  143.0762 C   0  0  0  0  0  0  0  0  0  0  0  0
  152.0933  174.9671  143.2293 C   0  0  0  0  0  0  0  0  0  0  0  0
  151.8562  174.5526  144.6548 C   0  0  0  0  0  0  0  0  0  0  0  0
  151.2280  175.9728  149.8379 C   0  0  0  0  0  0  0  0  0  0  0  0
  152.0555  174.8817  149.6647 O   0  0  0  0  0  0  0  0  0  0  0  0
  150.2666  175.8870  150.8665 C   0  0  0  0  0  0  0  0  0  0  0  0
  150.2084  174.6646  151.6650 C   0  0  0  0  0  0  0  0  0  0  0  0
  150.9956  173.7262  151.4402 O   0  0  0  0  0  0  0  0  0  0  0  0
  149.2107  174.5915  152.7141 C   0  0  0  0  0  0  0  0  0  0  0  0
  149.0814  173.4932  153.4594 C   0  0  0  0  0  0  0  0  0  0  0  0
  149.9180  172.4173  153.2242 O   0  0  0  0  0  0  0  0  0  0  0  0
  148.0266  173.5085  154.5053 C   0  0  2  0  0  0  0  0  0  0  0  0
  148.3605  174.2991  155.6017 O   0  0  0  0  0  0  0  0  0  0  0  0
  147.9181  172.1202  155.0240 C   0  0  0  0  0  0  0  0  0  0  0  0
  148.9226  171.6508  155.6067 O   0  0  0  0  0  0  0  0  0  0  0  0
  146.7310  171.3032  154.8899 C   0  0  0  0  0  0  0  0  0  0  0  0
  146.4870  170.1552  155.7701 C   0  0  0  0  0  0  0  0  0  0  0  0
  145.5102  170.2850  156.7919 N   0  0  0  0  0  0  0  0  0  0  0  0
  147.1180  169.0800  155.6345 O   0  0  0  0  0  0  0  0  0  0  0  0
  145.8676  171.6255  153.9429 C   0  0  0  0  0  0  0  0  0  0  0  0
  144.7174  170.8486  153.7996 O   0  0  0  0  0  0  0  0  0  0  0  0
  146.1565  172.7877  153.0820 C   0  0  1  0  0  0  0  0  0  0  0  0
  145.0014  173.2090  152.3124 N   0  0  0  0  0  0  0  0  0  0  0  0
  144.0831  172.1227  152.1715 C   0  0  0  0  0  0  0  0  0  0  0  0
  144.3904  174.4174  152.8103 C   0  0  0  0  0  0  0  0  0  0  0  0
  146.7175  173.9606  153.8903 C   0  0  2  0  0  0  0  0  0  0  0  0
  146.8686  175.0957  152.9355 C   0  0  0  0  0  0  0  0  0  0  0  0
  1  2  1  6
  2  3  1  0
  3  4  2  0
  4  5  1  0
  4  6  1  0
  6  7  2  0
  7  8  1  0
  8  9  1  0
  9 10  2  0
  9 11  1  0
 11 12  1  0
 12 13  1  0
 13 14  1  0
 14 15  1  0
 15 16  1  0
  7 17  1  0
 17 18  1  0
 17 19  2  0
 19 20  1  0
 20 21  2  0
 20 22  1  0
 22 23  2  0
 23 24  1  0
 23 25  1  0
 25 26  1  1
 25 27  1  0
 27 28  2  0
 27 29  1  0
 29 30  1  0
 30 31  1  0
 30 32  2  0
 29 33  2  0
 33 34  1  0
 33 35  1  0
 35 36  1  1
 36 37  1  0
 36 38  1  0
 35 39  1  0
 39 40  1  6
 22  1  1  0
 39 25  1  0
 40  1  1  0
 19  3  1  0
 16 12  1  0
M  END
$$$$
