
     RDKit          3D

 40 44  0  0  0  0  0  0  0  0999 V2000
  189.0631  158.4888  127.1118 C   0  0  2  0  0  0  0  0  0  0  0  0
  188.2330  158.9736  128.2200 C   0  0  0  0  0  0  0  0  0  0  0  0
  188.9380  159.5193  129.3975 C   0  0  0  0  0  0  0  0  0  0  0  0
  188.1646  159.9735  130.4858 C   0  0  0  0  0  0  0  0  0  0  0  0
  186.8047  159.8703  130.3666 F   0  0  0  0  0  0  0  0  0  0  0  0
  188.7582  160.4914  131.6030 C   0  0  0  0  0  0  0  0  0  0  0  0
  190.1245  160.6042  131.7437 C   0  0  0  0  0  0  0  0  0  0  0  0
  190.7579  161.1479  132.8981 N   0  0  0  0  0  0  0  0  0  0  0  0
  190.1439  162.1445  133.6908 C   0  0  0  0  0  0  0  0  0  0  0  0
  188.8898  162.0852  133.8494 O   0  0  0  0  0  0  0  0  0  0  0  0
  190.9898  163.1908  134.2854 C   0  0  0  0  0  0  0  0  0  0  0  0
  191.0653  163.2007  135.7014 N   0  0  0  0  0  0  0  0  0  0  0  0
  190.5832  164.3562  136.3698 C   0  0  0  0  0  0  0  0  0  0  0  0
  191.4239  164.5673  137.6039 C   0  0  0  0  0  0  0  0  0  0  0  0
  192.6413  163.6979  137.4058 C   0  0  0  0  0  0  0  0  0  0  0  0
  192.2728  162.7538  136.2956 C   0  0  0  0  0  0  0  0  0  0  0  0
  190.8755  160.1617  130.6849 C   0  0  0  0  0  0  0  0  0  0  0  0
  192.2542  160.2235  130.7098 O   0  0  0  0  0  0  0  0  0  0  0  0
  190.2821  159.6245  129.5234 C   0  0  0  0  0  0  0  0  0  0  0  0
  191.1538  159.1805  128.4379 C   0  0  0  0  0  0  0  0  0  0  0  0
  192.3911  159.2728  128.5444 O   0  0  0  0  0  0  0  0  0  0  0  0
  190.5269  158.6362  127.2496 C   0  0  0  0  0  0  0  0  0  0  0  0
  191.2613  158.2420  126.2086 C   0  0  0  0  0  0  0  0  0  0  0  0
  192.6383  158.3529  126.2752 O   0  0  0  0  0  0  0  0  0  0  0  0
  190.5301  157.7043  125.0326 C   0  0  2  0  0  0  0  0  0  0  0  0
  190.0205  156.4265  125.2477 O   0  0  0  0  0  0  0  0  0  0  0  0
  191.5244  157.5656  123.9371 C   0  0  0  0  0  0  0  0  0  0  0  0
  192.4589  156.7512  124.1172 O   0  0  0  0  0  0  0  0  0  0  0  0
  191.4642  158.3118  122.6985 C   0  0  0  0  0  0  0  0  0  0  0  0
  192.1582  157.8506  121.4910 C   0  0  0  0  0  0  0  0  0  0  0  0
  193.2257  156.9267  121.6386 N   0  0  0  0  0  0  0  0  0  0  0  0
  191.8270  158.2539  120.3507 O   0  0  0  0  0  0  0  0  0  0  0  0
  190.7599  159.4299  122.6889 C   0  0  0  0  0  0  0  0  0  0  0  0
  190.6909  160.1620  121.5030 O   0  0  0  0  0  0  0  0  0  0  0  0
  190.0803  159.8536  123.9275 C   0  0  1  0  0  0  0  0  0  0  0  0
  189.1074  160.9039  123.6953 N   0  0  0  0  0  0  0  0  0  0  0  0
  187.9383  160.3616  123.0767 C   0  0  0  0  0  0  0  0  0  0  0  0
  188.8233  161.6922  124.8696 C   0  0  0  0  0  0  0  0  0  0  0  0
  189.4275  158.6687  124.6442 C   0  0  2  0  0  0  0  0  0  0  0  0
  188.6934  159.2354  125.8115 C   0  0  0  0  0  0  0  0  0  0  0  0
  1  2  1  1
  2  3  1  0
  3  4  2  0
  4  5  1  0
  4  6  1  0
  6  7  2  0
  7  8  1  0
  8  9  1  0
  9 10  2  0
  9 11  1  0
 11 12  1  0
 12 13  1  0
 13 14  1  0
 14 15  1  0
 15 16  1  0
  7 17  1  0
 17 18  1  0
 17 19  2  0
 19 20  1  0
 20 21  2  0
 20 22  1  0
 22 23  2  0
 23 24  1  0
 23 25  1  0
 25 26  1  1
 25 27  1  0
 27 28  2  0
 27 29  1  0
 29 30  1  0
 30 31  1  0
 30 32  2  0
 29 33  2  0
 33 34  1  0
 33 35  1  0
 35 36  1  6
 36 37  1  0
 36 38  1  0
 35 39  1  0
 39 40  1  1
 22  1  1  0
 39 25  1  0
 40  1  1  0
 19  3  1  0
 16 12  1  0
M  END
$$$$
