
     RDKit          3D

 40 44  0  0  0  0  0  0  0  0999 V2000
  203.1004  133.6834  134.4704 C   0  0  2  0  0  0  0  0  0  0  0  0
  202.7841  132.5562  135.3546 C   0  0  0  0  0  0  0  0  0  0  0  0
  202.8047  131.2068  134.7547 C   0  0  0  0  0  0  0  0  0  0  0  0
  202.4844  130.1070  135.5774 C   0  0  0  0  0  0  0  0  0  0  0  0
  202.1733  130.3782  136.8827 F   0  0  0  0  0  0  0  0  0  0  0  0
  202.4884  128.8330  135.0816 C   0  0  0  0  0  0  0  0  0  0  0  0
  202.7981  128.5379  133.7717 C   0  0  0  0  0  0  0  0  0  0  0  0
  202.8137  127.2156  133.2418 N   0  0  0  0  0  0  0  0  0  0  0  0
  204.0147  126.5749  132.8601 C   0  0  0  0  0  0  0  0  0  0  0  0
  205.1068  127.1493  133.1405 O   0  0  0  0  0  0  0  0  0  0  0  0
  203.9317  125.2829  132.1617 C   0  0  0  0  0  0  0  0  0  0  0  0
  205.0983  124.4777  132.2011 N   0  0  0  0  0  0  0  0  0  0  0  0
  205.7138  124.2871  133.4656 C   0  0  0  0  0  0  0  0  0  0  0  0
  207.2027  124.1818  133.2496 C   0  0  0  0  0  0  0  0  0  0  0  0
  207.4361  124.6963  131.8503 C   0  0  0  0  0  0  0  0  0  0  0  0
  206.0799  124.6983  131.2018 C   0  0  0  0  0  0  0  0  0  0  0  0
  203.1089  129.6083  132.9726 C   0  0  0  0  0  0  0  0  0  0  0  0
  203.4360  129.4375  131.6425 O   0  0  0  0  0  0  0  0  0  0  0  0
  203.1108  130.9301  133.4650 C   0  0  0  0  0  0  0  0  0  0  0  0
  203.4588  132.0140  132.5488 C   0  0  0  0  0  0  0  0  0  0  0  0
  203.7414  131.7696  131.3609 O   0  0  0  0  0  0  0  0  0  0  0  0
  203.4610  133.3654  133.0732 C   0  0  0  0  0  0  0  0  0  0  0  0
  203.8001  134.3981  132.3006 C   0  0  0  0  0  0  0  0  0  0  0  0
  204.1474  134.1672  130.9819 O   0  0  0  0  0  0  0  0  0  0  0  0
  203.7801  135.7446  132.9277 C   0  0  2  0  0  0  0  0  0  0  0  0
  202.4909  136.2294  133.1320 O   0  0  0  0  0  0  0  0  0  0  0  0
  204.4156  136.6767  131.9605 C   0  0  0  0  0  0  0  0  0  0  0  0
  203.8351  136.8398  130.8627 O   0  0  0  0  0  0  0  0  0  0  0  0
  205.6477  137.3893  132.2229 C   0  0  0  0  0  0  0  0  0  0  0  0
  206.0048  138.6027  131.4796 C   0  0  0  0  0  0  0  0  0  0  0  0
  205.3685  138.8414  130.2334 N   0  0  0  0  0  0  0  0  0  0  0  0
  206.8491  139.4174  131.9223 O   0  0  0  0  0  0  0  0  0  0  0  0
  206.4470  136.9094  133.1593 C   0  0  0  0  0  0  0  0  0  0  0  0
  207.6392  137.5840  133.4256 O   0  0  0  0  0  0  0  0  0  0  0  0
  206.0459  135.6863  133.8793 C   0  0  1  0  0  0  0  0  0  0  0  0
  206.8430  135.4558  135.0690 N   0  0  0  0  0  0  0  0  0  0  0  0
  208.0028  136.2913  135.0517 C   0  0  0  0  0  0  0  0  0  0  0  0
  206.0858  135.5487  136.2934 C   0  0  0  0  0  0  0  0  0  0  0  0
  204.5555  135.7029  134.2290 C   0  0  2  0  0  0  0  0  0  0  0  0
  204.2989  134.4760  135.0362 C   0  0  0  0  0  0  0  0  0  0  0  0
  1  2  1  1
  2  3  1  0
  3  4  2  0
  4  5  1  0
  4  6  1  0
  6  7  2  0
  7  8  1  0
  8  9  1  0
  9 10  2  0
  9 11  1  0
 11 12  1  0
 12 13  1  0
 13 14  1  0
 14 15  1  0
 15 16  1  0
  7 17  1  0
 17 18  1  0
 17 19  2  0
 19 20  1  0
 20 21  2  0
 20 22  1  0
 22 23  2  0
 23 24  1  0
 23 25  1  0
 25 26  1  1
 25 27  1  0
 27 28  2  0
 27 29  1  0
 29 30  1  0
 30 31  1  0
 30 32  2  0
 29 33  2  0
 33 34  1  0
 33 35  1  0
 35 36  1  1
 36 37  1  0
 36 38  1  0
 35 39  1  0
 39 40  1  6
 22  1  1  0
 39 25  1  0
 40  1  1  0
 19  3  1  0
 16 12  1  0
M  END
$$$$
