
     RDKit          3D

 40 44  0  0  0  0  0  0  0  0999 V2000
  117.4519  165.6412  141.9260 C   0  0  2  0  0  0  0  0  0  0  0  0
  117.0979  165.5732  140.5039 C   0  0  0  0  0  0  0  0  0  0  0  0
  115.7301  165.9882  140.1324 C   0  0  0  0  0  0  0  0  0  0  0  0
  115.3567  165.9133  138.7745 C   0  0  0  0  0  0  0  0  0  0  0  0
  116.3008  165.4542  137.8957 F   0  0  0  0  0  0  0  0  0  0  0  0
  114.1059  166.2855  138.3673 C   0  0  0  0  0  0  0  0  0  0  0  0
  113.1410  166.7499  139.2347 C   0  0  0  0  0  0  0  0  0  0  0  0
  111.8359  167.1482  138.8252 N   0  0  0  0  0  0  0  0  0  0  0  0
  110.6691  166.5482  139.3518 C   0  0  0  0  0  0  0  0  0  0  0  0
  110.7988  165.7702  140.3414 O   0  0  0  0  0  0  0  0  0  0  0  0
  109.3747  166.8580  138.7254 C   0  0  0  0  0  0  0  0  0  0  0  0
  108.4753  167.6303  139.5034 N   0  0  0  0  0  0  0  0  0  0  0  0
  107.4646  166.9312  140.2133 C   0  0  0  0  0  0  0  0  0  0  0  0
  106.2351  167.8034  140.2565 C   0  0  0  0  0  0  0  0  0  0  0  0
  106.4718  168.8712  139.2167 C   0  0  0  0  0  0  0  0  0  0  0  0
  107.9429  168.8053  138.9145 C   0  0  0  0  0  0  0  0  0  0  0  0
  113.5052  166.8218  140.5550 C   0  0  0  0  0  0  0  0  0  0  0  0
  112.6236  167.2715  141.5172 O   0  0  0  0  0  0  0  0  0  0  0  0
  114.7906  166.4429  140.9951 C   0  0  0  0  0  0  0  0  0  0  0  0
  115.1003  166.5550  142.4188 C   0  0  0  0  0  0  0  0  0  0  0  0
  114.2428  166.9717  143.2200 O   0  0  0  0  0  0  0  0  0  0  0  0
  116.4277  166.1665  142.8526 C   0  0  0  0  0  0  0  0  0  0  0  0
  116.7876  166.2738  144.1322 C   0  0  0  0  0  0  0  0  0  0  0  0
  115.8738  166.7580  145.0506 O   0  0  0  0  0  0  0  0  0  0  0  0
  118.1705  165.8582  144.4808 C   0  0  2  0  0  0  0  0  0  0  0  0
  118.3399  164.4762  144.4753 O   0  0  0  0  0  0  0  0  0  0  0  0
  118.4068  166.2904  145.8827 C   0  0  0  0  0  0  0  0  0  0  0  0
  117.6946  165.7632  146.7679 O   0  0  0  0  0  0  0  0  0  0  0  0
  119.4004  167.2712  146.2643 C   0  0  0  0  0  0  0  0  0  0  0  0
  119.9164  167.3463  147.6355 C   0  0  0  0  0  0  0  0  0  0  0  0
  119.0430  167.0129  148.7036 N   0  0  0  0  0  0  0  0  0  0  0  0
  121.0976  167.6945  147.8727 O   0  0  0  0  0  0  0  0  0  0  0  0
  119.8311  168.1032  145.3324 C   0  0  0  0  0  0  0  0  0  0  0  0
  120.7892  169.0553  145.6827 O   0  0  0  0  0  0  0  0  0  0  0  0
  119.2823  167.9898  143.9681 C   0  0  1  0  0  0  0  0  0  0  0  0
  120.0558  168.7371  142.9949 N   0  0  0  0  0  0  0  0  0  0  0  0
  121.3936  168.2361  142.9424 C   0  0  0  0  0  0  0  0  0  0  0  0
  119.4223  168.8211  141.7015 C   0  0  0  0  0  0  0  0  0  0  0  0
  119.1481  166.5274  143.5358 C   0  0  2  0  0  0  0  0  0  0  0  0
  118.6869  166.5481  142.1182 C   0  0  0  0  0  0  0  0  0  0  0  0
  1  2  1  6
  2  3  1  0
  3  4  2  0
  4  5  1  0
  4  6  1  0
  6  7  2  0
  7  8  1  0
  8  9  1  0
  9 10  2  0
  9 11  1  0
 11 12  1  0
 12 13  1  0
 13 14  1  0
 14 15  1  0
 15 16  1  0
  7 17  1  0
 17 18  1  0
 17 19  2  0
 19 20  1  0
 20 21  2  0
 20 22  1  0
 22 23  2  0
 23 24  1  0
 23 25  1  0
 25 26  1  1
 25 27  1  0
 27 28  2  0
 27 29  1  0
 29 30  1  0
 30 31  1  0
 30 32  2  0
 29 33  2  0
 33 34  1  0
 33 35  1  0
 35 36  1  6
 36 37  1  0
 36 38  1  0
 35 39  1  0
 39 40  1  6
 22  1  1  0
 39 25  1  0
 40  1  1  0
 19  3  1  0
 16 12  1  0
M  END
$$$$
