
     RDKit          3D

 40 44  0  0  0  0  0  0  0  0999 V2000
  184.8425  163.7792  138.6053 C   0  0  2  0  0  0  0  0  0  0  0  0
  184.2810  164.7666  139.5337 C   0  0  0  0  0  0  0  0  0  0  0  0
  183.6788  164.2499  140.7792 C   0  0  0  0  0  0  0  0  0  0  0  0
  183.1132  165.1760  141.6801 C   0  0  0  0  0  0  0  0  0  0  0  0
  183.1646  166.4973  141.3255 F   0  0  0  0  0  0  0  0  0  0  0  0
  182.5431  164.7601  142.8509 C   0  0  0  0  0  0  0  0  0  0  0  0
  182.4807  163.4358  143.2269 C   0  0  0  0  0  0  0  0  0  0  0  0
  181.8965  162.9872  144.4464 N   0  0  0  0  0  0  0  0  0  0  0  0
  180.6142  162.3935  144.4896 C   0  0  0  0  0  0  0  0  0  0  0  0
  180.4749  161.2476  143.9713 O   0  0  0  0  0  0  0  0  0  0  0  0
  179.5171  163.1346  145.1307 C   0  0  0  0  0  0  0  0  0  0  0  0
  178.3488  162.3867  145.4250 N   0  0  0  0  0  0  0  0  0  0  0  0
  177.2030  162.6289  144.6232 C   0  0  0  0  0  0  0  0  0  0  0  0
  175.9809  162.4546  145.4894 C   0  0  0  0  0  0  0  0  0  0  0  0
  176.4965  162.4709  146.9075 C   0  0  0  0  0  0  0  0  0  0  0  0
  177.9799  162.2584  146.7882 C   0  0  0  0  0  0  0  0  0  0  0  0
  183.0305  162.5362  142.3498 C   0  0  0  0  0  0  0  0  0  0  0  0
  183.0276  161.1821  142.6176 O   0  0  0  0  0  0  0  0  0  0  0  0
  183.6236  162.9451  141.1371 C   0  0  0  0  0  0  0  0  0  0  0  0
  184.1917  161.9232  140.2605 C   0  0  0  0  0  0  0  0  0  0  0  0
  184.1455  160.7207  140.5808 O   0  0  0  0  0  0  0  0  0  0  0  0
  184.8021  162.3618  139.0210 C   0  0  0  0  0  0  0  0  0  0  0  0
  185.3679  161.4857  138.1900 C   0  0  0  0  0  0  0  0  0  0  0  0
  185.3625  160.1429  138.5211 O   0  0  0  0  0  0  0  0  0  0  0  0
  185.9743  162.0294  136.9477 C   0  0  2  0  0  0  0  0  0  0  0  0
  185.0257  162.4183  136.0055 O   0  0  0  0  0  0  0  0  0  0  0  0
  186.7363  160.9180  136.3215 C   0  0  0  0  0  0  0  0  0  0  0  0
  186.0785  159.9252  135.9338 O   0  0  0  0  0  0  0  0  0  0  0  0
  188.1725  160.9296  136.1426 C   0  0  0  0  0  0  0  0  0  0  0  0
  188.8288  160.0690  135.1522 C   0  0  0  0  0  0  0  0  0  0  0  0
  188.0376  159.1179  134.4562 N   0  0  0  0  0  0  0  0  0  0  0  0
  190.0570  160.1607  134.9160 O   0  0  0  0  0  0  0  0  0  0  0  0
  188.8795  161.7451  136.9050 C   0  0  0  0  0  0  0  0  0  0  0  0
  190.2656  161.7694  136.7458 O   0  0  0  0  0  0  0  0  0  0  0  0
  188.1755  162.5907  137.8871 C   0  0  1  0  0  0  0  0  0  0  0  0
  189.0204  163.6416  138.4216 N   0  0  0  0  0  0  0  0  0  0  0  0
  189.8842  163.1115  139.4296 C   0  0  0  0  0  0  0  0  0  0  0  0
  189.7164  164.3909  137.4040 C   0  0  0  0  0  0  0  0  0  0  0  0
  186.8913  163.1830  137.3009 C   0  0  2  0  0  0  0  0  0  0  0  0
  186.3322  164.0905  138.3434 C   0  0  0  0  0  0  0  0  0  0  0  0
  1  2  1  1
  2  3  1  0
  3  4  2  0
  4  5  1  0
  4  6  1  0
  6  7  2  0
  7  8  1  0
  8  9  1  0
  9 10  2  0
  9 11  1  0
 11 12  1  0
 12 13  1  0
 13 14  1  0
 14 15  1  0
 15 16  1  0
  7 17  1  0
 17 18  1  0
 17 19  2  0
 19 20  1  0
 20 21  2  0
 20 22  1  0
 22 23  2  0
 23 24  1  0
 23 25  1  0
 25 26  1  6
 25 27  1  0
 27 28  2  0
 27 29  1  0
 29 30  1  0
 30 31  1  0
 30 32  2  0
 29 33  2  0
 33 34  1  0
 33 35  1  0
 35 36  1  6
 36 37  1  0
 36 38  1  0
 35 39  1  0
 39 40  1  1
 22  1  1  0
 39 25  1  0
 40  1  1  0
 19  3  1  0
 16 12  1  0
M  END
$$$$
