
     RDKit          3D

 40 44  0  0  0  0  0  0  0  0999 V2000
  182.6638  159.6747  133.7766 C   0  0  2  0  0  0  0  0  0  0  0  0
  181.6785  160.7403  133.5625 C   0  0  0  0  0  0  0  0  0  0  0  0
  180.8112  161.0916  134.7050 C   0  0  0  0  0  0  0  0  0  0  0  0
  179.8412  162.0986  134.5204 C   0  0  0  0  0  0  0  0  0  0  0  0
  179.7759  162.6777  133.2817 F   0  0  0  0  0  0  0  0  0  0  0  0
  179.0104  162.4703  135.5404 C   0  0  0  0  0  0  0  0  0  0  0  0
  179.0590  161.9006  136.7942 C   0  0  0  0  0  0  0  0  0  0  0  0
  178.2053  162.2817  137.8692 N   0  0  0  0  0  0  0  0  0  0  0  0
  177.1283  161.4708  138.2950 C   0  0  0  0  0  0  0  0  0  0  0  0
  177.3919  160.4750  139.0299 O   0  0  0  0  0  0  0  0  0  0  0  0
  175.7673  161.8255  137.8640 C   0  0  0  0  0  0  0  0  0  0  0  0
  174.7143  161.3982  138.7122 N   0  0  0  0  0  0  0  0  0  0  0  0
  174.7140  160.0365  139.1122 C   0  0  0  0  0  0  0  0  0  0  0  0
  173.2801  159.5883  139.2439 C   0  0  0  0  0  0  0  0  0  0  0  0
  172.4690  160.6470  138.5379 C   0  0  0  0  0  0  0  0  0  0  0  0
  173.3997  161.8177  138.3857 C   0  0  0  0  0  0  0  0  0  0  0  0
  180.0024  160.9211  136.9723 C   0  0  0  0  0  0  0  0  0  0  0  0
  180.1459  160.2776  138.1849 O   0  0  0  0  0  0  0  0  0  0  0  0
  180.8691  160.5236  135.9329 C   0  0  0  0  0  0  0  0  0  0  0  0
  181.8502  159.4758  136.2068 C   0  0  0  0  0  0  0  0  0  0  0  0
  181.9108  158.9472  137.3327 O   0  0  0  0  0  0  0  0  0  0  0  0
  182.7364  159.0836  135.1288 C   0  0  0  0  0  0  0  0  0  0  0  0
  183.6761  158.1567  135.3192 C   0  0  0  0  0  0  0  0  0  0  0  0
  183.7953  157.5639  136.5631 O   0  0  0  0  0  0  0  0  0  0  0  0
  184.5416  157.8257  134.1582 C   0  0  2  0  0  0  0  0  0  0  0  0
  183.8873  157.0658  133.1922 O   0  0  0  0  0  0  0  0  0  0  0  0
  185.6400  156.9680  134.6739 C   0  0  0  0  0  0  0  0  0  0  0  0
  185.3174  155.8532  135.1450 O   0  0  0  0  0  0  0  0  0  0  0  0
  187.0350  157.3529  134.6572 C   0  0  0  0  0  0  0  0  0  0  0  0
  188.1069  156.3547  134.7413 C   0  0  0  0  0  0  0  0  0  0  0  0
  188.1896  155.3675  133.7247 N   0  0  0  0  0  0  0  0  0  0  0  0
  188.9363  156.3617  135.6819 O   0  0  0  0  0  0  0  0  0  0  0  0
  187.3155  158.6408  134.5636 C   0  0  0  0  0  0  0  0  0  0  0  0
  188.6555  159.0299  134.5460 O   0  0  0  0  0  0  0  0  0  0  0  0
  186.2042  159.6072  134.4824 C   0  0  1  0  0  0  0  0  0  0  0  0
  186.6452  160.9270  134.0732 N   0  0  0  0  0  0  0  0  0  0  0  0
  187.1609  161.6425  135.1982 C   0  0  0  0  0  0  0  0  0  0  0  0
  187.5427  160.9072  132.9439 C   0  0  0  0  0  0  0  0  0  0  0  0
  185.0896  159.1060  133.5604 C   0  0  2  0  0  0  0  0  0  0  0  0
  184.0841  160.2038  133.4803 C   0  0  0  0  0  0  0  0  0  0  0  0
  1  2  1  1
  2  3  1  0
  3  4  2  0
  4  5  1  0
  4  6  1  0
  6  7  2  0
  7  8  1  0
  8  9  1  0
  9 10  2  0
  9 11  1  0
 11 12  1  0
 12 13  1  0
 13 14  1  0
 14 15  1  0
 15 16  1  0
  7 17  1  0
 17 18  1  0
 17 19  2  0
 19 20  1  0
 20 21  2  0
 20 22  1  0
 22 23  2  0
 23 24  1  0
 23 25  1  0
 25 26  1  6
 25 27  1  0
 27 28  2  0
 27 29  1  0
 29 30  1  0
 30 31  1  0
 30 32  2  0
 29 33  2  0
 33 34  1  0
 33 35  1  0
 35 36  1  6
 36 37  1  0
 36 38  1  0
 35 39  1  0
 39 40  1  1
 22  1  1  0
 39 25  1  0
 40  1  1  0
 19  3  1  0
 16 12  1  0
M  END
$$$$
