
     RDKit          3D

 40 44  0  0  0  0  0  0  0  0999 V2000
  187.1560  163.2310  138.7282 C   0  0  2  0  0  0  0  0  0  0  0  0
  187.6619  163.6048  140.0536 C   0  0  0  0  0  0  0  0  0  0  0  0
  187.2599  162.7518  141.1902 C   0  0  0  0  0  0  0  0  0  0  0  0
  187.7153  163.1003  142.4787 C   0  0  0  0  0  0  0  0  0  0  0  0
  188.5020  164.2163  142.5780 F   0  0  0  0  0  0  0  0  0  0  0  0
  187.3796  162.3491  143.5704 C   0  0  0  0  0  0  0  0  0  0  0  0
  186.5893  161.2228  143.4928 C   0  0  0  0  0  0  0  0  0  0  0  0
  186.2366  160.4257  144.6196 N   0  0  0  0  0  0  0  0  0  0  0  0
  185.5502  160.9630  145.7327 C   0  0  0  0  0  0  0  0  0  0  0  0
  186.1187  161.8817  146.3915 O   0  0  0  0  0  0  0  0  0  0  0  0
  184.2202  160.4289  146.0640 C   0  0  0  0  0  0  0  0  0  0  0  0
  184.1973  159.1479  146.6717 N   0  0  0  0  0  0  0  0  0  0  0  0
  184.8154  158.0828  145.9662 C   0  0  0  0  0  0  0  0  0  0  0  0
  184.0450  156.8195  146.2577 C   0  0  0  0  0  0  0  0  0  0  0  0
  182.7409  157.2824  146.8597 C   0  0  0  0  0  0  0  0  0  0  0  0
  182.9736  158.7169  147.2443 C   0  0  0  0  0  0  0  0  0  0  0  0
  186.1467  160.8853  142.2394 C   0  0  0  0  0  0  0  0  0  0  0  0
  185.3483  159.7778  142.0364 O   0  0  0  0  0  0  0  0  0  0  0  0
  186.4821  161.6469  141.1005 C   0  0  0  0  0  0  0  0  0  0  0  0
  185.9737  161.2159  139.8001 C   0  0  0  0  0  0  0  0  0  0  0  0
  185.2574  160.2014  139.7076 O   0  0  0  0  0  0  0  0  0  0  0  0
  186.3328  162.0072  138.6399 C   0  0  0  0  0  0  0  0  0  0  0  0
  185.9298  161.6527  137.4191 C   0  0  0  0  0  0  0  0  0  0  0  0
  185.1551  160.5168  137.2689 O   0  0  0  0  0  0  0  0  0  0  0  0
  186.3531  162.5211  136.2906 C   0  0  2  0  0  0  0  0  0  0  0  0
  185.6614  163.7287  136.2456 O   0  0  0  0  0  0  0  0  0  0  0  0
  185.9962  161.8022  135.0401 C   0  0  0  0  0  0  0  0  0  0  0  0
  184.7786  161.5965  134.8302 O   0  0  0  0  0  0  0  0  0  0  0  0
  186.9694  161.3387  134.0743 C   0  0  0  0  0  0  0  0  0  0  0  0
  186.5948  161.0525  132.6851 C   0  0  0  0  0  0  0  0  0  0  0  0
  185.2231  160.8415  132.3869 N   0  0  0  0  0  0  0  0  0  0  0  0
  187.4542  160.9931  131.7738 O   0  0  0  0  0  0  0  0  0  0  0  0
  188.2151  161.1800  134.4858 C   0  0  0  0  0  0  0  0  0  0  0  0
  189.1667  160.7340  133.5678 O   0  0  0  0  0  0  0  0  0  0  0  0
  188.5439  161.4797  135.8920 C   0  0  1  0  0  0  0  0  0  0  0  0
  189.9735  161.5649  136.1218 N   0  0  0  0  0  0  0  0  0  0  0  0
  190.5212  162.6707  135.4004 C   0  0  0  0  0  0  0  0  0  0  0  0
  190.3311  161.5564  137.5193 C   0  0  0  0  0  0  0  0  0  0  0  0
  187.8480  162.7559  136.3724 C   0  0  2  0  0  0  0  0  0  0  0  0
  188.3367  163.0055  137.7586 C   0  0  0  0  0  0  0  0  0  0  0  0
  1  2  1  1
  2  3  1  0
  3  4  2  0
  4  5  1  0
  4  6  1  0
  6  7  2  0
  7  8  1  0
  8  9  1  0
  9 10  2  0
  9 11  1  0
 11 12  1  0
 12 13  1  0
 13 14  1  0
 14 15  1  0
 15 16  1  0
  7 17  1  0
 17 18  1  0
 17 19  2  0
 19 20  1  0
 20 21  2  0
 20 22  1  0
 22 23  2  0
 23 24  1  0
 23 25  1  0
 25 26  1  1
 25 27  1  0
 27 28  2  0
 27 29  1  0
 29 30  1  0
 30 31  1  0
 30 32  2  0
 29 33  2  0
 33 34  1  0
 33 35  1  0
 35 36  1  6
 36 37  1  0
 36 38  1  0
 35 39  1  0
 39 40  1  1
 22  1  1  0
 39 25  1  0
 40  1  1  0
 19  3  1  0
 16 12  1  0
M  END
$$$$
