
     RDKit          3D

 40 44  0  0  0  0  0  0  0  0999 V2000
  202.5500  135.7066  131.5651 C   0  0  2  0  0  0  0  0  0  0  0  0
  203.0356  134.4387  132.1207 C   0  0  0  0  0  0  0  0  0  0  0  0
  204.4895  134.3204  132.3516 C   0  0  0  0  0  0  0  0  0  0  0  0
  204.9859  133.1046  132.8658 C   0  0  0  0  0  0  0  0  0  0  0  0
  204.0717  132.1157  133.1120 F   0  0  0  0  0  0  0  0  0  0  0  0
  206.3212  132.9344  133.1035 C   0  0  0  0  0  0  0  0  0  0  0  0
  207.2580  133.9161  132.8628 C   0  0  0  0  0  0  0  0  0  0  0  0
  208.6516  133.7568  133.1118 N   0  0  0  0  0  0  0  0  0  0  0  0
  209.2576  134.2161  134.3037 C   0  0  0  0  0  0  0  0  0  0  0  0
  208.5434  134.8736  135.1154 O   0  0  0  0  0  0  0  0  0  0  0  0
  210.6771  133.9075  134.5354 C   0  0  0  0  0  0  0  0  0  0  0  0
  211.2514  134.4611  135.7077 N   0  0  0  0  0  0  0  0  0  0  0  0
  211.3734  135.8739  135.7668 C   0  0  0  0  0  0  0  0  0  0  0  0
  212.6217  136.2032  136.5462 C   0  0  0  0  0  0  0  0  0  0  0  0
  213.4025  134.9132  136.6047 C   0  0  0  0  0  0  0  0  0  0  0  0
  212.4206  133.8424  136.2188 C   0  0  0  0  0  0  0  0  0  0  0  0
  206.7741  135.0977  132.3623 C   0  0  0  0  0  0  0  0  0  0  0  0
  207.6165  136.1545  132.0814 O   0  0  0  0  0  0  0  0  0  0  0  0
  205.4001  135.2933  132.1105 C   0  0  0  0  0  0  0  0  0  0  0  0
  204.9659  136.5845  131.5817 C   0  0  0  0  0  0  0  0  0  0  0  0
  205.7959  137.4852  131.3565 O   0  0  0  0  0  0  0  0  0  0  0  0
  203.5497  136.7699  131.3342 C   0  0  0  0  0  0  0  0  0  0  0  0
  203.0812  137.9338  130.8823 C   0  0  0  0  0  0  0  0  0  0  0  0
  203.9664  138.9697  130.6449 O   0  0  0  0  0  0  0  0  0  0  0  0
  201.6149  138.0319  130.6654 C   0  0  2  0  0  0  0  0  0  0  0  0
  201.1855  137.3396  129.5362 O   0  0  0  0  0  0  0  0  0  0  0  0
  201.3161  139.4634  130.4019 C   0  0  0  0  0  0  0  0  0  0  0  0
  201.8143  139.9675  129.3692 O   0  0  0  0  0  0  0  0  0  0  0  0
  200.4935  140.2843  131.2646 C   0  0  0  0  0  0  0  0  0  0  0  0
  199.8566  141.5119  130.7755 C   0  0  0  0  0  0  0  0  0  0  0  0
  200.3309  142.0809  129.5646 N   0  0  0  0  0  0  0  0  0  0  0  0
  198.9155  142.0557  131.4010 O   0  0  0  0  0  0  0  0  0  0  0  0
  200.3332  139.8909  132.5159 C   0  0  0  0  0  0  0  0  0  0  0  0
  199.5432  140.6703  133.3618 O   0  0  0  0  0  0  0  0  0  0  0  0
  200.9940  138.6501  132.9622 C   0  0  1  0  0  0  0  0  0  0  0  0
  200.4876  138.1792  134.2372 N   0  0  0  0  0  0  0  0  0  0  0  0
  199.8137  139.2395  134.9191 C   0  0  0  0  0  0  0  0  0  0  0  0
  199.7032  136.9730  134.1325 C   0  0  0  0  0  0  0  0  0  0  0  0
  200.8913  137.5471  131.9055 C   0  0  2  0  0  0  0  0  0  0  0  0
  201.4982  136.3270  132.5104 C   0  0  0  0  0  0  0  0  0  0  0  0
  1  2  1  1
  2  3  1  0
  3  4  2  0
  4  5  1  0
  4  6  1  0
  6  7  2  0
  7  8  1  0
  8  9  1  0
  9 10  2  0
  9 11  1  0
 11 12  1  0
 12 13  1  0
 13 14  1  0
 14 15  1  0
 15 16  1  0
  7 17  1  0
 17 18  1  0
 17 19  2  0
 19 20  1  0
 20 21  2  0
 20 22  1  0
 22 23  2  0
 23 24  1  0
 23 25  1  0
 25 26  1  6
 25 27  1  0
 27 28  2  0
 27 29  1  0
 29 30  1  0
 30 31  1  0
 30 32  2  0
 29 33  2  0
 33 34  1  0
 33 35  1  0
 35 36  1  1
 36 37  1  0
 36 38  1  0
 35 39  1  0
 39 40  1  1
 22  1  1  0
 39 25  1  0
 40  1  1  0
 19  3  1  0
 16 12  1  0
M  END
$$$$
