
     RDKit          3D

 40 44  0  0  0  0  0  0  0  0999 V2000
  189.9473  162.6546  121.9143 C   0  0  2  0  0  0  0  0  0  0  0  0
  188.8851  163.6642  121.9842 C   0  0  0  0  0  0  0  0  0  0  0  0
  188.3577  164.1730  120.7020 C   0  0  0  0  0  0  0  0  0  0  0  0
  187.3503  165.1593  120.7402 C   0  0  0  0  0  0  0  0  0  0  0  0
  186.9359  165.5754  121.9769 F   0  0  0  0  0  0  0  0  0  0  0  0
  186.8200  165.6681  119.5876 C   0  0  0  0  0  0  0  0  0  0  0  0
  187.2225  165.2637  118.3332 C   0  0  0  0  0  0  0  0  0  0  0  0
  186.6749  165.7788  117.1231 N   0  0  0  0  0  0  0  0  0  0  0  0
  187.3566  166.7389  116.3407 C   0  0  0  0  0  0  0  0  0  0  0  0
  188.4737  167.1594  116.7607 O   0  0  0  0  0  0  0  0  0  0  0  0
  186.7350  167.1953  115.0880 C   0  0  0  0  0  0  0  0  0  0  0  0
  185.7305  166.3524  114.5481 N   0  0  0  0  0  0  0  0  0  0  0  0
  185.9183  165.8854  113.2211 C   0  0  0  0  0  0  0  0  0  0  0  0
  184.5626  165.7662  112.5712 C   0  0  0  0  0  0  0  0  0  0  0  0
  183.6268  166.5432  113.4644 C   0  0  0  0  0  0  0  0  0  0  0  0
  184.3792  166.7309  114.7523 C   0  0  0  0  0  0  0  0  0  0  0  0
  188.2025  164.3049  118.2973 C   0  0  0  0  0  0  0  0  0  0  0  0
  188.6869  163.8210  117.0989 O   0  0  0  0  0  0  0  0  0  0  0  0
  188.7622  163.7671  119.4751 C   0  0  0  0  0  0  0  0  0  0  0  0
  189.7988  162.7448  119.3496 C   0  0  0  0  0  0  0  0  0  0  0  0
  190.1777  162.3652  118.2257 O   0  0  0  0  0  0  0  0  0  0  0  0
  190.3589  162.1992  120.5702 C   0  0  0  0  0  0  0  0  0  0  0  0
  191.2851  161.2406  120.5288 C   0  0  0  0  0  0  0  0  0  0  0  0
  191.7142  160.7713  119.3006 O   0  0  0  0  0  0  0  0  0  0  0  0
  191.7948  160.7388  121.8307 C   0  0  2  0  0  0  0  0  0  0  0  0
  192.6510  161.6374  122.4616 O   0  0  0  0  0  0  0  0  0  0  0  0
  192.6155  159.5361  121.5342 C   0  0  0  0  0  0  0  0  0  0  0  0
  193.6474  159.7076  120.8453 O   0  0  0  0  0  0  0  0  0  0  0  0
  192.2848  158.2045  121.9948 C   0  0  0  0  0  0  0  0  0  0  0  0
  193.3001  157.1491  122.0819 C   0  0  0  0  0  0  0  0  0  0  0  0
  194.4998  157.3053  121.3394 N   0  0  0  0  0  0  0  0  0  0  0  0
  193.1259  156.1295  122.7908 O   0  0  0  0  0  0  0  0  0  0  0  0
  191.0306  157.9669  122.3366 C   0  0  0  0  0  0  0  0  0  0  0  0
  190.6940  156.6884  122.7831 O   0  0  0  0  0  0  0  0  0  0  0  0
  190.0451  159.0592  122.2314 C   0  0  1  0  0  0  0  0  0  0  0  0
  188.8061  158.7573  122.9224 N   0  0  0  0  0  0  0  0  0  0  0  0
  188.6679  157.3440  123.0867 C   0  0  0  0  0  0  0  0  0  0  0  0
  188.6387  159.4977  124.1492 C   0  0  0  0  0  0  0  0  0  0  0  0
  190.6233  160.3877  122.7257 C   0  0  2  0  0  0  0  0  0  0  0  0
  189.5110  161.3787  122.6670 C   0  0  0  0  0  0  0  0  0  0  0  0
  1  2  1  6
  2  3  1  0
  3  4  2  0
  4  5  1  0
  4  6  1  0
  6  7  2  0
  7  8  1  0
  8  9  1  0
  9 10  2  0
  9 11  1  0
 11 12  1  0
 12 13  1  0
 13 14  1  0
 14 15  1  0
 15 16  1  0
  7 17  1  0
 17 18  1  0
 17 19  2  0
 19 20  1  0
 20 21  2  0
 20 22  1  0
 22 23  2  0
 23 24  1  0
 23 25  1  0
 25 26  1  1
 25 27  1  0
 27 28  2  0
 27 29  1  0
 29 30  1  0
 30 31  1  0
 30 32  2  0
 29 33  2  0
 33 34  1  0
 33 35  1  0
 35 36  1  1
 36 37  1  0
 36 38  1  0
 35 39  1  0
 39 40  1  6
 22  1  1  0
 39 25  1  0
 40  1  1  0
 19  3  1  0
 16 12  1  0
M  END
$$$$
