
     RDKit          3D

 40 44  0  0  0  0  0  0  0  0999 V2000
  132.3715  163.5426  155.6335 C   0  0  2  0  0  0  0  0  0  0  0  0
  133.3236  164.6447  155.4566 C   0  0  0  0  0  0  0  0  0  0  0  0
  134.7479  164.3481  155.7104 C   0  0  0  0  0  0  0  0  0  0  0  0
  135.6823  165.3948  155.5677 C   0  0  0  0  0  0  0  0  0  0  0  0
  135.1912  166.6196  155.2032 F   0  0  0  0  0  0  0  0  0  0  0  0
  137.0150  165.1827  155.7861 C   0  0  0  0  0  0  0  0  0  0  0  0
  137.5302  163.9585  156.1537 C   0  0  0  0  0  0  0  0  0  0  0  0
  138.9167  163.7197  156.3779 N   0  0  0  0  0  0  0  0  0  0  0  0
  139.4029  163.2276  157.6109 C   0  0  0  0  0  0  0  0  0  0  0  0
  138.7271  162.3341  158.1993 O   0  0  0  0  0  0  0  0  0  0  0  0
  140.6604  163.7769  158.1409 C   0  0  0  0  0  0  0  0  0  0  0  0
  141.5508  162.8413  158.7261 N   0  0  0  0  0  0  0  0  0  0  0  0
  142.5979  162.3416  157.9086 C   0  0  0  0  0  0  0  0  0  0  0  0
  142.8676  160.9145  158.3146 C   0  0  0  0  0  0  0  0  0  0  0  0
  141.6739  160.5074  159.1432 C   0  0  0  0  0  0  0  0  0  0  0  0
  140.9860  161.7955  159.4997 C   0  0  0  0  0  0  0  0  0  0  0  0
  136.6205  162.9416  156.2926 C   0  0  0  0  0  0  0  0  0  0  0  0
  137.0176  161.6709  156.6570 O   0  0  0  0  0  0  0  0  0  0  0  0
  135.2416  163.1400  156.0715 C   0  0  0  0  0  0  0  0  0  0  0  0
  134.3394  162.0023  156.2357 C   0  0  0  0  0  0  0  0  0  0  0  0
  134.7839  160.8874  156.5679 O   0  0  0  0  0  0  0  0  0  0  0  0
  132.9263  162.2229  155.9991 C   0  0  0  0  0  0  0  0  0  0  0  0
  132.0517  161.2212  156.0997 C   0  0  0  0  0  0  0  0  0  0  0  0
  132.5076  159.9606  156.4399 O   0  0  0  0  0  0  0  0  0  0  0  0
  130.6260  161.5416  155.8321 C   0  0  2  0  0  0  0  0  0  0  0  0
  130.0283  162.2614  156.8633 O   0  0  0  0  0  0  0  0  0  0  0  0
  129.9010  160.2461  155.7681 C   0  0  0  0  0  0  0  0  0  0  0  0
  129.8708  159.5591  156.8150 O   0  0  0  0  0  0  0  0  0  0  0  0
  129.2423  159.7522  154.5778 C   0  0  0  0  0  0  0  0  0  0  0  0
  128.1863  158.7365  154.6514 C   0  0  0  0  0  0  0  0  0  0  0  0
  128.2067  157.8204  155.7355 N   0  0  0  0  0  0  0  0  0  0  0  0
  127.2819  158.6680  153.7853 O   0  0  0  0  0  0  0  0  0  0  0  0
  129.6247  160.2479  153.4141 C   0  0  0  0  0  0  0  0  0  0  0  0
  129.0002  159.7832  152.2560 O   0  0  0  0  0  0  0  0  0  0  0  0
  130.6910  161.2666  153.3902 C   0  0  1  0  0  0  0  0  0  0  0  0
  130.7881  161.9384  152.1083 N   0  0  0  0  0  0  0  0  0  0  0  0
  129.5226  162.4993  151.7513 C   0  0  0  0  0  0  0  0  0  0  0  0
  131.8762  162.8830  152.0370 C   0  0  0  0  0  0  0  0  0  0  0  0
  130.5183  162.2878  154.5175 C   0  0  2  0  0  0  0  0  0  0  0  0
  131.5847  163.3118  154.3249 C   0  0  0  0  0  0  0  0  0  0  0  0
  1  2  1  6
  2  3  1  0
  3  4  2  0
  4  5  1  0
  4  6  1  0
  6  7  2  0
  7  8  1  0
  8  9  1  0
  9 10  2  0
  9 11  1  0
 11 12  1  0
 12 13  1  0
 13 14  1  0
 14 15  1  0
 15 16  1  0
  7 17  1  0
 17 18  1  0
 17 19  2  0
 19 20  1  0
 20 21  2  0
 20 22  1  0
 22 23  2  0
 23 24  1  0
 23 25  1  0
 25 26  1  1
 25 27  1  0
 27 28  2  0
 27 29  1  0
 29 30  1  0
 30 31  1  0
 30 32  2  0
 29 33  2  0
 33 34  1  0
 33 35  1  0
 35 36  1  6
 36 37  1  0
 36 38  1  0
 35 39  1  0
 39 40  1  1
 22  1  1  0
 39 25  1  0
 40  1  1  0
 19  3  1  0
 16 12  1  0
M  END
$$$$
