
     RDKit          3D

 40 44  0  0  0  0  0  0  0  0999 V2000
  135.8566  162.9028  154.4222 C   0  0  2  0  0  0  0  0  0  0  0  0
  135.3852  163.8591  153.4145 C   0  0  0  0  0  0  0  0  0  0  0  0
  133.9597  163.7861  153.0353 C   0  0  0  0  0  0  0  0  0  0  0  0
  133.4846  164.6804  152.0537 C   0  0  0  0  0  0  0  0  0  0  0  0
  134.3922  165.5555  151.5202 F   0  0  0  0  0  0  0  0  0  0  0  0
  132.1751  164.6639  151.6619 C   0  0  0  0  0  0  0  0  0  0  0  0
  131.2454  163.7917  152.1856 C   0  0  0  0  0  0  0  0  0  0  0  0
  129.8761  163.7668  151.7932 N   0  0  0  0  0  0  0  0  0  0  0  0
  128.8952  164.5494  152.4444 C   0  0  0  0  0  0  0  0  0  0  0  0
  128.2422  164.0152  153.3875 O   0  0  0  0  0  0  0  0  0  0  0  0
  128.6870  165.9342  151.9939 C   0  0  0  0  0  0  0  0  0  0  0  0
  127.3460  166.3048  151.7194 N   0  0  0  0  0  0  0  0  0  0  0  0
  126.4433  166.3355  152.8141 C   0  0  0  0  0  0  0  0  0  0  0  0
  125.0820  165.9280  152.3090 C   0  0  0  0  0  0  0  0  0  0  0  0
  125.3327  165.3028  150.9586 C   0  0  0  0  0  0  0  0  0  0  0  0
  126.7261  165.7245  150.5837 C   0  0  0  0  0  0  0  0  0  0  0  0
  131.7088  162.9223  153.1397 C   0  0  0  0  0  0  0  0  0  0  0  0
  130.8711  162.0020  153.7368 O   0  0  0  0  0  0  0  0  0  0  0  0
  133.0559  162.9236  153.5578 C   0  0  0  0  0  0  0  0  0  0  0  0
  133.4675  161.9679  154.5837 C   0  0  0  0  0  0  0  0  0  0  0  0
  132.6438  161.1705  155.0699 O   0  0  0  0  0  0  0  0  0  0  0  0
  134.8543  161.9870  155.0053 C   0  0  0  0  0  0  0  0  0  0  0  0
  135.2902  161.1641  155.9600 C   0  0  0  0  0  0  0  0  0  0  0  0
  134.4012  160.2811  156.5456 O   0  0  0  0  0  0  0  0  0  0  0  0
  136.7255  161.2612  156.3303 C   0  0  2  0  0  0  0  0  0  0  0  0
  137.5722  160.7117  155.3712 O   0  0  0  0  0  0  0  0  0  0  0  0
  136.9086  160.4373  157.5533 C   0  0  0  0  0  0  0  0  0  0  0  0
  136.7010  159.2068  157.4462 O   0  0  0  0  0  0  0  0  0  0  0  0
  137.3073  160.9793  158.8346 C   0  0  0  0  0  0  0  0  0  0  0  0
  137.9053  160.1326  159.8727 C   0  0  0  0  0  0  0  0  0  0  0  0
  137.2059  158.9648  160.2755 N   0  0  0  0  0  0  0  0  0  0  0  0
  139.0062  160.4209  160.3995 O   0  0  0  0  0  0  0  0  0  0  0  0
  137.1142  162.2700  159.0422 C   0  0  0  0  0  0  0  0  0  0  0  0
  137.4929  162.8096  160.2721 O   0  0  0  0  0  0  0  0  0  0  0  0
  136.5090  163.0808  157.9690 C   0  0  1  0  0  0  0  0  0  0  0  0
  136.6438  164.5053  158.2063 N   0  0  0  0  0  0  0  0  0  0  0  0
  138.0181  164.8403  158.4127 C   0  0  0  0  0  0  0  0  0  0  0  0
  135.9986  165.3173  157.2036 C   0  0  0  0  0  0  0  0  0  0  0  0
  137.0774  162.7110  156.5964 C   0  0  2  0  0  0  0  0  0  0  0  0
  136.4704  163.6601  155.6199 C   0  0  0  0  0  0  0  0  0  0  0  0
  1  2  1  6
  2  3  1  0
  3  4  2  0
  4  5  1  0
  4  6  1  0
  6  7  2  0
  7  8  1  0
  8  9  1  0
  9 10  2  0
  9 11  1  0
 11 12  1  0
 12 13  1  0
 13 14  1  0
 14 15  1  0
 15 16  1  0
  7 17  1  0
 17 18  1  0
 17 19  2  0
 19 20  1  0
 20 21  2  0
 20 22  1  0
 22 23  2  0
 23 24  1  0
 23 25  1  0
 25 26  1  6
 25 27  1  0
 27 28  2  0
 27 29  1  0
 29 30  1  0
 30 31  1  0
 30 32  2  0
 29 33  2  0
 33 34  1  0
 33 35  1  0
 35 36  1  1
 36 37  1  0
 36 38  1  0
 35 39  1  0
 39 40  1  6
 22  1  1  0
 39 25  1  0
 40  1  1  0
 19  3  1  0
 16 12  1  0
M  END
$$$$
