
     RDKit          3D

 40 44  0  0  0  0  0  0  0  0999 V2000
  127.1223  146.7436  133.8578 C   0  0  2  0  0  0  0  0  0  0  0  0
  126.5108  145.6756  133.0591 C   0  0  0  0  0  0  0  0  0  0  0  0
  127.4131  144.6335  132.5293 C   0  0  0  0  0  0  0  0  0  0  0  0
  126.8543  143.6062  131.7410 C   0  0  0  0  0  0  0  0  0  0  0  0
  125.5037  143.6561  131.5232 F   0  0  0  0  0  0  0  0  0  0  0  0
  127.6368  142.6115  131.2242 C   0  0  0  0  0  0  0  0  0  0  0  0
  128.9976  142.5424  131.4309 C   0  0  0  0  0  0  0  0  0  0  0  0
  129.8253  141.5090  130.9053 N   0  0  0  0  0  0  0  0  0  0  0  0
  130.3495  140.4803  131.7213 C   0  0  0  0  0  0  0  0  0  0  0  0
  130.0373  140.4807  132.9476 O   0  0  0  0  0  0  0  0  0  0  0  0
  131.2245  139.4708  131.1055 C   0  0  0  0  0  0  0  0  0  0  0  0
  132.3849  139.9647  130.4571 N   0  0  0  0  0  0  0  0  0  0  0  0
  132.2047  140.6126  129.2073 C   0  0  0  0  0  0  0  0  0  0  0  0
  133.4126  140.3229  128.3521 C   0  0  0  0  0  0  0  0  0  0  0  0
  134.1133  139.1738  129.0346 C   0  0  0  0  0  0  0  0  0  0  0  0
  133.5218  139.1182  130.4155 C   0  0  0  0  0  0  0  0  0  0  0  0
  129.5398  143.5423  132.1972 C   0  0  0  0  0  0  0  0  0  0  0  0
  130.8917  143.5795  132.4731 O   0  0  0  0  0  0  0  0  0  0  0  0
  128.7496  144.5771  132.7398 C   0  0  0  0  0  0  0  0  0  0  0  0
  129.4047  145.6016  133.5501 C   0  0  0  0  0  0  0  0  0  0  0  0
  130.6332  145.5585  133.7490 O   0  0  0  0  0  0  0  0  0  0  0  0
  128.5765  146.6543  134.1043 C   0  0  0  0  0  0  0  0  0  0  0  0
  129.1040  147.6028  134.8792 C   0  0  0  0  0  0  0  0  0  0  0  0
  130.4606  147.5762  135.1475 O   0  0  0  0  0  0  0  0  0  0  0  0
  128.1759  148.6356  135.4072 C   0  0  2  0  0  0  0  0  0  0  0  0
  127.7743  149.5512  134.4381 O   0  0  0  0  0  0  0  0  0  0  0  0
  128.9361  149.4190  136.4153 C   0  0  0  0  0  0  0  0  0  0  0  0
  129.9214  150.0728  136.0024 O   0  0  0  0  0  0  0  0  0  0  0  0
  128.5979  149.4606  137.8219 C   0  0  0  0  0  0  0  0  0  0  0  0
  129.0554  150.5523  138.6886 C   0  0  0  0  0  0  0  0  0  0  0  0
  130.1067  151.3857  138.2246 N   0  0  0  0  0  0  0  0  0  0  0  0
  128.5395  150.7560  139.8133 O   0  0  0  0  0  0  0  0  0  0  0  0
  127.8591  148.4772  138.3050 C   0  0  0  0  0  0  0  0  0  0  0  0
  127.5234  148.5013  139.6592 O   0  0  0  0  0  0  0  0  0  0  0  0
  127.4235  147.4011  137.3953 C   0  0  1  0  0  0  0  0  0  0  0  0
  126.3801  146.5751  137.9722 N   0  0  0  0  0  0  0  0  0  0  0  0
  126.3701  146.7196  139.3943 C   0  0  0  0  0  0  0  0  0  0  0  0
  125.0873  146.7771  137.3647 C   0  0  0  0  0  0  0  0  0  0  0  0
  126.9781  147.9565  136.0400 C   0  0  2  0  0  0  0  0  0  0  0  0
  126.4688  146.7952  135.2560 C   0  0  0  0  0  0  0  0  0  0  0  0
  1  2  1  1
  2  3  1  0
  3  4  2  0
  4  5  1  0
  4  6  1  0
  6  7  2  0
  7  8  1  0
  8  9  1  0
  9 10  2  0
  9 11  1  0
 11 12  1  0
 12 13  1  0
 13 14  1  0
 14 15  1  0
 15 16  1  0
  7 17  1  0
 17 18  1  0
 17 19  2  0
 19 20  1  0
 20 21  2  0
 20 22  1  0
 22 23  2  0
 23 24  1  0
 23 25  1  0
 25 26  1  6
 25 27  1  0
 27 28  2  0
 27 29  1  0
 29 30  1  0
 30 31  1  0
 30 32  2  0
 29 33  2  0
 33 34  1  0
 33 35  1  0
 35 36  1  1
 36 37  1  0
 36 38  1  0
 35 39  1  0
 39 40  1  6
 22  1  1  0
 39 25  1  0
 40  1  1  0
 19  3  1  0
 16 12  1  0
M  END
$$$$
