
     RDKit          3D

 40 44  0  0  0  0  0  0  0  0999 V2000
  148.0451  166.1918  131.3385 C   0  0  2  0  0  0  0  0  0  0  0  0
  146.8883  165.7550  132.1280 C   0  0  0  0  0  0  0  0  0  0  0  0
  146.4108  166.6721  133.1825 C   0  0  0  0  0  0  0  0  0  0  0  0
  145.3130  166.2679  133.9701 C   0  0  0  0  0  0  0  0  0  0  0  0
  144.7698  165.0418  133.6950 F   0  0  0  0  0  0  0  0  0  0  0  0
  144.8229  167.0735  134.9599 C   0  0  0  0  0  0  0  0  0  0  0  0
  145.3545  168.3106  135.2535 C   0  0  0  0  0  0  0  0  0  0  0  0
  144.8510  169.1646  136.2766 N   0  0  0  0  0  0  0  0  0  0  0  0
  144.3116  170.4397  135.9908 C   0  0  0  0  0  0  0  0  0  0  0  0
  144.1871  171.2577  136.9482 O   0  0  0  0  0  0  0  0  0  0  0  0
  143.9261  170.7460  134.6046 C   0  0  0  0  0  0  0  0  0  0  0  0
  142.5349  170.7439  134.3302 N   0  0  0  0  0  0  0  0  0  0  0  0
  142.0842  169.9225  133.2641 C   0  0  0  0  0  0  0  0  0  0  0  0
  140.9086  170.6060  132.6122 C   0  0  0  0  0  0  0  0  0  0  0  0
  140.9484  172.0275  133.1171 C   0  0  0  0  0  0  0  0  0  0  0  0
  141.8711  171.9967  134.3035 C   0  0  0  0  0  0  0  0  0  0  0  0
  146.4224  168.7022  134.4872 C   0  0  0  0  0  0  0  0  0  0  0  0
  147.0387  169.9209  134.6879 O   0  0  0  0  0  0  0  0  0  0  0  0
  146.9425  167.8859  133.4612 C   0  0  0  0  0  0  0  0  0  0  0  0
  148.0792  168.3799  132.6872 C   0  0  0  0  0  0  0  0  0  0  0  0
  148.5753  169.4947  132.9362 O   0  0  0  0  0  0  0  0  0  0  0  0
  148.5973  167.5303  131.6331 C   0  0  0  0  0  0  0  0  0  0  0  0
  149.6122  167.9327  130.8672 C   0  0  0  0  0  0  0  0  0  0  0  0
  150.1745  169.1761  131.0928 O   0  0  0  0  0  0  0  0  0  0  0  0
  150.0699  166.9971  129.8081 C   0  0  2  0  0  0  0  0  0  0  0  0
  150.7864  165.9148  130.3121 O   0  0  0  0  0  0  0  0  0  0  0  0
  151.0226  167.7516  128.9530 C   0  0  0  0  0  0  0  0  0  0  0  0
  152.0813  168.1467  129.4931 O   0  0  0  0  0  0  0  0  0  0  0  0
  150.7886  168.0446  127.5551 C   0  0  0  0  0  0  0  0  0  0  0  0
  151.8917  168.3734  126.6456 C   0  0  0  0  0  0  0  0  0  0  0  0
  152.8797  169.2913  127.0888 N   0  0  0  0  0  0  0  0  0  0  0  0
  151.9726  167.8637  125.5027 O   0  0  0  0  0  0  0  0  0  0  0  0
  149.5414  168.0067  127.1203 C   0  0  0  0  0  0  0  0  0  0  0  0
  149.2974  168.2864  125.7751 O   0  0  0  0  0  0  0  0  0  0  0  0
  148.4656  167.6720  128.0722 C   0  0  1  0  0  0  0  0  0  0  0  0
  147.2137  167.3622  127.4084 N   0  0  0  0  0  0  0  0  0  0  0  0
  147.4205  166.3532  126.4172 C   0  0  0  0  0  0  0  0  0  0  0  0
  146.1398  167.0584  128.3226 C   0  0  0  0  0  0  0  0  0  0  0  0
  148.8747  166.5278  129.0033 C   0  0  2  0  0  0  0  0  0  0  0  0
  147.6794  166.2168  129.8384 C   0  0  0  0  0  0  0  0  0  0  0  0
  1  2  1  1
  2  3  1  0
  3  4  2  0
  4  5  1  0
  4  6  1  0
  6  7  2  0
  7  8  1  0
  8  9  1  0
  9 10  2  0
  9 11  1  0
 11 12  1  0
 12 13  1  0
 13 14  1  0
 14 15  1  0
 15 16  1  0
  7 17  1  0
 17 18  1  0
 17 19  2  0
 19 20  1  0
 20 21  2  0
 20 22  1  0
 22 23  2  0
 23 24  1  0
 23 25  1  0
 25 26  1  1
 25 27  1  0
 27 28  2  0
 27 29  1  0
 29 30  1  0
 30 31  1  0
 30 32  2  0
 29 33  2  0
 33 34  1  0
 33 35  1  0
 35 36  1  6
 36 37  1  0
 36 38  1  0
 35 39  1  0
 39 40  1  1
 22  1  1  0
 39 25  1  0
 40  1  1  0
 19  3  1  0
 16 12  1  0
M  END
$$$$
