
     RDKit          3D

 40 44  0  0  0  0  0  0  0  0999 V2000
  190.3491  160.4227  123.8455 C   0  0  2  0  0  0  0  0  0  0  0  0
  190.7922  161.7502  124.2859 C   0  0  0  0  0  0  0  0  0  0  0  0
  191.0993  161.9129  125.7213 C   0  0  0  0  0  0  0  0  0  0  0  0
  191.5078  163.1841  126.1754 C   0  0  0  0  0  0  0  0  0  0  0  0
  191.5867  164.1811  125.2406 F   0  0  0  0  0  0  0  0  0  0  0  0
  191.8086  163.3975  127.4917 C   0  0  0  0  0  0  0  0  0  0  0  0
  191.7357  162.4086  128.4487 C   0  0  0  0  0  0  0  0  0  0  0  0
  192.0526  162.6133  129.8225 N   0  0  0  0  0  0  0  0  0  0  0  0
  191.1047  162.4026  130.8500 C   0  0  0  0  0  0  0  0  0  0  0  0
  189.9393  162.0408  130.5150 O   0  0  0  0  0  0  0  0  0  0  0  0
  191.5207  162.6139  132.2451 C   0  0  0  0  0  0  0  0  0  0  0  0
  190.4767  162.8268  133.1808 N   0  0  0  0  0  0  0  0  0  0  0  0
  190.8186  163.4636  134.4022 C   0  0  0  0  0  0  0  0  0  0  0  0
  189.9391  162.8957  135.4877 C   0  0  0  0  0  0  0  0  0  0  0  0
  189.3429  161.6415  134.8972 C   0  0  0  0  0  0  0  0  0  0  0  0
  189.5806  161.7534  133.4170 C   0  0  0  0  0  0  0  0  0  0  0  0
  191.3380  161.1730  128.0059 C   0  0  0  0  0  0  0  0  0  0  0  0
  191.2275  160.1038  128.8718 O   0  0  0  0  0  0  0  0  0  0  0  0
  191.0235  160.9323  126.6521 C   0  0  0  0  0  0  0  0  0  0  0  0
  190.6128  159.5854  126.2615 C   0  0  0  0  0  0  0  0  0  0  0  0
  190.5397  158.6771  127.1103 O   0  0  0  0  0  0  0  0  0  0  0  0
  190.2988  159.3547  124.8653 C   0  0  0  0  0  0  0  0  0  0  0  0
  189.9484  158.1422  124.4346 C   0  0  0  0  0  0  0  0  0  0  0  0
  189.8815  157.0990  125.3402 O   0  0  0  0  0  0  0  0  0  0  0  0
  189.6521  158.0009  122.9858 C   0  0  2  0  0  0  0  0  0  0  0  0
  188.4294  158.5604  122.6244 O   0  0  0  0  0  0  0  0  0  0  0  0
  189.5284  156.5452  122.7143 C   0  0  0  0  0  0  0  0  0  0  0  0
  188.5902  155.9388  123.2808 O   0  0  0  0  0  0  0  0  0  0  0  0
  190.4225  155.8116  121.8441 C   0  0  0  0  0  0  0  0  0  0  0  0
  190.0314  154.5293  121.2482 C   0  0  0  0  0  0  0  0  0  0  0  0
  190.9638  153.8634  120.4101 N   0  0  0  0  0  0  0  0  0  0  0  0
  188.9052  154.0223  121.4653 O   0  0  0  0  0  0  0  0  0  0  0  0
  191.6108  156.3362  121.6016 C   0  0  0  0  0  0  0  0  0  0  0  0
  192.4856  155.6424  120.7647 O   0  0  0  0  0  0  0  0  0  0  0  0
  191.9593  157.6272  122.2240 C   0  0  1  0  0  0  0  0  0  0  0  0
  193.1410  158.2267  121.6341 N   0  0  0  0  0  0  0  0  0  0  0  0
  193.1833  159.6239  121.9327 C   0  0  0  0  0  0  0  0  0  0  0  0
  194.3616  157.5314  121.9629 C   0  0  0  0  0  0  0  0  0  0  0  0
  190.7841  158.6074  122.1813 C   0  0  2  0  0  0  0  0  0  0  0  0
  191.2889  159.8942  122.7399 C   0  0  0  0  0  0  0  0  0  0  0  0
  1  2  1  1
  2  3  1  0
  3  4  2  0
  4  5  1  0
  4  6  1  0
  6  7  2  0
  7  8  1  0
  8  9  1  0
  9 10  2  0
  9 11  1  0
 11 12  1  0
 12 13  1  0
 13 14  1  0
 14 15  1  0
 15 16  1  0
  7 17  1  0
 17 18  1  0
 17 19  2  0
 19 20  1  0
 20 21  2  0
 20 22  1  0
 22 23  2  0
 23 24  1  0
 23 25  1  0
 25 26  1  1
 25 27  1  0
 27 28  2  0
 27 29  1  0
 29 30  1  0
 30 31  1  0
 30 32  2  0
 29 33  2  0
 33 34  1  0
 33 35  1  0
 35 36  1  6
 36 37  1  0
 36 38  1  0
 35 39  1  0
 39 40  1  1
 22  1  1  0
 39 25  1  0
 40  1  1  0
 19  3  1  0
 16 12  1  0
M  END
$$$$
