
     RDKit          3D

 40 44  0  0  0  0  0  0  0  0999 V2000
  128.1009  144.6320  135.0993 C   0  0  2  0  0  0  0  0  0  0  0  0
  128.9669  143.4864  135.3996 C   0  0  0  0  0  0  0  0  0  0  0  0
  129.2804  142.5716  134.2833 C   0  0  0  0  0  0  0  0  0  0  0  0
  130.0941  141.4508  134.5488 C   0  0  0  0  0  0  0  0  0  0  0  0
  130.5337  141.2939  135.8358 F   0  0  0  0  0  0  0  0  0  0  0  0
  130.4218  140.5688  133.5571 C   0  0  0  0  0  0  0  0  0  0  0  0
  129.9902  140.7076  132.2558 C   0  0  0  0  0  0  0  0  0  0  0  0
  130.3287  139.8015  131.2099 N   0  0  0  0  0  0  0  0  0  0  0  0
  131.3521  140.0830  130.2759 C   0  0  0  0  0  0  0  0  0  0  0  0
  132.1046  141.0745  130.5036 O   0  0  0  0  0  0  0  0  0  0  0  0
  131.4867  139.2140  129.0967 C   0  0  0  0  0  0  0  0  0  0  0  0
  132.6571  139.3986  128.3175 N   0  0  0  0  0  0  0  0  0  0  0  0
  133.8540  139.7206  129.0090 C   0  0  0  0  0  0  0  0  0  0  0  0
  134.6729  140.6298  128.1276 C   0  0  0  0  0  0  0  0  0  0  0  0
  133.7191  141.1107  127.0618 C   0  0  0  0  0  0  0  0  0  0  0  0
  132.5424  140.1784  127.1387 C   0  0  0  0  0  0  0  0  0  0  0  0
  129.1986  141.7977  131.9990 C   0  0  0  0  0  0  0  0  0  0  0  0
  128.7059  142.0423  130.7330 O   0  0  0  0  0  0  0  0  0  0  0  0
  128.8495  142.7194  133.0081 C   0  0  0  0  0  0  0  0  0  0  0  0
  128.0060  143.8577  132.6500 C   0  0  0  0  0  0  0  0  0  0  0  0
  127.6045  144.0019  131.4800 O   0  0  0  0  0  0  0  0  0  0  0  0
  127.6617  144.7978  133.6983 C   0  0  0  0  0  0  0  0  0  0  0  0
  126.9222  145.8757  133.4342 C   0  0  0  0  0  0  0  0  0  0  0  0
  126.4785  146.0879  132.1416 O   0  0  0  0  0  0  0  0  0  0  0  0
  126.6266  146.7854  134.5707 C   0  0  2  0  0  0  0  0  0  0  0  0
  125.6816  146.2653  135.4511 O   0  0  0  0  0  0  0  0  0  0  0  0
  126.0120  148.0081  133.9915 C   0  0  0  0  0  0  0  0  0  0  0  0
  124.9099  147.8708  133.4125 O   0  0  0  0  0  0  0  0  0  0  0  0
  126.6150  149.3217  134.0641 C   0  0  0  0  0  0  0  0  0  0  0  0
  125.8168  150.5418  133.9010 C   0  0  0  0  0  0  0  0  0  0  0  0
  124.4543  150.4106  133.5250 N   0  0  0  0  0  0  0  0  0  0  0  0
  126.3127  151.6787  134.0861 O   0  0  0  0  0  0  0  0  0  0  0  0
  127.9164  149.3887  134.2832 C   0  0  0  0  0  0  0  0  0  0  0  0
  128.5145  150.6473  134.3564 O   0  0  0  0  0  0  0  0  0  0  0  0
  128.6772  148.1348  134.4400 C   0  0  1  0  0  0  0  0  0  0  0  0
  130.0058  148.3554  134.9784 N   0  0  0  0  0  0  0  0  0  0  0  0
  129.9496  149.2962  136.0532 C   0  0  0  0  0  0  0  0  0  0  0  0
  130.6967  147.1354  135.3180 C   0  0  0  0  0  0  0  0  0  0  0  0
  127.9157  147.1183  135.2946 C   0  0  2  0  0  0  0  0  0  0  0  0
  128.8229  145.9474  135.4642 C   0  0  0  0  0  0  0  0  0  0  0  0
  1  2  1  6
  2  3  1  0
  3  4  2  0
  4  5  1  0
  4  6  1  0
  6  7  2  0
  7  8  1  0
  8  9  1  0
  9 10  2  0
  9 11  1  0
 11 12  1  0
 12 13  1  0
 13 14  1  0
 14 15  1  0
 15 16  1  0
  7 17  1  0
 17 18  1  0
 17 19  2  0
 19 20  1  0
 20 21  2  0
 20 22  1  0
 22 23  2  0
 23 24  1  0
 23 25  1  0
 25 26  1  1
 25 27  1  0
 27 28  2  0
 27 29  1  0
 29 30  1  0
 30 31  1  0
 30 32  2  0
 29 33  2  0
 33 34  1  0
 33 35  1  0
 35 36  1  1
 36 37  1  0
 36 38  1  0
 35 39  1  0
 39 40  1  6
 22  1  1  0
 39 25  1  0
 40  1  1  0
 19  3  1  0
 16 12  1  0
M  END
$$$$
