
     RDKit          3D

 40 44  0  0  0  0  0  0  0  0999 V2000
  193.7629  160.5404  119.1426 C   0  0  2  0  0  0  0  0  0  0  0  0
  193.4930  159.1812  118.6608 C   0  0  0  0  0  0  0  0  0  0  0  0
  193.1102  158.1748  119.6715 C   0  0  0  0  0  0  0  0  0  0  0  0
  192.8651  156.8552  119.2383 C   0  0  0  0  0  0  0  0  0  0  0  0
  193.0048  156.6055  117.8996 F   0  0  0  0  0  0  0  0  0  0  0  0
  192.5047  155.8793  120.1252 C   0  0  0  0  0  0  0  0  0  0  0  0
  192.3586  156.1089  121.4761 C   0  0  0  0  0  0  0  0  0  0  0  0
  191.9770  155.1046  122.4117 N   0  0  0  0  0  0  0  0  0  0  0  0
  190.6768  155.0500  122.9643 C   0  0  0  0  0  0  0  0  0  0  0  0
  189.7919  155.8083  122.4712 O   0  0  0  0  0  0  0  0  0  0  0  0
  190.4234  154.1205  124.0759 C   0  0  0  0  0  0  0  0  0  0  0  0
  189.3517  154.4607  124.9400 N   0  0  0  0  0  0  0  0  0  0  0  0
  188.1055  154.7738  124.3375 C   0  0  0  0  0  0  0  0  0  0  0  0
  187.4281  155.8233  125.1825 C   0  0  0  0  0  0  0  0  0  0  0  0
  188.5108  156.3631  126.0847 C   0  0  0  0  0  0  0  0  0  0  0  0
  189.6270  155.3596  126.0017 C   0  0  0  0  0  0  0  0  0  0  0  0
  192.5977  157.3924  121.8961 C   0  0  0  0  0  0  0  0  0  0  0  0
  192.4833  157.7433  123.2262 O   0  0  0  0  0  0  0  0  0  0  0  0
  192.9701  158.4135  120.9970 C   0  0  0  0  0  0  0  0  0  0  0  0
  193.2015  159.7561  121.5253 C   0  0  0  0  0  0  0  0  0  0  0  0
  193.0756  159.9853  122.7429 O   0  0  0  0  0  0  0  0  0  0  0  0
  193.5781  160.7943  120.5864 C   0  0  0  0  0  0  0  0  0  0  0  0
  193.7731  162.0485  120.9957 C   0  0  0  0  0  0  0  0  0  0  0  0
  193.6168  162.3515  122.3361 O   0  0  0  0  0  0  0  0  0  0  0  0
  194.1494  163.0449  119.9603 C   0  0  2  0  0  0  0  0  0  0  0  0
  195.4652  162.9067  119.5264 O   0  0  0  0  0  0  0  0  0  0  0  0
  194.0729  164.3816  120.6047 C   0  0  0  0  0  0  0  0  0  0  0  0
  194.8658  164.6040  121.5485 O   0  0  0  0  0  0  0  0  0  0  0  0
  193.1446  165.4160  120.2010 C   0  0  0  0  0  0  0  0  0  0  0  0
  193.3812  166.8273  120.5243 C   0  0  0  0  0  0  0  0  0  0  0  0
  194.4448  167.1470  121.4084 N   0  0  0  0  0  0  0  0  0  0  0  0
  192.6697  167.7387  120.0389 O   0  0  0  0  0  0  0  0  0  0  0  0
  192.0692  165.0471  119.5275 C   0  0  0  0  0  0  0  0  0  0  0  0
  191.1635  166.0314  119.1301 O   0  0  0  0  0  0  0  0  0  0  0  0
  191.8739  163.6164  119.2266 C   0  0  1  0  0  0  0  0  0  0  0  0
  190.8416  163.3943  118.2322 N   0  0  0  0  0  0  0  0  0  0  0  0
  190.7710  164.5096  117.3409 C   0  0  0  0  0  0  0  0  0  0  0  0
  190.9597  162.1251  117.5567 C   0  0  0  0  0  0  0  0  0  0  0  0
  193.1828  162.9484  118.7972 C   0  0  2  0  0  0  0  0  0  0  0  0
  192.8374  161.5468  118.4245 C   0  0  0  0  0  0  0  0  0  0  0  0
  1  2  1  1
  2  3  1  0
  3  4  2  0
  4  5  1  0
  4  6  1  0
  6  7  2  0
  7  8  1  0
  8  9  1  0
  9 10  2  0
  9 11  1  0
 11 12  1  0
 12 13  1  0
 13 14  1  0
 14 15  1  0
 15 16  1  0
  7 17  1  0
 17 18  1  0
 17 19  2  0
 19 20  1  0
 20 21  2  0
 20 22  1  0
 22 23  2  0
 23 24  1  0
 23 25  1  0
 25 26  1  6
 25 27  1  0
 27 28  2  0
 27 29  1  0
 29 30  1  0
 30 31  1  0
 30 32  2  0
 29 33  2  0
 33 34  1  0
 33 35  1  0
 35 36  1  6
 36 37  1  0
 36 38  1  0
 35 39  1  0
 39 40  1  1
 22  1  1  0
 39 25  1  0
 40  1  1  0
 19  3  1  0
 16 12  1  0
M  END
$$$$
