
     RDKit          3D

 40 44  0  0  0  0  0  0  0  0999 V2000
  204.5422  136.6975  132.7901 C   0  0  2  0  0  0  0  0  0  0  0  0
  204.4666  138.0713  133.2995 C   0  0  0  0  0  0  0  0  0  0  0  0
  203.9799  139.1071  132.3661 C   0  0  0  0  0  0  0  0  0  0  0  0
  203.9166  140.4397  132.8236 C   0  0  0  0  0  0  0  0  0  0  0  0
  204.3180  140.6733  134.1115 F   0  0  0  0  0  0  0  0  0  0  0  0
  203.4725  141.4429  132.0082 C   0  0  0  0  0  0  0  0  0  0  0  0
  203.0641  141.2298  130.7094 C   0  0  0  0  0  0  0  0  0  0  0  0
  202.5922  142.2632  129.8497 N   0  0  0  0  0  0  0  0  0  0  0  0
  201.3025  142.2269  129.2716 C   0  0  0  0  0  0  0  0  0  0  0  0
  200.3920  141.6073  129.8947 O   0  0  0  0  0  0  0  0  0  0  0  0
  201.0890  142.9069  127.9848 C   0  0  0  0  0  0  0  0  0  0  0  0
  200.8697  144.3064  128.0489 N   0  0  0  0  0  0  0  0  0  0  0  0
  200.9941  145.0397  126.8401 C   0  0  0  0  0  0  0  0  0  0  0  0
  201.5391  146.4052  127.1757 C   0  0  0  0  0  0  0  0  0  0  0  0
  202.0711  146.2833  128.5826 C   0  0  0  0  0  0  0  0  0  0  0  0
  201.4704  145.0146  129.1206 C   0  0  0  0  0  0  0  0  0  0  0  0
  203.1266  139.9337  130.2655 C   0  0  0  0  0  0  0  0  0  0  0  0
  202.7441  139.5972  128.9827 O   0  0  0  0  0  0  0  0  0  0  0  0
  203.5814  138.8844  131.0913 C   0  0  0  0  0  0  0  0  0  0  0  0
  203.6121  137.5302  130.5430 C   0  0  0  0  0  0  0  0  0  0  0  0
  203.2480  137.3155  129.3716 O   0  0  0  0  0  0  0  0  0  0  0  0
  204.0771  136.4634  131.4073 C   0  0  0  0  0  0  0  0  0  0  0  0
  204.1004  135.1997  130.9818 C   0  0  0  0  0  0  0  0  0  0  0  0
  203.6785  134.9142  129.6959 O   0  0  0  0  0  0  0  0  0  0  0  0
  204.5860  134.1743  131.9406 C   0  0  2  0  0  0  0  0  0  0  0  0
  205.9657  134.2126  132.1242 O   0  0  0  0  0  0  0  0  0  0  0  0
  204.2939  132.8494  131.3345 C   0  0  0  0  0  0  0  0  0  0  0  0
  204.8813  132.5720  130.2636 O   0  0  0  0  0  0  0  0  0  0  0  0
  203.3819  131.8854  131.9121 C   0  0  0  0  0  0  0  0  0  0  0  0
  203.4502  130.4616  131.5651 C   0  0  0  0  0  0  0  0  0  0  0  0
  204.0767  130.0946  130.3454 N   0  0  0  0  0  0  0  0  0  0  0  0
  202.9716  129.5802  132.3179 O   0  0  0  0  0  0  0  0  0  0  0  0
  202.4788  132.3308  132.7678 C   0  0  0  0  0  0  0  0  0  0  0  0
  201.5913  131.4152  133.3345 O   0  0  0  0  0  0  0  0  0  0  0  0
  202.4482  133.7709  133.0851 C   0  0  1  0  0  0  0  0  0  0  0  0
  201.6354  134.0656  134.2497 N   0  0  0  0  0  0  0  0  0  0  0  0
  200.9591  132.8847  134.6873 C   0  0  0  0  0  0  0  0  0  0  0  0
  202.3615  134.7352  135.3011 C   0  0  0  0  0  0  0  0  0  0  0  0
  203.8593  134.3381  133.2603 C   0  0  2  0  0  0  0  0  0  0  0  0
  203.6928  135.7602  133.6759 C   0  0  0  0  0  0  0  0  0  0  0  0
  1  2  1  1
  2  3  1  0
  3  4  2  0
  4  5  1  0
  4  6  1  0
  6  7  2  0
  7  8  1  0
  8  9  1  0
  9 10  2  0
  9 11  1  0
 11 12  1  0
 12 13  1  0
 13 14  1  0
 14 15  1  0
 15 16  1  0
  7 17  1  0
 17 18  1  0
 17 19  2  0
 19 20  1  0
 20 21  2  0
 20 22  1  0
 22 23  2  0
 23 24  1  0
 23 25  1  0
 25 26  1  1
 25 27  1  0
 27 28  2  0
 27 29  1  0
 29 30  1  0
 30 31  1  0
 30 32  2  0
 29 33  2  0
 33 34  1  0
 33 35  1  0
 35 36  1  1
 36 37  1  0
 36 38  1  0
 35 39  1  0
 39 40  1  6
 22  1  1  0
 39 25  1  0
 40  1  1  0
 19  3  1  0
 16 12  1  0
M  END
$$$$
