
     RDKit          3D

 40 44  0  0  0  0  0  0  0  0999 V2000
  155.0615  191.8375  162.8827 C   0  0  2  0  0  0  0  0  0  0  0  0
  154.1782  192.3156  161.8134 C   0  0  0  0  0  0  0  0  0  0  0  0
  154.6491  193.4685  161.0195 C   0  0  0  0  0  0  0  0  0  0  0  0
  153.8104  193.9616  159.9985 C   0  0  0  0  0  0  0  0  0  0  0  0
  152.6099  193.3279  159.8215 F   0  0  0  0  0  0  0  0  0  0  0  0
  154.1910  195.0244  159.2276 C   0  0  0  0  0  0  0  0  0  0  0  0
  155.3942  195.6765  159.3889 C   0  0  0  0  0  0  0  0  0  0  0  0
  155.8083  196.7805  158.5894 N   0  0  0  0  0  0  0  0  0  0  0  0
  155.5070  198.1162  158.9416 C   0  0  0  0  0  0  0  0  0  0  0  0
  154.8008  198.3111  159.9734 O   0  0  0  0  0  0  0  0  0  0  0  0
  156.0271  199.2013  158.0955 C   0  0  0  0  0  0  0  0  0  0  0  0
  155.3620  200.4490  158.2043 N   0  0  0  0  0  0  0  0  0  0  0  0
  154.2385  200.6619  157.3636 C   0  0  0  0  0  0  0  0  0  0  0  0
  154.1974  202.1249  156.9998 C   0  0  0  0  0  0  0  0  0  0  0  0
  155.5597  202.6612  157.3656 C   0  0  0  0  0  0  0  0  0  0  0  0
  156.1653  201.6162  158.2606 C   0  0  0  0  0  0  0  0  0  0  0  0
  156.2087  195.1964  160.3824 C   0  0  0  0  0  0  0  0  0  0  0  0
  157.4387  195.7681  160.6385 O   0  0  0  0  0  0  0  0  0  0  0  0
  155.8345  194.1009  161.1884 C   0  0  0  0  0  0  0  0  0  0  0  0
  156.7627  193.6479  162.2221 C   0  0  0  0  0  0  0  0  0  0  0  0
  157.8550  194.2233  162.3853 O   0  0  0  0  0  0  0  0  0  0  0  0
  156.3643  192.5173  163.0373 C   0  0  0  0  0  0  0  0  0  0  0  0
  157.1765  192.0320  163.9771 C   0  0  0  0  0  0  0  0  0  0  0  0
  158.4106  192.6250  164.1725 O   0  0  0  0  0  0  0  0  0  0  0  0
  156.6850  190.8673  164.7572 C   0  0  2  0  0  0  0  0  0  0  0  0
  155.7024  191.2092  165.6826 O   0  0  0  0  0  0  0  0  0  0  0  0
  157.8364  190.3688  165.5533 C   0  0  0  0  0  0  0  0  0  0  0  0
  158.3067  191.1425  166.4187 O   0  0  0  0  0  0  0  0  0  0  0  0
  158.4265  189.0589  165.3787 C   0  0  0  0  0  0  0  0  0  0  0  0
  159.2281  188.4321  166.4355 C   0  0  0  0  0  0  0  0  0  0  0  0
  160.2151  189.2165  167.0877 N   0  0  0  0  0  0  0  0  0  0  0  0
  159.0562  187.2343  166.7648 O   0  0  0  0  0  0  0  0  0  0  0  0
  158.2197  188.4406  164.2293 C   0  0  0  0  0  0  0  0  0  0  0  0
  158.7812  187.1767  164.0438 O   0  0  0  0  0  0  0  0  0  0  0  0
  157.4077  189.1110  163.1965 C   0  0  1  0  0  0  0  0  0  0  0  0
  157.0057  188.2088  162.1343 N   0  0  0  0  0  0  0  0  0  0  0  0
  158.1037  187.9718  161.2502 C   0  0  0  0  0  0  0  0  0  0  0  0
  156.3828  186.9993  162.6144 C   0  0  0  0  0  0  0  0  0  0  0  0
  156.1837  189.8012  163.8039 C   0  0  2  0  0  0  0  0  0  0  0  0
  155.3974  190.3466  162.6606 C   0  0  0  0  0  0  0  0  0  0  0  0
  1  2  1  6
  2  3  1  0
  3  4  2  0
  4  5  1  0
  4  6  1  0
  6  7  2  0
  7  8  1  0
  8  9  1  0
  9 10  2  0
  9 11  1  0
 11 12  1  0
 12 13  1  0
 13 14  1  0
 14 15  1  0
 15 16  1  0
  7 17  1  0
 17 18  1  0
 17 19  2  0
 19 20  1  0
 20 21  2  0
 20 22  1  0
 22 23  2  0
 23 24  1  0
 23 25  1  0
 25 26  1  1
 25 27  1  0
 27 28  2  0
 27 29  1  0
 29 30  1  0
 30 31  1  0
 30 32  2  0
 29 33  2  0
 33 34  1  0
 33 35  1  0
 35 36  1  6
 36 37  1  0
 36 38  1  0
 35 39  1  0
 39 40  1  6
 22  1  1  0
 39 25  1  0
 40  1  1  0
 19  3  1  0
 16 12  1  0
M  END
$$$$
