
     RDKit          3D

 40 44  0  0  0  0  0  0  0  0999 V2000
  130.4766  140.4131  133.3405 C   0  0  2  0  0  0  0  0  0  0  0  0
  131.8156  139.8286  133.2072 C   0  0  0  0  0  0  0  0  0  0  0  0
  132.2299  139.4019  131.8554 C   0  0  0  0  0  0  0  0  0  0  0  0
  133.5044  138.8178  131.7023 C   0  0  0  0  0  0  0  0  0  0  0  0
  134.2671  138.6877  132.8317 F   0  0  0  0  0  0  0  0  0  0  0  0
  133.9462  138.4049  130.4763 C   0  0  0  0  0  0  0  0  0  0  0  0
  133.1950  138.5262  129.3273 C   0  0  0  0  0  0  0  0  0  0  0  0
  133.6439  138.1074  128.0417 N   0  0  0  0  0  0  0  0  0  0  0  0
  133.9270  139.0305  127.0090 C   0  0  0  0  0  0  0  0  0  0  0  0
  133.7480  140.2600  127.2489 O   0  0  0  0  0  0  0  0  0  0  0  0
  134.4113  138.5160  125.7188 C   0  0  0  0  0  0  0  0  0  0  0  0
  133.8519  139.1133  124.5607 N   0  0  0  0  0  0  0  0  0  0  0  0
  132.7001  138.4983  124.0043 C   0  0  0  0  0  0  0  0  0  0  0  0
  132.7502  138.6794  122.5080 C   0  0  0  0  0  0  0  0  0  0  0  0
  134.1690  139.0966  122.2080 C   0  0  0  0  0  0  0  0  0  0  0  0
  134.7446  139.5113  123.5333 C   0  0  0  0  0  0  0  0  0  0  0  0
  131.9556  139.0939  129.4776 C   0  0  0  0  0  0  0  0  0  0  0  0
  131.1125  139.2679  128.3987 O   0  0  0  0  0  0  0  0  0  0  0  0
  131.4816  139.5266  130.7337 C   0  0  0  0  0  0  0  0  0  0  0  0
  130.1510  140.1262  130.8068 C   0  0  0  0  0  0  0  0  0  0  0  0
  129.4552  140.2448  129.7808 O   0  0  0  0  0  0  0  0  0  0  0  0
  129.6822  140.5703  132.1046 C   0  0  0  0  0  0  0  0  0  0  0  0
  128.4911  141.1552  132.2379 C   0  0  0  0  0  0  0  0  0  0  0  0
  127.6980  141.3310  131.1186 O   0  0  0  0  0  0  0  0  0  0  0  0
  128.0994  141.5832  133.6054 C   0  0  2  0  0  0  0  0  0  0  0  0
  127.7470  140.5167  134.4283 O   0  0  0  0  0  0  0  0  0  0  0  0
  126.8714  142.4071  133.4607 C   0  0  0  0  0  0  0  0  0  0  0  0
  125.8514  141.8338  133.0137 O   0  0  0  0  0  0  0  0  0  0  0  0
  126.8009  143.8111  133.8050 C   0  0  0  0  0  0  0  0  0  0  0  0
  125.5191  144.4696  134.0804 C   0  0  0  0  0  0  0  0  0  0  0  0
  124.4005  143.6581  134.4045 N   0  0  0  0  0  0  0  0  0  0  0  0
  125.4004  145.7172  134.0345 O   0  0  0  0  0  0  0  0  0  0  0  0
  127.9351  144.4866  133.8637 C   0  0  0  0  0  0  0  0  0  0  0  0
  127.8858  145.8413  134.1944 O   0  0  0  0  0  0  0  0  0  0  0  0
  129.1988  143.7817  133.5780 C   0  0  1  0  0  0  0  0  0  0  0  0
  130.3640  144.5467  133.9793 N   0  0  0  0  0  0  0  0  0  0  0  0
  130.0791  145.9459  133.9120 C   0  0  0  0  0  0  0  0  0  0  0  0
  130.9132  144.1322  135.2472 C   0  0  0  0  0  0  0  0  0  0  0  0
  129.2247  142.3917  134.2190 C   0  0  2  0  0  0  0  0  0  0  0  0
  130.5785  141.8288  133.9489 C   0  0  0  0  0  0  0  0  0  0  0  0
  1  2  1  6
  2  3  1  0
  3  4  2  0
  4  5  1  0
  4  6  1  0
  6  7  2  0
  7  8  1  0
  8  9  1  0
  9 10  2  0
  9 11  1  0
 11 12  1  0
 12 13  1  0
 13 14  1  0
 14 15  1  0
 15 16  1  0
  7 17  1  0
 17 18  1  0
 17 19  2  0
 19 20  1  0
 20 21  2  0
 20 22  1  0
 22 23  2  0
 23 24  1  0
 23 25  1  0
 25 26  1  1
 25 27  1  0
 27 28  2  0
 27 29  1  0
 29 30  1  0
 30 31  1  0
 30 32  2  0
 29 33  2  0
 33 34  1  0
 33 35  1  0
 35 36  1  1
 36 37  1  0
 36 38  1  0
 35 39  1  0
 39 40  1  6
 22  1  1  0
 39 25  1  0
 40  1  1  0
 19  3  1  0
 16 12  1  0
M  END
$$$$
