
     RDKit          3D

 40 44  0  0  0  0  0  0  0  0999 V2000
  130.0951  146.0182  134.0678 C   0  0  2  0  0  0  0  0  0  0  0  0
  130.7599  145.3535  132.9414 C   0  0  0  0  0  0  0  0  0  0  0  0
  130.4597  143.9223  132.7350 C   0  0  0  0  0  0  0  0  0  0  0  0
  131.1011  143.2535  131.6718 C   0  0  0  0  0  0  0  0  0  0  0  0
  131.9641  143.9903  130.9058 F   0  0  0  0  0  0  0  0  0  0  0  0
  130.8629  141.9297  131.4277 C   0  0  0  0  0  0  0  0  0  0  0  0
  129.9987  141.1699  132.1860 C   0  0  0  0  0  0  0  0  0  0  0  0
  129.7345  139.7918  131.9402 N   0  0  0  0  0  0  0  0  0  0  0  0
  129.4352  138.8877  132.9851 C   0  0  0  0  0  0  0  0  0  0  0  0
  128.9130  139.3537  134.0393 O   0  0  0  0  0  0  0  0  0  0  0  0
  129.7449  137.4626  132.7927 C   0  0  0  0  0  0  0  0  0  0  0  0
  128.6340  136.5817  132.7683 N   0  0  0  0  0  0  0  0  0  0  0  0
  128.4950  135.6808  133.8561 C   0  0  0  0  0  0  0  0  0  0  0  0
  127.8865  134.4046  133.3314 C   0  0  0  0  0  0  0  0  0  0  0  0
  128.0336  134.4844  131.8317 C   0  0  0  0  0  0  0  0  0  0  0  0
  128.3447  135.9268  131.5442 C   0  0  0  0  0  0  0  0  0  0  0  0
  129.3760  141.8212  133.2199 C   0  0  0  0  0  0  0  0  0  0  0  0
  128.4888  141.1646  134.0487 O   0  0  0  0  0  0  0  0  0  0  0  0
  129.6080  143.1865  133.4879 C   0  0  0  0  0  0  0  0  0  0  0  0
  128.9000  143.8067  134.6057 C   0  0  0  0  0  0  0  0  0  0  0  0
  128.1151  143.1383  135.3041 O   0  0  0  0  0  0  0  0  0  0  0  0
  129.1462  145.2119  134.8633 C   0  0  0  0  0  0  0  0  0  0  0  0
  128.5096  145.8484  135.8471 C   0  0  0  0  0  0  0  0  0  0  0  0
  127.6087  145.1492  136.6295 O   0  0  0  0  0  0  0  0  0  0  0  0
  128.8215  147.2892  136.0306 C   0  0  2  0  0  0  0  0  0  0  0  0
  130.0718  147.5054  136.6039 O   0  0  0  0  0  0  0  0  0  0  0  0
  127.8317  147.8208  137.0031 C   0  0  0  0  0  0  0  0  0  0  0  0
  127.8640  147.3488  138.1628 O   0  0  0  0  0  0  0  0  0  0  0  0
  126.8533  148.8370  136.6791 C   0  0  0  0  0  0  0  0  0  0  0  0
  126.2156  149.6476  137.7224 C   0  0  0  0  0  0  0  0  0  0  0  0
  126.3143  149.2112  139.0695 N   0  0  0  0  0  0  0  0  0  0  0  0
  125.5958  150.7020  137.4453 O   0  0  0  0  0  0  0  0  0  0  0  0
  126.5498  149.0130  135.4051 C   0  0  0  0  0  0  0  0  0  0  0  0
  125.6085  149.9886  135.0745 O   0  0  0  0  0  0  0  0  0  0  0  0
  127.2165  148.1735  134.3920 C   0  0  1  0  0  0  0  0  0  0  0  0
  127.0305  148.6768  133.0445 N   0  0  0  0  0  0  0  0  0  0  0  0
  126.1274  147.8332  132.3261 C   0  0  0  0  0  0  0  0  0  0  0  0
  126.6723  150.0736  132.9985 C   0  0  0  0  0  0  0  0  0  0  0  0
  128.7067  148.0005  134.6975 C   0  0  2  0  0  0  0  0  0  0  0  0
  129.2829  147.2291  133.5592 C   0  0  0  0  0  0  0  0  0  0  0  0
  1  2  1  6
  2  3  1  0
  3  4  2  0
  4  5  1  0
  4  6  1  0
  6  7  2  0
  7  8  1  0
  8  9  1  0
  9 10  2  0
  9 11  1  0
 11 12  1  0
 12 13  1  0
 13 14  1  0
 14 15  1  0
 15 16  1  0
  7 17  1  0
 17 18  1  0
 17 19  2  0
 19 20  1  0
 20 21  2  0
 20 22  1  0
 22 23  2  0
 23 24  1  0
 23 25  1  0
 25 26  1  1
 25 27  1  0
 27 28  2  0
 27 29  1  0
 29 30  1  0
 30 31  1  0
 30 32  2  0
 29 33  2  0
 33 34  1  0
 33 35  1  0
 35 36  1  6
 36 37  1  0
 36 38  1  0
 35 39  1  0
 39 40  1  6
 22  1  1  0
 39 25  1  0
 40  1  1  0
 19  3  1  0
 16 12  1  0
M  END
$$$$
