
     RDKit          3D

 40 44  0  0  0  0  0  0  0  0999 V2000
  126.9980  144.9287  134.5748 C   0  0  2  0  0  0  0  0  0  0  0  0
  127.1227  143.4805  134.7738 C   0  0  0  0  0  0  0  0  0  0  0  0
  128.0194  142.7517  133.8543 C   0  0  0  0  0  0  0  0  0  0  0  0
  128.1419  141.3554  134.0103 C   0  0  0  0  0  0  0  0  0  0  0  0
  127.4100  140.7763  135.0119 F   0  0  0  0  0  0  0  0  0  0  0  0
  128.9581  140.6252  133.1921 C   0  0  0  0  0  0  0  0  0  0  0  0
  129.7030  141.1877  132.1783 C   0  0  0  0  0  0  0  0  0  0  0  0
  130.5632  140.4417  131.3221 N   0  0  0  0  0  0  0  0  0  0  0  0
  130.3903  140.4206  129.9192 C   0  0  0  0  0  0  0  0  0  0  0  0
  129.4844  141.1521  129.4236 O   0  0  0  0  0  0  0  0  0  0  0  0
  131.2668  139.5551  129.1151 C   0  0  0  0  0  0  0  0  0  0  0  0
  131.8981  140.1687  128.0035 N   0  0  0  0  0  0  0  0  0  0  0  0
  131.8680  139.4671  126.7702 C   0  0  0  0  0  0  0  0  0  0  0  0
  133.1482  139.7657  126.0311 C   0  0  0  0  0  0  0  0  0  0  0  0
  134.0692  140.3678  127.0638 C   0  0  0  0  0  0  0  0  0  0  0  0
  133.1766  140.7453  128.2129 C   0  0  0  0  0  0  0  0  0  0  0  0
  129.5826  142.5455  132.0273 C   0  0  0  0  0  0  0  0  0  0  0  0
  130.2797  143.2211  131.0461 O   0  0  0  0  0  0  0  0  0  0  0  0
  128.7463  143.3167  132.8613 C   0  0  0  0  0  0  0  0  0  0  0  0
  128.6787  144.7591  132.6373 C   0  0  0  0  0  0  0  0  0  0  0  0
  129.3431  145.2879  131.7263 O   0  0  0  0  0  0  0  0  0  0  0  0
  127.8185  145.5369  133.5071 C   0  0  0  0  0  0  0  0  0  0  0  0
  127.7344  146.8616  133.3789 C   0  0  0  0  0  0  0  0  0  0  0  0
  128.4771  147.4918  132.3970 O   0  0  0  0  0  0  0  0  0  0  0  0
  126.8325  147.5741  134.3199 C   0  0  2  0  0  0  0  0  0  0  0  0
  125.4843  147.3887  134.0255 O   0  0  0  0  0  0  0  0  0  0  0  0
  127.0905  149.0267  134.1429 C   0  0  0  0  0  0  0  0  0  0  0  0
  126.8197  149.5202  133.0240 O   0  0  0  0  0  0  0  0  0  0  0  0
  127.6286  149.8793  135.1813 C   0  0  0  0  0  0  0  0  0  0  0  0
  127.4542  151.3355  135.1448 C   0  0  0  0  0  0  0  0  0  0  0  0
  126.9956  151.9293  133.9397 N   0  0  0  0  0  0  0  0  0  0  0  0
  127.6999  152.0500  136.1456 O   0  0  0  0  0  0  0  0  0  0  0  0
  128.2870  149.3012  136.1705 C   0  0  0  0  0  0  0  0  0  0  0  0
  128.8125  150.1080  137.1805 O   0  0  0  0  0  0  0  0  0  0  0  0
  128.4374  147.8340  136.1637 C   0  0  1  0  0  0  0  0  0  0  0  0
  128.8947  147.3170  137.4395 N   0  0  0  0  0  0  0  0  0  0  0  0
  127.8835  147.4991  138.4334 C   0  0  0  0  0  0  0  0  0  0  0  0
  129.3910  145.9645  137.3654 C   0  0  0  0  0  0  0  0  0  0  0  0
  127.1421  147.1380  135.7378 C   0  0  2  0  0  0  0  0  0  0  0  0
  127.3879  145.6735  135.8702 C   0  0  0  0  0  0  0  0  0  0  0  0
  1  2  1  1
  2  3  1  0
  3  4  2  0
  4  5  1  0
  4  6  1  0
  6  7  2  0
  7  8  1  0
  8  9  1  0
  9 10  2  0
  9 11  1  0
 11 12  1  0
 12 13  1  0
 13 14  1  0
 14 15  1  0
 15 16  1  0
  7 17  1  0
 17 18  1  0
 17 19  2  0
 19 20  1  0
 20 21  2  0
 20 22  1  0
 22 23  2  0
 23 24  1  0
 23 25  1  0
 25 26  1  6
 25 27  1  0
 27 28  2  0
 27 29  1  0
 29 30  1  0
 30 31  1  0
 30 32  2  0
 29 33  2  0
 33 34  1  0
 33 35  1  0
 35 36  1  1
 36 37  1  0
 36 38  1  0
 35 39  1  0
 39 40  1  6
 22  1  1  0
 39 25  1  0
 40  1  1  0
 19  3  1  0
 16 12  1  0
M  END
$$$$
