
     RDKit          3D

 40 44  0  0  0  0  0  0  0  0999 V2000
  171.2635  148.9635  125.1077 C   0  0  2  0  0  0  0  0  0  0  0  0
  172.2303  149.4422  124.1135 C   0  0  0  0  0  0  0  0  0  0  0  0
  172.5827  148.5147  123.0195 C   0  0  0  0  0  0  0  0  0  0  0  0
  173.5253  148.9418  122.0615 C   0  0  0  0  0  0  0  0  0  0  0  0
  174.0489  150.1965  122.2225 F   0  0  0  0  0  0  0  0  0  0  0  0
  173.8908  148.1303  121.0239 C   0  0  0  0  0  0  0  0  0  0  0  0
  173.3766  146.8646  120.8433 C   0  0  0  0  0  0  0  0  0  0  0  0
  173.7418  146.0098  119.7637 N   0  0  0  0  0  0  0  0  0  0  0  0
  174.5773  144.8844  119.9481 C   0  0  0  0  0  0  0  0  0  0  0  0
  174.1896  143.7759  119.4767 O   0  0  0  0  0  0  0  0  0  0  0  0
  175.8449  145.0605  120.6735 C   0  0  0  0  0  0  0  0  0  0  0  0
  176.7574  145.9916  120.1156 N   0  0  0  0  0  0  0  0  0  0  0  0
  176.3638  146.6524  118.9229 C   0  0  0  0  0  0  0  0  0  0  0  0
  177.5990  146.8908  118.0911 C   0  0  0  0  0  0  0  0  0  0  0  0
  178.6587  146.0017  118.6940 C   0  0  0  0  0  0  0  0  0  0  0  0
  178.1206  145.6079  120.0413 C   0  0  0  0  0  0  0  0  0  0  0  0
  172.4604  146.4502  121.7759 C   0  0  0  0  0  0  0  0  0  0  0  0
  171.8762  145.2019  121.7000 O   0  0  0  0  0  0  0  0  0  0  0  0
  172.0699  147.2725  122.8534 C   0  0  0  0  0  0  0  0  0  0  0  0
  171.0836  146.7573  123.8006 C   0  0  0  0  0  0  0  0  0  0  0  0
  170.6066  145.6161  123.6564 O   0  0  0  0  0  0  0  0  0  0  0  0
  170.6898  147.6180  124.8986 C   0  0  0  0  0  0  0  0  0  0  0  0
  169.7710  147.2234  125.7810 C   0  0  0  0  0  0  0  0  0  0  0  0
  169.1960  145.9733  125.6413 O   0  0  0  0  0  0  0  0  0  0  0  0
  169.4269  148.1760  126.8676 C   0  0  2  0  0  0  0  0  0  0  0  0
  170.4200  148.2740  127.8386 O   0  0  0  0  0  0  0  0  0  0  0  0
  168.2349  147.6222  127.5608 C   0  0  0  0  0  0  0  0  0  0  0  0
  168.3771  146.5247  128.1473 O   0  0  0  0  0  0  0  0  0  0  0  0
  166.9452  148.2783  127.5889 C   0  0  0  0  0  0  0  0  0  0  0  0
  165.9470  147.9634  128.6169 C   0  0  0  0  0  0  0  0  0  0  0  0
  165.6096  146.6017  128.8339 N   0  0  0  0  0  0  0  0  0  0  0  0
  165.3979  148.8644  129.2946 O   0  0  0  0  0  0  0  0  0  0  0  0
  166.6925  149.1762  126.6529 C   0  0  0  0  0  0  0  0  0  0  0  0
  165.4539  149.8187  126.6649 O   0  0  0  0  0  0  0  0  0  0  0  0
  167.7268  149.4587  125.6399 C   0  0  1  0  0  0  0  0  0  0  0  0
  167.4467  150.6631  124.8818 N   0  0  0  0  0  0  0  0  0  0  0  0
  167.4875  151.8045  125.7414 C   0  0  0  0  0  0  0  0  0  0  0  0
  168.2662  150.8019  123.7026 C   0  0  0  0  0  0  0  0  0  0  0  0
  169.1217  149.5332  126.2663 C   0  0  2  0  0  0  0  0  0  0  0  0
  170.0548  149.9226  125.1707 C   0  0  0  0  0  0  0  0  0  0  0  0
  1  2  1  6
  2  3  1  0
  3  4  2  0
  4  5  1  0
  4  6  1  0
  6  7  2  0
  7  8  1  0
  8  9  1  0
  9 10  2  0
  9 11  1  0
 11 12  1  0
 12 13  1  0
 13 14  1  0
 14 15  1  0
 15 16  1  0
  7 17  1  0
 17 18  1  0
 17 19  2  0
 19 20  1  0
 20 21  2  0
 20 22  1  0
 22 23  2  0
 23 24  1  0
 23 25  1  0
 25 26  1  1
 25 27  1  0
 27 28  2  0
 27 29  1  0
 29 30  1  0
 30 31  1  0
 30 32  2  0
 29 33  2  0
 33 34  1  0
 33 35  1  0
 35 36  1  1
 36 37  1  0
 36 38  1  0
 35 39  1  0
 39 40  1  6
 22  1  1  0
 39 25  1  0
 40  1  1  0
 19  3  1  0
 16 12  1  0
M  END
$$$$
