
     RDKit          3D

 40 44  0  0  0  0  0  0  0  0999 V2000
  134.4556  164.0722  153.1068 C   0  0  2  0  0  0  0  0  0  0  0  0
  133.9609  165.1434  152.2349 C   0  0  0  0  0  0  0  0  0  0  0  0
  132.5963  164.9899  151.6916 C   0  0  0  0  0  0  0  0  0  0  0  0
  132.1035  165.9952  150.8340 C   0  0  0  0  0  0  0  0  0  0  0  0
  132.9383  167.0467  150.5664 F   0  0  0  0  0  0  0  0  0  0  0  0
  130.8473  165.9116  150.3011 C   0  0  0  0  0  0  0  0  0  0  0  0
  129.9912  164.8625  150.5572 C   0  0  0  0  0  0  0  0  0  0  0  0
  128.6772  164.7645  150.0155 N   0  0  0  0  0  0  0  0  0  0  0  0
  127.5941  165.5090  150.5363 C   0  0  0  0  0  0  0  0  0  0  0  0
  127.5026  166.7281  150.2097 O   0  0  0  0  0  0  0  0  0  0  0  0
  126.6372  164.8314  151.4246 C   0  0  0  0  0  0  0  0  0  0  0  0
  125.4409  164.3725  150.8171 N   0  0  0  0  0  0  0  0  0  0  0  0
  125.5605  163.3596  149.8301 C   0  0  0  0  0  0  0  0  0  0  0  0
  124.4833  163.5826  148.7985 C   0  0  0  0  0  0  0  0  0  0  0  0
  123.9847  164.9853  149.0451 C   0  0  0  0  0  0  0  0  0  0  0  0
  124.4966  165.3493  150.4108 C   0  0  0  0  0  0  0  0  0  0  0  0
  130.4718  163.8853  151.3909 C   0  0  0  0  0  0  0  0  0  0  0  0
  129.7059  162.7854  151.7206 O   0  0  0  0  0  0  0  0  0  0  0  0
  131.7646  163.9532  151.9510 C   0  0  0  0  0  0  0  0  0  0  0  0
  132.1984  162.8728  152.8341 C   0  0  0  0  0  0  0  0  0  0  0  0
  131.4408  161.9151  153.0784 O   0  0  0  0  0  0  0  0  0  0  0  0
  133.5278  162.9617  153.4052 C   0  0  0  0  0  0  0  0  0  0  0  0
  133.9753  162.0268  154.2445 C   0  0  0  0  0  0  0  0  0  0  0  0
  133.1551  160.9600  154.5638 O   0  0  0  0  0  0  0  0  0  0  0  0
  135.3474  162.2066  154.7845 C   0  0  2  0  0  0  0  0  0  0  0  0
  136.3400  161.9396  153.8452 O   0  0  0  0  0  0  0  0  0  0  0  0
  135.5211  161.1937  155.8577 C   0  0  0  0  0  0  0  0  0  0  0  0
  135.4806  159.9896  155.5151 O   0  0  0  0  0  0  0  0  0  0  0  0
  135.7305  161.5269  157.2504 C   0  0  0  0  0  0  0  0  0  0  0  0
  136.3336  160.5706  158.1853 C   0  0  0  0  0  0  0  0  0  0  0  0
  136.0302  159.1928  158.0292 N   0  0  0  0  0  0  0  0  0  0  0  0
  137.1001  160.9470  159.1037 O   0  0  0  0  0  0  0  0  0  0  0  0
  135.3586  162.7280  157.6570 C   0  0  0  0  0  0  0  0  0  0  0  0
  135.5532  163.0663  158.9967 O   0  0  0  0  0  0  0  0  0  0  0  0
  134.7560  163.6549  156.6807 C   0  0  1  0  0  0  0  0  0  0  0  0
  134.6884  165.0163  157.1764 N   0  0  0  0  0  0  0  0  0  0  0  0
  134.4711  165.0136  158.5893 C   0  0  0  0  0  0  0  0  0  0  0  0
  135.8067  165.8313  156.7683 C   0  0  0  0  0  0  0  0  0  0  0  0
  135.4885  163.6106  155.3371 C   0  0  2  0  0  0  0  0  0  0  0  0
  134.8580  164.6544  154.4794 C   0  0  0  0  0  0  0  0  0  0  0  0
  1  2  1  6
  2  3  1  0
  3  4  2  0
  4  5  1  0
  4  6  1  0
  6  7  2  0
  7  8  1  0
  8  9  1  0
  9 10  2  0
  9 11  1  0
 11 12  1  0
 12 13  1  0
 13 14  1  0
 14 15  1  0
 15 16  1  0
  7 17  1  0
 17 18  1  0
 17 19  2  0
 19 20  1  0
 20 21  2  0
 20 22  1  0
 22 23  2  0
 23 24  1  0
 23 25  1  0
 25 26  1  6
 25 27  1  0
 27 28  2  0
 27 29  1  0
 29 30  1  0
 30 31  1  0
 30 32  2  0
 29 33  2  0
 33 34  1  0
 33 35  1  0
 35 36  1  1
 36 37  1  0
 36 38  1  0
 35 39  1  0
 39 40  1  6
 22  1  1  0
 39 25  1  0
 40  1  1  0
 19  3  1  0
 16 12  1  0
M  END
$$$$
