
     RDKit          3D

 40 44  0  0  0  0  0  0  0  0999 V2000
  172.3102  163.4592  111.6461 C   0  0  2  0  0  0  0  0  0  0  0  0
  172.2283  162.5671  112.8079 C   0  0  0  0  0  0  0  0  0  0  0  0
  172.9076  161.2603  112.6996 C   0  0  0  0  0  0  0  0  0  0  0  0
  172.8274  160.3748  113.7943 C   0  0  0  0  0  0  0  0  0  0  0  0
  172.1159  160.7986  114.8844 F   0  0  0  0  0  0  0  0  0  0  0  0
  173.4372  159.1519  113.7560 C   0  0  0  0  0  0  0  0  0  0  0  0
  174.1577  158.7057  112.6693 C   0  0  0  0  0  0  0  0  0  0  0  0
  174.8046  157.4375  112.6167 N   0  0  0  0  0  0  0  0  0  0  0  0
  176.1954  157.3139  112.3948 C   0  0  0  0  0  0  0  0  0  0  0  0
  176.8543  158.3699  112.1665 O   0  0  0  0  0  0  0  0  0  0  0  0
  176.7988  155.9732  112.4408 C   0  0  0  0  0  0  0  0  0  0  0  0
  176.9121  155.2984  111.1988 N   0  0  0  0  0  0  0  0  0  0  0  0
  177.3797  156.0515  110.0904 C   0  0  0  0  0  0  0  0  0  0  0  0
  176.6962  155.5320  108.8505 C   0  0  0  0  0  0  0  0  0  0  0  0
  175.5410  154.7022  109.3546 C   0  0  0  0  0  0  0  0  0  0  0  0
  175.8366  154.4605  110.8086 C   0  0  0  0  0  0  0  0  0  0  0  0
  174.2345  159.5675  111.6052 C   0  0  0  0  0  0  0  0  0  0  0  0
  174.9287  159.2313  110.4605 O   0  0  0  0  0  0  0  0  0  0  0  0
  173.6128  160.8335  111.6252 C   0  0  0  0  0  0  0  0  0  0  0  0
  173.7475  161.6940  110.4519 C   0  0  0  0  0  0  0  0  0  0  0  0
  174.3937  161.3102  109.4589 O   0  0  0  0  0  0  0  0  0  0  0  0
  173.1068  162.9937  110.4920 C   0  0  0  0  0  0  0  0  0  0  0  0
  173.2164  163.8419  109.4687 C   0  0  0  0  0  0  0  0  0  0  0  0
  173.9483  163.4654  108.3572 O   0  0  0  0  0  0  0  0  0  0  0  0
  172.5315  165.1532  109.6036 C   0  0  2  0  0  0  0  0  0  0  0  0
  171.1487  165.0599  109.4705 O   0  0  0  0  0  0  0  0  0  0  0  0
  172.9925  165.9954  108.4695 C   0  0  0  0  0  0  0  0  0  0  0  0
  172.6935  165.6092  107.3162 O   0  0  0  0  0  0  0  0  0  0  0  0
  173.7546  167.2150  108.6326 C   0  0  0  0  0  0  0  0  0  0  0  0
  173.8046  168.2345  107.5789 C   0  0  0  0  0  0  0  0  0  0  0  0
  173.5682  167.8307  106.2387 N   0  0  0  0  0  0  0  0  0  0  0  0
  174.0486  169.4362  107.8412 O   0  0  0  0  0  0  0  0  0  0  0  0
  174.4090  167.3828  109.7683 C   0  0  0  0  0  0  0  0  0  0  0  0
  175.1488  168.5530  109.9426 O   0  0  0  0  0  0  0  0  0  0  0  0
  174.3293  166.3298  110.7979 C   0  0  1  0  0  0  0  0  0  0  0  0
  174.8233  166.7753  112.0868 N   0  0  0  0  0  0  0  0  0  0  0  0
  175.5899  167.9718  111.9314 C   0  0  0  0  0  0  0  0  0  0  0  0
  173.7929  166.8792  113.0911 C   0  0  0  0  0  0  0  0  0  0  0  0
  172.9067  165.7802  110.9312 C   0  0  2  0  0  0  0  0  0  0  0  0
  172.9349  164.8088  112.0618 C   0  0  0  0  0  0  0  0  0  0  0  0
  1  2  1  1
  2  3  1  0
  3  4  2  0
  4  5  1  0
  4  6  1  0
  6  7  2  0
  7  8  1  0
  8  9  1  0
  9 10  2  0
  9 11  1  0
 11 12  1  0
 12 13  1  0
 13 14  1  0
 14 15  1  0
 15 16  1  0
  7 17  1  0
 17 18  1  0
 17 19  2  0
 19 20  1  0
 20 21  2  0
 20 22  1  0
 22 23  2  0
 23 24  1  0
 23 25  1  0
 25 26  1  1
 25 27  1  0
 27 28  2  0
 27 29  1  0
 29 30  1  0
 30 31  1  0
 30 32  2  0
 29 33  2  0
 33 34  1  0
 33 35  1  0
 35 36  1  1
 36 37  1  0
 36 38  1  0
 35 39  1  0
 39 40  1  1
 22  1  1  0
 39 25  1  0
 40  1  1  0
 19  3  1  0
 16 12  1  0
M  END
$$$$
