
     RDKit          3D

 46 52  0  0  0  0  0  0  0  0999 V2000
  154.9800  147.6169  118.5462 C   0  0  0  0  0  0  0  0  0  0  0  0
  155.5876  147.3694  119.8570 N   0  0  0  0  0  0  0  0  0  0  0  0
  155.8080  148.3372  120.7307 N   0  0  0  0  0  0  0  0  0  0  0  0
  156.3654  147.8113  121.8303 C   0  0  0  0  0  0  0  0  0  0  0  0
  156.8141  148.4362  123.0784 C   0  0  0  0  0  0  0  0  0  0  0  0
  158.1543  149.6238  122.8452 S   0  0  0  0  0  0  0  0  0  0  0  0
  159.6663  148.8517  122.2953 C   0  0  0  0  0  0  0  0  0  0  0  0
  160.7717  148.7725  123.2948 C   0  0  0  0  0  0  0  0  0  0  0  0
  161.9520  149.4603  123.0633 N   0  0  0  0  0  0  0  0  0  0  0  0
  162.7788  149.2627  124.0469 N   0  0  0  0  0  0  0  0  0  0  0  0
  164.1363  149.8268  124.1586 C   0  0  0  0  0  0  0  0  0  0  0  0
  162.1541  148.4342  124.9536 C   0  0  0  0  0  0  0  0  0  0  0  0
  162.8455  148.0046  126.2231 C   0  0  0  0  0  0  0  0  0  0  0  0
  163.2929  146.2447  126.2251 S   0  0  0  0  0  0  0  0  0  0  0  0
  162.4811  145.4522  127.6576 C   0  0  0  0  0  0  0  0  0  0  0  0
  162.8307  146.0916  128.8279 C   0  0  0  0  0  0  0  0  0  0  0  0
  162.3394  145.6758  130.0530 C   0  0  0  0  0  0  0  0  0  0  0  0
  161.4892  144.5941  130.0119 C   0  0  0  0  0  0  0  0  0  0  0  0
  161.0172  144.1845  131.2611 C   0  0  0  0  0  0  0  0  0  0  0  0
  161.3508  144.7827  132.4247 C   0  0  0  0  0  0  0  0  0  0  0  0
  162.2068  145.8629  132.4001 C   0  0  0  0  0  0  0  0  0  0  0  0
  162.7208  146.3342  131.2122 C   0  0  0  0  0  0  0  0  0  0  0  0
  161.1202  143.9279  128.8156 C   0  0  0  0  0  0  0  0  0  0  0  0
  160.2542  142.8735  129.0375 O   0  0  0  0  0  0  0  0  0  0  0  0
  159.0012  142.5014  128.5786 C   0  0  0  0  0  0  0  0  0  0  0  0
  158.2239  143.5863  127.9010 C   0  0  0  0  0  0  0  0  0  0  0  0
  157.1768  143.0493  126.9797 C   0  0  0  0  0  0  0  0  0  0  0  0
  156.8829  143.9163  125.7996 C   0  0  0  0  0  0  0  0  0  0  0  0
  155.8429  144.8151  125.9378 C   0  0  0  0  0  0  0  0  0  0  0  0
  155.6904  145.5215  124.8084 N   0  0  0  0  0  0  0  0  0  0  0  0
  154.6190  146.5092  124.6674 C   0  0  0  0  0  0  0  0  0  0  0  0
  156.6462  145.0881  123.9152 C   0  0  0  0  0  0  0  0  0  0  0  0
  157.4030  144.0697  124.5401 C   0  0  0  0  0  0  0  0  0  0  0  0
  158.4574  143.4613  123.8285 C   0  0  0  0  0  0  0  0  0  0  0  0
  158.8009  143.8023  122.5444 C   0  0  0  0  0  0  0  0  0  0  0  0
  158.0859  144.7769  121.9329 C   0  0  0  0  0  0  0  0  0  0  0  0
  158.6657  145.1055  120.3124 Cl  0  0  0  0  0  0  0  0  0  0  0  0
  157.0120  145.4290  122.5956 C   0  0  0  0  0  0  0  0  0  0  0  0
  156.4969  146.4180  121.6189 C   0  0  0  0  0  0  0  0  0  0  0  0
  155.9854  146.1846  120.3404 C   0  0  0  0  0  0  0  0  0  0  0  0
  155.8367  144.9125  119.6095 C   0  0  0  0  0  0  0  0  0  0  0  0
  154.9817  145.0954  127.1121 C   0  0  0  0  0  0  0  0  0  0  0  0
  153.6126  145.2554  127.0355 O   0  0  0  0  0  0  0  0  0  0  0  0
  155.4300  145.2120  128.2742 O   0  0  0  0  0  0  0  0  0  0  0  0
  161.6369  144.3770  127.6167 C   0  0  0  0  0  0  0  0  0  0  0  0
  160.8958  148.1211  124.4916 C   0  0  0  0  0  0  0  0  0  0  0  0
  1  2  1  0
  2  3  1  0
  3  4  2  0
  4  5  1  0
  5  6  1  0
  6  7  1  0
  7  8  1  0
  8  9  2  0
  9 10  1  0
 10 11  1  0
 10 12  1  0
 12 13  1  0
 13 14  1  0
 14 15  1  0
 15 16  1  0
 16 17  2  0
 17 18  1  0
 18 19  1  0
 19 20  2  0
 20 21  1  0
 21 22  2  0
 18 23  2  0
 23 24  1  0
 24 25  1  0
 25 26  1  0
 26 27  1  0
 27 28  1  0
 28 29  2  0
 29 30  1  0
 30 31  1  0
 30 32  1  0
 32 33  2  0
 33 34  1  0
 34 35  2  0
 35 36  1  0
 36 37  1  0
 36 38  2  0
 38 39  1  0
 39 40  2  0
 40 41  1  0
 29 42  1  0
 42 43  1  0
 42 44  2  0
 23 45  1  0
 12 46  2  0
 40  2  1  0
 39  4  1  0
 46  8  1  0
 45 15  2  0
 22 17  1  0
 33 28  1  0
 38 32  1  0
M  END
$$$$
