
     RDKit          3D

 46 52  0  0  0  0  0  0  0  0999 V2000
  127.0198  137.9323  137.3358 C   0  0  0  0  0  0  0  0  0  0  0  0
  127.6245  138.3492  136.0673 N   0  0  0  0  0  0  0  0  0  0  0  0
  127.0043  138.2130  134.9073 N   0  0  0  0  0  0  0  0  0  0  0  0
  127.7966  138.6819  133.9333 C   0  0  0  0  0  0  0  0  0  0  0  0
  127.6010  138.7572  132.4821 C   0  0  0  0  0  0  0  0  0  0  0  0
  127.4234  137.1408  131.6970 S   0  0  0  0  0  0  0  0  0  0  0  0
  128.9177  136.1690  131.7832 C   0  0  0  0  0  0  0  0  0  0  0  0
  129.6685  135.9929  130.5056 C   0  0  0  0  0  0  0  0  0  0  0  0
  129.8002  134.7261  129.9601 N   0  0  0  0  0  0  0  0  0  0  0  0
  130.4820  134.7896  128.8549 N   0  0  0  0  0  0  0  0  0  0  0  0
  130.8302  133.6475  127.9901 C   0  0  0  0  0  0  0  0  0  0  0  0
  130.8154  136.1106  128.6486 C   0  0  0  0  0  0  0  0  0  0  0  0
  131.6148  136.5343  127.4422 C   0  0  0  0  0  0  0  0  0  0  0  0
  133.2992  137.0681  127.8608 S   0  0  0  0  0  0  0  0  0  0  0  0
  133.5121  138.7881  127.2815 C   0  0  0  0  0  0  0  0  0  0  0  0
  133.2437  138.8820  125.9325 C   0  0  0  0  0  0  0  0  0  0  0  0
  133.3338  140.0883  125.2602 C   0  0  0  0  0  0  0  0  0  0  0  0
  133.7048  141.1672  126.0302 C   0  0  0  0  0  0  0  0  0  0  0  0
  133.8021  142.3704  125.3274 C   0  0  0  0  0  0  0  0  0  0  0  0
  133.5575  142.4913  124.0051 C   0  0  0  0  0  0  0  0  0  0  0  0
  133.1887  141.3733  123.2881 C   0  0  0  0  0  0  0  0  0  0  0  0
  133.0685  140.1453  123.9004 C   0  0  0  0  0  0  0  0  0  0  0  0
  133.9825  141.0851  127.4185 C   0  0  0  0  0  0  0  0  0  0  0  0
  134.3315  142.3056  127.9658 O   0  0  0  0  0  0  0  0  0  0  0  0
  133.8775  143.0943  129.0102 C   0  0  0  0  0  0  0  0  0  0  0  0
  132.5194  142.7403  129.5308 C   0  0  0  0  0  0  0  0  0  0  0  0
  132.3032  143.2133  130.9319 C   0  0  0  0  0  0  0  0  0  0  0  0
  131.3879  142.3562  131.7433 C   0  0  0  0  0  0  0  0  0  0  0  0
  130.0547  142.7177  131.7573 C   0  0  0  0  0  0  0  0  0  0  0  0
  129.3541  141.8679  132.5220 N   0  0  0  0  0  0  0  0  0  0  0  0
  127.9206  142.0560  132.7521 C   0  0  0  0  0  0  0  0  0  0  0  0
  130.2350  140.9292  133.0139 C   0  0  0  0  0  0  0  0  0  0  0  0
  131.5254  141.2367  132.5231 C   0  0  0  0  0  0  0  0  0  0  0  0
  132.6121  140.4130  132.8820 C   0  0  0  0  0  0  0  0  0  0  0  0
  132.4932  139.3119  133.6923 C   0  0  0  0  0  0  0  0  0  0  0  0
  131.2634  139.0039  134.1694 C   0  0  0  0  0  0  0  0  0  0  0  0
  131.2816  137.5623  135.1651 Cl  0  0  0  0  0  0  0  0  0  0  0  0
  130.1281  139.7934  133.8445 C   0  0  0  0  0  0  0  0  0  0  0  0
  128.9913  139.1413  134.5373 C   0  0  0  0  0  0  0  0  0  0  0  0
  128.8327  138.9057  135.9048 C   0  0  0  0  0  0  0  0  0  0  0  0
  129.7459  139.2160  137.0203 C   0  0  0  0  0  0  0  0  0  0  0  0
  129.3632  143.8182  131.0432 C   0  0  0  0  0  0  0  0  0  0  0  0
  128.4925  143.6185  129.9906 O   0  0  0  0  0  0  0  0  0  0  0  0
  129.5159  145.0244  131.3379 O   0  0  0  0  0  0  0  0  0  0  0  0
  133.8813  139.8599  128.0466 C   0  0  0  0  0  0  0  0  0  0  0  0
  130.3104  136.8729  129.6775 C   0  0  0  0  0  0  0  0  0  0  0  0
  1  2  1  0
  2  3  1  0
  3  4  2  0
  4  5  1  0
  5  6  1  0
  6  7  1  0
  7  8  1  0
  8  9  2  0
  9 10  1  0
 10 11  1  0
 10 12  1  0
 12 13  1  0
 13 14  1  0
 14 15  1  0
 15 16  1  0
 16 17  2  0
 17 18  1  0
 18 19  1  0
 19 20  2  0
 20 21  1  0
 21 22  2  0
 18 23  2  0
 23 24  1  0
 24 25  1  0
 25 26  1  0
 26 27  1  0
 27 28  1  0
 28 29  2  0
 29 30  1  0
 30 31  1  0
 30 32  1  0
 32 33  2  0
 33 34  1  0
 34 35  2  0
 35 36  1  0
 36 37  1  0
 36 38  2  0
 38 39  1  0
 39 40  2  0
 40 41  1  0
 29 42  1  0
 42 43  1  0
 42 44  2  0
 23 45  1  0
 12 46  2  0
 40  2  1  0
 39  4  1  0
 46  8  1  0
 45 15  2  0
 22 17  1  0
 33 28  1  0
 38 32  1  0
M  END
$$$$
