
     RDKit          3D

 46 52  0  0  0  0  0  0  0  0999 V2000
  204.9189  140.0667  128.6190 C   0  0  0  0  0  0  0  0  0  0  0  0
  204.6179  139.1398  129.7139 N   0  0  0  0  0  0  0  0  0  0  0  0
  204.4571  139.5451  130.9623 N   0  0  0  0  0  0  0  0  0  0  0  0
  204.1900  138.4818  131.7334 C   0  0  0  0  0  0  0  0  0  0  0  0
  203.9419  138.3721  133.1743 C   0  0  0  0  0  0  0  0  0  0  0  0
  205.3500  138.8778  134.1855 S   0  0  0  0  0  0  0  0  0  0  0  0
  206.7513  137.7879  134.0034 C   0  0  0  0  0  0  0  0  0  0  0  0
  207.0562  136.9007  135.1639 C   0  0  0  0  0  0  0  0  0  0  0  0
  208.2516  137.0565  135.8469 N   0  0  0  0  0  0  0  0  0  0  0  0
  208.3219  136.1940  136.8172 N   0  0  0  0  0  0  0  0  0  0  0  0
  209.4433  136.0504  137.7634 C   0  0  0  0  0  0  0  0  0  0  0  0
  207.1642  135.4469  136.7926 C   0  0  0  0  0  0  0  0  0  0  0  0
  206.9239  134.3473  137.7961 C   0  0  0  0  0  0  0  0  0  0  0  0
  206.9900  132.6891  137.0590 S   0  0  0  0  0  0  0  0  0  0  0  0
  205.3877  131.8655  137.3649 C   0  0  0  0  0  0  0  0  0  0  0  0
  205.1068  131.8374  138.7143 C   0  0  0  0  0  0  0  0  0  0  0  0
  203.9433  131.2656  139.1984 C   0  0  0  0  0  0  0  0  0  0  0  0
  203.1034  130.7377  138.2442 C   0  0  0  0  0  0  0  0  0  0  0  0
  201.9426  130.1545  138.7574 C   0  0  0  0  0  0  0  0  0  0  0  0
  201.6459  130.1010  140.0735 C   0  0  0  0  0  0  0  0  0  0  0  0
  202.5276  130.6484  140.9807 C   0  0  0  0  0  0  0  0  0  0  0  0
  203.6974  131.2437  140.5629 C   0  0  0  0  0  0  0  0  0  0  0  0
  203.3791  130.7609  136.8532 C   0  0  0  0  0  0  0  0  0  0  0  0
  202.3809  130.1696  136.1016 O   0  0  0  0  0  0  0  0  0  0  0  0
  201.5737  130.5518  135.0427 C   0  0  0  0  0  0  0  0  0  0  0  0
  201.5159  132.0254  134.7864 C   0  0  0  0  0  0  0  0  0  0  0  0
  201.1109  132.3463  133.3841 C   0  0  0  0  0  0  0  0  0  0  0  0
  201.6924  133.6110  132.8428 C   0  0  0  0  0  0  0  0  0  0  0  0
  200.9268  134.7522  132.9836 C   0  0  0  0  0  0  0  0  0  0  0  0
  201.5663  135.8051  132.4543 N   0  0  0  0  0  0  0  0  0  0  0  0
  200.9496  137.1324  132.4219 C   0  0  0  0  0  0  0  0  0  0  0  0
  202.7728  135.3545  131.9637 C   0  0  0  0  0  0  0  0  0  0  0  0
  202.8551  133.9637  132.2073 C   0  0  0  0  0  0  0  0  0  0  0  0
  204.0081  133.2613  131.8004 C   0  0  0  0  0  0  0  0  0  0  0  0
  205.0741  133.8541  131.1715 C   0  0  0  0  0  0  0  0  0  0  0  0
  205.0103  135.1859  130.9322 C   0  0  0  0  0  0  0  0  0  0  0  0
  206.4564  135.7871  130.1463 Cl  0  0  0  0  0  0  0  0  0  0  0  0
  203.8769  135.9503  131.3179 C   0  0  0  0  0  0  0  0  0  0  0  0
  204.1849  137.3385  130.8990 C   0  0  0  0  0  0  0  0  0  0  0  0
  204.4648  137.8122  129.6152 C   0  0  0  0  0  0  0  0  0  0  0  0
  204.5511  137.0722  128.3426 C   0  0  0  0  0  0  0  0  0  0  0  0
  199.6105  134.9357  133.6415 C   0  0  0  0  0  0  0  0  0  0  0  0
  198.7119  135.9237  133.2920 O   0  0  0  0  0  0  0  0  0  0  0  0
  199.2066  134.2060  134.5740 O   0  0  0  0  0  0  0  0  0  0  0  0
  204.5536  131.3405  136.4167 C   0  0  0  0  0  0  0  0  0  0  0  0
  206.3644  135.8818  135.7601 C   0  0  0  0  0  0  0  0  0  0  0  0
  1  2  1  0
  2  3  1  0
  3  4  2  0
  4  5  1  0
  5  6  1  0
  6  7  1  0
  7  8  1  0
  8  9  2  0
  9 10  1  0
 10 11  1  0
 10 12  1  0
 12 13  1  0
 13 14  1  0
 14 15  1  0
 15 16  1  0
 16 17  2  0
 17 18  1  0
 18 19  1  0
 19 20  2  0
 20 21  1  0
 21 22  2  0
 18 23  2  0
 23 24  1  0
 24 25  1  0
 25 26  1  0
 26 27  1  0
 27 28  1  0
 28 29  2  0
 29 30  1  0
 30 31  1  0
 30 32  1  0
 32 33  2  0
 33 34  1  0
 34 35  2  0
 35 36  1  0
 36 37  1  0
 36 38  2  0
 38 39  1  0
 39 40  2  0
 40 41  1  0
 29 42  1  0
 42 43  1  0
 42 44  2  0
 23 45  1  0
 12 46  2  0
 40  2  1  0
 39  4  1  0
 46  8  1  0
 45 15  2  0
 22 17  1  0
 33 28  1  0
 38 32  1  0
M  END
$$$$
