
     RDKit          3D

 46 52  0  0  0  0  0  0  0  0999 V2000
  114.0215  163.9334  136.9266 C   0  0  0  0  0  0  0  0  0  0  0  0
  114.4622  164.4029  138.2434 N   0  0  0  0  0  0  0  0  0  0  0  0
  113.6573  164.4309  139.2923 N   0  0  0  0  0  0  0  0  0  0  0  0
  114.3359  164.9007  140.3483 C   0  0  0  0  0  0  0  0  0  0  0  0
  113.9202  165.1415  141.7335 C   0  0  0  0  0  0  0  0  0  0  0  0
  112.6217  166.3871  141.8870 S   0  0  0  0  0  0  0  0  0  0  0  0
  113.1760  168.0166  141.4159 C   0  0  0  0  0  0  0  0  0  0  0  0
  113.3609  168.9998  142.5234 C   0  0  0  0  0  0  0  0  0  0  0  0
  112.5637  170.1320  142.5713 N   0  0  0  0  0  0  0  0  0  0  0  0
  112.8809  170.8522  143.6063 N   0  0  0  0  0  0  0  0  0  0  0  0
  112.2557  172.1307  143.9911 C   0  0  0  0  0  0  0  0  0  0  0  0
  113.9015  170.2029  144.2663 C   0  0  0  0  0  0  0  0  0  0  0  0
  114.5075  170.7765  145.5224 C   0  0  0  0  0  0  0  0  0  0  0  0
  116.2037  171.3778  145.2796 S   0  0  0  0  0  0  0  0  0  0  0  0
  117.2975  170.4785  146.4345 C   0  0  0  0  0  0  0  0  0  0  0  0
  116.8601  170.6291  147.7332 C   0  0  0  0  0  0  0  0  0  0  0  0
  117.5249  170.0371  148.7928 C   0  0  0  0  0  0  0  0  0  0  0  0
  118.6362  169.2989  148.4543 C   0  0  0  0  0  0  0  0  0  0  0  0
  119.2980  168.7225  149.5410 C   0  0  0  0  0  0  0  0  0  0  0  0
  118.9009  168.8619  150.8239 C   0  0  0  0  0  0  0  0  0  0  0  0
  117.7787  169.6137  151.0989 C   0  0  0  0  0  0  0  0  0  0  0  0
  117.0648  170.2188  150.0882 C   0  0  0  0  0  0  0  0  0  0  0  0
  119.0965  169.1345  147.1230 C   0  0  0  0  0  0  0  0  0  0  0  0
  120.2300  168.3473  147.0438 O   0  0  0  0  0  0  0  0  0  0  0  0
  120.5965  167.1955  146.3668 C   0  0  0  0  0  0  0  0  0  0  0  0
  119.4615  166.4082  145.7902 C   0  0  0  0  0  0  0  0  0  0  0  0
  119.8913  165.5293  144.6604 C   0  0  0  0  0  0  0  0  0  0  0  0
  118.8455  165.2987  143.6193 C   0  0  0  0  0  0  0  0  0  0  0  0
  118.0597  164.1728  143.7724 C   0  0  0  0  0  0  0  0  0  0  0  0
  117.1713  164.0906  142.7717 N   0  0  0  0  0  0  0  0  0  0  0  0
  116.2495  162.9584  142.6635 C   0  0  0  0  0  0  0  0  0  0  0  0
  117.3684  165.1799  141.9508 C   0  0  0  0  0  0  0  0  0  0  0  0
  118.4299  165.9470  142.4847 C   0  0  0  0  0  0  0  0  0  0  0  0
  118.8251  167.1282  141.8239 C   0  0  0  0  0  0  0  0  0  0  0  0
  118.2329  167.5878  140.6743 C   0  0  0  0  0  0  0  0  0  0  0  0
  117.2141  166.8644  140.1514 C   0  0  0  0  0  0  0  0  0  0  0  0
  116.5566  167.5982  138.7025 Cl  0  0  0  0  0  0  0  0  0  0  0  0
  116.7684  165.6656  140.7696 C   0  0  0  0  0  0  0  0  0  0  0  0
  115.6551  165.1815  139.9189 C   0  0  0  0  0  0  0  0  0  0  0  0
  115.6855  164.8466  138.5633 C   0  0  0  0  0  0  0  0  0  0  0  0
  116.8100  164.9003  137.6108 C   0  0  0  0  0  0  0  0  0  0  0  0
  118.0577  163.1580  144.8538 C   0  0  0  0  0  0  0  0  0  0  0  0
  119.1462  162.3667  145.1620 O   0  0  0  0  0  0  0  0  0  0  0  0
  117.0619  162.9344  145.5774 O   0  0  0  0  0  0  0  0  0  0  0  0
  118.4020  169.7455  146.0981 C   0  0  0  0  0  0  0  0  0  0  0  0
  114.2098  169.0410  143.5957 C   0  0  0  0  0  0  0  0  0  0  0  0
  1  2  1  0
  2  3  1  0
  3  4  2  0
  4  5  1  0
  5  6  1  0
  6  7  1  0
  7  8  1  0
  8  9  2  0
  9 10  1  0
 10 11  1  0
 10 12  1  0
 12 13  1  0
 13 14  1  0
 14 15  1  0
 15 16  1  0
 16 17  2  0
 17 18  1  0
 18 19  1  0
 19 20  2  0
 20 21  1  0
 21 22  2  0
 18 23  2  0
 23 24  1  0
 24 25  1  0
 25 26  1  0
 26 27  1  0
 27 28  1  0
 28 29  2  0
 29 30  1  0
 30 31  1  0
 30 32  1  0
 32 33  2  0
 33 34  1  0
 34 35  2  0
 35 36  1  0
 36 37  1  0
 36 38  2  0
 38 39  1  0
 39 40  2  0
 40 41  1  0
 29 42  1  0
 42 43  1  0
 42 44  2  0
 23 45  1  0
 12 46  2  0
 40  2  1  0
 39  4  1  0
 46  8  1  0
 45 15  2  0
 22 17  1  0
 33 28  1  0
 38 32  1  0
M  END
$$$$
