
     RDKit          3D

 46 52  0  0  0  0  0  0  0  0999 V2000
  127.9183  142.3259  138.2522 C   0  0  0  0  0  0  0  0  0  0  0  0
  128.2936  141.7338  136.9649 N   0  0  0  0  0  0  0  0  0  0  0  0
  128.5752  140.4487  136.8304 N   0  0  0  0  0  0  0  0  0  0  0  0
  128.8772  140.2019  135.5482 C   0  0  0  0  0  0  0  0  0  0  0  0
  129.2685  138.9624  134.8699 C   0  0  0  0  0  0  0  0  0  0  0  0
  130.8253  138.2747  135.4734 S   0  0  0  0  0  0  0  0  0  0  0  0
  132.2253  139.3165  135.1001 C   0  0  0  0  0  0  0  0  0  0  0  0
  133.1572  138.8216  134.0448 C   0  0  0  0  0  0  0  0  0  0  0  0
  134.4649  138.5100  134.3803 N   0  0  0  0  0  0  0  0  0  0  0  0
  135.1055  138.0988  133.3263 N   0  0  0  0  0  0  0  0  0  0  0  0
  136.5181  137.6791  133.2853 C   0  0  0  0  0  0  0  0  0  0  0  0
  134.2249  138.1314  132.2669 C   0  0  0  0  0  0  0  0  0  0  0  0
  134.6532  137.7118  130.8832 C   0  0  0  0  0  0  0  0  0  0  0  0
  134.7606  139.1042  129.7225 S   0  0  0  0  0  0  0  0  0  0  0  0
  133.6362  138.7664  128.3222 C   0  0  0  0  0  0  0  0  0  0  0  0
  133.9439  137.5581  127.7339 C   0  0  0  0  0  0  0  0  0  0  0  0
  133.2288  137.0793  126.6502 C   0  0  0  0  0  0  0  0  0  0  0  0
  132.2046  137.8888  126.2143 C   0  0  0  0  0  0  0  0  0  0  0  0
  131.5062  137.3913  125.1116 C   0  0  0  0  0  0  0  0  0  0  0  0
  131.7916  136.2182  124.5071 C   0  0  0  0  0  0  0  0  0  0  0  0
  132.8297  135.4513  124.9912 C   0  0  0  0  0  0  0  0  0  0  0  0
  133.5724  135.8652  126.0750 C   0  0  0  0  0  0  0  0  0  0  0  0
  131.8764  139.1331  126.8106 C   0  0  0  0  0  0  0  0  0  0  0  0
  130.8077  139.7553  126.1929 O   0  0  0  0  0  0  0  0  0  0  0  0
  129.5777  140.2511  126.5933 C   0  0  0  0  0  0  0  0  0  0  0  0
  129.1109  139.7851  127.9370 C   0  0  0  0  0  0  0  0  0  0  0  0
  128.1108  140.7125  128.5479 C   0  0  0  0  0  0  0  0  0  0  0  0
  128.1394  140.7625  130.0404 C   0  0  0  0  0  0  0  0  0  0  0  0
  127.2763  139.9114  130.7031 C   0  0  0  0  0  0  0  0  0  0  0  0
  127.4061  140.0632  132.0289 N   0  0  0  0  0  0  0  0  0  0  0  0
  126.5652  139.3166  132.9663 C   0  0  0  0  0  0  0  0  0  0  0  0
  128.3722  141.0221  132.2445 C   0  0  0  0  0  0  0  0  0  0  0  0
  128.8381  141.4683  130.9859 C   0  0  0  0  0  0  0  0  0  0  0  0
  129.8440  142.4551  130.9352 C   0  0  0  0  0  0  0  0  0  0  0  0
  130.4089  143.0195  132.0513 C   0  0  0  0  0  0  0  0  0  0  0  0
  129.9737  142.6017  133.2641 C   0  0  0  0  0  0  0  0  0  0  0  0
  130.8100  143.4022  134.5793 Cl  0  0  0  0  0  0  0  0  0  0  0  0
  128.9633  141.6103  133.3829 C   0  0  0  0  0  0  0  0  0  0  0  0
  128.7730  141.4236  134.8411 C   0  0  0  0  0  0  0  0  0  0  0  0
  128.3973  142.3746  135.7926 C   0  0  0  0  0  0  0  0  0  0  0  0
  128.1103  143.8105  135.6183 C   0  0  0  0  0  0  0  0  0  0  0  0
  126.3373  138.9008  130.1588 C   0  0  0  0  0  0  0  0  0  0  0  0
  125.1938  139.2205  129.4546 O   0  0  0  0  0  0  0  0  0  0  0  0
  126.5061  137.6690  130.2968 O   0  0  0  0  0  0  0  0  0  0  0  0
  132.6190  139.5712  127.8888 C   0  0  0  0  0  0  0  0  0  0  0  0
  133.0012  138.5830  132.7066 C   0  0  0  0  0  0  0  0  0  0  0  0
  1  2  1  0
  2  3  1  0
  3  4  2  0
  4  5  1  0
  5  6  1  0
  6  7  1  0
  7  8  1  0
  8  9  2  0
  9 10  1  0
 10 11  1  0
 10 12  1  0
 12 13  1  0
 13 14  1  0
 14 15  1  0
 15 16  1  0
 16 17  2  0
 17 18  1  0
 18 19  1  0
 19 20  2  0
 20 21  1  0
 21 22  2  0
 18 23  2  0
 23 24  1  0
 24 25  1  0
 25 26  1  0
 26 27  1  0
 27 28  1  0
 28 29  2  0
 29 30  1  0
 30 31  1  0
 30 32  1  0
 32 33  2  0
 33 34  1  0
 34 35  2  0
 35 36  1  0
 36 37  1  0
 36 38  2  0
 38 39  1  0
 39 40  2  0
 40 41  1  0
 29 42  1  0
 42 43  1  0
 42 44  2  0
 23 45  1  0
 12 46  2  0
 40  2  1  0
 39  4  1  0
 46  8  1  0
 45 15  2  0
 22 17  1  0
 33 28  1  0
 38 32  1  0
M  END
$$$$
