
     RDKit          3D

 46 52  0  0  0  0  0  0  0  0999 V2000
  120.0728  170.3446  150.4516 C   0  0  0  0  0  0  0  0  0  0  0  0
  119.5155  169.8100  149.2057 N   0  0  0  0  0  0  0  0  0  0  0  0
  118.6228  168.8345  149.1891 N   0  0  0  0  0  0  0  0  0  0  0  0
  118.2994  168.5630  147.9171 C   0  0  0  0  0  0  0  0  0  0  0  0
  117.3785  167.5762  147.3447 C   0  0  0  0  0  0  0  0  0  0  0  0
  117.8484  165.8682  147.6951 S   0  0  0  0  0  0  0  0  0  0  0  0
  119.3761  165.4007  146.9000 C   0  0  0  0  0  0  0  0  0  0  0  0
  119.2627  164.4576  145.7490 C   0  0  0  0  0  0  0  0  0  0  0  0
  119.8288  163.1963  145.8415 N   0  0  0  0  0  0  0  0  0  0  0  0
  119.6184  162.5357  144.7417 N   0  0  0  0  0  0  0  0  0  0  0  0
  120.0704  161.1606  144.4621 C   0  0  0  0  0  0  0  0  0  0  0  0
  118.9032  163.3555  143.8960 C   0  0  0  0  0  0  0  0  0  0  0  0
  118.4902  162.8897  142.5225 C   0  0  0  0  0  0  0  0  0  0  0  0
  119.3864  163.7355  141.1887 S   0  0  0  0  0  0  0  0  0  0  0  0
  118.1611  164.5615  140.1137 C   0  0  0  0  0  0  0  0  0  0  0  0
  117.2387  163.6519  139.6419 C   0  0  0  0  0  0  0  0  0  0  0  0
  116.2052  164.0381  138.8066 C   0  0  0  0  0  0  0  0  0  0  0  0
  116.1704  165.3773  138.4905 C   0  0  0  0  0  0  0  0  0  0  0  0
  115.1270  165.7407  137.6359 C   0  0  0  0  0  0  0  0  0  0  0  0
  114.2163  164.8713  137.1483 C   0  0  0  0  0  0  0  0  0  0  0  0
  114.3039  163.5420  137.5025 C   0  0  0  0  0  0  0  0  0  0  0  0
  115.3015  163.0952  138.3406 C   0  0  0  0  0  0  0  0  0  0  0  0
  117.1116  166.3239  138.9695 C   0  0  0  0  0  0  0  0  0  0  0  0
  116.8609  167.6039  138.5119 O   0  0  0  0  0  0  0  0  0  0  0  0
  116.6554  168.8455  139.0910 C   0  0  0  0  0  0  0  0  0  0  0  0
  116.3347  168.8202  140.5529 C   0  0  0  0  0  0  0  0  0  0  0  0
  116.6499  170.1149  141.2296 C   0  0  0  0  0  0  0  0  0  0  0  0
  117.0518  169.9860  142.6623 C   0  0  0  0  0  0  0  0  0  0  0  0
  116.0446  170.1111  143.5996 C   0  0  0  0  0  0  0  0  0  0  0  0
  116.5456  169.9770  144.8360 N   0  0  0  0  0  0  0  0  0  0  0  0
  115.6975  170.1213  146.0205 C   0  0  0  0  0  0  0  0  0  0  0  0
  117.9000  169.7538  144.7133 C   0  0  0  0  0  0  0  0  0  0  0  0
  118.2242  169.7602  143.3366 C   0  0  0  0  0  0  0  0  0  0  0  0
  119.5614  169.5460  142.9439 C   0  0  0  0  0  0  0  0  0  0  0  0
  120.5859  169.3277  143.8305 C   0  0  0  0  0  0  0  0  0  0  0  0
  120.2908  169.3176  145.1525 C   0  0  0  0  0  0  0  0  0  0  0  0
  121.7017  169.0043  146.1433 Cl  0  0  0  0  0  0  0  0  0  0  0  0
  118.9633  169.5266  145.6128 C   0  0  0  0  0  0  0  0  0  0  0  0
  119.0464  169.4356  147.0900 C   0  0  0  0  0  0  0  0  0  0  0  0
  119.8104  170.2139  147.9624 C   0  0  0  0  0  0  0  0  0  0  0  0
  120.7481  171.3113  147.6608 C   0  0  0  0  0  0  0  0  0  0  0  0
  114.5882  170.3119  143.4052 C   0  0  0  0  0  0  0  0  0  0  0  0
  114.0262  170.7324  142.2165 O   0  0  0  0  0  0  0  0  0  0  0  0
  113.7462  170.1169  144.3097 O   0  0  0  0  0  0  0  0  0  0  0  0
  118.1270  165.8920  139.7991 C   0  0  0  0  0  0  0  0  0  0  0  0
  118.6753  164.5623  144.5177 C   0  0  0  0  0  0  0  0  0  0  0  0
  1  2  1  0
  2  3  1  0
  3  4  2  0
  4  5  1  0
  5  6  1  0
  6  7  1  0
  7  8  1  0
  8  9  2  0
  9 10  1  0
 10 11  1  0
 10 12  1  0
 12 13  1  0
 13 14  1  0
 14 15  1  0
 15 16  1  0
 16 17  2  0
 17 18  1  0
 18 19  1  0
 19 20  2  0
 20 21  1  0
 21 22  2  0
 18 23  2  0
 23 24  1  0
 24 25  1  0
 25 26  1  0
 26 27  1  0
 27 28  1  0
 28 29  2  0
 29 30  1  0
 30 31  1  0
 30 32  1  0
 32 33  2  0
 33 34  1  0
 34 35  2  0
 35 36  1  0
 36 37  1  0
 36 38  2  0
 38 39  1  0
 39 40  2  0
 40 41  1  0
 29 42  1  0
 42 43  1  0
 42 44  2  0
 23 45  1  0
 12 46  2  0
 40  2  1  0
 39  4  1  0
 46  8  1  0
 45 15  2  0
 22 17  1  0
 33 28  1  0
 38 32  1  0
M  END
$$$$
