
     RDKit          3D

 46 52  0  0  0  0  0  0  0  0999 V2000
  187.2427  174.7709  126.2588 C   0  0  0  0  0  0  0  0  0  0  0  0
  187.8375  175.9830  126.8294 N   0  0  0  0  0  0  0  0  0  0  0  0
  187.8984  177.1241  126.1638 N   0  0  0  0  0  0  0  0  0  0  0  0
  188.4874  178.0471  126.9367 C   0  0  0  0  0  0  0  0  0  0  0  0
  188.8091  179.4551  126.6842 C   0  0  0  0  0  0  0  0  0  0  0  0
  189.9837  179.6918  125.3332 S   0  0  0  0  0  0  0  0  0  0  0  0
  191.6021  179.0413  125.7102 C   0  0  0  0  0  0  0  0  0  0  0  0
  192.6768  180.0447  125.9659 C   0  0  0  0  0  0  0  0  0  0  0  0
  193.7602  180.1190  125.1054 N   0  0  0  0  0  0  0  0  0  0  0  0
  194.5754  181.0514  125.5008 N   0  0  0  0  0  0  0  0  0  0  0  0
  195.8405  181.4263  124.8431 C   0  0  0  0  0  0  0  0  0  0  0  0
  194.0404  181.6148  126.6389 C   0  0  0  0  0  0  0  0  0  0  0  0
  194.7438  182.7381  127.3582 C   0  0  0  0  0  0  0  0  0  0  0  0
  195.4240  182.2340  128.9647 S   0  0  0  0  0  0  0  0  0  0  0  0
  194.6825  183.2943  130.2551 C   0  0  0  0  0  0  0  0  0  0  0  0
  194.9065  184.6258  129.9763 C   0  0  0  0  0  0  0  0  0  0  0  0
  194.4382  185.6270  130.8090 C   0  0  0  0  0  0  0  0  0  0  0  0
  193.7432  185.1971  131.9165 C   0  0  0  0  0  0  0  0  0  0  0  0
  193.2923  186.2245  132.7485 C   0  0  0  0  0  0  0  0  0  0  0  0
  193.5063  187.5358  132.5085 C   0  0  0  0  0  0  0  0  0  0  0  0
  194.2093  187.9034  131.3811 C   0  0  0  0  0  0  0  0  0  0  0  0
  194.6915  186.9561  130.5051 C   0  0  0  0  0  0  0  0  0  0  0  0
  193.5044  183.8313  132.2147 C   0  0  0  0  0  0  0  0  0  0  0  0
  192.7818  183.6582  133.3804 O   0  0  0  0  0  0  0  0  0  0  0  0
  191.6052  183.0197  133.7364 C   0  0  0  0  0  0  0  0  0  0  0  0
  190.7100  182.6525  132.5943 C   0  0  0  0  0  0  0  0  0  0  0  0
  189.7737  181.5392  132.9370 C   0  0  0  0  0  0  0  0  0  0  0  0
  189.4022  180.6627  131.7861 C   0  0  0  0  0  0  0  0  0  0  0  0
  188.2469  180.9946  131.1052 C   0  0  0  0  0  0  0  0  0  0  0  0
  188.0355  180.1272  130.1049 N   0  0  0  0  0  0  0  0  0  0  0  0
  186.8457  180.2189  129.2569 C   0  0  0  0  0  0  0  0  0  0  0  0
  189.0681  179.2147  130.1213 C   0  0  0  0  0  0  0  0  0  0  0  0
  189.9355  179.5506  131.1867 C   0  0  0  0  0  0  0  0  0  0  0  0
  191.0837  178.7641  131.4130 C   0  0  0  0  0  0  0  0  0  0  0  0
  191.4175  177.6734  130.6500 C   0  0  0  0  0  0  0  0  0  0  0  0
  190.5970  177.3397  129.6252 C   0  0  0  0  0  0  0  0  0  0  0  0
  191.1769  175.9427  128.7408 Cl  0  0  0  0  0  0  0  0  0  0  0  0
  189.4251  178.0919  129.3447 C   0  0  0  0  0  0  0  0  0  0  0  0
  188.8119  177.4300  128.1685 C   0  0  0  0  0  0  0  0  0  0  0  0
  188.3761  176.1084  128.0500 C   0  0  0  0  0  0  0  0  0  0  0  0
  188.4227  175.0151  129.0385 C   0  0  0  0  0  0  0  0  0  0  0  0
  187.3200  182.1340  131.3098 C   0  0  0  0  0  0  0  0  0  0  0  0
  186.0518  182.1949  130.7677 O   0  0  0  0  0  0  0  0  0  0  0  0
  187.6156  183.1394  131.9930 O   0  0  0  0  0  0  0  0  0  0  0  0
  193.9925  182.8670  131.3558 C   0  0  0  0  0  0  0  0  0  0  0  0
  192.8506  180.9909  126.9388 C   0  0  0  0  0  0  0  0  0  0  0  0
  1  2  1  0
  2  3  1  0
  3  4  2  0
  4  5  1  0
  5  6  1  0
  6  7  1  0
  7  8  1  0
  8  9  2  0
  9 10  1  0
 10 11  1  0
 10 12  1  0
 12 13  1  0
 13 14  1  0
 14 15  1  0
 15 16  1  0
 16 17  2  0
 17 18  1  0
 18 19  1  0
 19 20  2  0
 20 21  1  0
 21 22  2  0
 18 23  2  0
 23 24  1  0
 24 25  1  0
 25 26  1  0
 26 27  1  0
 27 28  1  0
 28 29  2  0
 29 30  1  0
 30 31  1  0
 30 32  1  0
 32 33  2  0
 33 34  1  0
 34 35  2  0
 35 36  1  0
 36 37  1  0
 36 38  2  0
 38 39  1  0
 39 40  2  0
 40 41  1  0
 29 42  1  0
 42 43  1  0
 42 44  2  0
 23 45  1  0
 12 46  2  0
 40  2  1  0
 39  4  1  0
 46  8  1  0
 45 15  2  0
 22 17  1  0
 33 28  1  0
 38 32  1  0
M  END
$$$$
