
     RDKit          3D

 46 52  0  0  0  0  0  0  0  0999 V2000
  144.9309  181.1730  163.3239 C   0  0  0  0  0  0  0  0  0  0  0  0
  144.4061  179.8280  163.0708 N   0  0  0  0  0  0  0  0  0  0  0  0
  144.9538  178.7431  163.5923 N   0  0  0  0  0  0  0  0  0  0  0  0
  144.2599  177.6695  163.1897 C   0  0  0  0  0  0  0  0  0  0  0  0
  144.4455  176.2413  163.4644 C   0  0  0  0  0  0  0  0  0  0  0  0
  146.0100  175.5883  162.8423 S   0  0  0  0  0  0  0  0  0  0  0  0
  146.0974  175.6002  161.0600 C   0  0  0  0  0  0  0  0  0  0  0  0
  146.0121  174.2728  160.3833 C   0  0  0  0  0  0  0  0  0  0  0  0
  147.0964  173.8050  159.6586 N   0  0  0  0  0  0  0  0  0  0  0  0
  146.8206  172.6391  159.1538 N   0  0  0  0  0  0  0  0  0  0  0  0
  147.7239  171.8252  158.3199 C   0  0  0  0  0  0  0  0  0  0  0  0
  145.5386  172.3130  159.5394 C   0  0  0  0  0  0  0  0  0  0  0  0
  144.9047  171.0109  159.1188 C   0  0  0  0  0  0  0  0  0  0  0  0
  143.5649  171.2326  157.9132 S   0  0  0  0  0  0  0  0  0  0  0  0
  142.0382  170.5201  158.6208 C   0  0  0  0  0  0  0  0  0  0  0  0
  142.2332  169.1989  158.9631 C   0  0  0  0  0  0  0  0  0  0  0  0
  141.2200  168.4405  159.5229 C   0  0  0  0  0  0  0  0  0  0  0  0
  140.0246  169.0970  159.7086 C   0  0  0  0  0  0  0  0  0  0  0  0
  139.0137  168.3079  160.2621 C   0  0  0  0  0  0  0  0  0  0  0  0
  139.1708  167.0092  160.5962 C   0  0  0  0  0  0  0  0  0  0  0  0
  140.3932  166.4077  160.3864 C   0  0  0  0  0  0  0  0  0  0  0  0
  141.4464  167.1108  159.8444 C   0  0  0  0  0  0  0  0  0  0  0  0
  139.8106  170.4556  159.3625 C   0  0  0  0  0  0  0  0  0  0  0  0
  138.5277  170.8834  159.6488 O   0  0  0  0  0  0  0  0  0  0  0  0
  137.9625  171.9096  160.3880 C   0  0  0  0  0  0  0  0  0  0  0  0
  138.8859  172.5780  161.3582 C   0  0  0  0  0  0  0  0  0  0  0  0
  138.4372  173.9577  161.7167 C   0  0  0  0  0  0  0  0  0  0  0  0
  139.5439  174.9077  162.0382 C   0  0  0  0  0  0  0  0  0  0  0  0
  139.8920  175.0218  163.3702 C   0  0  0  0  0  0  0  0  0  0  0  0
  140.8909  175.9048  163.5121 N   0  0  0  0  0  0  0  0  0  0  0  0
  141.4153  176.2548  164.8334 C   0  0  0  0  0  0  0  0  0  0  0  0
  141.2110  176.3749  162.2569 C   0  0  0  0  0  0  0  0  0  0  0  0
  140.3580  175.7457  161.3204 C   0  0  0  0  0  0  0  0  0  0  0  0
  140.4911  176.0564  159.9515 C   0  0  0  0  0  0  0  0  0  0  0  0
  141.4133  176.9475  159.4629 C   0  0  0  0  0  0  0  0  0  0  0  0
  142.2381  177.5575  160.3474 C   0  0  0  0  0  0  0  0  0  0  0  0
  143.3662  178.6431  159.5606 Cl  0  0  0  0  0  0  0  0  0  0  0  0
  142.1551  177.2873  161.7395 C   0  0  0  0  0  0  0  0  0  0  0  0
  143.2075  178.1264  162.3607 C   0  0  0  0  0  0  0  0  0  0  0  0
  143.3445  179.5155  162.3152 C   0  0  0  0  0  0  0  0  0  0  0  0
  142.5061  180.5169  161.6303 C   0  0  0  0  0  0  0  0  0  0  0  0
  139.3620  174.3022  164.5537 C   0  0  0  0  0  0  0  0  0  0  0  0
  140.1532  173.8464  165.5891 O   0  0  0  0  0  0  0  0  0  0  0  0
  138.1472  174.0469  164.7090 O   0  0  0  0  0  0  0  0  0  0  0  0
  140.8504  171.1724  158.8047 C   0  0  0  0  0  0  0  0  0  0  0  0
  145.0230  173.3303  160.3102 C   0  0  0  0  0  0  0  0  0  0  0  0
  1  2  1  0
  2  3  1  0
  3  4  2  0
  4  5  1  0
  5  6  1  0
  6  7  1  0
  7  8  1  0
  8  9  2  0
  9 10  1  0
 10 11  1  0
 10 12  1  0
 12 13  1  0
 13 14  1  0
 14 15  1  0
 15 16  1  0
 16 17  2  0
 17 18  1  0
 18 19  1  0
 19 20  2  0
 20 21  1  0
 21 22  2  0
 18 23  2  0
 23 24  1  0
 24 25  1  0
 25 26  1  0
 26 27  1  0
 27 28  1  0
 28 29  2  0
 29 30  1  0
 30 31  1  0
 30 32  1  0
 32 33  2  0
 33 34  1  0
 34 35  2  0
 35 36  1  0
 36 37  1  0
 36 38  2  0
 38 39  1  0
 39 40  2  0
 40 41  1  0
 29 42  1  0
 42 43  1  0
 42 44  2  0
 23 45  1  0
 12 46  2  0
 40  2  1  0
 39  4  1  0
 46  8  1  0
 45 15  2  0
 22 17  1  0
 33 28  1  0
 38 32  1  0
M  END
$$$$
