
     RDKit          3D

 46 52  0  0  0  0  0  0  0  0999 V2000
  132.5327  138.7263  134.8145 C   0  0  0  0  0  0  0  0  0  0  0  0
  131.6889  139.9248  134.8243 N   0  0  0  0  0  0  0  0  0  0  0  0
  130.8164  140.1701  135.7873 N   0  0  0  0  0  0  0  0  0  0  0  0
  130.1992  141.3314  135.5290 C   0  0  0  0  0  0  0  0  0  0  0  0
  129.1514  142.0512  136.2596 C   0  0  0  0  0  0  0  0  0  0  0  0
  127.5988  141.1362  136.3745 S   0  0  0  0  0  0  0  0  0  0  0  0
  126.8117  140.9198  134.7876 C   0  0  0  0  0  0  0  0  0  0  0  0
  125.5772  141.7225  134.5449 C   0  0  0  0  0  0  0  0  0  0  0  0
  124.3661  141.0744  134.3639 N   0  0  0  0  0  0  0  0  0  0  0  0
  123.4224  141.9474  134.1697 N   0  0  0  0  0  0  0  0  0  0  0  0
  121.9992  141.6411  133.9371 C   0  0  0  0  0  0  0  0  0  0  0  0
  123.9982  143.1984  134.2198 C   0  0  0  0  0  0  0  0  0  0  0  0
  123.1718  144.4457  134.0317 C   0  0  0  0  0  0  0  0  0  0  0  0
  123.5163  145.2935  132.4633 S   0  0  0  0  0  0  0  0  0  0  0  0
  124.0640  146.9948  132.8439 C   0  0  0  0  0  0  0  0  0  0  0  0
  123.1199  147.6489  133.6064 C   0  0  0  0  0  0  0  0  0  0  0  0
  123.3078  148.9544  134.0254 C   0  0  0  0  0  0  0  0  0  0  0  0
  124.4900  149.5374  133.6291 C   0  0  0  0  0  0  0  0  0  0  0  0
  124.6511  150.8588  134.0523 C   0  0  0  0  0  0  0  0  0  0  0  0
  123.7398  151.5293  134.7891 C   0  0  0  0  0  0  0  0  0  0  0  0
  122.5748  150.8901  135.1557 C   0  0  0  0  0  0  0  0  0  0  0  0
  122.3326  149.5867  134.7816 C   0  0  0  0  0  0  0  0  0  0  0  0
  125.4702  148.8761  132.8461 C   0  0  0  0  0  0  0  0  0  0  0  0
  126.5685  149.6728  132.5817 O   0  0  0  0  0  0  0  0  0  0  0  0
  127.9374  149.5748  132.7699 C   0  0  0  0  0  0  0  0  0  0  0  0
  128.3730  148.5143  133.7323 C   0  0  0  0  0  0  0  0  0  0  0  0
  129.7863  148.0836  133.5071 C   0  0  0  0  0  0  0  0  0  0  0  0
  130.0652  146.6585  133.8562 C   0  0  0  0  0  0  0  0  0  0  0  0
  130.5334  146.4160  135.1330 C   0  0  0  0  0  0  0  0  0  0  0  0
  130.7418  145.1029  135.3065 N   0  0  0  0  0  0  0  0  0  0  0  0
  131.2916  144.5784  136.5578 C   0  0  0  0  0  0  0  0  0  0  0  0
  130.4004  144.4695  134.1312 C   0  0  0  0  0  0  0  0  0  0  0  0
  129.9722  145.4530  133.2094 C   0  0  0  0  0  0  0  0  0  0  0  0
  129.5596  145.0551  131.9211 C   0  0  0  0  0  0  0  0  0  0  0  0
  129.5475  143.7493  131.4989 C   0  0  0  0  0  0  0  0  0  0  0  0
  129.9539  142.7958  132.3709 C   0  0  0  0  0  0  0  0  0  0  0  0
  129.8562  141.1864  131.6848 Cl  0  0  0  0  0  0  0  0  0  0  0  0
  130.3810  143.1314  133.6834 C   0  0  0  0  0  0  0  0  0  0  0  0
  130.7310  141.8390  134.3195 C   0  0  0  0  0  0  0  0  0  0  0  0
  131.6808  140.9018  133.9072 C   0  0  0  0  0  0  0  0  0  0  0  0
  132.5711  140.9261  132.7318 C   0  0  0  0  0  0  0  0  0  0  0  0
  130.7655  147.3600  136.2530 C   0  0  0  0  0  0  0  0  0  0  0  0
  131.8326  147.2659  137.1238 O   0  0  0  0  0  0  0  0  0  0  0  0
  130.0066  148.3230  136.5016 O   0  0  0  0  0  0  0  0  0  0  0  0
  125.2384  147.5742  132.4495 C   0  0  0  0  0  0  0  0  0  0  0  0
  125.3483  143.0684  134.4543 C   0  0  0  0  0  0  0  0  0  0  0  0
  1  2  1  0
  2  3  1  0
  3  4  2  0
  4  5  1  0
  5  6  1  0
  6  7  1  0
  7  8  1  0
  8  9  2  0
  9 10  1  0
 10 11  1  0
 10 12  1  0
 12 13  1  0
 13 14  1  0
 14 15  1  0
 15 16  1  0
 16 17  2  0
 17 18  1  0
 18 19  1  0
 19 20  2  0
 20 21  1  0
 21 22  2  0
 18 23  2  0
 23 24  1  0
 24 25  1  0
 25 26  1  0
 26 27  1  0
 27 28  1  0
 28 29  2  0
 29 30  1  0
 30 31  1  0
 30 32  1  0
 32 33  2  0
 33 34  1  0
 34 35  2  0
 35 36  1  0
 36 37  1  0
 36 38  2  0
 38 39  1  0
 39 40  2  0
 40 41  1  0
 29 42  1  0
 42 43  1  0
 42 44  2  0
 23 45  1  0
 12 46  2  0
 40  2  1  0
 39  4  1  0
 46  8  1  0
 45 15  2  0
 22 17  1  0
 33 28  1  0
 38 32  1  0
M  END
$$$$
