
     RDKit          3D

 46 52  0  0  0  0  0  0  0  0999 V2000
  172.7184  148.3865  135.6593 C   0  0  0  0  0  0  0  0  0  0  0  0
  171.8137  148.5094  134.5125 N   0  0  0  0  0  0  0  0  0  0  0  0
  171.0199  147.5247  134.1266 N   0  0  0  0  0  0  0  0  0  0  0  0
  170.3129  147.9283  133.0619 C   0  0  0  0  0  0  0  0  0  0  0  0
  169.3108  147.2328  132.2484 C   0  0  0  0  0  0  0  0  0  0  0  0
  169.9626  145.7829  131.3917 S   0  0  0  0  0  0  0  0  0  0  0  0
  171.1686  146.2071  130.1465 C   0  0  0  0  0  0  0  0  0  0  0  0
  170.7362  146.0558  128.7262 C   0  0  0  0  0  0  0  0  0  0  0  0
  171.3696  145.1283  127.9148 N   0  0  0  0  0  0  0  0  0  0  0  0
  170.8469  145.1525  126.7247 N   0  0  0  0  0  0  0  0  0  0  0  0
  171.2570  144.3108  125.5858 C   0  0  0  0  0  0  0  0  0  0  0  0
  169.8502  146.1040  126.7287 C   0  0  0  0  0  0  0  0  0  0  0  0
  169.0361  146.3863  125.4911 C   0  0  0  0  0  0  0  0  0  0  0  0
  169.3978  148.0089  124.7605 S   0  0  0  0  0  0  0  0  0  0  0  0
  167.8445  148.9701  124.7105 C   0  0  0  0  0  0  0  0  0  0  0  0
  166.8699  148.2809  124.0207 C   0  0  0  0  0  0  0  0  0  0  0  0
  165.6001  148.8036  123.8486 C   0  0  0  0  0  0  0  0  0  0  0  0
  165.3902  150.0423  124.4109 C   0  0  0  0  0  0  0  0  0  0  0  0
  164.1061  150.5549  124.2127 C   0  0  0  0  0  0  0  0  0  0  0  0
  163.1351  149.9095  123.5319 C   0  0  0  0  0  0  0  0  0  0  0  0
  163.4067  148.6704  122.9925 C   0  0  0  0  0  0  0  0  0  0  0  0
  164.6468  148.0891  123.1391 C   0  0  0  0  0  0  0  0  0  0  0  0
  166.3829  150.7615  125.1239 C   0  0  0  0  0  0  0  0  0  0  0  0
  165.9263  151.9793  125.5923 O   0  0  0  0  0  0  0  0  0  0  0  0
  165.8542  152.6079  126.8247 C   0  0  0  0  0  0  0  0  0  0  0  0
  166.0322  151.7094  128.0085 C   0  0  0  0  0  0  0  0  0  0  0  0
  166.4802  152.4506  129.2265 C   0  0  0  0  0  0  0  0  0  0  0  0
  167.3359  151.6565  130.1581 C   0  0  0  0  0  0  0  0  0  0  0  0
  166.6863  151.0034  131.1876 C   0  0  0  0  0  0  0  0  0  0  0  0
  167.5714  150.3363  131.9421 N   0  0  0  0  0  0  0  0  0  0  0  0
  167.1518  149.6007  133.1362 C   0  0  0  0  0  0  0  0  0  0  0  0
  168.8208  150.5461  131.3998 C   0  0  0  0  0  0  0  0  0  0  0  0
  168.6751  151.3836  130.2695 C   0  0  0  0  0  0  0  0  0  0  0  0
  169.8194  151.7448  129.5289 C   0  0  0  0  0  0  0  0  0  0  0  0
  171.0882  151.3264  129.8425 C   0  0  0  0  0  0  0  0  0  0  0  0
  171.2437  150.5229  130.9218 C   0  0  0  0  0  0  0  0  0  0  0  0
  172.9162  150.0628  131.1691 Cl  0  0  0  0  0  0  0  0  0  0  0  0
  170.1310  150.1227  131.7090 C   0  0  0  0  0  0  0  0  0  0  0  0
  170.6985  149.2589  132.7716 C   0  0  0  0  0  0  0  0  0  0  0  0
  171.6623  149.5853  133.7281 C   0  0  0  0  0  0  0  0  0  0  0  0
  172.3876  150.8530  133.9315 C   0  0  0  0  0  0  0  0  0  0  0  0
  165.2379  150.9253  131.4964 C   0  0  0  0  0  0  0  0  0  0  0  0
  164.2452  151.2595  130.5971 O   0  0  0  0  0  0  0  0  0  0  0  0
  164.7963  150.5497  132.6050 O   0  0  0  0  0  0  0  0  0  0  0  0
  167.6363  150.2011  125.2687 C   0  0  0  0  0  0  0  0  0  0  0  0
  169.7728  146.6760  127.9783 C   0  0  0  0  0  0  0  0  0  0  0  0
  1  2  1  0
  2  3  1  0
  3  4  2  0
  4  5  1  0
  5  6  1  0
  6  7  1  0
  7  8  1  0
  8  9  2  0
  9 10  1  0
 10 11  1  0
 10 12  1  0
 12 13  1  0
 13 14  1  0
 14 15  1  0
 15 16  1  0
 16 17  2  0
 17 18  1  0
 18 19  1  0
 19 20  2  0
 20 21  1  0
 21 22  2  0
 18 23  2  0
 23 24  1  0
 24 25  1  0
 25 26  1  0
 26 27  1  0
 27 28  1  0
 28 29  2  0
 29 30  1  0
 30 31  1  0
 30 32  1  0
 32 33  2  0
 33 34  1  0
 34 35  2  0
 35 36  1  0
 36 37  1  0
 36 38  2  0
 38 39  1  0
 39 40  2  0
 40 41  1  0
 29 42  1  0
 42 43  1  0
 42 44  2  0
 23 45  1  0
 12 46  2  0
 40  2  1  0
 39  4  1  0
 46  8  1  0
 45 15  2  0
 22 17  1  0
 33 28  1  0
 38 32  1  0
M  END
$$$$
