
     RDKit          3D

 46 52  0  0  0  0  0  0  0  0999 V2000
  177.9986  157.1248  132.9994 C   0  0  0  0  0  0  0  0  0  0  0  0
  179.1749  157.8143  133.5374 N   0  0  0  0  0  0  0  0  0  0  0  0
  179.7808  158.7946  132.8888 N   0  0  0  0  0  0  0  0  0  0  0  0
  180.8140  159.2286  133.6239 C   0  0  0  0  0  0  0  0  0  0  0  0
  181.8077  160.2761  133.3689 C   0  0  0  0  0  0  0  0  0  0  0  0
  182.8426  159.9476  131.9260 S   0  0  0  0  0  0  0  0  0  0  0  0
  183.9019  158.5292  132.1509 C   0  0  0  0  0  0  0  0  0  0  0  0
  185.3566  158.8101  132.3303 C   0  0  0  0  0  0  0  0  0  0  0  0
  186.2607  158.3613  131.3811 N   0  0  0  0  0  0  0  0  0  0  0  0
  187.4668  158.7083  131.7208 N   0  0  0  0  0  0  0  0  0  0  0  0
  188.6955  158.4091  130.9631 C   0  0  0  0  0  0  0  0  0  0  0  0
  187.3801  159.3986  132.9103 C   0  0  0  0  0  0  0  0  0  0  0  0
  188.6119  159.9470  133.5856 C   0  0  0  0  0  0  0  0  0  0  0  0
  189.0297  159.0679  135.1186 S   0  0  0  0  0  0  0  0  0  0  0  0
  189.0376  160.2798  136.4861 C   0  0  0  0  0  0  0  0  0  0  0  0
  189.9065  161.3145  136.2121 C   0  0  0  0  0  0  0  0  0  0  0  0
  190.0860  162.3614  137.0991 C   0  0  0  0  0  0  0  0  0  0  0  0
  189.3418  162.2904  138.2548 C   0  0  0  0  0  0  0  0  0  0  0  0
  189.5497  163.3506  139.1401 C   0  0  0  0  0  0  0  0  0  0  0  0
  190.4022  164.3709  138.9051 C   0  0  0  0  0  0  0  0  0  0  0  0
  191.1192  164.3859  137.7280 C   0  0  0  0  0  0  0  0  0  0  0  0
  190.9769  163.3803  136.7975 C   0  0  0  0  0  0  0  0  0  0  0  0
  188.4436  161.2331  138.5489 C   0  0  0  0  0  0  0  0  0  0  0  0
  187.8141  161.3917  139.7694 O   0  0  0  0  0  0  0  0  0  0  0  0
  186.5031  161.4383  140.2144 C   0  0  0  0  0  0  0  0  0  0  0  0
  185.4767  161.6591  139.1475 C   0  0  0  0  0  0  0  0  0  0  0  0
  184.1207  161.1769  139.5502 C   0  0  0  0  0  0  0  0  0  0  0  0
  183.2723  160.6920  138.4208 C   0  0  0  0  0  0  0  0  0  0  0  0
  182.4202  161.6162  137.8477 C   0  0  0  0  0  0  0  0  0  0  0  0
  181.7223  161.0468  136.8546 N   0  0  0  0  0  0  0  0  0  0  0  0
  180.7046  161.7943  136.1139 C   0  0  0  0  0  0  0  0  0  0  0  0
  182.1235  159.7314  136.7662 C   0  0  0  0  0  0  0  0  0  0  0  0
  183.1050  159.5029  137.7586 C   0  0  0  0  0  0  0  0  0  0  0  0
  183.6839  158.2221  137.8716 C   0  0  0  0  0  0  0  0  0  0  0  0
  183.3478  157.1647  137.0639 C   0  0  0  0  0  0  0  0  0  0  0  0
  182.4099  157.3683  136.1080 C   0  0  0  0  0  0  0  0  0  0  0  0
  182.1149  155.9292  135.1530 Cl  0  0  0  0  0  0  0  0  0  0  0  0
  181.7894  158.6354  135.9425 C   0  0  0  0  0  0  0  0  0  0  0  0
  180.8463  158.4605  134.8123 C   0  0  0  0  0  0  0  0  0  0  0  0
  179.7769  157.5681  134.7090 C   0  0  0  0  0  0  0  0  0  0  0  0
  179.3082  156.5533  135.6709 C   0  0  0  0  0  0  0  0  0  0  0  0
  182.2418  163.0569  138.1510 C   0  0  0  0  0  0  0  0  0  0  0  0
  182.1303  164.0341  137.1823 O   0  0  0  0  0  0  0  0  0  0  0  0
  182.1796  163.5057  139.3171 O   0  0  0  0  0  0  0  0  0  0  0  0
  188.2985  160.2088  137.6347 C   0  0  0  0  0  0  0  0  0  0  0  0
  186.0620  159.4678  133.3008 C   0  0  0  0  0  0  0  0  0  0  0  0
  1  2  1  0
  2  3  1  0
  3  4  2  0
  4  5  1  0
  5  6  1  0
  6  7  1  0
  7  8  1  0
  8  9  2  0
  9 10  1  0
 10 11  1  0
 10 12  1  0
 12 13  1  0
 13 14  1  0
 14 15  1  0
 15 16  1  0
 16 17  2  0
 17 18  1  0
 18 19  1  0
 19 20  2  0
 20 21  1  0
 21 22  2  0
 18 23  2  0
 23 24  1  0
 24 25  1  0
 25 26  1  0
 26 27  1  0
 27 28  1  0
 28 29  2  0
 29 30  1  0
 30 31  1  0
 30 32  1  0
 32 33  2  0
 33 34  1  0
 34 35  2  0
 35 36  1  0
 36 37  1  0
 36 38  2  0
 38 39  1  0
 39 40  2  0
 40 41  1  0
 29 42  1  0
 42 43  1  0
 42 44  2  0
 23 45  1  0
 12 46  2  0
 40  2  1  0
 39  4  1  0
 46  8  1  0
 45 15  2  0
 22 17  1  0
 33 28  1  0
 38 32  1  0
M  END
$$$$
