
     RDKit          3D

 46 52  0  0  0  0  0  0  0  0999 V2000
  199.2794  163.1376  122.9496 C   0  0  0  0  0  0  0  0  0  0  0  0
  197.9325  162.7700  122.5030 N   0  0  0  0  0  0  0  0  0  0  0  0
  196.8404  163.2546  123.0698 N   0  0  0  0  0  0  0  0  0  0  0  0
  195.7666  162.7448  122.4507 C   0  0  0  0  0  0  0  0  0  0  0  0
  194.3328  162.9405  122.6864 C   0  0  0  0  0  0  0  0  0  0  0  0
  193.7890  162.3739  124.3125 S   0  0  0  0  0  0  0  0  0  0  0  0
  193.9206  160.6042  124.5011 C   0  0  0  0  0  0  0  0  0  0  0  0
  192.6376  159.8421  124.5163 C   0  0  0  0  0  0  0  0  0  0  0  0
  192.2646  159.1560  125.6609 N   0  0  0  0  0  0  0  0  0  0  0  0
  191.1233  158.5637  125.4688 N   0  0  0  0  0  0  0  0  0  0  0  0
  190.4048  157.7363  126.4551 C   0  0  0  0  0  0  0  0  0  0  0  0
  190.7184  158.8506  124.1833 C   0  0  0  0  0  0  0  0  0  0  0  0
  189.4206  158.3122  123.6357 C   0  0  0  0  0  0  0  0  0  0  0  0
  189.6628  157.0445  122.3582 S   0  0  0  0  0  0  0  0  0  0  0  0
  188.8413  157.6134  120.8283 C   0  0  0  0  0  0  0  0  0  0  0  0
  187.5101  157.8836  121.0645 C   0  0  0  0  0  0  0  0  0  0  0  0
  186.6743  158.3331  120.0573 C   0  0  0  0  0  0  0  0  0  0  0  0
  187.2658  158.4874  118.8240 C   0  0  0  0  0  0  0  0  0  0  0  0
  186.3999  158.9289  117.8208 C   0  0  0  0  0  0  0  0  0  0  0  0
  185.0901  159.1900  118.0187 C   0  0  0  0  0  0  0  0  0  0  0  0
  184.5562  159.0168  119.2777 C   0  0  0  0  0  0  0  0  0  0  0  0
  185.3374  158.5840  120.3264 C   0  0  0  0  0  0  0  0  0  0  0  0
  188.6336  158.2145  118.5673 C   0  0  0  0  0  0  0  0  0  0  0  0
  188.9867  158.4494  117.2516 O   0  0  0  0  0  0  0  0  0  0  0  0
  189.9376  159.2161  116.5981 C   0  0  0  0  0  0  0  0  0  0  0  0
  190.5802  160.2797  117.4325 C   0  0  0  0  0  0  0  0  0  0  0  0
  191.9133  160.6962  116.9003 C   0  0  0  0  0  0  0  0  0  0  0  0
  192.8867  161.1422  117.9416 C   0  0  0  0  0  0  0  0  0  0  0  0
  192.9287  162.4972  118.2073 C   0  0  0  0  0  0  0  0  0  0  0  0
  193.8425  162.7537  119.1543 N   0  0  0  0  0  0  0  0  0  0  0  0
  194.1278  164.1233  119.5855 C   0  0  0  0  0  0  0  0  0  0  0  0
  194.4065  161.5517  119.5236 C   0  0  0  0  0  0  0  0  0  0  0  0
  193.8036  160.5283  118.7557 C   0  0  0  0  0  0  0  0  0  0  0  0
  194.2082  159.1919  118.9522 C   0  0  0  0  0  0  0  0  0  0  0  0
  195.1677  158.8161  119.8585 C   0  0  0  0  0  0  0  0  0  0  0  0
  195.7535  159.7849  120.6021 C   0  0  0  0  0  0  0  0  0  0  0  0
  196.9352  159.1365  121.7217 Cl  0  0  0  0  0  0  0  0  0  0  0  0
  195.3900  161.1499  120.4522 C   0  0  0  0  0  0  0  0  0  0  0  0
  196.2311  161.8843  121.4273 C   0  0  0  0  0  0  0  0  0  0  0  0
  197.6248  161.9339  121.5020 C   0  0  0  0  0  0  0  0  0  0  0  0
  198.6319  161.2638  120.6586 C   0  0  0  0  0  0  0  0  0  0  0  0
  192.1117  163.5995  117.6445 C   0  0  0  0  0  0  0  0  0  0  0  0
  191.5622  163.5745  116.3783 O   0  0  0  0  0  0  0  0  0  0  0  0
  191.8548  164.6487  118.2755 O   0  0  0  0  0  0  0  0  0  0  0  0
  189.4289  157.7661  119.6028 C   0  0  0  0  0  0  0  0  0  0  0  0
  191.6604  159.6510  123.5778 C   0  0  0  0  0  0  0  0  0  0  0  0
  1  2  1  0
  2  3  1  0
  3  4  2  0
  4  5  1  0
  5  6  1  0
  6  7  1  0
  7  8  1  0
  8  9  2  0
  9 10  1  0
 10 11  1  0
 10 12  1  0
 12 13  1  0
 13 14  1  0
 14 15  1  0
 15 16  1  0
 16 17  2  0
 17 18  1  0
 18 19  1  0
 19 20  2  0
 20 21  1  0
 21 22  2  0
 18 23  2  0
 23 24  1  0
 24 25  1  0
 25 26  1  0
 26 27  1  0
 27 28  1  0
 28 29  2  0
 29 30  1  0
 30 31  1  0
 30 32  1  0
 32 33  2  0
 33 34  1  0
 34 35  2  0
 35 36  1  0
 36 37  1  0
 36 38  2  0
 38 39  1  0
 39 40  2  0
 40 41  1  0
 29 42  1  0
 42 43  1  0
 42 44  2  0
 23 45  1  0
 12 46  2  0
 40  2  1  0
 39  4  1  0
 46  8  1  0
 45 15  2  0
 22 17  1  0
 33 28  1  0
 38 32  1  0
M  END
$$$$
