
     RDKit          3D

 46 52  0  0  0  0  0  0  0  0999 V2000
  153.0567  173.3811  128.1964 C   0  0  0  0  0  0  0  0  0  0  0  0
  152.1373  172.3415  128.6682 N   0  0  0  0  0  0  0  0  0  0  0  0
  151.4927  172.4339  129.8192 N   0  0  0  0  0  0  0  0  0  0  0  0
  150.7285  171.3444  129.9780 C   0  0  0  0  0  0  0  0  0  0  0  0
  149.8335  170.9435  131.0678 C   0  0  0  0  0  0  0  0  0  0  0  0
  150.6840  170.6993  132.6420 S   0  0  0  0  0  0  0  0  0  0  0  0
  151.8085  169.3141  132.6059 C   0  0  0  0  0  0  0  0  0  0  0  0
  151.3946  168.1041  133.3752 C   0  0  0  0  0  0  0  0  0  0  0  0
  152.1514  167.6934  134.4607 N   0  0  0  0  0  0  0  0  0  0  0  0
  151.6240  166.6293  134.9897 N   0  0  0  0  0  0  0  0  0  0  0  0
  152.1455  165.8991  136.1595 C   0  0  0  0  0  0  0  0  0  0  0  0
  150.4997  166.3157  134.2572 C   0  0  0  0  0  0  0  0  0  0  0  0
  149.6462  165.1235  134.6098 C   0  0  0  0  0  0  0  0  0  0  0  0
  149.7644  163.7826  133.3910 S   0  0  0  0  0  0  0  0  0  0  0  0
  148.0878  163.4514  132.7442 C   0  0  0  0  0  0  0  0  0  0  0  0
  147.2196  163.1592  133.7746 C   0  0  0  0  0  0  0  0  0  0  0  0
  145.8865  162.8739  133.5371 C   0  0  0  0  0  0  0  0  0  0  0  0
  145.5022  162.9052  132.2158 C   0  0  0  0  0  0  0  0  0  0  0  0
  144.1561  162.6009  131.9999 C   0  0  0  0  0  0  0  0  0  0  0  0
  143.2852  162.2993  132.9865 C   0  0  0  0  0  0  0  0  0  0  0  0
  143.7308  162.2851  134.2909 C   0  0  0  0  0  0  0  0  0  0  0  0
  145.0430  162.5725  134.5957 C   0  0  0  0  0  0  0  0  0  0  0  0
  146.3840  163.2054  131.1464 C   0  0  0  0  0  0  0  0  0  0  0  0
  145.7580  163.1750  129.9143 O   0  0  0  0  0  0  0  0  0  0  0  0
  145.6024  164.0543  128.8552 C   0  0  0  0  0  0  0  0  0  0  0  0
  145.9157  165.4849  129.1648 C   0  0  0  0  0  0  0  0  0  0  0  0
  146.2582  166.2727  127.9418 C   0  0  0  0  0  0  0  0  0  0  0  0
  147.2254  167.3875  128.1709 C   0  0  0  0  0  0  0  0  0  0  0  0
  146.6833  168.6317  128.4290 C   0  0  0  0  0  0  0  0  0  0  0  0
  147.6602  169.5318  128.6111 N   0  0  0  0  0  0  0  0  0  0  0  0
  147.3586  170.9448  128.8471 C   0  0  0  0  0  0  0  0  0  0  0  0
  148.8628  168.8722  128.4782 C   0  0  0  0  0  0  0  0  0  0  0  0
  148.5906  167.5129  128.1979 C   0  0  0  0  0  0  0  0  0  0  0  0
  149.6661  166.6181  128.0223 C   0  0  0  0  0  0  0  0  0  0  0  0
  150.9840  166.9911  128.1080 C   0  0  0  0  0  0  0  0  0  0  0  0
  151.2606  168.2895  128.3770 C   0  0  0  0  0  0  0  0  0  0  0  0
  152.9836  168.5927  128.4749 Cl  0  0  0  0  0  0  0  0  0  0  0  0
  150.2223  169.2404  128.5650 C   0  0  0  0  0  0  0  0  0  0  0  0
  150.9152  170.5214  128.8416 C   0  0  0  0  0  0  0  0  0  0  0  0
  151.8268  171.2034  128.0327 C   0  0  0  0  0  0  0  0  0  0  0  0
  152.3616  170.8351  126.7086 C   0  0  0  0  0  0  0  0  0  0  0  0
  145.2634  169.0379  128.5633 C   0  0  0  0  0  0  0  0  0  0  0  0
  144.5083  168.8152  129.6973 O   0  0  0  0  0  0  0  0  0  0  0  0
  144.6308  169.6173  127.6527 O   0  0  0  0  0  0  0  0  0  0  0  0
  147.7062  163.4819  131.4313 C   0  0  0  0  0  0  0  0  0  0  0  0
  150.3472  167.2338  133.2430 C   0  0  0  0  0  0  0  0  0  0  0  0
  1  2  1  0
  2  3  1  0
  3  4  2  0
  4  5  1  0
  5  6  1  0
  6  7  1  0
  7  8  1  0
  8  9  2  0
  9 10  1  0
 10 11  1  0
 10 12  1  0
 12 13  1  0
 13 14  1  0
 14 15  1  0
 15 16  1  0
 16 17  2  0
 17 18  1  0
 18 19  1  0
 19 20  2  0
 20 21  1  0
 21 22  2  0
 18 23  2  0
 23 24  1  0
 24 25  1  0
 25 26  1  0
 26 27  1  0
 27 28  1  0
 28 29  2  0
 29 30  1  0
 30 31  1  0
 30 32  1  0
 32 33  2  0
 33 34  1  0
 34 35  2  0
 35 36  1  0
 36 37  1  0
 36 38  2  0
 38 39  1  0
 39 40  2  0
 40 41  1  0
 29 42  1  0
 42 43  1  0
 42 44  2  0
 23 45  1  0
 12 46  2  0
 40  2  1  0
 39  4  1  0
 46  8  1  0
 45 15  2  0
 22 17  1  0
 33 28  1  0
 38 32  1  0
M  END
$$$$
