
     RDKit          3D

 46 52  0  0  0  0  0  0  0  0999 V2000
  204.3651  128.2161  127.0294 C   0  0  0  0  0  0  0  0  0  0  0  0
  204.3588  128.9933  128.2722 N   0  0  0  0  0  0  0  0  0  0  0  0
  205.3844  129.0045  129.1069 N   0  0  0  0  0  0  0  0  0  0  0  0
  205.0916  129.8008  130.1445 C   0  0  0  0  0  0  0  0  0  0  0  0
  205.8637  130.1509  131.3407 C   0  0  0  0  0  0  0  0  0  0  0  0
  206.2264  128.7348  132.4008 S   0  0  0  0  0  0  0  0  0  0  0  0
  204.7593  128.0393  133.1413 C   0  0  0  0  0  0  0  0  0  0  0  0
  204.5805  128.2735  134.6043 C   0  0  0  0  0  0  0  0  0  0  0  0
  204.5897  127.1953  135.4745 N   0  0  0  0  0  0  0  0  0  0  0  0
  204.4212  127.6109  136.6948 N   0  0  0  0  0  0  0  0  0  0  0  0
  204.3716  126.7585  137.8966 C   0  0  0  0  0  0  0  0  0  0  0  0
  204.2971  128.9826  136.6523 C   0  0  0  0  0  0  0  0  0  0  0  0
  204.0886  129.7865  137.9110 C   0  0  0  0  0  0  0  0  0  0  0  0
  202.4228  130.5000  138.0278 S   0  0  0  0  0  0  0  0  0  0  0  0
  202.5887  132.3145  138.1657 C   0  0  0  0  0  0  0  0  0  0  0  0
  203.3872  132.6481  139.2390 C   0  0  0  0  0  0  0  0  0  0  0  0
  203.6653  133.9676  139.5500 C   0  0  0  0  0  0  0  0  0  0  0  0
  203.0934  134.9035  138.7184 C   0  0  0  0  0  0  0  0  0  0  0  0
  203.3772  136.2278  139.0600 C   0  0  0  0  0  0  0  0  0  0  0  0
  204.1451  136.5858  140.1112 C   0  0  0  0  0  0  0  0  0  0  0  0
  204.6907  135.6013  140.9070 C   0  0  0  0  0  0  0  0  0  0  0  0
  204.4627  134.2686  140.6438 C   0  0  0  0  0  0  0  0  0  0  0  0
  202.2715  134.5745  137.6105 C   0  0  0  0  0  0  0  0  0  0  0  0
  201.8202  135.6905  136.9310 O   0  0  0  0  0  0  0  0  0  0  0  0
  201.8677  136.1464  135.6237 C   0  0  0  0  0  0  0  0  0  0  0  0
  202.8683  135.4605  134.7468 C   0  0  0  0  0  0  0  0  0  0  0  0
  202.5315  135.5773  133.2954 C   0  0  0  0  0  0  0  0  0  0  0  0
  202.9743  134.4216  132.4594 C   0  0  0  0  0  0  0  0  0  0  0  0
  204.2097  134.5366  131.8520 C   0  0  0  0  0  0  0  0  0  0  0  0
  204.4762  133.4349  131.1359 N   0  0  0  0  0  0  0  0  0  0  0  0
  205.7027  133.3195  130.3451 C   0  0  0  0  0  0  0  0  0  0  0  0
  203.4058  132.5785  131.2776 C   0  0  0  0  0  0  0  0  0  0  0  0
  202.4514  133.2016  132.1150 C   0  0  0  0  0  0  0  0  0  0  0  0
  201.2558  132.5198  132.4215 C   0  0  0  0  0  0  0  0  0  0  0  0
  200.9556  131.2668  131.9492 C   0  0  0  0  0  0  0  0  0  0  0  0
  201.8603  130.6566  131.1467 C   0  0  0  0  0  0  0  0  0  0  0  0
  201.3351  129.0601  130.6513 Cl  0  0  0  0  0  0  0  0  0  0  0  0
  203.0839  131.2899  130.8010 C   0  0  0  0  0  0  0  0  0  0  0  0
  203.7914  130.3185  129.9330 C   0  0  0  0  0  0  0  0  0  0  0  0
  203.3643  129.7712  128.7211 C   0  0  0  0  0  0  0  0  0  0  0  0
  202.1024  129.9873  127.9893 C   0  0  0  0  0  0  0  0  0  0  0  0
  205.2094  135.6288  131.9357 C   0  0  0  0  0  0  0  0  0  0  0  0
  206.5284  135.4325  132.2927 O   0  0  0  0  0  0  0  0  0  0  0  0
  204.9353  136.8244  131.6898 O   0  0  0  0  0  0  0  0  0  0  0  0
  202.0200  133.2443  137.3397 C   0  0  0  0  0  0  0  0  0  0  0  0
  204.3954  129.4078  135.3467 C   0  0  0  0  0  0  0  0  0  0  0  0
  1  2  1  0
  2  3  1  0
  3  4  2  0
  4  5  1  0
  5  6  1  0
  6  7  1  0
  7  8  1  0
  8  9  2  0
  9 10  1  0
 10 11  1  0
 10 12  1  0
 12 13  1  0
 13 14  1  0
 14 15  1  0
 15 16  1  0
 16 17  2  0
 17 18  1  0
 18 19  1  0
 19 20  2  0
 20 21  1  0
 21 22  2  0
 18 23  2  0
 23 24  1  0
 24 25  1  0
 25 26  1  0
 26 27  1  0
 27 28  1  0
 28 29  2  0
 29 30  1  0
 30 31  1  0
 30 32  1  0
 32 33  2  0
 33 34  1  0
 34 35  2  0
 35 36  1  0
 36 37  1  0
 36 38  2  0
 38 39  1  0
 39 40  2  0
 40 41  1  0
 29 42  1  0
 42 43  1  0
 42 44  2  0
 23 45  1  0
 12 46  2  0
 40  2  1  0
 39  4  1  0
 46  8  1  0
 45 15  2  0
 22 17  1  0
 33 28  1  0
 38 32  1  0
M  END
$$$$
