
     RDKit          3D

 46 52  0  0  0  0  0  0  0  0999 V2000
  158.5501  153.3607  116.7663 C   0  0  0  0  0  0  0  0  0  0  0  0
  157.3062  153.2122  117.5274 N   0  0  0  0  0  0  0  0  0  0  0  0
  156.2640  152.5457  117.0600 N   0  0  0  0  0  0  0  0  0  0  0  0
  155.2831  152.5774  117.9727 C   0  0  0  0  0  0  0  0  0  0  0  0
  153.9301  152.0127  117.9558 C   0  0  0  0  0  0  0  0  0  0  0  0
  152.8810  152.7016  116.6576 S   0  0  0  0  0  0  0  0  0  0  0  0
  152.5188  154.4301  116.9141 C   0  0  0  0  0  0  0  0  0  0  0  0
  151.1236  154.7607  117.3279 C   0  0  0  0  0  0  0  0  0  0  0  0
  150.3230  155.5166  116.4868 N   0  0  0  0  0  0  0  0  0  0  0  0
  149.1536  155.6899  117.0278 N   0  0  0  0  0  0  0  0  0  0  0  0
  148.0329  156.4430  116.4357 C   0  0  0  0  0  0  0  0  0  0  0  0
  149.1606  155.0458  118.2459 C   0  0  0  0  0  0  0  0  0  0  0  0
  147.9452  155.0514  119.1385 C   0  0  0  0  0  0  0  0  0  0  0  0
  148.1709  156.0533  120.6360 S   0  0  0  0  0  0  0  0  0  0  0  0
  147.9175  154.9729  122.0878 C   0  0  0  0  0  0  0  0  0  0  0  0
  146.6791  154.3694  122.0327 C   0  0  0  0  0  0  0  0  0  0  0  0
  146.2545  153.4999  123.0220 C   0  0  0  0  0  0  0  0  0  0  0  0
  147.1496  153.2880  124.0460 C   0  0  0  0  0  0  0  0  0  0  0  0
  146.6938  152.4177  125.0389 C   0  0  0  0  0  0  0  0  0  0  0  0
  145.4826  151.8215  125.0188 C   0  0  0  0  0  0  0  0  0  0  0  0
  144.6305  152.0734  123.9649 C   0  0  0  0  0  0  0  0  0  0  0  0
  144.9979  152.9192  122.9417 C   0  0  0  0  0  0  0  0  0  0  0  0
  148.4267  153.9009  124.1146 C   0  0  0  0  0  0  0  0  0  0  0  0
  149.1387  153.5260  125.2386 O   0  0  0  0  0  0  0  0  0  0  0  0
  150.3803  152.9652  125.4890 C   0  0  0  0  0  0  0  0  0  0  0  0
  151.0419  152.3304  124.3059 C   0  0  0  0  0  0  0  0  0  0  0  0
  152.5250  152.2348  124.4632 C   0  0  0  0  0  0  0  0  0  0  0  0
  153.2926  152.3165  123.1846 C   0  0  0  0  0  0  0  0  0  0  0  0
  153.6031  151.1171  122.5734 C   0  0  0  0  0  0  0  0  0  0  0  0
  154.2907  151.3391  121.4441 N   0  0  0  0  0  0  0  0  0  0  0  0
  154.7922  150.2318  120.6283 C   0  0  0  0  0  0  0  0  0  0  0  0
  154.4303  152.7030  121.3042 C   0  0  0  0  0  0  0  0  0  0  0  0
  153.7998  153.3253  122.4066 C   0  0  0  0  0  0  0  0  0  0  0  0
  153.7990  154.7327  122.4942 C   0  0  0  0  0  0  0  0  0  0  0  0
  154.3826  155.5504  121.5593 C   0  0  0  0  0  0  0  0  0  0  0  0
  154.9897  154.9690  120.4971 C   0  0  0  0  0  0  0  0  0  0  0  0
  155.6614  156.1499  119.3906 Cl  0  0  0  0  0  0  0  0  0  0  0  0
  155.0246  153.5565  120.3505 C   0  0  0  0  0  0  0  0  0  0  0  0
  155.7558  153.3163  119.0836 C   0  0  0  0  0  0  0  0  0  0  0  0
  157.0559  153.7018  118.7494 C   0  0  0  0  0  0  0  0  0  0  0  0
  158.0403  154.4610  119.5426 C   0  0  0  0  0  0  0  0  0  0  0  0
  153.2490  149.7321  122.9683 C   0  0  0  0  0  0  0  0  0  0  0  0
  151.9525  149.2616  123.0272 O   0  0  0  0  0  0  0  0  0  0  0  0
  154.1026  148.8737  123.2839 O   0  0  0  0  0  0  0  0  0  0  0  0
  148.8067  154.7629  123.1054 C   0  0  0  0  0  0  0  0  0  0  0  0
  150.3907  154.4604  118.4436 C   0  0  0  0  0  0  0  0  0  0  0  0
  1  2  1  0
  2  3  1  0
  3  4  2  0
  4  5  1  0
  5  6  1  0
  6  7  1  0
  7  8  1  0
  8  9  2  0
  9 10  1  0
 10 11  1  0
 10 12  1  0
 12 13  1  0
 13 14  1  0
 14 15  1  0
 15 16  1  0
 16 17  2  0
 17 18  1  0
 18 19  1  0
 19 20  2  0
 20 21  1  0
 21 22  2  0
 18 23  2  0
 23 24  1  0
 24 25  1  0
 25 26  1  0
 26 27  1  0
 27 28  1  0
 28 29  2  0
 29 30  1  0
 30 31  1  0
 30 32  1  0
 32 33  2  0
 33 34  1  0
 34 35  2  0
 35 36  1  0
 36 37  1  0
 36 38  2  0
 38 39  1  0
 39 40  2  0
 40 41  1  0
 29 42  1  0
 42 43  1  0
 42 44  2  0
 23 45  1  0
 12 46  2  0
 40  2  1  0
 39  4  1  0
 46  8  1  0
 45 15  2  0
 22 17  1  0
 33 28  1  0
 38 32  1  0
M  END
$$$$
