
     RDKit          3D

 46 52  0  0  0  0  0  0  0  0999 V2000
  124.0178  144.0333  133.1366 C   0  0  0  0  0  0  0  0  0  0  0  0
  125.2151  143.1880  133.1612 N   0  0  0  0  0  0  0  0  0  0  0  0
  125.3555  142.1815  134.0074 N   0  0  0  0  0  0  0  0  0  0  0  0
  126.5415  141.5954  133.7926 C   0  0  0  0  0  0  0  0  0  0  0  0
  127.1896  140.4577  134.4522 C   0  0  0  0  0  0  0  0  0  0  0  0
  127.5348  140.7436  136.2015 S   0  0  0  0  0  0  0  0  0  0  0  0
  128.7553  142.0197  136.4596 C   0  0  0  0  0  0  0  0  0  0  0  0
  130.0981  141.5675  136.9285 C   0  0  0  0  0  0  0  0  0  0  0  0
  130.5538  141.9613  138.1763 N   0  0  0  0  0  0  0  0  0  0  0  0
  131.7350  141.4631  138.3928 N   0  0  0  0  0  0  0  0  0  0  0  0
  132.5447  141.6617  139.6087 C   0  0  0  0  0  0  0  0  0  0  0  0
  132.0834  140.7247  137.2827 C   0  0  0  0  0  0  0  0  0  0  0  0
  133.4070  140.0060  137.2078 C   0  0  0  0  0  0  0  0  0  0  0  0
  134.5498  140.7497  136.0085 S   0  0  0  0  0  0  0  0  0  0  0  0
  134.9943  139.4737  134.7784 C   0  0  0  0  0  0  0  0  0  0  0  0
  135.5243  138.3637  135.4011 C   0  0  0  0  0  0  0  0  0  0  0  0
  135.9361  137.2576  134.6786 C   0  0  0  0  0  0  0  0  0  0  0  0
  135.7770  137.3505  133.3146 C   0  0  0  0  0  0  0  0  0  0  0  0
  136.2119  136.2281  132.6059 C   0  0  0  0  0  0  0  0  0  0  0  0
  136.7457  135.1321  133.1863 C   0  0  0  0  0  0  0  0  0  0  0  0
  136.8783  135.0990  134.5579 C   0  0  0  0  0  0  0  0  0  0  0  0
  136.4759  136.1623  135.3357 C   0  0  0  0  0  0  0  0  0  0  0  0
  135.2323  138.4852  132.6611 C   0  0  0  0  0  0  0  0  0  0  0  0
  135.1750  138.3339  131.2883 O   0  0  0  0  0  0  0  0  0  0  0  0
  134.1886  138.4117  130.3187 C   0  0  0  0  0  0  0  0  0  0  0  0
  132.7843  138.3650  130.8348 C   0  0  0  0  0  0  0  0  0  0  0  0
  131.8055  138.9749  129.8843 C   0  0  0  0  0  0  0  0  0  0  0  0
  130.6213  139.6116  130.5347 C   0  0  0  0  0  0  0  0  0  0  0  0
  129.4978  138.8210  130.6806 C   0  0  0  0  0  0  0  0  0  0  0  0
  128.5174  139.5174  131.2735 N   0  0  0  0  0  0  0  0  0  0  0  0
  127.1956  138.9297  131.4989 C   0  0  0  0  0  0  0  0  0  0  0  0
  129.0019  140.7821  131.5284 C   0  0  0  0  0  0  0  0  0  0  0  0
  130.3349  140.8454  131.0601 C   0  0  0  0  0  0  0  0  0  0  0  0
  131.0606  142.0450  131.2105 C   0  0  0  0  0  0  0  0  0  0  0  0
  130.5443  143.1749  131.7936 C   0  0  0  0  0  0  0  0  0  0  0  0
  129.2690  143.1294  132.2480 C   0  0  0  0  0  0  0  0  0  0  0  0
  128.7736  144.6413  132.9821 Cl  0  0  0  0  0  0  0  0  0  0  0  0
  128.4853  141.9509  132.1269 C   0  0  0  0  0  0  0  0  0  0  0  0
  127.1775  142.2908  132.7365 C   0  0  0  0  0  0  0  0  0  0  0  0
  126.2881  143.3022  132.3667 C   0  0  0  0  0  0  0  0  0  0  0  0
  126.4095  144.3109  131.2978 C   0  0  0  0  0  0  0  0  0  0  0  0
  129.2893  137.3956  130.3286 C   0  0  0  0  0  0  0  0  0  0  0  0
  128.0450  136.8298  130.1354 O   0  0  0  0  0  0  0  0  0  0  0  0
  130.2307  136.5853  130.1794 O   0  0  0  0  0  0  0  0  0  0  0  0
  134.8367  139.5664  133.4230 C   0  0  0  0  0  0  0  0  0  0  0  0
  131.0644  140.7838  136.3592 C   0  0  0  0  0  0  0  0  0  0  0  0
  1  2  1  0
  2  3  1  0
  3  4  2  0
  4  5  1  0
  5  6  1  0
  6  7  1  0
  7  8  1  0
  8  9  2  0
  9 10  1  0
 10 11  1  0
 10 12  1  0
 12 13  1  0
 13 14  1  0
 14 15  1  0
 15 16  1  0
 16 17  2  0
 17 18  1  0
 18 19  1  0
 19 20  2  0
 20 21  1  0
 21 22  2  0
 18 23  2  0
 23 24  1  0
 24 25  1  0
 25 26  1  0
 26 27  1  0
 27 28  1  0
 28 29  2  0
 29 30  1  0
 30 31  1  0
 30 32  1  0
 32 33  2  0
 33 34  1  0
 34 35  2  0
 35 36  1  0
 36 37  1  0
 36 38  2  0
 38 39  1  0
 39 40  2  0
 40 41  1  0
 29 42  1  0
 42 43  1  0
 42 44  2  0
 23 45  1  0
 12 46  2  0
 40  2  1  0
 39  4  1  0
 46  8  1  0
 45 15  2  0
 22 17  1  0
 33 28  1  0
 38 32  1  0
M  END
$$$$
