
     RDKit          3D

 46 52  0  0  0  0  0  0  0  0999 V2000
  118.9081  170.3799  149.8926 C   0  0  0  0  0  0  0  0  0  0  0  0
  118.1427  169.7996  148.7853 N   0  0  0  0  0  0  0  0  0  0  0  0
  117.7267  168.5444  148.7917 N   0  0  0  0  0  0  0  0  0  0  0  0
  117.0558  168.3032  147.6568 C   0  0  0  0  0  0  0  0  0  0  0  0
  116.4043  167.0871  147.1604 C   0  0  0  0  0  0  0  0  0  0  0  0
  117.5502  165.7175  146.8920 S   0  0  0  0  0  0  0  0  0  0  0  0
  118.7069  166.0401  145.5720 C   0  0  0  0  0  0  0  0  0  0  0  0
  118.5014  165.2730  144.3085 C   0  0  0  0  0  0  0  0  0  0  0  0
  119.4692  164.3737  143.8907 N   0  0  0  0  0  0  0  0  0  0  0  0
  119.1002  163.8129  142.7774 N   0  0  0  0  0  0  0  0  0  0  0  0
  119.8675  162.8038  142.0247 C   0  0  0  0  0  0  0  0  0  0  0  0
  117.8715  164.3356  142.4371 C   0  0  0  0  0  0  0  0  0  0  0  0
  117.1545  163.8930  141.1865 C   0  0  0  0  0  0  0  0  0  0  0  0
  117.0962  165.1828  139.9096 S   0  0  0  0  0  0  0  0  0  0  0  0
  115.3431  165.5182  139.5184 C   0  0  0  0  0  0  0  0  0  0  0  0
  114.7018  164.3597  139.1344 C   0  0  0  0  0  0  0  0  0  0  0  0
  113.3617  164.3561  138.7891 C   0  0  0  0  0  0  0  0  0  0  0  0
  112.7307  165.5774  138.8587 C   0  0  0  0  0  0  0  0  0  0  0  0
  111.3829  165.5513  138.4928 C   0  0  0  0  0  0  0  0  0  0  0  0
  110.7310  164.4357  138.1013 C   0  0  0  0  0  0  0  0  0  0  0  0
  111.4181  163.2417  138.0528 C   0  0  0  0  0  0  0  0  0  0  0  0
  112.7504  163.1752  138.3961 C   0  0  0  0  0  0  0  0  0  0  0  0
  113.3775  166.7763  139.2531 C   0  0  0  0  0  0  0  0  0  0  0  0
  112.5294  167.8679  139.2443 O   0  0  0  0  0  0  0  0  0  0  0  0
  112.1354  168.8294  140.1604 C   0  0  0  0  0  0  0  0  0  0  0  0
  112.4390  168.5078  141.5905 C   0  0  0  0  0  0  0  0  0  0  0  0
  112.5062  169.7291  142.4492 C   0  0  0  0  0  0  0  0  0  0  0  0
  113.4493  169.6270  143.6028 C   0  0  0  0  0  0  0  0  0  0  0  0
  112.9124  169.2044  144.8035 C   0  0  0  0  0  0  0  0  0  0  0  0
  113.8654  169.1617  145.7456 N   0  0  0  0  0  0  0  0  0  0  0  0
  113.5527  168.7970  147.1285 C   0  0  0  0  0  0  0  0  0  0  0  0
  115.0483  169.5547  145.1578 C   0  0  0  0  0  0  0  0  0  0  0  0
  114.7876  169.8516  143.7997 C   0  0  0  0  0  0  0  0  0  0  0  0
  115.8479  170.2753  142.9725 C   0  0  0  0  0  0  0  0  0  0  0  0
  117.1402  170.4200  143.4112 C   0  0  0  0  0  0  0  0  0  0  0  0
  117.4057  170.1384  144.7093 C   0  0  0  0  0  0  0  0  0  0  0  0
  119.1005  170.3515  145.0995 Cl  0  0  0  0  0  0  0  0  0  0  0  0
  116.3817  169.7066  145.5940 C   0  0  0  0  0  0  0  0  0  0  0  0
  117.0576  169.4971  146.8966 C   0  0  0  0  0  0  0  0  0  0  0  0
  117.7668  170.4256  147.6617 C   0  0  0  0  0  0  0  0  0  0  0  0
  118.0540  171.8448  147.3820 C   0  0  0  0  0  0  0  0  0  0  0  0
  111.5279  168.7825  145.1268 C   0  0  0  0  0  0  0  0  0  0  0  0
  110.8116  167.8707  144.3775 O   0  0  0  0  0  0  0  0  0  0  0  0
  110.8926  169.2236  146.1101 O   0  0  0  0  0  0  0  0  0  0  0  0
  114.7164  166.7319  139.5869 C   0  0  0  0  0  0  0  0  0  0  0  0
  117.4874  165.2517  143.3901 C   0  0  0  0  0  0  0  0  0  0  0  0
  1  2  1  0
  2  3  1  0
  3  4  2  0
  4  5  1  0
  5  6  1  0
  6  7  1  0
  7  8  1  0
  8  9  2  0
  9 10  1  0
 10 11  1  0
 10 12  1  0
 12 13  1  0
 13 14  1  0
 14 15  1  0
 15 16  1  0
 16 17  2  0
 17 18  1  0
 18 19  1  0
 19 20  2  0
 20 21  1  0
 21 22  2  0
 18 23  2  0
 23 24  1  0
 24 25  1  0
 25 26  1  0
 26 27  1  0
 27 28  1  0
 28 29  2  0
 29 30  1  0
 30 31  1  0
 30 32  1  0
 32 33  2  0
 33 34  1  0
 34 35  2  0
 35 36  1  0
 36 37  1  0
 36 38  2  0
 38 39  1  0
 39 40  2  0
 40 41  1  0
 29 42  1  0
 42 43  1  0
 42 44  2  0
 23 45  1  0
 12 46  2  0
 40  2  1  0
 39  4  1  0
 46  8  1  0
 45 15  2  0
 22 17  1  0
 33 28  1  0
 38 32  1  0
M  END
$$$$
