
     RDKit          3D

 46 52  0  0  0  0  0  0  0  0999 V2000
  133.2713  139.9497  137.8375 C   0  0  0  0  0  0  0  0  0  0  0  0
  132.7283  139.4870  136.5570 N   0  0  0  0  0  0  0  0  0  0  0  0
  133.2172  138.4384  135.9167 N   0  0  0  0  0  0  0  0  0  0  0  0
  132.5211  138.2562  134.7860 C   0  0  0  0  0  0  0  0  0  0  0  0
  132.6544  137.2581  133.7204 C   0  0  0  0  0  0  0  0  0  0  0  0
  134.2354  137.3421  132.8519 S   0  0  0  0  0  0  0  0  0  0  0  0
  134.4267  138.8526  131.9211 C   0  0  0  0  0  0  0  0  0  0  0  0
  134.3474  138.7305  130.4359 C   0  0  0  0  0  0  0  0  0  0  0  0
  135.4600  139.0294  129.6660 N   0  0  0  0  0  0  0  0  0  0  0  0
  135.1847  138.8589  128.4068 N   0  0  0  0  0  0  0  0  0  0  0  0
  136.1141  139.0790  127.2838 C   0  0  0  0  0  0  0  0  0  0  0  0
  133.8746  138.4405  128.3217 C   0  0  0  0  0  0  0  0  0  0  0  0
  133.2336  138.1494  126.9882 C   0  0  0  0  0  0  0  0  0  0  0  0
  131.9723  139.3716  126.5269 S   0  0  0  0  0  0  0  0  0  0  0  0
  130.3895  138.4919  126.2816 C   0  0  0  0  0  0  0  0  0  0  0  0
  130.5308  137.4924  125.3425 C   0  0  0  0  0  0  0  0  0  0  0  0
  129.4680  136.6814  124.9850 C   0  0  0  0  0  0  0  0  0  0  0  0
  128.2808  136.9457  125.6293 C   0  0  0  0  0  0  0  0  0  0  0  0
  127.2198  136.1237  125.2423 C   0  0  0  0  0  0  0  0  0  0  0  0
  127.3243  135.1454  124.3177 C   0  0  0  0  0  0  0  0  0  0  0  0
  128.5413  134.9289  123.7077 C   0  0  0  0  0  0  0  0  0  0  0  0
  129.6417  135.6930  124.0281 C   0  0  0  0  0  0  0  0  0  0  0  0
  128.1216  137.9694  126.5978 C   0  0  0  0  0  0  0  0  0  0  0  0
  126.8354  138.0331  127.1002 O   0  0  0  0  0  0  0  0  0  0  0  0
  126.2542  137.9841  128.3568 C   0  0  0  0  0  0  0  0  0  0  0  0
  127.1362  137.4572  129.4454 C   0  0  0  0  0  0  0  0  0  0  0  0
  126.7022  137.9099  130.8020 C   0  0  0  0  0  0  0  0  0  0  0  0
  127.8119  138.0696  131.7887 C   0  0  0  0  0  0  0  0  0  0  0  0
  128.0847  136.9798  132.5927 C   0  0  0  0  0  0  0  0  0  0  0  0
  129.0956  137.2630  133.4267 N   0  0  0  0  0  0  0  0  0  0  0  0
  129.5509  136.2957  134.4267 C   0  0  0  0  0  0  0  0  0  0  0  0
  129.5000  138.5543  133.1655 C   0  0  0  0  0  0  0  0  0  0  0  0
  128.6874  139.0688  132.1286 C   0  0  0  0  0  0  0  0  0  0  0  0
  128.9077  140.3840  131.6703 C   0  0  0  0  0  0  0  0  0  0  0  0
  129.8789  141.2104  132.1773 C   0  0  0  0  0  0  0  0  0  0  0  0
  130.6660  140.7314  133.1702 C   0  0  0  0  0  0  0  0  0  0  0  0
  131.8650  141.9001  133.6867 Cl  0  0  0  0  0  0  0  0  0  0  0  0
  130.4953  139.4149  133.6756 C   0  0  0  0  0  0  0  0  0  0  0  0
  131.5306  139.2655  134.7260 C   0  0  0  0  0  0  0  0  0  0  0  0
  131.7050  140.0288  135.8826 C   0  0  0  0  0  0  0  0  0  0  0  0
  130.9334  141.1900  136.3630 C   0  0  0  0  0  0  0  0  0  0  0  0
  127.4688  135.6308  132.6021 C   0  0  0  0  0  0  0  0  0  0  0  0
  128.1958  134.4586  132.6582 O   0  0  0  0  0  0  0  0  0  0  0  0
  126.2324  135.4453  132.5576 O   0  0  0  0  0  0  0  0  0  0  0  0
  129.2098  138.7549  126.9214 C   0  0  0  0  0  0  0  0  0  0  0  0
  133.3408  138.3570  129.5878 C   0  0  0  0  0  0  0  0  0  0  0  0
  1  2  1  0
  2  3  1  0
  3  4  2  0
  4  5  1  0
  5  6  1  0
  6  7  1  0
  7  8  1  0
  8  9  2  0
  9 10  1  0
 10 11  1  0
 10 12  1  0
 12 13  1  0
 13 14  1  0
 14 15  1  0
 15 16  1  0
 16 17  2  0
 17 18  1  0
 18 19  1  0
 19 20  2  0
 20 21  1  0
 21 22  2  0
 18 23  2  0
 23 24  1  0
 24 25  1  0
 25 26  1  0
 26 27  1  0
 27 28  1  0
 28 29  2  0
 29 30  1  0
 30 31  1  0
 30 32  1  0
 32 33  2  0
 33 34  1  0
 34 35  2  0
 35 36  1  0
 36 37  1  0
 36 38  2  0
 38 39  1  0
 39 40  2  0
 40 41  1  0
 29 42  1  0
 42 43  1  0
 42 44  2  0
 23 45  1  0
 12 46  2  0
 40  2  1  0
 39  4  1  0
 46  8  1  0
 45 15  2  0
 22 17  1  0
 33 28  1  0
 38 32  1  0
M  END
$$$$
