
     RDKit          3D

 46 52  0  0  0  0  0  0  0  0999 V2000
  163.6216  149.3316  123.5428 C   0  0  0  0  0  0  0  0  0  0  0  0
  164.9122  148.8244  124.0179 N   0  0  0  0  0  0  0  0  0  0  0  0
  165.8312  149.6121  124.5507 N   0  0  0  0  0  0  0  0  0  0  0  0
  166.8944  148.8708  124.8916 C   0  0  0  0  0  0  0  0  0  0  0  0
  168.1751  149.2424  125.5009 C   0  0  0  0  0  0  0  0  0  0  0  0
  169.1573  150.3623  124.4801 S   0  0  0  0  0  0  0  0  0  0  0  0
  169.7158  149.5986  122.9670 C   0  0  0  0  0  0  0  0  0  0  0  0
  171.1709  149.2777  122.8843 C   0  0  0  0  0  0  0  0  0  0  0  0
  171.9583  149.9165  121.9399 N   0  0  0  0  0  0  0  0  0  0  0  0
  173.1863  149.5001  122.0338 N   0  0  0  0  0  0  0  0  0  0  0  0
  174.3145  149.9469  121.1966 C   0  0  0  0  0  0  0  0  0  0  0  0
  173.2326  148.5713  123.0507 C   0  0  0  0  0  0  0  0  0  0  0  0
  174.5235  147.8868  123.4240 C   0  0  0  0  0  0  0  0  0  0  0  0
  174.5470  146.1271  122.9764 S   0  0  0  0  0  0  0  0  0  0  0  0
  174.8297  145.1560  124.4984 C   0  0  0  0  0  0  0  0  0  0  0  0
  175.9894  145.5618  125.1239 C   0  0  0  0  0  0  0  0  0  0  0  0
  176.4180  144.9756  126.3019 C   0  0  0  0  0  0  0  0  0  0  0  0
  175.6100  143.9747  126.7916 C   0  0  0  0  0  0  0  0  0  0  0  0
  176.0698  143.3892  127.9735 C   0  0  0  0  0  0  0  0  0  0  0  0
  177.2067  143.7565  128.6024 C   0  0  0  0  0  0  0  0  0  0  0  0
  177.9733  144.7669  128.0624 C   0  0  0  0  0  0  0  0  0  0  0  0
  177.5956  145.3997  126.8987 C   0  0  0  0  0  0  0  0  0  0  0  0
  174.4142  143.5483  126.1594 C   0  0  0  0  0  0  0  0  0  0  0  0
  173.7807  142.5303  126.8474 O   0  0  0  0  0  0  0  0  0  0  0  0
  172.5189  142.3247  127.3809 C   0  0  0  0  0  0  0  0  0  0  0  0
  171.6846  143.5579  127.5346 C   0  0  0  0  0  0  0  0  0  0  0  0
  170.2218  143.2558  127.5846 C   0  0  0  0  0  0  0  0  0  0  0  0
  169.3457  144.3291  127.0267 C   0  0  0  0  0  0  0  0  0  0  0  0
  168.8574  145.2570  127.9262 C   0  0  0  0  0  0  0  0  0  0  0  0
  168.0892  146.1545  127.2921 N   0  0  0  0  0  0  0  0  0  0  0  0
  167.4013  147.2195  128.0239 C   0  0  0  0  0  0  0  0  0  0  0  0
  168.0754  145.8188  125.9556 C   0  0  0  0  0  0  0  0  0  0  0  0
  168.8700  144.6613  125.7843 C   0  0  0  0  0  0  0  0  0  0  0  0
  169.0217  144.1161  124.4928 C   0  0  0  0  0  0  0  0  0  0  0  0
  168.4357  144.6484  123.3719 C   0  0  0  0  0  0  0  0  0  0  0  0
  167.6725  145.7577  123.5198 C   0  0  0  0  0  0  0  0  0  0  0  0
  167.0193  146.3200  121.9942 Cl  0  0  0  0  0  0  0  0  0  0  0  0
  167.4807  146.3556  124.7940 C   0  0  0  0  0  0  0  0  0  0  0  0
  166.6092  147.5285  124.5446 C   0  0  0  0  0  0  0  0  0  0  0  0
  165.3284  147.5510  123.9880 C   0  0  0  0  0  0  0  0  0  0  0  0
  164.5078  146.4351  123.4822 C   0  0  0  0  0  0  0  0  0  0  0  0
  169.1062  145.3880  129.3823 C   0  0  0  0  0  0  0  0  0  0  0  0
  168.6465  146.4430  130.1448 O   0  0  0  0  0  0  0  0  0  0  0  0
  169.7588  144.5480  130.0409 O   0  0  0  0  0  0  0  0  0  0  0  0
  174.0271  144.1611  124.9844 C   0  0  0  0  0  0  0  0  0  0  0  0
  171.9747  148.4246  123.5901 C   0  0  0  0  0  0  0  0  0  0  0  0
  1  2  1  0
  2  3  1  0
  3  4  2  0
  4  5  1  0
  5  6  1  0
  6  7  1  0
  7  8  1  0
  8  9  2  0
  9 10  1  0
 10 11  1  0
 10 12  1  0
 12 13  1  0
 13 14  1  0
 14 15  1  0
 15 16  1  0
 16 17  2  0
 17 18  1  0
 18 19  1  0
 19 20  2  0
 20 21  1  0
 21 22  2  0
 18 23  2  0
 23 24  1  0
 24 25  1  0
 25 26  1  0
 26 27  1  0
 27 28  1  0
 28 29  2  0
 29 30  1  0
 30 31  1  0
 30 32  1  0
 32 33  2  0
 33 34  1  0
 34 35  2  0
 35 36  1  0
 36 37  1  0
 36 38  2  0
 38 39  1  0
 39 40  2  0
 40 41  1  0
 29 42  1  0
 42 43  1  0
 42 44  2  0
 23 45  1  0
 12 46  2  0
 40  2  1  0
 39  4  1  0
 46  8  1  0
 45 15  2  0
 22 17  1  0
 33 28  1  0
 38 32  1  0
M  END
$$$$
