
     RDKit          3D

 46 52  0  0  0  0  0  0  0  0999 V2000
  193.9423  161.6341  132.9681 C   0  0  0  0  0  0  0  0  0  0  0  0
  192.6331  161.0002  133.1489 N   0  0  0  0  0  0  0  0  0  0  0  0
  192.4762  159.8790  133.8323 N   0  0  0  0  0  0  0  0  0  0  0  0
  191.1780  159.5461  133.8289 C   0  0  0  0  0  0  0  0  0  0  0  0
  190.4723  158.4054  134.4210 C   0  0  0  0  0  0  0  0  0  0  0  0
  190.9857  156.8129  133.7419 S   0  0  0  0  0  0  0  0  0  0  0  0
  190.5420  156.6254  132.0236 C   0  0  0  0  0  0  0  0  0  0  0  0
  189.4344  155.6707  131.7253 C   0  0  0  0  0  0  0  0  0  0  0  0
  189.6960  154.5334  130.9783 N   0  0  0  0  0  0  0  0  0  0  0  0
  188.6062  153.8393  130.8339 N   0  0  0  0  0  0  0  0  0  0  0  0
  188.4854  152.5672  130.0986 C   0  0  0  0  0  0  0  0  0  0  0  0
  187.5968  154.5111  131.4887 C   0  0  0  0  0  0  0  0  0  0  0  0
  186.1895  153.9702  131.5161 C   0  0  0  0  0  0  0  0  0  0  0  0
  185.0324  154.9567  130.5233 S   0  0  0  0  0  0  0  0  0  0  0  0
  183.6940  155.5408  131.6218 C   0  0  0  0  0  0  0  0  0  0  0  0
  183.0830  154.4764  132.2499 C   0  0  0  0  0  0  0  0  0  0  0  0
  182.0375  154.6641  133.1369 C   0  0  0  0  0  0  0  0  0  0  0  0
  181.6629  155.9729  133.3397 C   0  0  0  0  0  0  0  0  0  0  0  0
  180.5975  156.1363  134.2281 C   0  0  0  0  0  0  0  0  0  0  0  0
  179.9717  155.1135  134.8488 C   0  0  0  0  0  0  0  0  0  0  0  0
  180.3939  153.8242  134.6048 C   0  0  0  0  0  0  0  0  0  0  0  0
  181.4375  153.5704  133.7424 C   0  0  0  0  0  0  0  0  0  0  0  0
  182.2832  157.0771  132.7015 C   0  0  0  0  0  0  0  0  0  0  0  0
  181.7285  158.2879  133.0719 O   0  0  0  0  0  0  0  0  0  0  0  0
  182.1986  159.4750  133.6095 C   0  0  0  0  0  0  0  0  0  0  0  0
  183.5633  159.4005  134.2199 C   0  0  0  0  0  0  0  0  0  0  0  0
  184.2333  160.7348  134.2866 C   0  0  0  0  0  0  0  0  0  0  0  0
  185.7221  160.6891  134.1777 C   0  0  0  0  0  0  0  0  0  0  0  0
  186.4265  160.6350  135.3649 C   0  0  0  0  0  0  0  0  0  0  0  0
  187.7440  160.6010  135.1186 N   0  0  0  0  0  0  0  0  0  0  0  0
  188.7219  160.5961  136.2080 C   0  0  0  0  0  0  0  0  0  0  0  0
  187.9116  160.6262  133.7510 C   0  0  0  0  0  0  0  0  0  0  0  0
  186.6318  160.6833  133.1516 C   0  0  0  0  0  0  0  0  0  0  0  0
  186.5315  160.7127  131.7455 C   0  0  0  0  0  0  0  0  0  0  0  0
  187.6180  160.6888  130.9075 C   0  0  0  0  0  0  0  0  0  0  0  0
  188.8506  160.6331  131.4667 C   0  0  0  0  0  0  0  0  0  0  0  0
  190.1223  160.5863  130.2624 Cl  0  0  0  0  0  0  0  0  0  0  0  0
  189.0191  160.6006  132.8768 C   0  0  0  0  0  0  0  0  0  0  0  0
  190.4845  160.5348  133.0906 C   0  0  0  0  0  0  0  0  0  0  0  0
  191.4604  161.4436  132.6756 C   0  0  0  0  0  0  0  0  0  0  0  0
  191.3101  162.6910  131.9037 C   0  0  0  0  0  0  0  0  0  0  0  0
  185.9289  160.5674  136.7603 C   0  0  0  0  0  0  0  0  0  0  0  0
  184.8305  161.2691  137.2153 O   0  0  0  0  0  0  0  0  0  0  0  0
  186.4695  159.8658  137.6438 O   0  0  0  0  0  0  0  0  0  0  0  0
  183.3215  156.8412  131.8228 C   0  0  0  0  0  0  0  0  0  0  0  0
  188.1055  155.6601  132.0507 C   0  0  0  0  0  0  0  0  0  0  0  0
  1  2  1  0
  2  3  1  0
  3  4  2  0
  4  5  1  0
  5  6  1  0
  6  7  1  0
  7  8  1  0
  8  9  2  0
  9 10  1  0
 10 11  1  0
 10 12  1  0
 12 13  1  0
 13 14  1  0
 14 15  1  0
 15 16  1  0
 16 17  2  0
 17 18  1  0
 18 19  1  0
 19 20  2  0
 20 21  1  0
 21 22  2  0
 18 23  2  0
 23 24  1  0
 24 25  1  0
 25 26  1  0
 26 27  1  0
 27 28  1  0
 28 29  2  0
 29 30  1  0
 30 31  1  0
 30 32  1  0
 32 33  2  0
 33 34  1  0
 34 35  2  0
 35 36  1  0
 36 37  1  0
 36 38  2  0
 38 39  1  0
 39 40  2  0
 40 41  1  0
 29 42  1  0
 42 43  1  0
 42 44  2  0
 23 45  1  0
 12 46  2  0
 40  2  1  0
 39  4  1  0
 46  8  1  0
 45 15  2  0
 22 17  1  0
 33 28  1  0
 38 32  1  0
M  END
$$$$
