
     RDKit          3D

 46 52  0  0  0  0  0  0  0  0999 V2000
  144.2127  155.2394  116.5268 C   0  0  0  0  0  0  0  0  0  0  0  0
  145.5412  155.6953  116.9464 N   0  0  0  0  0  0  0  0  0  0  0  0
  146.6555  155.1946  116.4401 N   0  0  0  0  0  0  0  0  0  0  0  0
  147.7041  155.8050  117.0093 C   0  0  0  0  0  0  0  0  0  0  0  0
  149.1466  155.6232  116.8201 C   0  0  0  0  0  0  0  0  0  0  0  0
  149.7285  153.9763  117.2785 S   0  0  0  0  0  0  0  0  0  0  0  0
  149.5780  153.6586  119.0281 C   0  0  0  0  0  0  0  0  0  0  0  0
  150.8503  153.6242  119.8074 C   0  0  0  0  0  0  0  0  0  0  0  0
  151.2462  152.4443  120.4165 N   0  0  0  0  0  0  0  0  0  0  0  0
  152.3733  152.6248  121.0388 N   0  0  0  0  0  0  0  0  0  0  0  0
  153.1081  151.6022  121.8055 C   0  0  0  0  0  0  0  0  0  0  0  0
  152.7454  153.9381  120.8501 C   0  0  0  0  0  0  0  0  0  0  0  0
  154.0195  154.4814  121.4464 C   0  0  0  0  0  0  0  0  0  0  0  0
  153.7236  155.6581  122.7974 S   0  0  0  0  0  0  0  0  0  0  0  0
  154.5091  157.2466  122.3514 C   0  0  0  0  0  0  0  0  0  0  0  0
  155.8500  157.0668  122.0862 C   0  0  0  0  0  0  0  0  0  0  0  0
  156.6629  158.1260  121.7224 C   0  0  0  0  0  0  0  0  0  0  0  0
  156.0388  159.3504  121.6466 C   0  0  0  0  0  0  0  0  0  0  0  0
  156.8819  160.4059  121.2910 C   0  0  0  0  0  0  0  0  0  0  0  0
  158.2003  160.2630  121.0372 C   0  0  0  0  0  0  0  0  0  0  0  0
  158.7673  159.0100  121.1291 C   0  0  0  0  0  0  0  0  0  0  0  0
  158.0103  157.9121  121.4742 C   0  0  0  0  0  0  0  0  0  0  0  0
  154.6606  159.5495  121.9154 C   0  0  0  0  0  0  0  0  0  0  0  0
  154.2736  160.8684  121.7687 O   0  0  0  0  0  0  0  0  0  0  0  0
  153.3152  161.5487  121.0354 C   0  0  0  0  0  0  0  0  0  0  0  0
  152.7112  160.7749  119.9053 C   0  0  0  0  0  0  0  0  0  0  0  0
  151.3695  161.2987  119.5066 C   0  0  0  0  0  0  0  0  0  0  0  0
  150.4322  160.2656  118.9727 C   0  0  0  0  0  0  0  0  0  0  0  0
  150.4165  160.0961  117.6017 C   0  0  0  0  0  0  0  0  0  0  0  0
  149.5336  159.1451  117.2644 N   0  0  0  0  0  0  0  0  0  0  0  0
  149.2796  158.8049  115.8634 C   0  0  0  0  0  0  0  0  0  0  0  0
  148.9639  158.6758  118.4282 C   0  0  0  0  0  0  0  0  0  0  0  0
  149.5305  159.3850  119.5128 C   0  0  0  0  0  0  0  0  0  0  0  0
  149.1133  159.0828  120.8253 C   0  0  0  0  0  0  0  0  0  0  0  0
  148.1748  158.1261  121.1208 C   0  0  0  0  0  0  0  0  0  0  0  0
  147.6238  157.4376  120.0926 C   0  0  0  0  0  0  0  0  0  0  0  0
  146.4657  156.2427  120.6413 Cl  0  0  0  0  0  0  0  0  0  0  0  0
  148.0017  157.6943  118.7476 C   0  0  0  0  0  0  0  0  0  0  0  0
  147.1989  156.7514  117.9327 C   0  0  0  0  0  0  0  0  0  0  0  0
  145.8087  156.6422  117.8560 C   0  0  0  0  0  0  0  0  0  0  0  0
  144.7688  157.4079  118.5682 C   0  0  0  0  0  0  0  0  0  0  0  0
  151.2323  160.7582  116.5551 C   0  0  0  0  0  0  0  0  0  0  0  0
  151.3900  160.2580  115.2781 O   0  0  0  0  0  0  0  0  0  0  0  0
  151.8490  161.8296  116.7473 O   0  0  0  0  0  0  0  0  0  0  0  0
  153.8890  158.4633  122.2767 C   0  0  0  0  0  0  0  0  0  0  0  0
  151.7976  154.5731  120.0799 C   0  0  0  0  0  0  0  0  0  0  0  0
  1  2  1  0
  2  3  1  0
  3  4  2  0
  4  5  1  0
  5  6  1  0
  6  7  1  0
  7  8  1  0
  8  9  2  0
  9 10  1  0
 10 11  1  0
 10 12  1  0
 12 13  1  0
 13 14  1  0
 14 15  1  0
 15 16  1  0
 16 17  2  0
 17 18  1  0
 18 19  1  0
 19 20  2  0
 20 21  1  0
 21 22  2  0
 18 23  2  0
 23 24  1  0
 24 25  1  0
 25 26  1  0
 26 27  1  0
 27 28  1  0
 28 29  2  0
 29 30  1  0
 30 31  1  0
 30 32  1  0
 32 33  2  0
 33 34  1  0
 34 35  2  0
 35 36  1  0
 36 37  1  0
 36 38  2  0
 38 39  1  0
 39 40  2  0
 40 41  1  0
 29 42  1  0
 42 43  1  0
 42 44  2  0
 23 45  1  0
 12 46  2  0
 40  2  1  0
 39  4  1  0
 46  8  1  0
 45 15  2  0
 22 17  1  0
 33 28  1  0
 38 32  1  0
M  END
$$$$
