
     RDKit          3D

 46 52  0  0  0  0  0  0  0  0999 V2000
  130.0331  142.8540  127.0321 C   0  0  0  0  0  0  0  0  0  0  0  0
  129.5991  142.9557  128.4285 N   0  0  0  0  0  0  0  0  0  0  0  0
  128.3316  143.1209  128.7671 N   0  0  0  0  0  0  0  0  0  0  0  0
  128.2422  143.1751  130.1033 C   0  0  0  0  0  0  0  0  0  0  0  0
  127.0863  143.3554  130.9870 C   0  0  0  0  0  0  0  0  0  0  0  0
  126.2554  144.9435  130.7668 S   0  0  0  0  0  0  0  0  0  0  0  0
  127.2728  146.3238  131.2610 C   0  0  0  0  0  0  0  0  0  0  0  0
  126.8794  147.0195  132.5212 C   0  0  0  0  0  0  0  0  0  0  0  0
  126.4675  148.3415  132.4713 N   0  0  0  0  0  0  0  0  0  0  0  0
  126.1700  148.7572  133.6667 N   0  0  0  0  0  0  0  0  0  0  0  0
  125.6958  150.1086  134.0163 C   0  0  0  0  0  0  0  0  0  0  0  0
  126.3816  147.7083  134.5350 C   0  0  0  0  0  0  0  0  0  0  0  0
  126.1287  147.8569  136.0142 C   0  0  0  0  0  0  0  0  0  0  0  0
  127.6555  147.8533  136.9974 S   0  0  0  0  0  0  0  0  0  0  0  0
  127.5561  146.4797  138.1985 C   0  0  0  0  0  0  0  0  0  0  0  0
  126.4230  146.5959  138.9753 C   0  0  0  0  0  0  0  0  0  0  0  0
  126.1238  145.6704  139.9596 C   0  0  0  0  0  0  0  0  0  0  0  0
  127.0293  144.6431  140.0991 C   0  0  0  0  0  0  0  0  0  0  0  0
  126.7132  143.7294  141.1073 C   0  0  0  0  0  0  0  0  0  0  0  0
  125.6182  143.8232  141.8915 C   0  0  0  0  0  0  0  0  0  0  0  0
  124.7481  144.8755  141.7024 C   0  0  0  0  0  0  0  0  0  0  0  0
  124.9818  145.8237  140.7310 C   0  0  0  0  0  0  0  0  0  0  0  0
  128.1978  144.5107  139.3064 C   0  0  0  0  0  0  0  0  0  0  0  0
  128.9436  143.3949  139.6378 O   0  0  0  0  0  0  0  0  0  0  0  0
  129.4375  142.2913  138.9618 C   0  0  0  0  0  0  0  0  0  0  0  0
  128.8204  142.0374  137.6219 C   0  0  0  0  0  0  0  0  0  0  0  0
  129.7037  141.2260  136.7302 C   0  0  0  0  0  0  0  0  0  0  0  0
  129.5555  141.5201  135.2735 C   0  0  0  0  0  0  0  0  0  0  0  0
  128.6646  140.7309  134.5720 C   0  0  0  0  0  0  0  0  0  0  0  0
  128.6346  141.1019  133.2839 N   0  0  0  0  0  0  0  0  0  0  0  0
  127.8099  140.3901  132.3060 C   0  0  0  0  0  0  0  0  0  0  0  0
  129.5120  142.1540  133.1342 C   0  0  0  0  0  0  0  0  0  0  0  0
  130.0983  142.4207  134.3934 C   0  0  0  0  0  0  0  0  0  0  0  0
  131.0367  143.4669  134.5075 C   0  0  0  0  0  0  0  0  0  0  0  0
  131.4232  144.2565  133.4536 C   0  0  0  0  0  0  0  0  0  0  0  0
  130.8696  144.0139  132.2414 C   0  0  0  0  0  0  0  0  0  0  0  0
  131.4514  145.1212  131.0144 Cl  0  0  0  0  0  0  0  0  0  0  0  0
  129.9179  142.9749  132.0606 C   0  0  0  0  0  0  0  0  0  0  0  0
  129.5498  143.0318  130.6258 C   0  0  0  0  0  0  0  0  0  0  0  0
  130.3832  142.8951  129.5135 C   0  0  0  0  0  0  0  0  0  0  0  0
  131.8411  142.6806  129.4568 C   0  0  0  0  0  0  0  0  0  0  0  0
  127.7779  139.6441  135.0535 C   0  0  0  0  0  0  0  0  0  0  0  0
  126.4295  139.5735  134.7664 O   0  0  0  0  0  0  0  0  0  0  0  0
  128.1832  138.6984  135.7653 O   0  0  0  0  0  0  0  0  0  0  0  0
  128.4562  145.4594  138.3374 C   0  0  0  0  0  0  0  0  0  0  0  0
  126.8263  146.6147  133.8271 C   0  0  0  0  0  0  0  0  0  0  0  0
  1  2  1  0
  2  3  1  0
  3  4  2  0
  4  5  1  0
  5  6  1  0
  6  7  1  0
  7  8  1  0
  8  9  2  0
  9 10  1  0
 10 11  1  0
 10 12  1  0
 12 13  1  0
 13 14  1  0
 14 15  1  0
 15 16  1  0
 16 17  2  0
 17 18  1  0
 18 19  1  0
 19 20  2  0
 20 21  1  0
 21 22  2  0
 18 23  2  0
 23 24  1  0
 24 25  1  0
 25 26  1  0
 26 27  1  0
 27 28  1  0
 28 29  2  0
 29 30  1  0
 30 31  1  0
 30 32  1  0
 32 33  2  0
 33 34  1  0
 34 35  2  0
 35 36  1  0
 36 37  1  0
 36 38  2  0
 38 39  1  0
 39 40  2  0
 40 41  1  0
 29 42  1  0
 42 43  1  0
 42 44  2  0
 23 45  1  0
 12 46  2  0
 40  2  1  0
 39  4  1  0
 46  8  1  0
 45 15  2  0
 22 17  1  0
 33 28  1  0
 38 32  1  0
M  END
$$$$
