
     RDKit          3D

 46 52  0  0  0  0  0  0  0  0999 V2000
  129.3665  147.5138  134.3224 C   0  0  0  0  0  0  0  0  0  0  0  0
  129.4284  146.0667  134.0973 N   0  0  0  0  0  0  0  0  0  0  0  0
  130.4719  145.3373  134.4549 N   0  0  0  0  0  0  0  0  0  0  0  0
  130.2409  144.0584  134.1272 C   0  0  0  0  0  0  0  0  0  0  0  0
  131.0647  142.8564  134.2892 C   0  0  0  0  0  0  0  0  0  0  0  0
  132.6142  142.9183  133.3640 S   0  0  0  0  0  0  0  0  0  0  0  0
  132.3587  142.9132  131.5979 C   0  0  0  0  0  0  0  0  0  0  0  0
  132.7245  141.6577  130.8788 C   0  0  0  0  0  0  0  0  0  0  0  0
  133.7510  141.6781  129.9484 N   0  0  0  0  0  0  0  0  0  0  0  0
  133.9109  140.4919  129.4408 N   0  0  0  0  0  0  0  0  0  0  0  0
  134.9044  140.1190  128.4173 C   0  0  0  0  0  0  0  0  0  0  0  0
  132.9853  139.6597  130.0319 C   0  0  0  0  0  0  0  0  0  0  0  0
  132.9015  138.1997  129.6639 C   0  0  0  0  0  0  0  0  0  0  0  0
  131.3986  137.7898  128.7307 S   0  0  0  0  0  0  0  0  0  0  0  0
  130.4804  136.5135  129.6617 C   0  0  0  0  0  0  0  0  0  0  0  0
  131.2792  135.4141  129.8939 C   0  0  0  0  0  0  0  0  0  0  0  0
  130.8081  134.3118  130.5855 C   0  0  0  0  0  0  0  0  0  0  0  0
  129.5036  134.3981  131.0161 C   0  0  0  0  0  0  0  0  0  0  0  0
  129.0465  133.2689  131.6995 C   0  0  0  0  0  0  0  0  0  0  0  0
  129.8007  132.1734  131.9316 C   0  0  0  0  0  0  0  0  0  0  0  0
  131.1012  132.1476  131.4754 C   0  0  0  0  0  0  0  0  0  0  0  0
  131.6346  133.2176  130.7913 C   0  0  0  0  0  0  0  0  0  0  0  0
  128.6713  135.5230  130.7854 C   0  0  0  0  0  0  0  0  0  0  0  0
  127.4053  135.3682  131.3186 O   0  0  0  0  0  0  0  0  0  0  0  0
  126.6033  136.0750  132.1997 C   0  0  0  0  0  0  0  0  0  0  0  0
  127.3147  137.1032  133.0226 C   0  0  0  0  0  0  0  0  0  0  0  0
  126.3951  138.1676  133.5274 C   0  0  0  0  0  0  0  0  0  0  0  0
  127.0294  139.5093  133.6950 C   0  0  0  0  0  0  0  0  0  0  0  0
  127.5341  139.8014  134.9474 C   0  0  0  0  0  0  0  0  0  0  0  0
  128.0685  141.0310  134.9543 N   0  0  0  0  0  0  0  0  0  0  0  0
  128.6269  141.6112  136.1769 C   0  0  0  0  0  0  0  0  0  0  0  0
  127.9208  141.5551  133.6884 C   0  0  0  0  0  0  0  0  0  0  0  0
  127.2613  140.5934  132.8880 C   0  0  0  0  0  0  0  0  0  0  0  0
  126.9948  140.8902  131.5355 C   0  0  0  0  0  0  0  0  0  0  0  0
  127.3419  142.0753  130.9371 C   0  0  0  0  0  0  0  0  0  0  0  0
  127.9751  143.0061  131.6906 C   0  0  0  0  0  0  0  0  0  0  0  0
  128.3668  144.4462  130.7726 Cl  0  0  0  0  0  0  0  0  0  0  0  0
  128.2728  142.7681  133.0590 C   0  0  0  0  0  0  0  0  0  0  0  0
  128.9615  143.9953  133.5250 C   0  0  0  0  0  0  0  0  0  0  0  0
  128.4823  145.3071  133.5284 C   0  0  0  0  0  0  0  0  0  0  0  0
  127.1870  145.8318  133.0579 C   0  0  0  0  0  0  0  0  0  0  0  0
  127.5892  138.9598  136.1673 C   0  0  0  0  0  0  0  0  0  0  0  0
  127.9496  137.6272  136.1613 O   0  0  0  0  0  0  0  0  0  0  0  0
  127.3095  139.3924  137.3073 O   0  0  0  0  0  0  0  0  0  0  0  0
  129.1841  136.5991  130.0890 C   0  0  0  0  0  0  0  0  0  0  0  0
  132.2368  140.3805  130.9346 C   0  0  0  0  0  0  0  0  0  0  0  0
  1  2  1  0
  2  3  1  0
  3  4  2  0
  4  5  1  0
  5  6  1  0
  6  7  1  0
  7  8  1  0
  8  9  2  0
  9 10  1  0
 10 11  1  0
 10 12  1  0
 12 13  1  0
 13 14  1  0
 14 15  1  0
 15 16  1  0
 16 17  2  0
 17 18  1  0
 18 19  1  0
 19 20  2  0
 20 21  1  0
 21 22  2  0
 18 23  2  0
 23 24  1  0
 24 25  1  0
 25 26  1  0
 26 27  1  0
 27 28  1  0
 28 29  2  0
 29 30  1  0
 30 31  1  0
 30 32  1  0
 32 33  2  0
 33 34  1  0
 34 35  2  0
 35 36  1  0
 36 37  1  0
 36 38  2  0
 38 39  1  0
 39 40  2  0
 40 41  1  0
 29 42  1  0
 42 43  1  0
 42 44  2  0
 23 45  1  0
 12 46  2  0
 40  2  1  0
 39  4  1  0
 46  8  1  0
 45 15  2  0
 22 17  1  0
 33 28  1  0
 38 32  1  0
M  END
$$$$
