
     RDKit          3D

 46 52  0  0  0  0  0  0  0  0999 V2000
  123.2623  172.8076  142.8930 C   0  0  0  0  0  0  0  0  0  0  0  0
  124.3741  172.0143  143.4254 N   0  0  0  0  0  0  0  0  0  0  0  0
  124.9009  172.2416  144.6169 N   0  0  0  0  0  0  0  0  0  0  0  0
  125.8899  171.3625  144.8297 C   0  0  0  0  0  0  0  0  0  0  0  0
  126.7950  171.1849  145.9693 C   0  0  0  0  0  0  0  0  0  0  0  0
  127.8627  172.6104  146.2668 S   0  0  0  0  0  0  0  0  0  0  0  0
  129.0344  172.8765  144.9474 C   0  0  0  0  0  0  0  0  0  0  0  0
  130.4597  172.5552  145.2517 C   0  0  0  0  0  0  0  0  0  0  0  0
  131.4039  173.5692  145.2482 N   0  0  0  0  0  0  0  0  0  0  0  0
  132.5748  173.0836  145.5369 N   0  0  0  0  0  0  0  0  0  0  0  0
  133.8290  173.8534  145.6268 C   0  0  0  0  0  0  0  0  0  0  0  0
  132.4238  171.7289  145.7385 C   0  0  0  0  0  0  0  0  0  0  0  0
  133.6016  170.8569  146.0941 C   0  0  0  0  0  0  0  0  0  0  0  0
  134.0809  169.7323  144.7513 S   0  0  0  0  0  0  0  0  0  0  0  0
  133.9796  168.0193  145.3795 C   0  0  0  0  0  0  0  0  0  0  0  0
  134.7617  167.8686  146.5049 C   0  0  0  0  0  0  0  0  0  0  0  0
  134.8482  166.6568  147.1676 C   0  0  0  0  0  0  0  0  0  0  0  0
  134.1051  165.6329  146.6254 C   0  0  0  0  0  0  0  0  0  0  0  0
  134.2188  164.4168  147.3031 C   0  0  0  0  0  0  0  0  0  0  0  0
  134.9853  164.2355  148.3997 C   0  0  0  0  0  0  0  0  0  0  0  0
  135.7061  165.3006  148.8957 C   0  0  0  0  0  0  0  0  0  0  0  0
  135.6536  166.5366  148.2899 C   0  0  0  0  0  0  0  0  0  0  0  0
  133.2956  165.7742  145.4695 C   0  0  0  0  0  0  0  0  0  0  0  0
  132.6474  164.6027  145.1256 O   0  0  0  0  0  0  0  0  0  0  0  0
  131.3342  164.2186  144.9088 C   0  0  0  0  0  0  0  0  0  0  0  0
  130.2999  165.1694  145.4253 C   0  0  0  0  0  0  0  0  0  0  0  0
  128.9859  165.0178  144.7295 C   0  0  0  0  0  0  0  0  0  0  0  0
  128.1878  166.2760  144.6268 C   0  0  0  0  0  0  0  0  0  0  0  0
  127.2658  166.5058  145.6297 C   0  0  0  0  0  0  0  0  0  0  0  0
  126.6238  167.6622  145.4102 N   0  0  0  0  0  0  0  0  0  0  0  0
  125.5525  168.1181  146.2976 C   0  0  0  0  0  0  0  0  0  0  0  0
  127.1331  168.2064  144.2510 C   0  0  0  0  0  0  0  0  0  0  0  0
  128.1239  167.3294  143.7513 C   0  0  0  0  0  0  0  0  0  0  0  0
  128.8060  167.6671  142.5644 C   0  0  0  0  0  0  0  0  0  0  0  0
  128.5638  168.8144  141.8514 C   0  0  0  0  0  0  0  0  0  0  0  0
  127.6184  169.6649  142.3180 C   0  0  0  0  0  0  0  0  0  0  0  0
  127.4497  171.0862  141.3073 Cl  0  0  0  0  0  0  0  0  0  0  0  0
  126.8963  169.3826  143.5082 C   0  0  0  0  0  0  0  0  0  0  0  0
  125.9780  170.5326  143.6865 C   0  0  0  0  0  0  0  0  0  0  0  0
  124.9869  170.9905  142.8156 C   0  0  0  0  0  0  0  0  0  0  0  0
  124.5978  170.4790  141.4883 C   0  0  0  0  0  0  0  0  0  0  0  0
  126.9668  165.7080  146.8435 C   0  0  0  0  0  0  0  0  0  0  0  0
  127.8163  165.6182  147.9280 O   0  0  0  0  0  0  0  0  0  0  0  0
  125.9143  165.0462  146.9824 O   0  0  0  0  0  0  0  0  0  0  0  0
  133.2417  167.0019  144.8403 C   0  0  0  0  0  0  0  0  0  0  0  0
  131.1019  171.3876  145.5620 C   0  0  0  0  0  0  0  0  0  0  0  0
  1  2  1  0
  2  3  1  0
  3  4  2  0
  4  5  1  0
  5  6  1  0
  6  7  1  0
  7  8  1  0
  8  9  2  0
  9 10  1  0
 10 11  1  0
 10 12  1  0
 12 13  1  0
 13 14  1  0
 14 15  1  0
 15 16  1  0
 16 17  2  0
 17 18  1  0
 18 19  1  0
 19 20  2  0
 20 21  1  0
 21 22  2  0
 18 23  2  0
 23 24  1  0
 24 25  1  0
 25 26  1  0
 26 27  1  0
 27 28  1  0
 28 29  2  0
 29 30  1  0
 30 31  1  0
 30 32  1  0
 32 33  2  0
 33 34  1  0
 34 35  2  0
 35 36  1  0
 36 37  1  0
 36 38  2  0
 38 39  1  0
 39 40  2  0
 40 41  1  0
 29 42  1  0
 42 43  1  0
 42 44  2  0
 23 45  1  0
 12 46  2  0
 40  2  1  0
 39  4  1  0
 46  8  1  0
 45 15  2  0
 22 17  1  0
 33 28  1  0
 38 32  1  0
M  END
$$$$
