
     RDKit          3D

 46 52  0  0  0  0  0  0  0  0999 V2000
  125.8212  151.5644  133.9722 C   0  0  0  0  0  0  0  0  0  0  0  0
  126.3941  150.2522  134.2861 N   0  0  0  0  0  0  0  0  0  0  0  0
  127.6608  150.0957  134.6322 N   0  0  0  0  0  0  0  0  0  0  0  0
  127.8914  148.7953  134.8604 C   0  0  0  0  0  0  0  0  0  0  0  0
  129.1125  148.0862  135.2551 C   0  0  0  0  0  0  0  0  0  0  0  0
  130.4402  148.2110  134.0375 S   0  0  0  0  0  0  0  0  0  0  0  0
  130.0488  147.3778  132.5087 C   0  0  0  0  0  0  0  0  0  0  0  0
  130.7879  146.1101  132.2367 C   0  0  0  0  0  0  0  0  0  0  0  0
  131.6468  146.0400  131.1518 N   0  0  0  0  0  0  0  0  0  0  0  0
  132.1886  144.8596  131.0927 N   0  0  0  0  0  0  0  0  0  0  0  0
  133.1543  144.4043  130.0760 C   0  0  0  0  0  0  0  0  0  0  0  0
  131.6933  144.1228  132.1465 C   0  0  0  0  0  0  0  0  0  0  0  0
  132.1235  142.6950  132.3705 C   0  0  0  0  0  0  0  0  0  0  0  0
  130.8025  141.4960  132.0315 S   0  0  0  0  0  0  0  0  0  0  0  0
  130.5086  140.5271  133.5527 C   0  0  0  0  0  0  0  0  0  0  0  0
  131.6749  139.9279  133.9788 C   0  0  0  0  0  0  0  0  0  0  0  0
  131.7088  139.1401  135.1160 C   0  0  0  0  0  0  0  0  0  0  0  0
  130.5089  139.0049  135.7767 C   0  0  0  0  0  0  0  0  0  0  0  0
  130.5649  138.1948  136.9132 C   0  0  0  0  0  0  0  0  0  0  0  0
  131.6885  137.5854  137.3482 C   0  0  0  0  0  0  0  0  0  0  0  0
  132.8600  137.7602  136.6432 C   0  0  0  0  0  0  0  0  0  0  0  0
  132.8964  138.5424  135.5100 C   0  0  0  0  0  0  0  0  0  0  0  0
  129.3023  139.6164  135.3505 C   0  0  0  0  0  0  0  0  0  0  0  0
  128.2364  139.3306  136.1829 O   0  0  0  0  0  0  0  0  0  0  0  0
  127.3115  140.0678  136.9042 C   0  0  0  0  0  0  0  0  0  0  0  0
  127.6619  141.5096  137.1017 C   0  0  0  0  0  0  0  0  0  0  0  0
  126.4623  142.3564  137.3803 C   0  0  0  0  0  0  0  0  0  0  0  0
  126.5672  143.7635  136.8907 C   0  0  0  0  0  0  0  0  0  0  0  0
  127.0372  144.6978  137.7933 C   0  0  0  0  0  0  0  0  0  0  0  0
  127.0768  145.9108  137.2235 N   0  0  0  0  0  0  0  0  0  0  0  0
  127.4870  147.0944  137.9811 C   0  0  0  0  0  0  0  0  0  0  0  0
  126.6336  145.7746  135.9257 C   0  0  0  0  0  0  0  0  0  0  0  0
  126.3086  144.4148  135.7120 C   0  0  0  0  0  0  0  0  0  0  0  0
  125.8321  144.0120  134.4475 C   0  0  0  0  0  0  0  0  0  0  0  0
  125.6612  144.8730  133.3926 C   0  0  0  0  0  0  0  0  0  0  0  0
  125.9692  146.1785  133.5816 C   0  0  0  0  0  0  0  0  0  0  0  0
  125.7166  147.1343  132.1350 Cl  0  0  0  0  0  0  0  0  0  0  0  0
  126.4542  146.6476  134.8316 C   0  0  0  0  0  0  0  0  0  0  0  0
  126.6782  148.1003  134.6400 C   0  0  0  0  0  0  0  0  0  0  0  0
  125.7498  149.0772  134.2735 C   0  0  0  0  0  0  0  0  0  0  0  0
  124.3159  148.9352  133.9598 C   0  0  0  0  0  0  0  0  0  0  0  0
  127.5080  144.5156  139.1877 C   0  0  0  0  0  0  0  0  0  0  0  0
  127.1893  145.3741  140.2208 O   0  0  0  0  0  0  0  0  0  0  0  0
  128.2386  143.5638  139.5420 O   0  0  0  0  0  0  0  0  0  0  0  0
  129.3162  140.3923  134.2087 C   0  0  0  0  0  0  0  0  0  0  0  0
  130.8146  144.8973  132.8695 C   0  0  0  0  0  0  0  0  0  0  0  0
  1  2  1  0
  2  3  1  0
  3  4  2  0
  4  5  1  0
  5  6  1  0
  6  7  1  0
  7  8  1  0
  8  9  2  0
  9 10  1  0
 10 11  1  0
 10 12  1  0
 12 13  1  0
 13 14  1  0
 14 15  1  0
 15 16  1  0
 16 17  2  0
 17 18  1  0
 18 19  1  0
 19 20  2  0
 20 21  1  0
 21 22  2  0
 18 23  2  0
 23 24  1  0
 24 25  1  0
 25 26  1  0
 26 27  1  0
 27 28  1  0
 28 29  2  0
 29 30  1  0
 30 31  1  0
 30 32  1  0
 32 33  2  0
 33 34  1  0
 34 35  2  0
 35 36  1  0
 36 37  1  0
 36 38  2  0
 38 39  1  0
 39 40  2  0
 40 41  1  0
 29 42  1  0
 42 43  1  0
 42 44  2  0
 23 45  1  0
 12 46  2  0
 40  2  1  0
 39  4  1  0
 46  8  1  0
 45 15  2  0
 22 17  1  0
 33 28  1  0
 38 32  1  0
M  END
$$$$
