
     RDKit          3D

 46 52  0  0  0  0  0  0  0  0999 V2000
  111.8280  171.0171  147.6589 C   0  0  0  0  0  0  0  0  0  0  0  0
  112.7615  170.2040  146.8740 N   0  0  0  0  0  0  0  0  0  0  0  0
  113.9488  169.8455  147.3328 N   0  0  0  0  0  0  0  0  0  0  0  0
  114.5707  169.1097  146.4011 C   0  0  0  0  0  0  0  0  0  0  0  0
  115.8949  168.4803  146.3934 C   0  0  0  0  0  0  0  0  0  0  0  0
  117.2532  169.6646  146.5086 S   0  0  0  0  0  0  0  0  0  0  0  0
  117.3726  170.7127  145.0692 C   0  0  0  0  0  0  0  0  0  0  0  0
  118.5242  170.4554  144.1556 C   0  0  0  0  0  0  0  0  0  0  0  0
  119.4934  171.4312  143.9872 N   0  0  0  0  0  0  0  0  0  0  0  0
  120.4033  171.0119  143.1587 N   0  0  0  0  0  0  0  0  0  0  0  0
  121.5925  171.7698  142.7285 C   0  0  0  0  0  0  0  0  0  0  0  0
  120.0488  169.7408  142.7619 C   0  0  0  0  0  0  0  0  0  0  0  0
  120.9002  168.9602  141.7924 C   0  0  0  0  0  0  0  0  0  0  0  0
  120.1172  168.7575  140.1665 S   0  0  0  0  0  0  0  0  0  0  0  0
  119.9661  166.9686  139.8262 C   0  0  0  0  0  0  0  0  0  0  0  0
  121.1980  166.3544  139.9041 C   0  0  0  0  0  0  0  0  0  0  0  0
  121.3427  164.9953  139.6875 C   0  0  0  0  0  0  0  0  0  0  0  0
  120.1813  164.3171  139.3944 C   0  0  0  0  0  0  0  0  0  0  0  0
  120.3543  162.9499  139.1666 C   0  0  0  0  0  0  0  0  0  0  0  0
  121.5486  162.3227  139.2238 C   0  0  0  0  0  0  0  0  0  0  0  0
  122.6761  163.0571  139.5231 C   0  0  0  0  0  0  0  0  0  0  0  0
  122.5982  164.4115  139.7619 C   0  0  0  0  0  0  0  0  0  0  0  0
  118.9078  164.9357  139.3123 C   0  0  0  0  0  0  0  0  0  0  0  0
  117.8990  164.0414  139.0064 O   0  0  0  0  0  0  0  0  0  0  0  0
  116.6926  163.6690  139.5763 C   0  0  0  0  0  0  0  0  0  0  0  0
  116.5080  164.0837  141.0027 C   0  0  0  0  0  0  0  0  0  0  0  0
  115.0677  164.1554  141.3952 C   0  0  0  0  0  0  0  0  0  0  0  0
  114.7576  165.1789  142.4378 C   0  0  0  0  0  0  0  0  0  0  0  0
  114.7610  164.7448  143.7493 C   0  0  0  0  0  0  0  0  0  0  0  0
  114.4660  165.7610  144.5725 N   0  0  0  0  0  0  0  0  0  0  0  0
  114.3492  165.5602  146.0179 C   0  0  0  0  0  0  0  0  0  0  0  0
  114.2719  166.8823  143.7952 C   0  0  0  0  0  0  0  0  0  0  0  0
  114.4548  166.5163  142.4413 C   0  0  0  0  0  0  0  0  0  0  0  0
  114.3149  167.4977  141.4385 C   0  0  0  0  0  0  0  0  0  0  0  0
  114.0067  168.8092  141.6995 C   0  0  0  0  0  0  0  0  0  0  0  0
  113.8296  169.1753  142.9916 C   0  0  0  0  0  0  0  0  0  0  0  0
  113.4658  170.8818  143.1522 Cl  0  0  0  0  0  0  0  0  0  0  0  0
  113.9571  168.2344  144.0481 C   0  0  0  0  0  0  0  0  0  0  0  0
  113.7029  169.0066  145.2877 C   0  0  0  0  0  0  0  0  0  0  0  0
  112.5578  169.7247  145.6393 C   0  0  0  0  0  0  0  0  0  0  0  0
  111.3107  169.9289  144.8792 C   0  0  0  0  0  0  0  0  0  0  0  0
  115.0750  163.4057  144.3039 C   0  0  0  0  0  0  0  0  0  0  0  0
  116.0173  163.1878  145.2890 O   0  0  0  0  0  0  0  0  0  0  0  0
  114.5088  162.3585  143.9195 O   0  0  0  0  0  0  0  0  0  0  0  0
  118.8122  166.2949  139.5344 C   0  0  0  0  0  0  0  0  0  0  0  0
  118.8726  169.3828  143.3808 C   0  0  0  0  0  0  0  0  0  0  0  0
  1  2  1  0
  2  3  1  0
  3  4  2  0
  4  5  1  0
  5  6  1  0
  6  7  1  0
  7  8  1  0
  8  9  2  0
  9 10  1  0
 10 11  1  0
 10 12  1  0
 12 13  1  0
 13 14  1  0
 14 15  1  0
 15 16  1  0
 16 17  2  0
 17 18  1  0
 18 19  1  0
 19 20  2  0
 20 21  1  0
 21 22  2  0
 18 23  2  0
 23 24  1  0
 24 25  1  0
 25 26  1  0
 26 27  1  0
 27 28  1  0
 28 29  2  0
 29 30  1  0
 30 31  1  0
 30 32  1  0
 32 33  2  0
 33 34  1  0
 34 35  2  0
 35 36  1  0
 36 37  1  0
 36 38  2  0
 38 39  1  0
 39 40  2  0
 40 41  1  0
 29 42  1  0
 42 43  1  0
 42 44  2  0
 23 45  1  0
 12 46  2  0
 40  2  1  0
 39  4  1  0
 46  8  1  0
 45 15  2  0
 22 17  1  0
 33 28  1  0
 38 32  1  0
M  END
$$$$
