
     RDKit          3D

 46 52  0  0  0  0  0  0  0  0999 V2000
  188.9743  160.0632  114.7428 C   0  0  0  0  0  0  0  0  0  0  0  0
  189.1911  159.9120  116.1846 N   0  0  0  0  0  0  0  0  0  0  0  0
  188.7370  160.7873  117.0658 N   0  0  0  0  0  0  0  0  0  0  0  0
  189.0833  160.3847  118.2963 C   0  0  0  0  0  0  0  0  0  0  0  0
  188.8439  160.9860  119.6119 C   0  0  0  0  0  0  0  0  0  0  0  0
  189.6208  162.6036  119.8137 S   0  0  0  0  0  0  0  0  0  0  0  0
  191.4031  162.5138  119.8062 C   0  0  0  0  0  0  0  0  0  0  0  0
  192.0835  162.7373  121.1155 C   0  0  0  0  0  0  0  0  0  0  0  0
  192.9142  163.8347  121.2746 N   0  0  0  0  0  0  0  0  0  0  0  0
  193.4034  163.8476  122.4791 N   0  0  0  0  0  0  0  0  0  0  0  0
  194.3295  164.8579  123.0226 C   0  0  0  0  0  0  0  0  0  0  0  0
  192.9001  162.7500  123.1429 C   0  0  0  0  0  0  0  0  0  0  0  0
  193.2728  162.4666  124.5764 C   0  0  0  0  0  0  0  0  0  0  0  0
  194.3415  161.0094  124.7554 S   0  0  0  0  0  0  0  0  0  0  0  0
  193.4986  159.8163  125.8532 C   0  0  0  0  0  0  0  0  0  0  0  0
  193.1917  160.4032  127.0624 C   0  0  0  0  0  0  0  0  0  0  0  0
  192.5458  159.6995  128.0638 C   0  0  0  0  0  0  0  0  0  0  0  0
  192.2387  158.3919  127.7629 C   0  0  0  0  0  0  0  0  0  0  0  0
  191.5996  157.6984  128.7933 C   0  0  0  0  0  0  0  0  0  0  0  0
  191.2970  158.2420  129.9915 C   0  0  0  0  0  0  0  0  0  0  0  0
  191.6300  159.5578  130.2324 C   0  0  0  0  0  0  0  0  0  0  0  0
  192.2626  160.3168  129.2727 C   0  0  0  0  0  0  0  0  0  0  0  0
  192.5471  157.7761  126.5232 C   0  0  0  0  0  0  0  0  0  0  0  0
  192.1341  156.4582  126.4648 O   0  0  0  0  0  0  0  0  0  0  0  0
  191.3323  155.7029  125.6247 C   0  0  0  0  0  0  0  0  0  0  0  0
  190.4478  156.4919  124.7105 C   0  0  0  0  0  0  0  0  0  0  0  0
  190.0322  155.7130  123.5046 C   0  0  0  0  0  0  0  0  0  0  0  0
  189.8077  156.5368  122.2792 C   0  0  0  0  0  0  0  0  0  0  0  0
  188.5141  156.9648  122.0516 C   0  0  0  0  0  0  0  0  0  0  0  0
  188.4588  157.6871  120.9234 N   0  0  0  0  0  0  0  0  0  0  0  0
  187.1901  158.2169  120.4204 C   0  0  0  0  0  0  0  0  0  0  0  0
  189.7336  157.7424  120.4028 C   0  0  0  0  0  0  0  0  0  0  0  0
  190.5908  157.0131  121.2593 C   0  0  0  0  0  0  0  0  0  0  0  0
  191.9625  156.9230  120.9456 C   0  0  0  0  0  0  0  0  0  0  0  0
  192.5274  157.5097  119.8410 C   0  0  0  0  0  0  0  0  0  0  0  0
  191.7193  158.2125  119.0116 C   0  0  0  0  0  0  0  0  0  0  0  0
  192.5984  158.9132  117.6677 Cl  0  0  0  0  0  0  0  0  0  0  0  0
  190.3288  158.3412  119.2721 C   0  0  0  0  0  0  0  0  0  0  0  0
  189.8020  159.1726  118.1636 C   0  0  0  0  0  0  0  0  0  0  0  0
  189.8448  158.9123  116.7921 C   0  0  0  0  0  0  0  0  0  0  0  0
  190.4345  157.7669  116.0745 C   0  0  0  0  0  0  0  0  0  0  0  0
  187.2934  156.7716  122.8713 C   0  0  0  0  0  0  0  0  0  0  0  0
  186.9567  155.5747  123.4711 O   0  0  0  0  0  0  0  0  0  0  0  0
  186.4640  157.6835  123.0849 O   0  0  0  0  0  0  0  0  0  0  0  0
  193.1940  158.5170  125.5543 C   0  0  0  0  0  0  0  0  0  0  0  0
  192.0719  162.0475  122.2971 C   0  0  0  0  0  0  0  0  0  0  0  0
  1  2  1  0
  2  3  1  0
  3  4  2  0
  4  5  1  0
  5  6  1  0
  6  7  1  0
  7  8  1  0
  8  9  2  0
  9 10  1  0
 10 11  1  0
 10 12  1  0
 12 13  1  0
 13 14  1  0
 14 15  1  0
 15 16  1  0
 16 17  2  0
 17 18  1  0
 18 19  1  0
 19 20  2  0
 20 21  1  0
 21 22  2  0
 18 23  2  0
 23 24  1  0
 24 25  1  0
 25 26  1  0
 26 27  1  0
 27 28  1  0
 28 29  2  0
 29 30  1  0
 30 31  1  0
 30 32  1  0
 32 33  2  0
 33 34  1  0
 34 35  2  0
 35 36  1  0
 36 37  1  0
 36 38  2  0
 38 39  1  0
 39 40  2  0
 40 41  1  0
 29 42  1  0
 42 43  1  0
 42 44  2  0
 23 45  1  0
 12 46  2  0
 40  2  1  0
 39  4  1  0
 46  8  1  0
 45 15  2  0
 22 17  1  0
 33 28  1  0
 38 32  1  0
M  END
$$$$
