
     RDKit          3D

 46 52  0  0  0  0  0  0  0  0999 V2000
  201.5475  126.9960  138.4772 C   0  0  0  0  0  0  0  0  0  0  0  0
  201.9368  128.0876  137.5796 N   0  0  0  0  0  0  0  0  0  0  0  0
  202.9757  128.0005  136.7661 N   0  0  0  0  0  0  0  0  0  0  0  0
  203.0809  129.1421  136.0719 C   0  0  0  0  0  0  0  0  0  0  0  0
  204.0499  129.5696  135.0579 C   0  0  0  0  0  0  0  0  0  0  0  0
  205.7413  129.6754  135.6813 S   0  0  0  0  0  0  0  0  0  0  0  0
  205.9432  130.9627  136.9007 C   0  0  0  0  0  0  0  0  0  0  0  0
  206.7087  132.1693  136.4703 C   0  0  0  0  0  0  0  0  0  0  0  0
  207.9129  132.4695  137.0865 N   0  0  0  0  0  0  0  0  0  0  0  0
  208.4167  133.5504  136.5688 N   0  0  0  0  0  0  0  0  0  0  0  0
  209.6874  134.1846  136.9647 C   0  0  0  0  0  0  0  0  0  0  0  0
  207.5473  133.9870  135.5929 C   0  0  0  0  0  0  0  0  0  0  0  0
  207.8367  135.2300  134.7896 C   0  0  0  0  0  0  0  0  0  0  0  0
  206.7220  136.6067  135.1891 S   0  0  0  0  0  0  0  0  0  0  0  0
  205.8583  137.1032  133.6572 C   0  0  0  0  0  0  0  0  0  0  0  0
  206.7665  137.4228  132.6704 C   0  0  0  0  0  0  0  0  0  0  0  0
  206.3544  137.8276  131.4129 C   0  0  0  0  0  0  0  0  0  0  0  0
  204.9916  137.8843  131.2278 C   0  0  0  0  0  0  0  0  0  0  0  0
  204.6000  138.3083  129.9558 C   0  0  0  0  0  0  0  0  0  0  0  0
  205.4651  138.6393  128.9735 C   0  0  0  0  0  0  0  0  0  0  0  0
  206.8191  138.5612  129.2202 C   0  0  0  0  0  0  0  0  0  0  0  0
  207.2945  138.1531  130.4469 C   0  0  0  0  0  0  0  0  0  0  0  0
  204.0465  137.5573  132.2333 C   0  0  0  0  0  0  0  0  0  0  0  0
  202.7402  137.6917  131.8015 O   0  0  0  0  0  0  0  0  0  0  0  0
  201.6238  136.8739  131.7384 C   0  0  0  0  0  0  0  0  0  0  0  0
  201.8978  135.4104  131.8927 C   0  0  0  0  0  0  0  0  0  0  0  0
  200.6965  134.6493  132.3521 C   0  0  0  0  0  0  0  0  0  0  0  0
  201.0024  133.4493  133.1870 C   0  0  0  0  0  0  0  0  0  0  0  0
  201.1118  132.2446  132.5196 C   0  0  0  0  0  0  0  0  0  0  0  0
  201.3844  131.2595  133.3873 N   0  0  0  0  0  0  0  0  0  0  0  0
  201.4977  129.8678  132.9475 C   0  0  0  0  0  0  0  0  0  0  0  0
  201.4628  131.8219  134.6430 C   0  0  0  0  0  0  0  0  0  0  0  0
  201.2198  133.2098  134.5196 C   0  0  0  0  0  0  0  0  0  0  0  0
  201.2502  134.0188  135.6741 C   0  0  0  0  0  0  0  0  0  0  0  0
  201.5055  133.5342  136.9324 C   0  0  0  0  0  0  0  0  0  0  0  0
  201.7412  132.2071  137.0665 C   0  0  0  0  0  0  0  0  0  0  0  0
  202.0707  131.7578  138.7277 Cl  0  0  0  0  0  0  0  0  0  0  0  0
  201.7253  131.3386  135.9425 C   0  0  0  0  0  0  0  0  0  0  0  0
  202.0296  129.9940  136.4872 C   0  0  0  0  0  0  0  0  0  0  0  0
  201.3254  129.2734  137.4544 C   0  0  0  0  0  0  0  0  0  0  0  0
  200.1145  129.6516  138.2063 C   0  0  0  0  0  0  0  0  0  0  0  0
  201.0172  131.9525  131.0688 C   0  0  0  0  0  0  0  0  0  0  0  0
  201.3377  130.7305  130.5123 O   0  0  0  0  0  0  0  0  0  0  0  0
  200.6385  132.7965  130.2265 O   0  0  0  0  0  0  0  0  0  0  0  0
  204.5042  137.1601  133.4737 C   0  0  0  0  0  0  0  0  0  0  0  0
  206.4736  133.1285  135.5233 C   0  0  0  0  0  0  0  0  0  0  0  0
  1  2  1  0
  2  3  1  0
  3  4  2  0
  4  5  1  0
  5  6  1  0
  6  7  1  0
  7  8  1  0
  8  9  2  0
  9 10  1  0
 10 11  1  0
 10 12  1  0
 12 13  1  0
 13 14  1  0
 14 15  1  0
 15 16  1  0
 16 17  2  0
 17 18  1  0
 18 19  1  0
 19 20  2  0
 20 21  1  0
 21 22  2  0
 18 23  2  0
 23 24  1  0
 24 25  1  0
 25 26  1  0
 26 27  1  0
 27 28  1  0
 28 29  2  0
 29 30  1  0
 30 31  1  0
 30 32  1  0
 32 33  2  0
 33 34  1  0
 34 35  2  0
 35 36  1  0
 36 37  1  0
 36 38  2  0
 38 39  1  0
 39 40  2  0
 40 41  1  0
 29 42  1  0
 42 43  1  0
 42 44  2  0
 23 45  1  0
 12 46  2  0
 40  2  1  0
 39  4  1  0
 46  8  1  0
 45 15  2  0
 22 17  1  0
 33 28  1  0
 38 32  1  0
M  END
$$$$
