
     RDKit          3D

 45 51  0  0  0  0  0  0  0  0999 V2000
  139.9649  154.6740  119.5392 C   0  0  2  0  0  0  0  0  0  0  0  0
  140.2420  153.3336  120.0460 C   0  0  0  0  0  0  0  0  0  0  0  0
  141.6573  152.9499  120.3562 C   0  0  0  0  0  0  0  0  0  0  0  0
  142.3626  151.9724  119.6880 C   0  0  0  0  0  0  0  0  0  0  0  0
  143.6983  151.6621  120.0485 C   0  0  0  0  0  0  0  0  0  0  0  0
  144.3766  152.2834  121.0525 C   0  0  0  0  0  0  0  0  0  0  0  0
  145.6615  152.0757  121.4936 O   0  0  0  0  0  0  0  0  0  0  0  0
  146.7521  151.3425  121.5315 C   0  0  0  0  0  0  0  0  0  0  0  0
  147.6268  151.3268  120.4224 C   0  0  0  0  0  0  0  0  0  0  0  0
  148.7570  150.5395  120.5028 C   0  0  0  0  0  0  0  0  0  0  0  0
  149.5931  150.5587  119.2374 C   0  0  0  0  0  0  0  0  0  0  0  0
  148.5560  150.4010  118.1481 C   0  0  0  0  0  0  0  0  0  0  0  0
  147.6264  151.4810  118.0100 N   0  0  0  0  0  4  0  0  0  0  0  0
  146.3998  150.8289  117.4874 C   0  0  0  0  0  0  0  0  0  0  0  0
  148.1425  152.2748  116.9002 C   0  0  0  0  0  0  0  0  0  0  0  0
  147.4027  152.1592  119.1962 C   0  0  2  0  0  0  0  0  0  0  0  0
  147.9429  153.5528  119.3919 C   0  0  0  0  0  0  0  0  0  0  0  0
  147.2521  154.6640  118.6800 C   0  0  0  0  0  0  0  0  0  0  0  0
  145.9437  155.0825  118.7267 C   0  0  0  0  0  0  0  0  0  0  0  0
  145.5563  156.1476  117.9290 C   0  0  0  0  0  0  0  0  0  0  0  0
  144.3127  156.7383  117.7983 O   0  0  0  0  0  0  0  0  0  0  0  0
  142.9875  156.5986  118.1639 C   0  0  0  0  0  0  0  0  0  0  0  0
  142.2957  157.8255  117.9729 C   0  0  0  0  0  0  0  0  0  0  0  0
  142.9217  158.9633  117.4777 O   0  0  0  0  0  0  0  0  0  0  0  0
  143.9654  158.8631  116.5559 C   0  0  0  0  0  0  0  0  0  0  0  0
  140.9785  157.9501  118.2661 C   0  0  0  0  0  0  0  0  0  0  0  0
  140.3153  156.8507  118.7605 C   0  0  0  0  0  0  0  0  0  0  0  0
  138.8824  157.0829  119.0563 C   0  0  0  0  0  0  0  0  0  0  0  0
  138.0672  155.8671  119.0584 C   0  0  0  0  0  0  0  0  0  0  0  0
  138.8625  154.7539  118.5966 N   0  0  0  0  0  0  0  0  0  0  0  0
  138.0159  153.6438  118.4573 C   0  0  0  0  0  0  0  0  0  0  0  0
  140.9787  155.5931  118.9679 C   0  0  0  0  0  0  0  0  0  0  0  0
  142.3091  155.4845  118.6626 C   0  0  0  0  0  0  0  0  0  0  0  0
  146.5141  156.7747  117.0951 C   0  0  0  0  0  0  0  0  0  0  0  0
  146.1638  157.8707  116.2622 O   0  0  0  0  0  0  0  0  0  0  0  0
  147.8154  156.3902  117.0254 C   0  0  0  0  0  0  0  0  0  0  0  0
  148.1654  155.3355  117.8221 C   0  0  0  0  0  0  0  0  0  0  0  0
  149.0617  149.7888  121.5940 C   0  0  0  0  0  0  0  0  0  0  0  0
  148.2341  149.7728  122.7103 C   0  0  0  0  0  0  0  0  0  0  0  0
  148.5014  149.0346  123.8239 O   0  0  0  0  0  0  0  0  0  0  0  0
  149.1084  147.7670  123.6852 C   0  0  0  0  0  0  0  0  0  0  0  0
  147.1085  150.5544  122.6319 C   0  0  0  0  0  0  0  0  0  0  0  0
  146.2974  150.5082  123.7939 O   0  0  0  0  0  0  0  0  0  0  0  0
  143.6821  153.2644  121.7305 C   0  0  0  0  0  0  0  0  0  0  0  0
  142.3533  153.5755  121.3753 C   0  0  0  0  0  0  0  0  0  0  0  0
  1  2  1  0
  2  3  1  0
  3  4  2  0
  4  5  1  0
  5  6  2  0
  6  7  1  0
  7  8  1  0
  8  9  2  0
  9 10  1  0
 10 11  1  0
 11 12  1  0
 12 13  1  0
 13 14  1  0
 13 15  1  0
 16 13  1  6
 16 17  1  0
 17 18  1  0
 18 19  2  0
 19 20  1  0
 20 21  1  0
 21 22  1  0
 22 23  2  0
 23 24  1  0
 24 25  1  0
 23 26  1  0
 26 27  2  0
 27 28  1  0
 28 29  1  0
 29 30  1  0
 30 31  1  0
 27 32  1  0
 32 33  2  0
 20 34  2  0
 34 35  1  0
 34 36  1  0
 36 37  2  0
 10 38  2  0
 38 39  1  0
 39 40  1  0
 40 41  1  0
 39 42  2  0
 42 43  1  0
  6 44  1  0
 44 45  2  0
  1 30  1  6
 32  1  1  0
 45  3  1  0
 42  8  1  0
 16  9  1  0
 37 18  1  0
 33 22  1  0
M  CHG  1  13   1
M  END
$$$$
