
     RDKit          3D

 45 51  0  0  0  0  0  0  0  0999 V2000
  143.7637  149.5407  116.8829 C   0  0  2  0  0  0  0  0  0  0  0  0
  142.5451  150.2041  117.3359 C   0  0  0  0  0  0  0  0  0  0  0  0
  142.5688  151.6823  117.5829 C   0  0  0  0  0  0  0  0  0  0  0  0
  142.3888  152.2677  118.8175 C   0  0  0  0  0  0  0  0  0  0  0  0
  142.4168  153.6774  118.9668 C   0  0  0  0  0  0  0  0  0  0  0  0
  142.6181  154.5452  117.9369 C   0  0  0  0  0  0  0  0  0  0  0  0
  142.6676  155.9184  117.9527 O   0  0  0  0  0  0  0  0  0  0  0  0
  142.4466  157.0629  118.5607 C   0  0  0  0  0  0  0  0  0  0  0  0
  143.3070  157.4845  119.5987 C   0  0  0  0  0  0  0  0  0  0  0  0
  143.0350  158.6895  120.2132 C   0  0  0  0  0  0  0  0  0  0  0  0
  143.9904  159.0150  121.3454 C   0  0  0  0  0  0  0  0  0  0  0  0
  144.0740  157.7069  122.0998 C   0  0  0  0  0  0  0  0  0  0  0  0
  144.6741  156.6160  121.3932 N   0  0  0  0  0  4  0  0  0  0  0  0
  144.0120  155.4164  121.9639 C   0  0  0  0  0  0  0  0  0  0  0  0
  146.0471  156.5672  121.8836 C   0  0  0  0  0  0  0  0  0  0  0  0
  144.5168  156.7066  120.0205 C   0  0  2  0  0  0  0  0  0  0  0  0
  145.6943  157.0318  119.1375 C   0  0  0  0  0  0  0  0  0  0  0  0
  146.6972  155.9553  118.9050 C   0  0  0  0  0  0  0  0  0  0  0  0
  146.5530  154.6940  118.3781 C   0  0  0  0  0  0  0  0  0  0  0  0
  147.6681  153.8750  118.2961 C   0  0  0  0  0  0  0  0  0  0  0  0
  147.7729  152.5818  117.8172 O   0  0  0  0  0  0  0  0  0  0  0  0
  147.0202  151.5128  117.3700 C   0  0  0  0  0  0  0  0  0  0  0  0
  147.8445  150.5971  116.6612 C   0  0  0  0  0  0  0  0  0  0  0  0
  149.2075  150.8045  116.4865 O   0  0  0  0  0  0  0  0  0  0  0  0
  149.8616  151.8535  117.1352 C   0  0  0  0  0  0  0  0  0  0  0  0
  147.3393  149.4645  116.1148 C   0  0  0  0  0  0  0  0  0  0  0  0
  145.9940  149.2159  116.2604 C   0  0  0  0  0  0  0  0  0  0  0  0
  145.5323  147.9591  115.6265 C   0  0  0  0  0  0  0  0  0  0  0  0
  144.2978  147.4188  116.1984 C   0  0  0  0  0  0  0  0  0  0  0  0
  143.9355  148.1826  117.3690 N   0  0  0  0  0  0  0  0  0  0  0  0
  142.8463  147.5458  117.9828 C   0  0  0  0  0  0  0  0  0  0  0  0
  145.1275  150.1165  116.9694 C   0  0  0  0  0  0  0  0  0  0  0  0
  145.6559  151.2543  117.5183 C   0  0  0  0  0  0  0  0  0  0  0  0
  148.9192  154.3581  118.7515 C   0  0  0  0  0  0  0  0  0  0  0  0
  150.0893  153.5556  118.6856 O   0  0  0  0  0  0  0  0  0  0  0  0
  149.0995  155.5989  119.2749 C   0  0  0  0  0  0  0  0  0  0  0  0
  147.9803  156.3813  119.3445 C   0  0  0  0  0  0  0  0  0  0  0  0
  141.9867  159.4804  119.8631 C   0  0  0  0  0  0  0  0  0  0  0  0
  141.1138  159.1103  118.8470 C   0  0  0  0  0  0  0  0  0  0  0  0
  140.0509  159.8724  118.4651 O   0  0  0  0  0  0  0  0  0  0  0  0
  140.1375  161.2788  118.5601 C   0  0  0  0  0  0  0  0  0  0  0  0
  141.3818  157.9111  118.2354 C   0  0  0  0  0  0  0  0  0  0  0  0
  140.4673  157.5773  117.2045 O   0  0  0  0  0  0  0  0  0  0  0  0
  142.7996  153.9725  116.6945 C   0  0  0  0  0  0  0  0  0  0  0  0
  142.7718  152.5708  116.5418 C   0  0  0  0  0  0  0  0  0  0  0  0
  1  2  1  0
  2  3  1  0
  3  4  2  0
  4  5  1  0
  5  6  2  0
  6  7  1  0
  7  8  1  0
  8  9  2  0
  9 10  1  0
 10 11  1  0
 11 12  1  0
 12 13  1  0
 13 14  1  0
 13 15  1  0
 16 13  1  1
 16 17  1  0
 17 18  1  0
 18 19  2  0
 19 20  1  0
 20 21  1  0
 21 22  1  0
 22 23  2  0
 23 24  1  0
 24 25  1  0
 23 26  1  0
 26 27  2  0
 27 28  1  0
 28 29  1  0
 29 30  1  0
 30 31  1  0
 27 32  1  0
 32 33  2  0
 20 34  2  0
 34 35  1  0
 34 36  1  0
 36 37  2  0
 10 38  2  0
 38 39  1  0
 39 40  1  0
 40 41  1  0
 39 42  2  0
 42 43  1  0
  6 44  1  0
 44 45  2  0
  1 30  1  1
 32  1  1  0
 45  3  1  0
 42  8  1  0
 16  9  1  0
 37 18  1  0
 33 22  1  0
M  CHG  1  13   1
M  END
$$$$
