
     RDKit          3D

 45 51  0  0  0  0  0  0  0  0999 V2000
  192.4322  175.9317  125.1921 C   0  0  2  0  0  0  0  0  0  0  0  0
  192.5447  176.2757  126.6061 C   0  0  0  0  0  0  0  0  0  0  0  0
  191.2953  176.4978  127.4037 C   0  0  0  0  0  0  0  0  0  0  0  0
  190.9343  177.7040  127.9643 C   0  0  0  0  0  0  0  0  0  0  0  0
  189.7375  177.8303  128.7139 C   0  0  0  0  0  0  0  0  0  0  0  0
  188.8702  176.8043  128.9364 C   0  0  0  0  0  0  0  0  0  0  0  0
  187.6888  176.7999  129.6382 O   0  0  0  0  0  0  0  0  0  0  0  0
  186.8623  177.3685  130.4879 C   0  0  0  0  0  0  0  0  0  0  0  0
  186.0718  178.4633  130.0732 C   0  0  0  0  0  0  0  0  0  0  0  0
  185.2220  179.0332  130.9987 C   0  0  0  0  0  0  0  0  0  0  0  0
  184.4637  180.2312  130.4597 C   0  0  0  0  0  0  0  0  0  0  0  0
  185.5399  181.0126  129.7397 C   0  0  0  0  0  0  0  0  0  0  0  0
  186.1139  180.3747  128.5938 N   0  0  0  0  0  4  0  0  0  0  0  0
  187.4964  180.9125  128.5435 C   0  0  0  0  0  0  0  0  0  0  0  0
  185.4271  180.9722  127.4539 C   0  0  0  0  0  0  0  0  0  0  0  0
  186.0846  178.9925  128.6709 C   0  0  2  0  0  0  0  0  0  0  0  0
  185.1506  178.1991  127.7932 C   0  0  0  0  0  0  0  0  0  0  0  0
  185.5082  178.0651  126.3534 C   0  0  0  0  0  0  0  0  0  0  0  0
  186.6324  177.5506  125.7528 C   0  0  0  0  0  0  0  0  0  0  0  0
  186.7170  177.5709  124.3695 C   0  0  0  0  0  0  0  0  0  0  0  0
  187.7349  177.1245  123.5467 O   0  0  0  0  0  0  0  0  0  0  0  0
  189.0282  176.6384  123.5658 C   0  0  0  0  0  0  0  0  0  0  0  0
  189.3337  176.0128  122.3267 C   0  0  0  0  0  0  0  0  0  0  0  0
  188.4183  175.9420  121.2834 O   0  0  0  0  0  0  0  0  0  0  0  0
  187.5957  174.8249  121.1264 C   0  0  0  0  0  0  0  0  0  0  0  0
  190.5441  175.4483  122.0966 C   0  0  0  0  0  0  0  0  0  0  0  0
  191.4837  175.4921  123.1007 C   0  0  0  0  0  0  0  0  0  0  0  0
  192.7727  174.8461  122.7604 C   0  0  0  0  0  0  0  0  0  0  0  0
  193.9097  175.3286  123.5461 C   0  0  0  0  0  0  0  0  0  0  0  0
  193.4954  176.4535  124.3510 N   0  0  0  0  0  0  0  0  0  0  0  0
  194.6361  176.9908  124.9660 C   0  0  0  0  0  0  0  0  0  0  0  0
  191.2137  176.1149  124.3671 C   0  0  0  0  0  0  0  0  0  0  0  0
  189.9865  176.6835  124.5806 C   0  0  0  0  0  0  0  0  0  0  0  0
  185.6476  178.1147  123.6167 C   0  0  0  0  0  0  0  0  0  0  0  0
  185.6889  178.1550  122.1974 O   0  0  0  0  0  0  0  0  0  0  0  0
  184.5210  178.6288  124.1757 C   0  0  0  0  0  0  0  0  0  0  0  0
  184.4691  178.5965  125.5416 C   0  0  0  0  0  0  0  0  0  0  0  0
  185.1131  178.5880  132.2782 C   0  0  0  0  0  0  0  0  0  0  0  0
  185.8676  177.5132  132.7329 C   0  0  0  0  0  0  0  0  0  0  0  0
  185.7899  177.0356  134.0065 O   0  0  0  0  0  0  0  0  0  0  0  0
  184.5430  177.0312  134.6696 C   0  0  0  0  0  0  0  0  0  0  0  0
  186.7147  176.9456  131.8140 C   0  0  0  0  0  0  0  0  0  0  0  0
  187.4608  175.8521  132.3220 O   0  0  0  0  0  0  0  0  0  0  0  0
  189.2195  175.5903  128.3809 C   0  0  0  0  0  0  0  0  0  0  0  0
  190.4094  175.4606  127.6352 C   0  0  0  0  0  0  0  0  0  0  0  0
  1  2  1  0
  2  3  1  0
  3  4  2  0
  4  5  1  0
  5  6  2  0
  6  7  1  0
  7  8  1  0
  8  9  2  0
  9 10  1  0
 10 11  1  0
 11 12  1  0
 12 13  1  0
 13 14  1  0
 13 15  1  0
 16 13  1  1
 16 17  1  0
 17 18  1  0
 18 19  2  0
 19 20  1  0
 20 21  1  0
 21 22  1  0
 22 23  2  0
 23 24  1  0
 24 25  1  0
 23 26  1  0
 26 27  2  0
 27 28  1  0
 28 29  1  0
 29 30  1  0
 30 31  1  0
 27 32  1  0
 32 33  2  0
 20 34  2  0
 34 35  1  0
 34 36  1  0
 36 37  2  0
 10 38  2  0
 38 39  1  0
 39 40  1  0
 40 41  1  0
 39 42  2  0
 42 43  1  0
  6 44  1  0
 44 45  2  0
  1 30  1  6
 32  1  1  0
 45  3  1  0
 42  8  1  0
 16  9  1  0
 37 18  1  0
 33 22  1  0
M  CHG  1  13   1
M  END
$$$$
