
     RDKit          3D

 45 51  0  0  0  0  0  0  0  0999 V2000
  171.7314  161.3523  113.2143 C   0  0  2  0  0  0  0  0  0  0  0  0
  172.8857  162.0002  113.8293 C   0  0  0  0  0  0  0  0  0  0  0  0
  173.4425  163.2434  113.2040 C   0  0  0  0  0  0  0  0  0  0  0  0
  174.6987  163.3375  112.6449 C   0  0  0  0  0  0  0  0  0  0  0  0
  175.1557  164.5549  112.0798 C   0  0  0  0  0  0  0  0  0  0  0  0
  174.4164  165.6979  112.0416 C   0  0  0  0  0  0  0  0  0  0  0  0
  174.7432  166.9291  111.5261 O   0  0  0  0  0  0  0  0  0  0  0  0
  175.6400  167.7760  111.0713 C   0  0  0  0  0  0  0  0  0  0  0  0
  176.1671  167.6099  109.7712 C   0  0  0  0  0  0  0  0  0  0  0  0
  177.1099  168.5185  109.3360 C   0  0  0  0  0  0  0  0  0  0  0  0
  177.6433  168.2124  107.9495 C   0  0  0  0  0  0  0  0  0  0  0  0
  177.9020  166.7236  108.0112 C   0  0  0  0  0  0  0  0  0  0  0  0
  176.7453  165.8949  108.1687 N   0  0  0  0  0  4  0  0  0  0  0  0
  177.2560  164.7079  108.8990 C   0  0  0  0  0  0  0  0  0  0  0  0
  176.4445  165.4185  106.8232 C   0  0  0  0  0  0  0  0  0  0  0  0
  175.7123  166.5272  108.8399 C   0  0  2  0  0  0  0  0  0  0  0  0
  174.4671  166.9473  108.1016 C   0  0  0  0  0  0  0  0  0  0  0  0
  173.5024  165.8793  107.7178 C   0  0  0  0  0  0  0  0  0  0  0  0
  172.8284  164.9609  108.4871 C   0  0  0  0  0  0  0  0  0  0  0  0
  171.9949  164.0493  107.8586 C   0  0  0  0  0  0  0  0  0  0  0  0
  171.2270  163.0392  108.4086 O   0  0  0  0  0  0  0  0  0  0  0  0
  170.9741  162.3738  109.5929 C   0  0  0  0  0  0  0  0  0  0  0  0
  169.7455  161.6649  109.5027 C   0  0  0  0  0  0  0  0  0  0  0  0
  168.9630  161.6756  108.3542 O   0  0  0  0  0  0  0  0  0  0  0  0
  169.4174  161.0879  107.1721 C   0  0  0  0  0  0  0  0  0  0  0  0
  169.2697  160.9352  110.5409 C   0  0  0  0  0  0  0  0  0  0  0  0
  170.0090  160.8951  111.7006 C   0  0  0  0  0  0  0  0  0  0  0  0
  169.4084  160.0782  112.7807 C   0  0  0  0  0  0  0  0  0  0  0  0
  170.3721  159.5915  113.7692 C   0  0  0  0  0  0  0  0  0  0  0  0
  171.7115  159.9044  113.3298 N   0  0  0  0  0  0  0  0  0  0  0  0
  172.6125  159.2882  114.2112 C   0  0  0  0  0  0  0  0  0  0  0  0
  171.2555  161.5979  111.8315 C   0  0  0  0  0  0  0  0  0  0  0  0
  171.7227  162.3271  110.7709 C   0  0  0  0  0  0  0  0  0  0  0  0
  171.8580  164.0907  106.4494 C   0  0  0  0  0  0  0  0  0  0  0  0
  171.0139  163.1781  105.7622 O   0  0  0  0  0  0  0  0  0  0  0  0
  172.5057  164.9852  105.6581 C   0  0  0  0  0  0  0  0  0  0  0  0
  173.3221  165.8691  106.3077 C   0  0  0  0  0  0  0  0  0  0  0  0
  177.5455  169.5569  110.0969 C   0  0  0  0  0  0  0  0  0  0  0  0
  177.0556  169.7636  111.3809 C   0  0  0  0  0  0  0  0  0  0  0  0
  177.4652  170.7906  112.1770 O   0  0  0  0  0  0  0  0  0  0  0  0
  178.4417  171.6913  111.6978 C   0  0  0  0  0  0  0  0  0  0  0  0
  176.1185  168.8600  111.8162 C   0  0  0  0  0  0  0  0  0  0  0  0
  175.6464  169.1127  113.1291 O   0  0  0  0  0  0  0  0  0  0  0  0
  173.1563  165.6181  112.5985 C   0  0  0  0  0  0  0  0  0  0  0  0
  172.6984  164.4092  113.1621 C   0  0  0  0  0  0  0  0  0  0  0  0
  1  2  1  0
  2  3  1  0
  3  4  2  0
  4  5  1  0
  5  6  2  0
  6  7  1  0
  7  8  1  0
  8  9  2  0
  9 10  1  0
 10 11  1  0
 11 12  1  0
 12 13  1  0
 13 14  1  0
 13 15  1  0
 16 13  1  6
 16 17  1  0
 17 18  1  0
 18 19  2  0
 19 20  1  0
 20 21  1  0
 21 22  1  0
 22 23  2  0
 23 24  1  0
 24 25  1  0
 23 26  1  0
 26 27  2  0
 27 28  1  0
 28 29  1  0
 29 30  1  0
 30 31  1  0
 27 32  1  0
 32 33  2  0
 20 34  2  0
 34 35  1  0
 34 36  1  0
 36 37  2  0
 10 38  2  0
 38 39  1  0
 39 40  1  0
 40 41  1  0
 39 42  2  0
 42 43  1  0
  6 44  1  0
 44 45  2  0
  1 30  1  6
 32  1  1  0
 45  3  1  0
 42  8  1  0
 16  9  1  0
 37 18  1  0
 33 22  1  0
M  CHG  1  13   1
M  END
$$$$
