
     RDKit          3D

 45 51  0  0  0  0  0  0  0  0999 V2000
  201.6134  135.9958  132.4557 C   0  0  2  0  0  0  0  0  0  0  0  0
  200.3353  136.6113  132.1122 C   0  0  0  0  0  0  0  0  0  0  0  0
  200.3274  137.8604  131.2837 C   0  0  0  0  0  0  0  0  0  0  0  0
  199.8850  139.0871  131.7299 C   0  0  0  0  0  0  0  0  0  0  0  0
  199.9020  140.2214  130.8795 C   0  0  0  0  0  0  0  0  0  0  0  0
  200.3430  140.1970  129.5914 C   0  0  0  0  0  0  0  0  0  0  0  0
  200.4102  141.2187  128.6748 O   0  0  0  0  0  0  0  0  0  0  0  0
  200.0774  142.4302  128.2876 C   0  0  0  0  0  0  0  0  0  0  0  0
  200.6904  143.5526  128.8876 C   0  0  0  0  0  0  0  0  0  0  0  0
  200.3076  144.8054  128.4548 C   0  0  0  0  0  0  0  0  0  0  0  0
  200.9903  145.9339  129.2038 C   0  0  0  0  0  0  0  0  0  0  0  0
  200.8815  145.4926  130.6463 C   0  0  0  0  0  0  0  0  0  0  0  0
  201.6066  144.3080  130.9932 N   0  0  0  0  0  4  0  0  0  0  0  0
  200.8140  143.7184  132.1009 C   0  0  0  0  0  0  0  0  0  0  0  0
  202.8340  144.7933  131.6145 C   0  0  0  0  0  0  0  0  0  0  0  0
  201.7621  143.4359  129.9290 C   0  0  2  0  0  0  0  0  0  0  0  0
  203.1126  143.2505  129.2856 C   0  0  0  0  0  0  0  0  0  0  0  0
  204.1243  142.4496  130.0298 C   0  0  0  0  0  0  0  0  0  0  0  0
  204.0811  141.1553  130.4905 C   0  0  0  0  0  0  0  0  0  0  0  0
  205.1727  140.6590  131.1856 C   0  0  0  0  0  0  0  0  0  0  0  0
  205.3609  139.4086  131.7456 O   0  0  0  0  0  0  0  0  0  0  0  0
  204.7101  138.2222  132.0255 C   0  0  0  0  0  0  0  0  0  0  0  0
  205.6569  137.1959  132.2905 C   0  0  0  0  0  0  0  0  0  0  0  0
  207.0277  137.4232  132.2630 O   0  0  0  0  0  0  0  0  0  0  0  0
  207.8261  136.8677  131.2615 C   0  0  0  0  0  0  0  0  0  0  0  0
  205.2685  135.9317  132.5866 C   0  0  0  0  0  0  0  0  0  0  0  0
  203.9208  135.6574  132.6245 C   0  0  0  0  0  0  0  0  0  0  0  0
  203.5922  134.2502  132.9508 C   0  0  0  0  0  0  0  0  0  0  0  0
  202.2524  134.0627  133.5098 C   0  0  0  0  0  0  0  0  0  0  0  0
  201.6497  135.3514  133.7571 N   0  0  0  0  0  0  0  0  0  0  0  0
  200.4405  135.1418  134.4370 C   0  0  0  0  0  0  0  0  0  0  0  0
  202.9324  136.6670  132.3626 C   0  0  0  0  0  0  0  0  0  0  0  0
  203.3431  137.9397  132.0688 C   0  0  0  0  0  0  0  0  0  0  0  0
  206.2978  141.4927  131.3980 C   0  0  0  0  0  0  0  0  0  0  0  0
  207.4397  141.0269  132.1029 O   0  0  0  0  0  0  0  0  0  0  0  0
  206.3766  142.7747  130.9552 C   0  0  0  0  0  0  0  0  0  0  0  0
  205.2832  143.2354  130.2756 C   0  0  0  0  0  0  0  0  0  0  0  0
  199.3773  145.0023  127.4837 C   0  0  0  0  0  0  0  0  0  0  0  0
  198.7481  143.9304  126.8620 C   0  0  0  0  0  0  0  0  0  0  0  0
  197.8104  144.0829  125.8854 O   0  0  0  0  0  0  0  0  0  0  0  0
  196.9495  145.2019  125.9205 C   0  0  0  0  0  0  0  0  0  0  0  0
  199.1266  142.6831  127.2921 C   0  0  0  0  0  0  0  0  0  0  0  0
  198.4607  141.6220  126.6279 O   0  0  0  0  0  0  0  0  0  0  0  0
  200.7886  138.9747  129.1313 C   0  0  0  0  0  0  0  0  0  0  0  0
  200.7728  137.8440  129.9738 C   0  0  0  0  0  0  0  0  0  0  0  0
  1  2  1  0
  2  3  1  0
  3  4  2  0
  4  5  1  0
  5  6  2  0
  6  7  1  0
  7  8  1  0
  8  9  2  0
  9 10  1  0
 10 11  1  0
 11 12  1  0
 12 13  1  0
 13 14  1  0
 13 15  1  0
 16 13  1  6
 16 17  1  0
 17 18  1  0
 18 19  2  0
 19 20  1  0
 20 21  1  0
 21 22  1  0
 22 23  2  0
 23 24  1  0
 24 25  1  0
 23 26  1  0
 26 27  2  0
 27 28  1  0
 28 29  1  0
 29 30  1  0
 30 31  1  0
 27 32  1  0
 32 33  2  0
 20 34  2  0
 34 35  1  0
 34 36  1  0
 36 37  2  0
 10 38  2  0
 38 39  1  0
 39 40  1  0
 40 41  1  0
 39 42  2  0
 42 43  1  0
  6 44  1  0
 44 45  2  0
  1 30  1  1
 32  1  1  0
 45  3  1  0
 42  8  1  0
 16  9  1  0
 37 18  1  0
 33 22  1  0
M  CHG  1  13   1
M  END
$$$$
