
     RDKit          3D

 45 51  0  0  0  0  0  0  0  0999 V2000
  113.7887  171.6842  143.2068 C   0  0  2  0  0  0  0  0  0  0  0  0
  115.1767  171.9694  143.5571 C   0  0  0  0  0  0  0  0  0  0  0  0
  116.1984  170.8800  143.4318 C   0  0  0  0  0  0  0  0  0  0  0  0
  116.8842  170.3306  144.4936 C   0  0  0  0  0  0  0  0  0  0  0  0
  117.8438  169.3069  144.2902 C   0  0  0  0  0  0  0  0  0  0  0  0
  118.1593  168.7950  143.0684 C   0  0  0  0  0  0  0  0  0  0  0  0
  119.0616  167.8107  142.7436 O   0  0  0  0  0  0  0  0  0  0  0  0
  120.0782  167.0414  143.0644 C   0  0  0  0  0  0  0  0  0  0  0  0
  119.8775  165.9294  143.9122 C   0  0  0  0  0  0  0  0  0  0  0  0
  120.9729  165.1521  144.2276 C   0  0  0  0  0  0  0  0  0  0  0  0
  120.6504  164.0202  145.1844 C   0  0  0  0  0  0  0  0  0  0  0  0
  119.7944  164.6992  146.2301 C   0  0  0  0  0  0  0  0  0  0  0  0
  118.5285  165.1913  145.7775 N   0  0  0  0  0  4  0  0  0  0  0  0
  118.2606  166.3506  146.6648 C   0  0  0  0  0  0  0  0  0  0  0  0
  117.5682  164.1694  146.1795 C   0  0  0  0  0  0  0  0  0  0  0  0
  118.5292  165.5379  144.4369 C   0  0  2  0  0  0  0  0  0  0  0  0
  117.7900  164.6937  143.4303 C   0  0  0  0  0  0  0  0  0  0  0  0
  116.3040  164.7941  143.4081 C   0  0  0  0  0  0  0  0  0  0  0  0
  115.4813  165.8784  143.2167 C   0  0  0  0  0  0  0  0  0  0  0  0
  114.1091  165.6908  143.2699 C   0  0  0  0  0  0  0  0  0  0  0  0
  113.0913  166.6146  143.1176 O   0  0  0  0  0  0  0  0  0  0  0  0
  112.8481  167.9692  142.9937 C   0  0  0  0  0  0  0  0  0  0  0  0
  111.5400  168.1863  142.4821 C   0  0  0  0  0  0  0  0  0  0  0  0
  110.6769  167.1402  142.1783 O   0  0  0  0  0  0  0  0  0  0  0  0
  109.4124  167.0612  142.7647 C   0  0  0  0  0  0  0  0  0  0  0  0
  111.0625  169.4355  142.2625 C   0  0  0  0  0  0  0  0  0  0  0  0
  111.8811  170.5041  142.5472 C   0  0  0  0  0  0  0  0  0  0  0  0
  111.2765  171.8280  142.2709 C   0  0  0  0  0  0  0  0  0  0  0  0
  111.8706  172.9278  143.0327 C   0  0  0  0  0  0  0  0  0  0  0  0
  112.8011  172.3954  144.0000 N   0  0  0  0  0  0  0  0  0  0  0  0
  113.2300  173.4523  144.8170 C   0  0  0  0  0  0  0  0  0  0  0  0
  113.2095  170.3265  143.0653 C   0  0  0  0  0  0  0  0  0  0  0  0
  113.6740  169.0572  143.2845 C   0  0  0  0  0  0  0  0  0  0  0  0
  113.5947  164.3941  143.5150 C   0  0  0  0  0  0  0  0  0  0  0  0
  112.1961  164.1536  143.5762 O   0  0  0  0  0  0  0  0  0  0  0  0
  114.3770  163.2998  143.7057 C   0  0  0  0  0  0  0  0  0  0  0  0
  115.7257  163.5181  143.6497 C   0  0  0  0  0  0  0  0  0  0  0  0
  122.2229  165.4075  143.7592 C   0  0  0  0  0  0  0  0  0  0  0  0
  122.4706  166.4878  142.9208 C   0  0  0  0  0  0  0  0  0  0  0  0
  123.7073  166.7801  142.4296 O   0  0  0  0  0  0  0  0  0  0  0  0
  124.5663  165.7271  142.0451 C   0  0  0  0  0  0  0  0  0  0  0  0
  121.3823  167.2632  142.6069 C   0  0  0  0  0  0  0  0  0  0  0  0
  121.6827  168.3505  141.7479 O   0  0  0  0  0  0  0  0  0  0  0  0
  117.4802  169.3363  141.9959 C   0  0  0  0  0  0  0  0  0  0  0  0
  116.5255  170.3551  142.1940 C   0  0  0  0  0  0  0  0  0  0  0  0
  1  2  1  0
  2  3  1  0
  3  4  2  0
  4  5  1  0
  5  6  2  0
  6  7  1  0
  7  8  1  0
  8  9  2  0
  9 10  1  0
 10 11  1  0
 11 12  1  0
 12 13  1  0
 13 14  1  0
 13 15  1  0
 16 13  1  1
 16 17  1  0
 17 18  1  0
 18 19  2  0
 19 20  1  0
 20 21  1  0
 21 22  1  0
 22 23  2  0
 23 24  1  0
 24 25  1  0
 23 26  1  0
 26 27  2  0
 27 28  1  0
 28 29  1  0
 29 30  1  0
 30 31  1  0
 27 32  1  0
 32 33  2  0
 20 34  2  0
 34 35  1  0
 34 36  1  0
 36 37  2  0
 10 38  2  0
 38 39  1  0
 39 40  1  0
 40 41  1  0
 39 42  2  0
 42 43  1  0
  6 44  1  0
 44 45  2  0
  1 30  1  1
 32  1  1  0
 45  3  1  0
 42  8  1  0
 16  9  1  0
 37 18  1  0
 33 22  1  0
M  CHG  1  13   1
M  END
$$$$
