
     RDKit          3D

 45 51  0  0  0  0  0  0  0  0999 V2000
  185.6787  163.7552  124.5611 C   0  0  2  0  0  0  0  0  0  0  0  0
  186.3176  164.2506  123.3459 C   0  0  0  0  0  0  0  0  0  0  0  0
  187.3499  163.4018  122.6674 C   0  0  0  0  0  0  0  0  0  0  0  0
  188.6797  163.7429  122.5452 C   0  0  0  0  0  0  0  0  0  0  0  0
  189.5935  162.8872  121.8797 C   0  0  0  0  0  0  0  0  0  0  0  0
  189.2471  161.6937  121.3230 C   0  0  0  0  0  0  0  0  0  0  0  0
  190.0323  160.7826  120.6584 O   0  0  0  0  0  0  0  0  0  0  0  0
  191.1545  160.4713  120.0483 C   0  0  0  0  0  0  0  0  0  0  0  0
  192.3206  160.2233  120.8062 C   0  0  0  0  0  0  0  0  0  0  0  0
  193.4775  159.9051  120.1251 C   0  0  0  0  0  0  0  0  0  0  0  0
  194.6758  159.7121  121.0348 C   0  0  0  0  0  0  0  0  0  0  0  0
  194.5734  160.8899  121.9780 C   0  0  0  0  0  0  0  0  0  0  0  0
  193.4328  160.8997  122.8431 N   0  0  0  0  0  4  0  0  0  0  0  0
  193.1752  162.3430  123.0743 C   0  0  0  0  0  0  0  0  0  0  0  0
  193.9288  160.3888  124.1163 C   0  0  0  0  0  0  0  0  0  0  0  0
  192.3381  160.2447  122.3048 C   0  0  2  0  0  0  0  0  0  0  0  0
  191.8938  158.9165  122.8621 C   0  0  0  0  0  0  0  0  0  0  0  0
  191.1870  158.9230  124.1733 C   0  0  0  0  0  0  0  0  0  0  0  0
  190.0347  159.5602  124.5676 C   0  0  0  0  0  0  0  0  0  0  0  0
  189.6056  159.4107  125.8770 C   0  0  0  0  0  0  0  0  0  0  0  0
  188.4967  159.9497  126.5033 O   0  0  0  0  0  0  0  0  0  0  0  0
  187.4650  160.8513  126.3240 C   0  0  0  0  0  0  0  0  0  0  0  0
  186.4400  160.6178  127.2804 C   0  0  0  0  0  0  0  0  0  0  0  0
  186.5299  159.6138  128.2372 O   0  0  0  0  0  0  0  0  0  0  0  0
  187.6405  158.7693  128.2875 C   0  0  0  0  0  0  0  0  0  0  0  0
  185.3123  161.3689  127.3092 C   0  0  0  0  0  0  0  0  0  0  0  0
  185.1769  162.3749  126.3804 C   0  0  0  0  0  0  0  0  0  0  0  0
  183.9115  163.1379  126.4856 C   0  0  0  0  0  0  0  0  0  0  0  0
  183.9740  164.4826  125.9106 C   0  0  0  0  0  0  0  0  0  0  0  0
  185.3349  164.7806  125.5309 N   0  0  0  0  0  0  0  0  0  0  0  0
  185.3905  166.1254  125.1351 C   0  0  0  0  0  0  0  0  0  0  0  0
  186.1901  162.6425  125.3973 C   0  0  0  0  0  0  0  0  0  0  0  0
  187.3246  161.8759  125.3855 C   0  0  0  0  0  0  0  0  0  0  0  0
  190.3596  158.6073  126.7670 C   0  0  0  0  0  0  0  0  0  0  0  0
  189.9578  158.4234  128.1169 O   0  0  0  0  0  0  0  0  0  0  0  0
  191.5006  157.9609  126.4117 C   0  0  0  0  0  0  0  0  0  0  0  0
  191.8987  158.1304  125.1146 C   0  0  0  0  0  0  0  0  0  0  0  0
  193.5404  159.8185  118.7702 C   0  0  0  0  0  0  0  0  0  0  0  0
  192.4201  160.0512  117.9815 C   0  0  0  0  0  0  0  0  0  0  0  0
  192.4394  159.9758  116.6212 O   0  0  0  0  0  0  0  0  0  0  0  0
  193.2774  159.0290  115.9920 C   0  0  0  0  0  0  0  0  0  0  0  0
  191.2684  160.3693  118.6571 C   0  0  0  0  0  0  0  0  0  0  0  0
  190.1526  160.5950  117.8118 O   0  0  0  0  0  0  0  0  0  0  0  0
  187.9182  161.3397  121.4376 C   0  0  0  0  0  0  0  0  0  0  0  0
  187.0061  162.1884  122.0983 C   0  0  0  0  0  0  0  0  0  0  0  0
  1  2  1  0
  2  3  1  0
  3  4  2  0
  4  5  1  0
  5  6  2  0
  6  7  1  0
  7  8  1  0
  8  9  2  0
  9 10  1  0
 10 11  1  0
 11 12  1  0
 12 13  1  0
 13 14  1  0
 13 15  1  0
 16 13  1  6
 16 17  1  0
 17 18  1  0
 18 19  2  0
 19 20  1  0
 20 21  1  0
 21 22  1  0
 22 23  2  0
 23 24  1  0
 24 25  1  0
 23 26  1  0
 26 27  2  0
 27 28  1  0
 28 29  1  0
 29 30  1  0
 30 31  1  0
 27 32  1  0
 32 33  2  0
 20 34  2  0
 34 35  1  0
 34 36  1  0
 36 37  2  0
 10 38  2  0
 38 39  1  0
 39 40  1  0
 40 41  1  0
 39 42  2  0
 42 43  1  0
  6 44  1  0
 44 45  2  0
  1 30  1  1
 32  1  1  0
 45  3  1  0
 42  8  1  0
 16  9  1  0
 37 18  1  0
 33 22  1  0
M  CHG  1  13   1
M  END
$$$$
