
     RDKit          3D

 45 51  0  0  0  0  0  0  0  0999 V2000
  186.0335  175.0680  139.2552 C   0  0  2  0  0  0  0  0  0  0  0  0
  187.0730  175.7838  139.9884 C   0  0  0  0  0  0  0  0  0  0  0  0
  186.7653  176.3166  141.3551 C   0  0  0  0  0  0  0  0  0  0  0  0
  186.7368  177.6558  141.6799 C   0  0  0  0  0  0  0  0  0  0  0  0
  186.4451  178.0793  143.0011 C   0  0  0  0  0  0  0  0  0  0  0  0
  186.1762  177.2272  144.0287 C   0  0  0  0  0  0  0  0  0  0  0  0
  185.8808  177.5111  145.3404 O   0  0  0  0  0  0  0  0  0  0  0  0
  185.8435  178.3571  146.3460 C   0  0  0  0  0  0  0  0  0  0  0  0
  184.8401  179.3504  146.3914 C   0  0  0  0  0  0  0  0  0  0  0  0
  184.8413  180.2208  147.4619 C   0  0  0  0  0  0  0  0  0  0  0  0
  183.7544  181.2755  147.3794 C   0  0  0  0  0  0  0  0  0  0  0  0
  183.8451  181.7382  145.9424 C   0  0  0  0  0  0  0  0  0  0  0  0
  183.5091  180.7627  144.9499 N   0  0  0  0  0  4  0  0  0  0  0  0
  184.3265  181.1557  143.7750 C   0  0  0  0  0  0  0  0  0  0  0  0
  182.1317  181.0693  144.5800 C   0  0  0  0  0  0  0  0  0  0  0  0
  183.7587  179.4638  145.3597 C   0  0  2  0  0  0  0  0  0  0  0  0
  182.6177  178.5319  145.6787 C   0  0  0  0  0  0  0  0  0  0  0  0
  181.8458  177.9733  144.5338 C   0  0  0  0  0  0  0  0  0  0  0  0
  182.2555  177.2256  143.4557 C   0  0  0  0  0  0  0  0  0  0  0  0
  181.3153  176.8517  142.5085 C   0  0  0  0  0  0  0  0  0  0  0  0
  181.4827  176.1152  141.3500 O   0  0  0  0  0  0  0  0  0  0  0  0
  182.4482  175.5547  140.5358 C   0  0  0  0  0  0  0  0  0  0  0  0
  181.8614  174.5858  139.6773 C   0  0  0  0  0  0  0  0  0  0  0  0
  180.5020  174.2976  139.7000 O   0  0  0  0  0  0  0  0  0  0  0  0
  180.0251  173.1402  140.3182 C   0  0  0  0  0  0  0  0  0  0  0  0
  182.6036  173.8870  138.7843 C   0  0  0  0  0  0  0  0  0  0  0  0
  183.9554  174.1365  138.7255 C   0  0  0  0  0  0  0  0  0  0  0  0
  184.6844  173.3228  137.7249 C   0  0  0  0  0  0  0  0  0  0  0  0
  185.9449  173.9157  137.2752 C   0  0  0  0  0  0  0  0  0  0  0  0
  186.0685  175.2495  137.8144 N   0  0  0  0  0  0  0  0  0  0  0  0
  187.2005  175.8468  137.2397 C   0  0  0  0  0  0  0  0  0  0  0  0
  184.5864  175.1076  139.5761 C   0  0  0  0  0  0  0  0  0  0  0  0
  183.8202  175.8070  140.4698 C   0  0  0  0  0  0  0  0  0  0  0  0
  179.9652  177.2448  142.6779 C   0  0  0  0  0  0  0  0  0  0  0  0
  178.9667  176.8834  141.7345 O   0  0  0  0  0  0  0  0  0  0  0  0
  179.5240  177.9808  143.7313 C   0  0  0  0  0  0  0  0  0  0  0  0
  180.4758  178.3358  144.6465 C   0  0  0  0  0  0  0  0  0  0  0  0
  185.7562  180.1609  148.4652 C   0  0  0  0  0  0  0  0  0  0  0  0
  186.7609  179.2007  148.4666 C   0  0  0  0  0  0  0  0  0  0  0  0
  187.6978  179.1058  149.4512 O   0  0  0  0  0  0  0  0  0  0  0  0
  187.4097  179.6232  150.7334 C   0  0  0  0  0  0  0  0  0  0  0  0
  186.7622  178.3347  147.4017 C   0  0  0  0  0  0  0  0  0  0  0  0
  187.8024  177.3723  147.4478 O   0  0  0  0  0  0  0  0  0  0  0  0
  186.2016  175.8829  143.7177 C   0  0  0  0  0  0  0  0  0  0  0  0
  186.4920  175.4577  142.4048 C   0  0  0  0  0  0  0  0  0  0  0  0
  1  2  1  0
  2  3  1  0
  3  4  2  0
  4  5  1  0
  5  6  2  0
  6  7  1  0
  7  8  1  0
  8  9  2  0
  9 10  1  0
 10 11  1  0
 11 12  1  0
 12 13  1  0
 13 14  1  0
 13 15  1  0
 16 13  1  1
 16 17  1  0
 17 18  1  0
 18 19  2  0
 19 20  1  0
 20 21  1  0
 21 22  1  0
 22 23  2  0
 23 24  1  0
 24 25  1  0
 23 26  1  0
 26 27  2  0
 27 28  1  0
 28 29  1  0
 29 30  1  0
 30 31  1  0
 27 32  1  0
 32 33  2  0
 20 34  2  0
 34 35  1  0
 34 36  1  0
 36 37  2  0
 10 38  2  0
 38 39  1  0
 39 40  1  0
 40 41  1  0
 39 42  2  0
 42 43  1  0
  6 44  1  0
 44 45  2  0
  1 30  1  6
 32  1  1  0
 45  3  1  0
 42  8  1  0
 16  9  1  0
 37 18  1  0
 33 22  1  0
M  CHG  1  13   1
M  END
$$$$
