
     RDKit          3D

 45 51  0  0  0  0  0  0  0  0999 V2000
  110.3018  170.5805  143.5088 C   0  0  2  0  0  0  0  0  0  0  0  0
  111.2811  170.8083  144.5667 C   0  0  0  0  0  0  0  0  0  0  0  0
  112.6602  170.2406  144.4178 C   0  0  0  0  0  0  0  0  0  0  0  0
  113.1940  169.2686  145.2362 C   0  0  0  0  0  0  0  0  0  0  0  0
  114.5130  168.7893  145.0341 C   0  0  0  0  0  0  0  0  0  0  0  0
  115.3382  169.2332  144.0460 C   0  0  0  0  0  0  0  0  0  0  0  0
  116.6243  168.8511  143.7487 O   0  0  0  0  0  0  0  0  0  0  0  0
  117.7403  168.2402  144.0798 C   0  0  0  0  0  0  0  0  0  0  0  0
  117.8078  166.8297  144.0388 C   0  0  0  0  0  0  0  0  0  0  0  0
  118.9966  166.2297  144.3995 C   0  0  0  0  0  0  0  0  0  0  0  0
  118.9376  164.7143  144.3691 C   0  0  0  0  0  0  0  0  0  0  0  0
  117.6236  164.4164  145.0559 C   0  0  0  0  0  0  0  0  0  0  0  0
  116.4468  164.8598  144.3719 N   0  0  0  0  0  4  0  0  0  0  0  0
  115.4789  165.1242  145.4656 C   0  0  0  0  0  0  0  0  0  0  0  0
  115.9434  163.6716  143.6917 C   0  0  0  0  0  0  0  0  0  0  0  0
  116.6678  165.9726  143.5780 C   0  0  2  0  0  0  0  0  0  0  0  0
  116.6659  165.8505  142.0756 C   0  0  0  0  0  0  0  0  0  0  0  0
  115.3479  165.6881  141.4009 C   0  0  0  0  0  0  0  0  0  0  0  0
  114.2295  166.4870  141.4137 C   0  0  0  0  0  0  0  0  0  0  0  0
  113.1114  166.0790  140.7034 C   0  0  0  0  0  0  0  0  0  0  0  0
  111.8824  166.6991  140.5708 O   0  0  0  0  0  0  0  0  0  0  0  0
  111.1302  167.7572  141.0442 C   0  0  0  0  0  0  0  0  0  0  0  0
  110.0502  168.0237  140.1595 C   0  0  0  0  0  0  0  0  0  0  0  0
  109.8346  167.2820  139.0042 O   0  0  0  0  0  0  0  0  0  0  0  0
  108.5699  166.7713  138.7062 C   0  0  0  0  0  0  0  0  0  0  0  0
  109.1671  169.0233  140.3993 C   0  0  0  0  0  0  0  0  0  0  0  0
  109.3401  169.7866  141.5309 C   0  0  0  0  0  0  0  0  0  0  0  0
  108.3312  170.8570  141.7065 C   0  0  0  0  0  0  0  0  0  0  0  0
  108.1663  171.3026  143.0912 C   0  0  0  0  0  0  0  0  0  0  0  0
  108.9298  170.4449  143.9666 N   0  0  0  0  0  0  0  0  0  0  0  0
  108.6257  170.7950  145.2907 C   0  0  0  0  0  0  0  0  0  0  0  0
  110.4190  169.5491  142.4498 C   0  0  0  0  0  0  0  0  0  0  0  0
  111.2995  168.5323  142.1935 C   0  0  0  0  0  0  0  0  0  0  0  0
  113.1525  164.8591  139.9850 C   0  0  0  0  0  0  0  0  0  0  0  0
  112.0321  164.4016  139.2414 O   0  0  0  0  0  0  0  0  0  0  0  0
  114.2405  164.0461  139.9475 C   0  0  0  0  0  0  0  0  0  0  0  0
  115.3259  164.4751  140.6600 C   0  0  0  0  0  0  0  0  0  0  0  0
  120.0944  166.9317  144.7858 C   0  0  0  0  0  0  0  0  0  0  0  0
  120.0782  168.3203  144.8400 C   0  0  0  0  0  0  0  0  0  0  0  0
  121.1550  169.0624  145.2220 O   0  0  0  0  0  0  0  0  0  0  0  0
  122.4057  168.4297  145.3954 C   0  0  0  0  0  0  0  0  0  0  0  0
  118.8959  168.9192  144.4828 C   0  0  0  0  0  0  0  0  0  0  0  0
  118.9280  170.3351  144.5509 O   0  0  0  0  0  0  0  0  0  0  0  0
  114.8165  170.2071  143.2190 C   0  0  0  0  0  0  0  0  0  0  0  0
  113.5053  170.6868  143.4171 C   0  0  0  0  0  0  0  0  0  0  0  0
  1  2  1  0
  2  3  1  0
  3  4  2  0
  4  5  1  0
  5  6  2  0
  6  7  1  0
  7  8  1  0
  8  9  2  0
  9 10  1  0
 10 11  1  0
 11 12  1  0
 12 13  1  0
 13 14  1  0
 13 15  1  0
 16 13  1  1
 16 17  1  0
 17 18  1  0
 18 19  2  0
 19 20  1  0
 20 21  1  0
 21 22  1  0
 22 23  2  0
 23 24  1  0
 24 25  1  0
 23 26  1  0
 26 27  2  0
 27 28  1  0
 28 29  1  0
 29 30  1  0
 30 31  1  0
 27 32  1  0
 32 33  2  0
 20 34  2  0
 34 35  1  0
 34 36  1  0
 36 37  2  0
 10 38  2  0
 38 39  1  0
 39 40  1  0
 40 41  1  0
 39 42  2  0
 42 43  1  0
  6 44  1  0
 44 45  2  0
  1 30  1  1
 32  1  1  0
 45  3  1  0
 42  8  1  0
 16  9  1  0
 37 18  1  0
 33 22  1  0
M  CHG  1  13   1
M  END
$$$$
