
     RDKit          3D

 45 51  0  0  0  0  0  0  0  0999 V2000
  123.6347  145.4184  143.9967 C   0  0  2  0  0  0  0  0  0  0  0  0
  122.9462  144.1400  144.1460 C   0  0  0  0  0  0  0  0  0  0  0  0
  121.8230  144.0280  145.1320 C   0  0  0  0  0  0  0  0  0  0  0  0
  121.8511  143.2312  146.2562 C   0  0  0  0  0  0  0  0  0  0  0  0
  120.7415  143.1738  147.1370 C   0  0  0  0  0  0  0  0  0  0  0  0
  119.5909  143.8786  146.9540 C   0  0  0  0  0  0  0  0  0  0  0  0
  118.4562  143.9091  147.7286 O   0  0  0  0  0  0  0  0  0  0  0  0
  117.7126  143.4012  148.6865 C   0  0  0  0  0  0  0  0  0  0  0  0
  118.0776  143.5960  150.0372 C   0  0  0  0  0  0  0  0  0  0  0  0
  117.2719  143.0412  151.0100 C   0  0  0  0  0  0  0  0  0  0  0  0
  117.7878  143.2683  152.4182 C   0  0  0  0  0  0  0  0  0  0  0  0
  119.2610  142.9513  152.2904 C   0  0  0  0  0  0  0  0  0  0  0  0
  120.0197  143.8341  151.4569 N   0  0  0  0  0  4  0  0  0  0  0  0
  121.1087  142.9751  150.9287 C   0  0  0  0  0  0  0  0  0  0  0  0
  120.6701  144.7526  152.3849 C   0  0  0  0  0  0  0  0  0  0  0  0
  119.2646  144.4126  150.4507 C   0  0  2  0  0  0  0  0  0  0  0  0
  118.9104  145.8766  150.5082 C   0  0  0  0  0  0  0  0  0  0  0  0
  119.9885  146.8572  150.1997 C   0  0  0  0  0  0  0  0  0  0  0  0
  120.7661  147.0111  149.0768 C   0  0  0  0  0  0  0  0  0  0  0  0
  121.7283  148.0087  149.0646 C   0  0  0  0  0  0  0  0  0  0  0  0
  122.6243  148.3504  148.0682 O   0  0  0  0  0  0  0  0  0  0  0  0
  123.1075  147.9426  146.8396 C   0  0  0  0  0  0  0  0  0  0  0  0
  123.7800  149.0175  146.1974 C   0  0  0  0  0  0  0  0  0  0  0  0
  123.9044  150.2724  146.7816 O   0  0  0  0  0  0  0  0  0  0  0  0
  123.7045  150.4477  148.1521 C   0  0  0  0  0  0  0  0  0  0  0  0
  124.3398  148.8728  144.9717 C   0  0  0  0  0  0  0  0  0  0  0  0
  124.2415  147.6482  144.3521 C   0  0  0  0  0  0  0  0  0  0  0  0
  124.8775  147.5864  143.0156 C   0  0  0  0  0  0  0  0  0  0  0  0
  125.2527  146.2360  142.5934 C   0  0  0  0  0  0  0  0  0  0  0  0
  125.0504  145.3161  143.6879 N   0  0  0  0  0  0  0  0  0  0  0  0
  125.5667  144.0684  143.3073 C   0  0  0  0  0  0  0  0  0  0  0  0
  123.5700  146.5371  144.9679 C   0  0  0  0  0  0  0  0  0  0  0  0
  123.0135  146.7004  146.2082 C   0  0  0  0  0  0  0  0  0  0  0  0
  121.8809  148.8398  150.2013 C   0  0  0  0  0  0  0  0  0  0  0  0
  122.8519  149.8760  150.2337 O   0  0  0  0  0  0  0  0  0  0  0  0
  121.1289  148.7186  151.3264 C   0  0  0  0  0  0  0  0  0  0  0  0
  120.1907  147.7240  151.3081 C   0  0  0  0  0  0  0  0  0  0  0  0
  116.1521  142.3253  150.7260 C   0  0  0  0  0  0  0  0  0  0  0  0
  115.7504  142.1082  149.4134 C   0  0  0  0  0  0  0  0  0  0  0  0
  114.6362  141.3965  149.0844 O   0  0  0  0  0  0  0  0  0  0  0  0
  113.6150  141.2257  150.0449 C   0  0  0  0  0  0  0  0  0  0  0  0
  116.5515  142.6583  148.4439 C   0  0  0  0  0  0  0  0  0  0  0  0
  116.1008  142.4133  147.1220 O   0  0  0  0  0  0  0  0  0  0  0  0
  119.5488  144.6806  145.8318 C   0  0  0  0  0  0  0  0  0  0  0  0
  120.6501  144.7399  144.9530 C   0  0  0  0  0  0  0  0  0  0  0  0
  1  2  1  0
  2  3  1  0
  3  4  2  0
  4  5  1  0
  5  6  2  0
  6  7  1  0
  7  8  1  0
  8  9  2  0
  9 10  1  0
 10 11  1  0
 11 12  1  0
 12 13  1  0
 13 14  1  0
 13 15  1  0
 16 13  1  1
 16 17  1  0
 17 18  1  0
 18 19  2  0
 19 20  1  0
 20 21  1  0
 21 22  1  0
 22 23  2  0
 23 24  1  0
 24 25  1  0
 23 26  1  0
 26 27  2  0
 27 28  1  0
 28 29  1  0
 29 30  1  0
 30 31  1  0
 27 32  1  0
 32 33  2  0
 20 34  2  0
 34 35  1  0
 34 36  1  0
 36 37  2  0
 10 38  2  0
 38 39  1  0
 39 40  1  0
 40 41  1  0
 39 42  2  0
 42 43  1  0
  6 44  1  0
 44 45  2  0
  1 30  1  1
 32  1  1  0
 45  3  1  0
 42  8  1  0
 16  9  1  0
 37 18  1  0
 33 22  1  0
M  CHG  1  13   1
M  END
$$$$
