
     RDKit          3D

 45 51  0  0  0  0  0  0  0  0999 V2000
  128.3834  175.0154  147.4188 C   0  0  2  0  0  0  0  0  0  0  0  0
  128.8189  175.1275  148.8074 C   0  0  0  0  0  0  0  0  0  0  0  0
  128.2515  176.2193  149.6633 C   0  0  0  0  0  0  0  0  0  0  0  0
  128.9887  177.2585  150.1887 C   0  0  0  0  0  0  0  0  0  0  0  0
  128.3776  178.2494  150.9980 C   0  0  0  0  0  0  0  0  0  0  0  0
  127.0532  178.2592  151.3146 C   0  0  0  0  0  0  0  0  0  0  0  0
  126.3481  179.1556  152.0813 O   0  0  0  0  0  0  0  0  0  0  0  0
  126.3196  180.1421  152.9498 C   0  0  0  0  0  0  0  0  0  0  0  0
  126.6294  181.4553  152.5315 C   0  0  0  0  0  0  0  0  0  0  0  0
  126.5925  182.4595  153.4769 C   0  0  0  0  0  0  0  0  0  0  0  0
  126.9933  183.8156  152.9283 C   0  0  0  0  0  0  0  0  0  0  0  0
  128.2275  183.4962  152.1146 C   0  0  0  0  0  0  0  0  0  0  0  0
  128.0214  182.6642  150.9680 N   0  0  0  0  0  4  0  0  0  0  0  0
  129.3102  181.9438  150.8160 C   0  0  0  0  0  0  0  0  0  0  0  0
  127.9639  183.5911  149.8429 C   0  0  0  0  0  0  0  0  0  0  0  0
  126.9457  181.8038  151.1084 C   0  0  2  0  0  0  0  0  0  0  0  0
  125.6803  182.0296  150.3210 C   0  0  0  0  0  0  0  0  0  0  0  0
  125.7034  181.6900  148.8709 C   0  0  0  0  0  0  0  0  0  0  0  0
  125.9803  180.5052  148.2316 C   0  0  0  0  0  0  0  0  0  0  0  0
  125.9524  180.4734  146.8463 C   0  0  0  0  0  0  0  0  0  0  0  0
  126.1984  179.4171  145.9883 O   0  0  0  0  0  0  0  0  0  0  0  0
  126.6483  178.1109  145.9565 C   0  0  0  0  0  0  0  0  0  0  0  0
  126.2744  177.4948  144.7314 C   0  0  0  0  0  0  0  0  0  0  0  0
  125.5647  178.1698  143.7454 O   0  0  0  0  0  0  0  0  0  0  0  0
  124.3456  177.6773  143.2758 C   0  0  0  0  0  0  0  0  0  0  0  0
  126.5938  176.2062  144.4591 C   0  0  0  0  0  0  0  0  0  0  0  0
  127.2954  175.4959  145.4058 C   0  0  0  0  0  0  0  0  0  0  0  0
  127.5943  174.0965  145.0229 C   0  0  0  0  0  0  0  0  0  0  0  0
  128.7433  173.5174  145.7210 C   0  0  0  0  0  0  0  0  0  0  0  0
  129.4013  174.5423  146.4967 N   0  0  0  0  0  0  0  0  0  0  0  0
  130.5828  173.9978  147.0219 C   0  0  0  0  0  0  0  0  0  0  0  0
  127.6916  176.0826  146.6562 C   0  0  0  0  0  0  0  0  0  0  0  0
  127.3636  177.3870  146.9128 C   0  0  0  0  0  0  0  0  0  0  0  0
  125.6376  181.6547  146.1312 C   0  0  0  0  0  0  0  0  0  0  0  0
  125.5950  181.6695  144.7114 O   0  0  0  0  0  0  0  0  0  0  0  0
  125.3559  182.8418  146.7290 C   0  0  0  0  0  0  0  0  0  0  0  0
  125.3942  182.8410  148.0958 C   0  0  0  0  0  0  0  0  0  0  0  0
  126.2710  182.2405  154.7791 C   0  0  0  0  0  0  0  0  0  0  0  0
  125.9564  180.9671  155.2384 C   0  0  0  0  0  0  0  0  0  0  0  0
  125.6295  180.7034  156.5345 O   0  0  0  0  0  0  0  0  0  0  0  0
  126.2661  181.4234  157.5695 C   0  0  0  0  0  0  0  0  0  0  0  0
  125.9940  179.9664  154.2996 C   0  0  0  0  0  0  0  0  0  0  0  0
  125.6635  178.6869  154.8134 O   0  0  0  0  0  0  0  0  0  0  0  0
  126.3030  177.2239  150.7953 C   0  0  0  0  0  0  0  0  0  0  0  0
  126.9072  176.2361  149.9904 C   0  0  0  0  0  0  0  0  0  0  0  0
  1  2  1  0
  2  3  1  0
  3  4  2  0
  4  5  1  0
  5  6  2  0
  6  7  1  0
  7  8  1  0
  8  9  2  0
  9 10  1  0
 10 11  1  0
 11 12  1  0
 12 13  1  0
 13 14  1  0
 13 15  1  0
 16 13  1  1
 16 17  1  0
 17 18  1  0
 18 19  2  0
 19 20  1  0
 20 21  1  0
 21 22  1  0
 22 23  2  0
 23 24  1  0
 24 25  1  0
 23 26  1  0
 26 27  2  0
 27 28  1  0
 28 29  1  0
 29 30  1  0
 30 31  1  0
 27 32  1  0
 32 33  2  0
 20 34  2  0
 34 35  1  0
 34 36  1  0
 36 37  2  0
 10 38  2  0
 38 39  1  0
 39 40  1  0
 40 41  1  0
 39 42  2  0
 42 43  1  0
  6 44  1  0
 44 45  2  0
  1 30  1  6
 32  1  1  0
 45  3  1  0
 42  8  1  0
 16  9  1  0
 37 18  1  0
 33 22  1  0
M  CHG  1  13   1
M  END
$$$$
