
     RDKit          3D

 45 51  0  0  0  0  0  0  0  0999 V2000
  140.0740  180.7344  140.1836 C   0  0  2  0  0  0  0  0  0  0  0  0
  140.0797  182.1668  140.4641 C   0  0  0  0  0  0  0  0  0  0  0  0
  140.5675  182.6463  141.7977 C   0  0  0  0  0  0  0  0  0  0  0  0
  139.7784  183.2812  142.7324 C   0  0  0  0  0  0  0  0  0  0  0  0
  140.3188  183.7130  143.9701 C   0  0  0  0  0  0  0  0  0  0  0  0
  141.6210  183.5424  144.3298 C   0  0  0  0  0  0  0  0  0  0  0  0
  142.2594  183.9118  145.4893 O   0  0  0  0  0  0  0  0  0  0  0  0
  142.2888  184.6033  146.6071 C   0  0  0  0  0  0  0  0  0  0  0  0
  141.5205  184.1809  147.7147 C   0  0  0  0  0  0  0  0  0  0  0  0
  141.5769  184.9391  148.8661 C   0  0  0  0  0  0  0  0  0  0  0  0
  140.6735  184.4227  149.9697 C   0  0  0  0  0  0  0  0  0  0  0  0
  139.3824  184.1327  149.2375 C   0  0  0  0  0  0  0  0  0  0  0  0
  139.4381  183.0836  148.2650 N   0  0  0  0  0  4  0  0  0  0  0  0
  138.4120  183.4716  147.2652 C   0  0  0  0  0  0  0  0  0  0  0  0
  138.8888  181.9167  148.9467 C   0  0  0  0  0  0  0  0  0  0  0  0
  140.6946  182.9302  147.7040 C   0  0  2  0  0  0  0  0  0  0  0  0
  141.5406  181.7298  148.0440 C   0  0  0  0  0  0  0  0  0  0  0  0
  141.1597  180.4254  147.4340 C   0  0  0  0  0  0  0  0  0  0  0  0
  141.0291  180.0557  146.1166 C   0  0  0  0  0  0  0  0  0  0  0  0
  140.6314  178.7605  145.8246 C   0  0  0  0  0  0  0  0  0  0  0  0
  140.4261  178.1626  144.5946 O   0  0  0  0  0  0  0  0  0  0  0  0
  140.3602  178.4316  143.2409 C   0  0  0  0  0  0  0  0  0  0  0  0
  140.4858  177.2274  142.4964 C   0  0  0  0  0  0  0  0  0  0  0  0
  140.6421  175.9885  143.1065 O   0  0  0  0  0  0  0  0  0  0  0  0
  141.7776  175.2115  142.8698 C   0  0  0  0  0  0  0  0  0  0  0  0
  140.4591  177.2251  141.1414 C   0  0  0  0  0  0  0  0  0  0  0  0
  140.3074  178.4284  140.4918 C   0  0  0  0  0  0  0  0  0  0  0  0
  140.2949  178.3281  139.0138 C   0  0  0  0  0  0  0  0  0  0  0  0
  139.6228  179.4427  138.3440 C   0  0  0  0  0  0  0  0  0  0  0  0
  138.9877  180.2843  139.3306 N   0  0  0  0  0  0  0  0  0  0  0  0
  138.2227  181.2458  138.6533 C   0  0  0  0  0  0  0  0  0  0  0  0
  140.1773  179.6673  141.2081 C   0  0  0  0  0  0  0  0  0  0  0  0
  140.2028  179.6501  142.5770 C   0  0  0  0  0  0  0  0  0  0  0  0
  140.3753  177.8573  146.8851 C   0  0  0  0  0  0  0  0  0  0  0  0
  139.9677  176.5199  146.6342 O   0  0  0  0  0  0  0  0  0  0  0  0
  140.4967  178.1866  148.1976 C   0  0  0  0  0  0  0  0  0  0  0  0
  140.8880  179.4717  148.4526 C   0  0  0  0  0  0  0  0  0  0  0  0
  142.3348  186.0616  148.9784 C   0  0  0  0  0  0  0  0  0  0  0  0
  143.1093  186.5161  147.9178 C   0  0  0  0  0  0  0  0  0  0  0  0
  143.8824  187.6358  147.9874 O   0  0  0  0  0  0  0  0  0  0  0  0
  143.8158  188.4529  149.1375 C   0  0  0  0  0  0  0  0  0  0  0  0
  143.0536  185.7639  146.7710 C   0  0  0  0  0  0  0  0  0  0  0  0
  143.8613  186.2643  145.7184 O   0  0  0  0  0  0  0  0  0  0  0  0
  142.4229  182.9082  143.4029 C   0  0  0  0  0  0  0  0  0  0  0  0
  141.8893  182.4777  142.1705 C   0  0  0  0  0  0  0  0  0  0  0  0
  1  2  1  0
  2  3  1  0
  3  4  2  0
  4  5  1  0
  5  6  2  0
  6  7  1  0
  7  8  1  0
  8  9  2  0
  9 10  1  0
 10 11  1  0
 11 12  1  0
 12 13  1  0
 13 14  1  0
 13 15  1  0
 16 13  1  1
 16 17  1  0
 17 18  1  0
 18 19  2  0
 19 20  1  0
 20 21  1  0
 21 22  1  0
 22 23  2  0
 23 24  1  0
 24 25  1  0
 23 26  1  0
 26 27  2  0
 27 28  1  0
 28 29  1  0
 29 30  1  0
 30 31  1  0
 27 32  1  0
 32 33  2  0
 20 34  2  0
 34 35  1  0
 34 36  1  0
 36 37  2  0
 10 38  2  0
 38 39  1  0
 39 40  1  0
 40 41  1  0
 39 42  2  0
 42 43  1  0
  6 44  1  0
 44 45  2  0
  1 30  1  1
 32  1  1  0
 45  3  1  0
 42  8  1  0
 16  9  1  0
 37 18  1  0
 33 22  1  0
M  CHG  1  13   1
M  END
$$$$
