
     RDKit          3D

 45 51  0  0  0  0  0  0  0  0999 V2000
  170.7417  143.9958  120.7479 C   0  0  2  0  0  0  0  0  0  0  0  0
  170.5014  142.6977  120.1255 C   0  0  0  0  0  0  0  0  0  0  0  0
  170.7315  142.5421  118.6526 C   0  0  0  0  0  0  0  0  0  0  0  0
  169.7406  142.2663  117.7352 C   0  0  0  0  0  0  0  0  0  0  0  0
  170.0420  142.1252  116.3570 C   0  0  0  0  0  0  0  0  0  0  0  0
  171.2953  142.2467  115.8385 C   0  0  0  0  0  0  0  0  0  0  0  0
  171.7123  142.1342  114.5339 O   0  0  0  0  0  0  0  0  0  0  0  0
  171.4911  141.7665  113.2913 C   0  0  0  0  0  0  0  0  0  0  0  0
  170.6513  142.5476  112.4665 C   0  0  0  0  0  0  0  0  0  0  0  0
  170.4423  142.1220  111.1708 C   0  0  0  0  0  0  0  0  0  0  0  0
  169.4843  143.0064  110.3957 C   0  0  0  0  0  0  0  0  0  0  0  0
  168.3587  143.2258  111.3817 C   0  0  0  0  0  0  0  0  0  0  0  0
  168.6960  143.9659  112.5598 N   0  0  0  0  0  4  0  0  0  0  0  0
  167.7674  143.4364  113.5895 C   0  0  0  0  0  0  0  0  0  0  0  0
  168.2362  145.3236  112.2890 C   0  0  0  0  0  0  0  0  0  0  0  0
  170.0251  143.8304  112.9235 C   0  0  2  0  0  0  0  0  0  0  0  0
  170.9836  144.9814  112.7543 C   0  0  0  0  0  0  0  0  0  0  0  0
  170.8815  146.1088  113.7225 C   0  0  0  0  0  0  0  0  0  0  0  0
  170.9835  146.1258  115.0931 C   0  0  0  0  0  0  0  0  0  0  0  0
  170.8212  147.3309  115.7581 C   0  0  0  0  0  0  0  0  0  0  0  0
  170.8713  147.5977  117.1142 O   0  0  0  0  0  0  0  0  0  0  0  0
  170.9486  146.9863  118.3509 C   0  0  0  0  0  0  0  0  0  0  0  0
  171.3465  147.9283  119.3380 C   0  0  0  0  0  0  0  0  0  0  0  0
  171.5984  149.2612  119.0357 O   0  0  0  0  0  0  0  0  0  0  0  0
  171.6666  149.6947  117.7103 C   0  0  0  0  0  0  0  0  0  0  0  0
  171.5018  147.5723  120.6364 C   0  0  0  0  0  0  0  0  0  0  0  0
  171.2649  146.2624  120.9845 C   0  0  0  0  0  0  0  0  0  0  0  0
  171.4648  145.9661  122.4222 C   0  0  0  0  0  0  0  0  0  0  0  0
  170.7334  144.7909  122.8983 C   0  0  0  0  0  0  0  0  0  0  0  0
  169.8564  144.3147  121.8546 N   0  0  0  0  0  0  0  0  0  0  0  0
  169.0572  143.2942  122.3913 C   0  0  0  0  0  0  0  0  0  0  0  0
  170.8614  145.2802  120.0165 C   0  0  0  0  0  0  0  0  0  0  0  0
  170.7057  145.6587  118.7098 C   0  0  0  0  0  0  0  0  0  0  0  0
  170.5598  148.5059  115.0117 C   0  0  0  0  0  0  0  0  0  0  0  0
  170.3882  149.7634  115.6496 O   0  0  0  0  0  0  0  0  0  0  0  0
  170.4553  148.5272  113.6572 C   0  0  0  0  0  0  0  0  0  0  0  0
  170.6178  147.3226  113.0311 C   0  0  0  0  0  0  0  0  0  0  0  0
  171.0069  140.9964  110.6598 C   0  0  0  0  0  0  0  0  0  0  0  0
  171.8418  140.1963  111.4307 C   0  0  0  0  0  0  0  0  0  0  0  0
  172.4274  139.0603  110.9586 O   0  0  0  0  0  0  0  0  0  0  0  0
  172.6342  138.9138  109.5692 C   0  0  0  0  0  0  0  0  0  0  0  0
  172.0500  140.6172  112.7205 C   0  0  0  0  0  0  0  0  0  0  0  0
  172.9097  139.7720  113.4667 O   0  0  0  0  0  0  0  0  0  0  0  0
  172.2976  142.5225  116.7461 C   0  0  0  0  0  0  0  0  0  0  0  0
  172.0019  142.6630  118.1178 C   0  0  0  0  0  0  0  0  0  0  0  0
  1  2  1  0
  2  3  1  0
  3  4  2  0
  4  5  1  0
  5  6  2  0
  6  7  1  0
  7  8  1  0
  8  9  2  0
  9 10  1  0
 10 11  1  0
 11 12  1  0
 12 13  1  0
 13 14  1  0
 13 15  1  0
 16 13  1  6
 16 17  1  0
 17 18  1  0
 18 19  2  0
 19 20  1  0
 20 21  1  0
 21 22  1  0
 22 23  2  0
 23 24  1  0
 24 25  1  0
 23 26  1  0
 26 27  2  0
 27 28  1  0
 28 29  1  0
 29 30  1  0
 30 31  1  0
 27 32  1  0
 32 33  2  0
 20 34  2  0
 34 35  1  0
 34 36  1  0
 36 37  2  0
 10 38  2  0
 38 39  1  0
 39 40  1  0
 40 41  1  0
 39 42  2  0
 42 43  1  0
  6 44  1  0
 44 45  2  0
  1 30  1  1
 32  1  1  0
 45  3  1  0
 42  8  1  0
 16  9  1  0
 37 18  1  0
 33 22  1  0
M  CHG  1  13   1
M  END
$$$$
