
     RDKit          3D

 45 51  0  0  0  0  0  0  0  0999 V2000
  119.9502  143.6287  144.9553 C   0  0  2  0  0  0  0  0  0  0  0  0
  119.7268  143.5775  143.5139 C   0  0  0  0  0  0  0  0  0  0  0  0
  120.3859  144.5992  142.6375 C   0  0  0  0  0  0  0  0  0  0  0  0
  119.7076  145.5450  141.8994 C   0  0  0  0  0  0  0  0  0  0  0  0
  120.4057  146.4732  141.0862 C   0  0  0  0  0  0  0  0  0  0  0  0
  121.7619  146.5090  140.9691 C   0  0  0  0  0  0  0  0  0  0  0  0
  122.5492  147.3519  140.2219 O   0  0  0  0  0  0  0  0  0  0  0  0
  122.6808  148.2438  139.2651 C   0  0  0  0  0  0  0  0  0  0  0  0
  122.2741  149.5782  139.4880 C   0  0  0  0  0  0  0  0  0  0  0  0
  122.4252  150.4801  138.4549 C   0  0  0  0  0  0  0  0  0  0  0  0
  121.9077  151.8664  138.7879 C   0  0  0  0  0  0  0  0  0  0  0  0
  120.5742  151.5784  139.4406 C   0  0  0  0  0  0  0  0  0  0  0  0
  120.6279  150.8790  140.6886 N   0  0  0  0  0  4  0  0  0  0  0  0
  119.3519  150.1218  140.7264 C   0  0  0  0  0  0  0  0  0  0  0  0
  120.4883  151.9186  141.7024 C   0  0  0  0  0  0  0  0  0  0  0  0
  121.7365  150.0572  140.8025 C   0  0  2  0  0  0  0  0  0  0  0  0
  122.8613  150.4188  141.7386 C   0  0  0  0  0  0  0  0  0  0  0  0
  122.6288  150.2300  143.1977 C   0  0  0  0  0  0  0  0  0  0  0  0
  122.2921  149.1063  143.9140 C   0  0  0  0  0  0  0  0  0  0  0  0
  122.1111  149.2189  145.2836 C   0  0  0  0  0  0  0  0  0  0  0  0
  121.7681  148.2468  146.2055 O   0  0  0  0  0  0  0  0  0  0  0  0
  121.3558  146.9323  146.3124 C   0  0  0  0  0  0  0  0  0  0  0  0
  121.5574  146.4631  147.6388 C   0  0  0  0  0  0  0  0  0  0  0  0
  122.0904  147.2670  148.6394 O   0  0  0  0  0  0  0  0  0  0  0  0
  121.2667  147.8543  149.6015 C   0  0  0  0  0  0  0  0  0  0  0  0
  121.2372  145.1966  147.9994 C   0  0  0  0  0  0  0  0  0  0  0  0
  120.7072  144.3620  147.0425 C   0  0  0  0  0  0  0  0  0  0  0  0
  120.3936  142.9977  147.5269 C   0  0  0  0  0  0  0  0  0  0  0  0
  119.3803  142.2994  146.7341 C   0  0  0  0  0  0  0  0  0  0  0  0
  118.8184  143.2086  145.7632 N   0  0  0  0  0  0  0  0  0  0  0  0
  117.7458  142.5610  145.1320 C   0  0  0  0  0  0  0  0  0  0  0  0
  120.4882  144.7984  145.6911 C   0  0  0  0  0  0  0  0  0  0  0  0
  120.8141  146.0826  145.3455 C   0  0  0  0  0  0  0  0  0  0  0  0
  122.2805  150.4805  145.9047 C   0  0  0  0  0  0  0  0  0  0  0  0
  122.1074  150.6435  147.3051 O   0  0  0  0  0  0  0  0  0  0  0  0
  122.6155  151.6108  145.2295 C   0  0  0  0  0  0  0  0  0  0  0  0
  122.7845  151.4673  143.8802 C   0  0  0  0  0  0  0  0  0  0  0  0
  122.9460  150.1423  137.2459 C   0  0  0  0  0  0  0  0  0  0  0  0
  123.3624  148.8436  136.9791 C   0  0  0  0  0  0  0  0  0  0  0  0
  123.8889  148.4624  135.7817 O   0  0  0  0  0  0  0  0  0  0  0  0
  123.9406  149.3926  134.7203 C   0  0  0  0  0  0  0  0  0  0  0  0
  123.2116  147.9444  138.0051 C   0  0  0  0  0  0  0  0  0  0  0  0
  123.6522  146.6346  137.6878 O   0  0  0  0  0  0  0  0  0  0  0  0
  122.4540  145.5670  141.7026 C   0  0  0  0  0  0  0  0  0  0  0  0
  121.7632  144.6418  142.5122 C   0  0  0  0  0  0  0  0  0  0  0  0
  1  2  1  0
  2  3  1  0
  3  4  2  0
  4  5  1  0
  5  6  2  0
  6  7  1  0
  7  8  1  0
  8  9  2  0
  9 10  1  0
 10 11  1  0
 11 12  1  0
 12 13  1  0
 13 14  1  0
 13 15  1  0
 16 13  1  6
 16 17  1  0
 17 18  1  0
 18 19  2  0
 19 20  1  0
 20 21  1  0
 21 22  1  0
 22 23  2  0
 23 24  1  0
 24 25  1  0
 23 26  1  0
 26 27  2  0
 27 28  1  0
 28 29  1  0
 29 30  1  0
 30 31  1  0
 27 32  1  0
 32 33  2  0
 20 34  2  0
 34 35  1  0
 34 36  1  0
 36 37  2  0
 10 38  2  0
 38 39  1  0
 39 40  1  0
 40 41  1  0
 39 42  2  0
 42 43  1  0
  6 44  1  0
 44 45  2  0
  1 30  1  1
 32  1  1  0
 45  3  1  0
 42  8  1  0
 16  9  1  0
 37 18  1  0
 33 22  1  0
M  CHG  1  13   1
M  END
$$$$
