
     RDKit          3D

 45 51  0  0  0  0  0  0  0  0999 V2000
  189.0087  179.2883  150.1894 C   0  0  2  0  0  0  0  0  0  0  0  0
  190.2847  179.4208  150.8856 C   0  0  0  0  0  0  0  0  0  0  0  0
  191.3869  178.4530  150.5774 C   0  0  0  0  0  0  0  0  0  0  0  0
  191.9030  177.5483  151.4801 C   0  0  0  0  0  0  0  0  0  0  0  0
  192.9539  176.6705  151.1124 C   0  0  0  0  0  0  0  0  0  0  0  0
  193.5242  176.6463  149.8761 C   0  0  0  0  0  0  0  0  0  0  0  0
  194.5385  175.8502  149.4009 O   0  0  0  0  0  0  0  0  0  0  0  0
  195.5309  175.0147  149.6143 C   0  0  0  0  0  0  0  0  0  0  0  0
  195.2572  173.6684  149.9430 C   0  0  0  0  0  0  0  0  0  0  0  0
  196.3284  172.8273  150.1640 C   0  0  0  0  0  0  0  0  0  0  0  0
  195.9166  171.4224  150.5607 C   0  0  0  0  0  0  0  0  0  0  0  0
  194.8368  171.6681  151.5908 C   0  0  0  0  0  0  0  0  0  0  0  0
  193.6441  172.2953  151.1076 N   0  0  0  0  0  4  0  0  0  0  0  0
  193.1358  173.0446  152.2837 C   0  0  0  0  0  0  0  0  0  0  0  0
  192.7014  171.1992  150.9133 C   0  0  0  0  0  0  0  0  0  0  0  0
  193.8667  173.1133  150.0128 C   0  0  2  0  0  0  0  0  0  0  0  0
  193.3872  172.7029  148.6439 C   0  0  0  0  0  0  0  0  0  0  0  0
  191.9274  172.8074  148.3670 C   0  0  0  0  0  0  0  0  0  0  0  0
  191.0789  173.8873  148.4242 C   0  0  0  0  0  0  0  0  0  0  0  0
  189.7372  173.6962  148.1340 C   0  0  0  0  0  0  0  0  0  0  0  0
  188.7017  174.6129  148.1300 O   0  0  0  0  0  0  0  0  0  0  0  0
  188.3898  175.9177  148.4610 C   0  0  0  0  0  0  0  0  0  0  0  0
  187.1860  176.3113  147.8160 C   0  0  0  0  0  0  0  0  0  0  0  0
  186.4701  175.4536  146.9893 O   0  0  0  0  0  0  0  0  0  0  0  0
  185.5078  174.5894  147.5148 C   0  0  0  0  0  0  0  0  0  0  0  0
  186.6695  177.5541  147.9754 C   0  0  0  0  0  0  0  0  0  0  0  0
  187.3437  178.4399  148.7840 C   0  0  0  0  0  0  0  0  0  0  0  0
  186.7078  179.7733  148.8939 C   0  0  0  0  0  0  0  0  0  0  0  0
  187.0719  180.5120  150.1041 C   0  0  0  0  0  0  0  0  0  0  0  0
  187.8440  179.6576  150.9752 N   0  0  0  0  0  0  0  0  0  0  0  0
  188.0391  180.3363  152.1875 C   0  0  0  0  0  0  0  0  0  0  0  0
  188.5634  178.0805  149.4534 C   0  0  0  0  0  0  0  0  0  0  0  0
  189.0686  176.8192  149.2837 C   0  0  0  0  0  0  0  0  0  0  0  0
  189.2800  172.4019  147.7849 C   0  0  0  0  0  0  0  0  0  0  0  0
  187.9147  172.1586  147.4776 O   0  0  0  0  0  0  0  0  0  0  0  0
  190.0896  171.3130  147.7155 C   0  0  0  0  0  0  0  0  0  0  0  0
  191.4066  171.5338  148.0098 C   0  0  0  0  0  0  0  0  0  0  0  0
  197.6218  173.2353  150.0766 C   0  0  0  0  0  0  0  0  0  0  0  0
  197.9420  174.5486  149.7542 C   0  0  0  0  0  0  0  0  0  0  0  0
  199.2240  174.9993  149.6569 O   0  0  0  0  0  0  0  0  0  0  0  0
  200.2446  174.1052  149.2648 C   0  0  0  0  0  0  0  0  0  0  0  0
  196.8777  175.3873  149.5353 C   0  0  0  0  0  0  0  0  0  0  0  0
  197.2530  176.7147  149.2070 O   0  0  0  0  0  0  0  0  0  0  0  0
  193.0173  177.5474  148.9621 C   0  0  0  0  0  0  0  0  0  0  0  0
  191.9725  178.4226  149.3242 C   0  0  0  0  0  0  0  0  0  0  0  0
  1  2  1  0
  2  3  1  0
  3  4  2  0
  4  5  1  0
  5  6  2  0
  6  7  1  0
  7  8  1  0
  8  9  2  0
  9 10  1  0
 10 11  1  0
 11 12  1  0
 12 13  1  0
 13 14  1  0
 13 15  1  0
 16 13  1  1
 16 17  1  0
 17 18  1  0
 18 19  2  0
 19 20  1  0
 20 21  1  0
 21 22  1  0
 22 23  2  0
 23 24  1  0
 24 25  1  0
 23 26  1  0
 26 27  2  0
 27 28  1  0
 28 29  1  0
 29 30  1  0
 30 31  1  0
 27 32  1  0
 32 33  2  0
 20 34  2  0
 34 35  1  0
 34 36  1  0
 36 37  2  0
 10 38  2  0
 38 39  1  0
 39 40  1  0
 40 41  1  0
 39 42  2  0
 42 43  1  0
  6 44  1  0
 44 45  2  0
  1 30  1  1
 32  1  1  0
 45  3  1  0
 42  8  1  0
 16  9  1  0
 37 18  1  0
 33 22  1  0
M  CHG  1  13   1
M  END
$$$$
