
     RDKit          3D

 45 51  0  0  0  0  0  0  0  0999 V2000
  194.1891  171.2411  129.5450 C   0  0  2  0  0  0  0  0  0  0  0  0
  194.4430  170.3802  130.6960 C   0  0  0  0  0  0  0  0  0  0  0  0
  194.2137  168.9046  130.5669 C   0  0  0  0  0  0  0  0  0  0  0  0
  193.2564  168.2019  131.2665 C   0  0  0  0  0  0  0  0  0  0  0  0
  193.1082  166.8025  131.0940 C   0  0  0  0  0  0  0  0  0  0  0  0
  193.8735  166.0572  130.2494 C   0  0  0  0  0  0  0  0  0  0  0  0
  193.8276  164.7075  129.9953 O   0  0  0  0  0  0  0  0  0  0  0  0
  193.4219  163.4981  130.3132 C   0  0  0  0  0  0  0  0  0  0  0  0
  192.0844  163.1178  130.0642 C   0  0  0  0  0  0  0  0  0  0  0  0
  191.6998  161.8409  130.4183 C   0  0  0  0  0  0  0  0  0  0  0  0
  190.2326  161.5611  130.1543 C   0  0  0  0  0  0  0  0  0  0  0  0
  189.5535  162.8028  130.6873 C   0  0  0  0  0  0  0  0  0  0  0  0
  189.8429  164.0201  129.9917 N   0  0  0  0  0  4  0  0  0  0  0  0
  189.7122  165.0658  131.0369 C   0  0  0  0  0  0  0  0  0  0  0  0
  188.7030  164.2196  129.1035 C   0  0  0  0  0  0  0  0  0  0  0  0
  191.0921  164.0197  129.3945 C   0  0  2  0  0  0  0  0  0  0  0  0
  191.2210  163.9339  127.8951 C   0  0  0  0  0  0  0  0  0  0  0  0
  190.8952  165.1547  127.1063 C   0  0  0  0  0  0  0  0  0  0  0  0
  191.4249  166.4221  127.1557 C   0  0  0  0  0  0  0  0  0  0  0  0
  190.9110  167.3922  126.3097 C   0  0  0  0  0  0  0  0  0  0  0  0
  191.2688  168.7218  126.1805 O   0  0  0  0  0  0  0  0  0  0  0  0
  192.0504  169.7084  126.7507 C   0  0  0  0  0  0  0  0  0  0  0  0
  192.2229  170.7841  125.8379 C   0  0  0  0  0  0  0  0  0  0  0  0
  191.6524  170.7831  124.5706 O   0  0  0  0  0  0  0  0  0  0  0  0
  190.9133  171.8771  124.1167 C   0  0  0  0  0  0  0  0  0  0  0  0
  192.9587  171.8758  126.1591 C   0  0  0  0  0  0  0  0  0  0  0  0
  193.5449  171.9223  127.4030 C   0  0  0  0  0  0  0  0  0  0  0  0
  194.3327  173.1497  127.6624 C   0  0  0  0  0  0  0  0  0  0  0  0
  194.4994  173.4650  129.0821 C   0  0  0  0  0  0  0  0  0  0  0  0
  193.6917  172.5661  129.8725 N   0  0  0  0  0  0  0  0  0  0  0  0
  193.7468  172.9934  131.2077 C   0  0  0  0  0  0  0  0  0  0  0  0
  193.3945  170.8555  128.3539 C   0  0  0  0  0  0  0  0  0  0  0  0
  192.6443  169.7617  128.0135 C   0  0  0  0  0  0  0  0  0  0  0  0
  189.8626  167.0526  125.4200 C   0  0  0  0  0  0  0  0  0  0  0  0
  189.3059  168.0128  124.5335 O   0  0  0  0  0  0  0  0  0  0  0  0
  189.3169  165.8108  125.3417 C   0  0  0  0  0  0  0  0  0  0  0  0
  189.8437  164.8773  126.1906 C   0  0  0  0  0  0  0  0  0  0  0  0
  192.5459  160.9428  130.9879 C   0  0  0  0  0  0  0  0  0  0  0  0
  193.8711  161.2687  131.2505 C   0  0  0  0  0  0  0  0  0  0  0  0
  194.7521  160.3996  131.8203 O   0  0  0  0  0  0  0  0  0  0  0  0
  195.2636  159.3297  131.0534 C   0  0  0  0  0  0  0  0  0  0  0  0
  194.2554  162.5391  130.9001 C   0  0  0  0  0  0  0  0  0  0  0  0
  195.6149  162.8246  131.1841 O   0  0  0  0  0  0  0  0  0  0  0  0
  194.8365  166.7481  129.5427 C   0  0  0  0  0  0  0  0  0  0  0  0
  194.9874  168.1400  129.7119 C   0  0  0  0  0  0  0  0  0  0  0  0
  1  2  1  0
  2  3  1  0
  3  4  2  0
  4  5  1  0
  5  6  2  0
  6  7  1  0
  7  8  1  0
  8  9  2  0
  9 10  1  0
 10 11  1  0
 11 12  1  0
 12 13  1  0
 13 14  1  0
 13 15  1  0
 16 13  1  6
 16 17  1  0
 17 18  1  0
 18 19  2  0
 19 20  1  0
 20 21  1  0
 21 22  1  0
 22 23  2  0
 23 24  1  0
 24 25  1  0
 23 26  1  0
 26 27  2  0
 27 28  1  0
 28 29  1  0
 29 30  1  0
 30 31  1  0
 27 32  1  0
 32 33  2  0
 20 34  2  0
 34 35  1  0
 34 36  1  0
 36 37  2  0
 10 38  2  0
 38 39  1  0
 39 40  1  0
 40 41  1  0
 39 42  2  0
 42 43  1  0
  6 44  1  0
 44 45  2  0
  1 30  1  1
 32  1  1  0
 45  3  1  0
 42  8  1  0
 16  9  1  0
 37 18  1  0
 33 22  1  0
M  CHG  1  13   1
M  END
$$$$
