
     RDKit          3D

 45 51  0  0  0  0  0  0  0  0999 V2000
  167.3139  152.5090  109.0620 C   0  0  2  0  0  0  0  0  0  0  0  0
  167.4241  151.9586  107.7146 C   0  0  0  0  0  0  0  0  0  0  0  0
  167.7238  152.8819  106.5726 C   0  0  0  0  0  0  0  0  0  0  0  0
  166.8581  153.1377  105.5311 C   0  0  0  0  0  0  0  0  0  0  0  0
  167.2207  154.0194  104.4817 C   0  0  0  0  0  0  0  0  0  0  0  0
  168.4160  154.6683  104.4154 C   0  0  0  0  0  0  0  0  0  0  0  0
  168.8813  155.5403  103.4605 O   0  0  0  0  0  0  0  0  0  0  0  0
  168.7919  156.0797  102.2650 C   0  0  0  0  0  0  0  0  0  0  0  0
  167.8041  157.0561  102.0071 C   0  0  0  0  0  0  0  0  0  0  0  0
  167.7423  157.5921  100.7373 C   0  0  0  0  0  0  0  0  0  0  0  0
  166.6130  158.5891  100.5608 C   0  0  0  0  0  0  0  0  0  0  0  0
  165.4434  157.8899  101.2169 C   0  0  0  0  0  0  0  0  0  0  0  0
  165.5531  157.6807  102.6289 N   0  0  0  0  0  4  0  0  0  0  0  0
  164.7614  156.4481  102.8676 C   0  0  0  0  0  0  0  0  0  0  0  0
  164.7737  158.7599  103.2253 C   0  0  0  0  0  0  0  0  0  0  0  0
  166.8638  157.5614  103.0593 C   0  0  2  0  0  0  0  0  0  0  0  0
  167.5059  158.6627  103.8637 C   0  0  0  0  0  0  0  0  0  0  0  0
  167.0985  158.7992  105.2899 C   0  0  0  0  0  0  0  0  0  0  0  0
  167.1576  157.9016  106.3292 C   0  0  0  0  0  0  0  0  0  0  0  0
  166.6802  158.2886  107.5715 C   0  0  0  0  0  0  0  0  0  0  0  0
  166.6267  157.5713  108.7526 O   0  0  0  0  0  0  0  0  0  0  0  0
  166.8234  156.3094  109.2801 C   0  0  0  0  0  0  0  0  0  0  0  0
  166.9459  156.3843  110.6942 C   0  0  0  0  0  0  0  0  0  0  0  0
  166.8621  157.5871  111.3855 O   0  0  0  0  0  0  0  0  0  0  0  0
  166.0894  158.6421  110.8967 C   0  0  0  0  0  0  0  0  0  0  0  0
  167.1523  155.2771  111.4479 C   0  0  0  0  0  0  0  0  0  0  0  0
  167.2437  154.0624  110.8081 C   0  0  0  0  0  0  0  0  0  0  0  0
  167.4747  152.9113  111.7115 C   0  0  0  0  0  0  0  0  0  0  0  0
  167.0504  151.6234  111.1602 C   0  0  0  0  0  0  0  0  0  0  0  0
  166.3486  151.8400  109.9170 N   0  0  0  0  0  0  0  0  0  0  0  0
  165.8183  150.6106  109.4979 C   0  0  0  0  0  0  0  0  0  0  0  0
  167.1254  153.9448  109.3809 C   0  0  0  0  0  0  0  0  0  0  0  0
  166.9132  155.0737  108.6357 C   0  0  0  0  0  0  0  0  0  0  0  0
  166.1509  159.5919  107.7364 C   0  0  0  0  0  0  0  0  0  0  0  0
  165.6522  160.0334  108.9910 O   0  0  0  0  0  0  0  0  0  0  0  0
  166.0793  160.5057  106.7335 C   0  0  0  0  0  0  0  0  0  0  0  0
  166.5558  160.0928  105.5202 C   0  0  0  0  0  0  0  0  0  0  0  0
  168.5850  157.2256   99.7359 C   0  0  0  0  0  0  0  0  0  0  0  0
  169.5742  156.2712   99.9408 C   0  0  0  0  0  0  0  0  0  0  0  0
  170.4387  155.8745   98.9654 O   0  0  0  0  0  0  0  0  0  0  0  0
  171.8122  155.7456   99.2679 C   0  0  0  0  0  0  0  0  0  0  0  0
  169.6365  155.7358  101.2032 C   0  0  0  0  0  0  0  0  0  0  0  0
  170.6617  154.7698  101.3654 O   0  0  0  0  0  0  0  0  0  0  0  0
  169.2929  154.4211  105.4518 C   0  0  0  0  0  0  0  0  0  0  0  0
  168.9362  153.5443  106.4972 C   0  0  0  0  0  0  0  0  0  0  0  0
  1  2  1  0
  2  3  1  0
  3  4  2  0
  4  5  1  0
  5  6  2  0
  6  7  1  0
  7  8  1  0
  8  9  2  0
  9 10  1  0
 10 11  1  0
 11 12  1  0
 12 13  1  0
 13 14  1  0
 13 15  1  0
 16 13  1  6
 16 17  1  0
 17 18  1  0
 18 19  2  0
 19 20  1  0
 20 21  1  0
 21 22  1  0
 22 23  2  0
 23 24  1  0
 24 25  1  0
 23 26  1  0
 26 27  2  0
 27 28  1  0
 28 29  1  0
 29 30  1  0
 30 31  1  0
 27 32  1  0
 32 33  2  0
 20 34  2  0
 34 35  1  0
 34 36  1  0
 36 37  2  0
 10 38  2  0
 38 39  1  0
 39 40  1  0
 40 41  1  0
 39 42  2  0
 42 43  1  0
  6 44  1  0
 44 45  2  0
  1 30  1  6
 32  1  1  0
 45  3  1  0
 42  8  1  0
 16  9  1  0
 37 18  1  0
 33 22  1  0
M  CHG  1  13   1
M  END
$$$$
