
     RDKit          3D

 45 51  0  0  0  0  0  0  0  0999 V2000
  169.6842  159.9030  111.3919 C   0  0  2  0  0  0  0  0  0  0  0  0
  170.8656  159.2596  110.8254 C   0  0  0  0  0  0  0  0  0  0  0  0
  172.1392  160.0420  110.7154 C   0  0  0  0  0  0  0  0  0  0  0  0
  172.7419  160.3838  109.5240 C   0  0  0  0  0  0  0  0  0  0  0  0
  173.9536  161.1198  109.5049 C   0  0  0  0  0  0  0  0  0  0  0  0
  174.6040  161.5390  110.6254 C   0  0  0  0  0  0  0  0  0  0  0  0
  175.7729  162.2529  110.7377 O   0  0  0  0  0  0  0  0  0  0  0  0
  176.8792  162.7247  110.2068 C   0  0  0  0  0  0  0  0  0  0  0  0
  176.8237  163.8443  109.3472 C   0  0  0  0  0  0  0  0  0  0  0  0
  178.0079  164.3032  108.8078 C   0  0  0  0  0  0  0  0  0  0  0  0
  177.8224  165.4734  107.8607 C   0  0  0  0  0  0  0  0  0  0  0  0
  176.6473  165.0367  107.0148 C   0  0  0  0  0  0  0  0  0  0  0  0
  175.3995  164.8988  107.7030 N   0  0  0  0  0  4  0  0  0  0  0  0
  174.6870  163.8450  106.9383 C   0  0  0  0  0  0  0  0  0  0  0  0
  174.6796  166.1349  107.4167 C   0  0  0  0  0  0  0  0  0  0  0  0
  175.5508  164.5738  109.0404 C   0  0  2  0  0  0  0  0  0  0  0  0
  175.2472  165.5899  110.1116 C   0  0  0  0  0  0  0  0  0  0  0  0
  173.8146  165.8849  110.3930 C   0  0  0  0  0  0  0  0  0  0  0  0
  172.7879  165.0572  110.7803 C   0  0  0  0  0  0  0  0  0  0  0  0
  171.5240  165.5994  110.9524 C   0  0  0  0  0  0  0  0  0  0  0  0
  170.3466  164.9776  111.3260 O   0  0  0  0  0  0  0  0  0  0  0  0
  169.7883  163.7359  111.5624 C   0  0  0  0  0  0  0  0  0  0  0  0
  168.5820  163.8749  112.3011 C   0  0  0  0  0  0  0  0  0  0  0  0
  168.0870  165.1136  112.6912 O   0  0  0  0  0  0  0  0  0  0  0  0
  167.6515  166.0418  111.7438 C   0  0  0  0  0  0  0  0  0  0  0  0
  167.8456  162.7973  112.6659 C   0  0  0  0  0  0  0  0  0  0  0  0
  168.2959  161.5487  112.3036 C   0  0  0  0  0  0  0  0  0  0  0  0
  167.4298  160.4329  112.7500 C   0  0  0  0  0  0  0  0  0  0  0  0
  167.5734  159.2102  111.9582 C   0  0  0  0  0  0  0  0  0  0  0  0
  168.4210  159.4717  110.8188 N   0  0  0  0  0  0  0  0  0  0  0  0
  168.4091  158.3335  109.9986 C   0  0  0  0  0  0  0  0  0  0  0  0
  169.5101  161.3663  111.5571 C   0  0  0  0  0  0  0  0  0  0  0  0
  170.2394  162.4667  111.1937 C   0  0  0  0  0  0  0  0  0  0  0  0
  171.3265  166.9841  110.7295 C   0  0  0  0  0  0  0  0  0  0  0  0
  170.0498  167.5843  110.8954 O   0  0  0  0  0  0  0  0  0  0  0  0
  172.3175  167.8322  110.3492 C   0  0  0  0  0  0  0  0  0  0  0  0
  173.5515  167.2665  110.1854 C   0  0  0  0  0  0  0  0  0  0  0  0
  179.2126  163.7307  109.0686 C   0  0  0  0  0  0  0  0  0  0  0  0
  179.3190  162.6292  109.9093 C   0  0  0  0  0  0  0  0  0  0  0  0
  180.5056  162.0247  110.1969 O   0  0  0  0  0  0  0  0  0  0  0  0
  181.7096  162.7395  110.0118 C   0  0  0  0  0  0  0  0  0  0  0  0
  178.1418  162.1703  110.4459 C   0  0  0  0  0  0  0  0  0  0  0  0
  178.3003  161.0483  111.2982 O   0  0  0  0  0  0  0  0  0  0  0  0
  174.0117  161.2033  111.8257 C   0  0  0  0  0  0  0  0  0  0  0  0
  172.8069  160.4708  111.8489 C   0  0  0  0  0  0  0  0  0  0  0  0
  1  2  1  0
  2  3  1  0
  3  4  2  0
  4  5  1  0
  5  6  2  0
  6  7  1  0
  7  8  1  0
  8  9  2  0
  9 10  1  0
 10 11  1  0
 11 12  1  0
 12 13  1  0
 13 14  1  0
 13 15  1  0
 16 13  1  6
 16 17  1  0
 17 18  1  0
 18 19  2  0
 19 20  1  0
 20 21  1  0
 21 22  1  0
 22 23  2  0
 23 24  1  0
 24 25  1  0
 23 26  1  0
 26 27  2  0
 27 28  1  0
 28 29  1  0
 29 30  1  0
 30 31  1  0
 27 32  1  0
 32 33  2  0
 20 34  2  0
 34 35  1  0
 34 36  1  0
 36 37  2  0
 10 38  2  0
 38 39  1  0
 39 40  1  0
 40 41  1  0
 39 42  2  0
 42 43  1  0
  6 44  1  0
 44 45  2  0
  1 30  1  6
 32  1  1  0
 45  3  1  0
 42  8  1  0
 16  9  1  0
 37 18  1  0
 33 22  1  0
M  CHG  1  13   1
M  END
$$$$
