
     RDKit          3D

 45 51  0  0  0  0  0  0  0  0999 V2000
  184.0936  162.5124  139.7605 C   0  0  2  0  0  0  0  0  0  0  0  0
  182.7442  162.9216  140.1374 C   0  0  0  0  0  0  0  0  0  0  0  0
  181.5720  162.1870  139.5604 C   0  0  0  0  0  0  0  0  0  0  0  0
  180.6412  162.7497  138.7139 C   0  0  0  0  0  0  0  0  0  0  0  0
  179.5536  161.9880  138.2168 C   0  0  0  0  0  0  0  0  0  0  0  0
  179.3426  160.6780  138.5227 C   0  0  0  0  0  0  0  0  0  0  0  0
  178.3366  159.8384  138.1085 O   0  0  0  0  0  0  0  0  0  0  0  0
  177.1590  159.6526  137.5543 C   0  0  0  0  0  0  0  0  0  0  0  0
  177.0189  159.7523  136.1522 C   0  0  0  0  0  0  0  0  0  0  0  0
  175.7643  159.5551  135.6132 C   0  0  0  0  0  0  0  0  0  0  0  0
  175.7220  159.7382  134.1081 C   0  0  0  0  0  0  0  0  0  0  0  0
  176.5155  161.0092  133.9028 C   0  0  0  0  0  0  0  0  0  0  0  0
  177.9046  160.9396  134.2418 N   0  0  0  0  0  4  0  0  0  0  0  0
  178.2398  162.3263  134.6515 C   0  0  0  0  0  0  0  0  0  0  0  0
  178.5874  160.7391  132.9684 C   0  0  0  0  0  0  0  0  0  0  0  0
  178.1750  160.0128  135.2344 C   0  0  2  0  0  0  0  0  0  0  0  0
  178.8936  158.7295  134.9048 C   0  0  0  0  0  0  0  0  0  0  0  0
  180.3581  158.8092  134.6444 C   0  0  0  0  0  0  0  0  0  0  0  0
  181.3851  159.2711  135.4325 C   0  0  0  0  0  0  0  0  0  0  0  0
  182.6747  159.2517  134.9250 C   0  0  0  0  0  0  0  0  0  0  0  0
  183.8556  159.6634  135.5153 O   0  0  0  0  0  0  0  0  0  0  0  0
  184.3590  160.3138  136.6257 C   0  0  0  0  0  0  0  0  0  0  0  0
  185.7480  160.0447  136.7620 C   0  0  0  0  0  0  0  0  0  0  0  0
  186.4412  159.2396  135.8660 O   0  0  0  0  0  0  0  0  0  0  0  0
  186.3901  159.4868  134.4929 C   0  0  0  0  0  0  0  0  0  0  0  0
  186.4743  160.5641  137.7814 C   0  0  0  0  0  0  0  0  0  0  0  0
  185.8314  161.3668  138.6953 C   0  0  0  0  0  0  0  0  0  0  0  0
  186.7036  161.8838  139.7754 C   0  0  0  0  0  0  0  0  0  0  0  0
  186.2105  163.1081  140.4083 C   0  0  0  0  0  0  0  0  0  0  0  0
  185.0599  163.5943  139.6840 N   0  0  0  0  0  0  0  0  0  0  0  0
  184.7107  164.8458  140.2134 C   0  0  0  0  0  0  0  0  0  0  0  0
  184.4290  161.6626  138.5925 C   0  0  0  0  0  0  0  0  0  0  0  0
  183.7116  161.1322  137.5538 C   0  0  0  0  0  0  0  0  0  0  0  0
  182.8985  158.7561  133.6172 C   0  0  0  0  0  0  0  0  0  0  0  0
  184.2027  158.7149  133.0560 O   0  0  0  0  0  0  0  0  0  0  0  0
  181.9090  158.2892  132.8116 C   0  0  0  0  0  0  0  0  0  0  0  0
  180.6484  158.3240  133.3401 C   0  0  0  0  0  0  0  0  0  0  0  0
  174.6700  159.2692  136.3668 C   0  0  0  0  0  0  0  0  0  0  0  0
  174.7573  159.1585  137.7494 C   0  0  0  0  0  0  0  0  0  0  0  0
  173.6862  158.8744  138.5420 O   0  0  0  0  0  0  0  0  0  0  0  0
  172.7311  157.9309  138.1035 C   0  0  0  0  0  0  0  0  0  0  0  0
  176.0045  159.3557  138.2878 C   0  0  0  0  0  0  0  0  0  0  0  0
  176.0450  159.2301  139.6995 O   0  0  0  0  0  0  0  0  0  0  0  0
  180.2670  160.1017  139.3699 C   0  0  0  0  0  0  0  0  0  0  0  0
  181.3499  160.8561  139.8669 C   0  0  0  0  0  0  0  0  0  0  0  0
  1  2  1  0
  2  3  1  0
  3  4  2  0
  4  5  1  0
  5  6  2  0
  6  7  1  0
  7  8  1  0
  8  9  2  0
  9 10  1  0
 10 11  1  0
 11 12  1  0
 12 13  1  0
 13 14  1  0
 13 15  1  0
 16 13  1  6
 16 17  1  0
 17 18  1  0
 18 19  2  0
 19 20  1  0
 20 21  1  0
 21 22  1  0
 22 23  2  0
 23 24  1  0
 24 25  1  0
 23 26  1  0
 26 27  2  0
 27 28  1  0
 28 29  1  0
 29 30  1  0
 30 31  1  0
 27 32  1  0
 32 33  2  0
 20 34  2  0
 34 35  1  0
 34 36  1  0
 36 37  2  0
 10 38  2  0
 38 39  1  0
 39 40  1  0
 40 41  1  0
 39 42  2  0
 42 43  1  0
  6 44  1  0
 44 45  2  0
  1 30  1  6
 32  1  1  0
 45  3  1  0
 42  8  1  0
 16  9  1  0
 37 18  1  0
 33 22  1  0
M  CHG  1  13   1
M  END
$$$$
