
     RDKit          3D

 45 51  0  0  0  0  0  0  0  0999 V2000
  133.8440  139.6002  124.2696 C   0  0  2  0  0  0  0  0  0  0  0  0
  134.0334  139.6538  125.7158 C   0  0  0  0  0  0  0  0  0  0  0  0
  134.4401  140.9496  126.3499 C   0  0  0  0  0  0  0  0  0  0  0  0
  135.6418  141.1583  126.9918 C   0  0  0  0  0  0  0  0  0  0  0  0
  135.9483  142.4138  127.5749 C   0  0  0  0  0  0  0  0  0  0  0  0
  135.1094  143.4862  127.5508 C   0  0  0  0  0  0  0  0  0  0  0  0
  135.2896  144.7442  128.0737 O   0  0  0  0  0  0  0  0  0  0  0  0
  135.9416  145.5725  128.8593 C   0  0  0  0  0  0  0  0  0  0  0  0
  137.2084  146.0605  128.4687 C   0  0  0  0  0  0  0  0  0  0  0  0
  137.8600  146.9234  129.3258 C   0  0  0  0  0  0  0  0  0  0  0  0
  139.2314  147.3403  128.8297 C   0  0  0  0  0  0  0  0  0  0  0  0
  139.8317  146.0322  128.3654 C   0  0  0  0  0  0  0  0  0  0  0  0
  139.1902  145.4137  127.2449 N   0  0  0  0  0  4  0  0  0  0  0  0
  139.4316  143.9641  127.4535 C   0  0  0  0  0  0  0  0  0  0  0  0
  140.0138  145.7795  126.0978 C   0  0  0  0  0  0  0  0  0  0  0  0
  137.8429  145.7198  127.1542 C   0  0  2  0  0  0  0  0  0  0  0  0
  137.3398  146.6342  126.0666 C   0  0  0  0  0  0  0  0  0  0  0  0
  137.2598  146.0809  124.6859 C   0  0  0  0  0  0  0  0  0  0  0  0
  136.5771  144.9943  124.1935 C   0  0  0  0  0  0  0  0  0  0  0  0
  136.6992  144.6848  122.8480 C   0  0  0  0  0  0  0  0  0  0  0  0
  136.1242  143.6521  122.1301 O   0  0  0  0  0  0  0  0  0  0  0  0
  135.3804  142.4966  122.2742 C   0  0  0  0  0  0  0  0  0  0  0  0
  134.8147  142.1205  121.0256 C   0  0  0  0  0  0  0  0  0  0  0  0
  135.0263  142.8515  119.8627 O   0  0  0  0  0  0  0  0  0  0  0  0
  135.9351  142.4146  118.8971 C   0  0  0  0  0  0  0  0  0  0  0  0
  134.0333  141.0200  120.9037 C   0  0  0  0  0  0  0  0  0  0  0  0
  133.7939  140.2643  122.0283 C   0  0  0  0  0  0  0  0  0  0  0  0
  132.9263  139.0856  121.7996 C   0  0  0  0  0  0  0  0  0  0  0  0
  133.0923  138.0195  122.7889 C   0  0  0  0  0  0  0  0  0  0  0  0
  134.2047  138.3348  123.6539 N   0  0  0  0  0  0  0  0  0  0  0  0
  134.4380  137.2269  124.4823 C   0  0  0  0  0  0  0  0  0  0  0  0
  134.3471  140.6110  123.3084 C   0  0  0  0  0  0  0  0  0  0  0  0
  135.1374  141.7243  123.4121 C   0  0  0  0  0  0  0  0  0  0  0  0
  137.5163  145.4939  122.0211 C   0  0  0  0  0  0  0  0  0  0  0  0
  137.6700  145.2166  120.6365 O   0  0  0  0  0  0  0  0  0  0  0  0
  138.2028  146.5762  122.4722 C   0  0  0  0  0  0  0  0  0  0  0  0
  138.0637  146.8535  123.8039 C   0  0  0  0  0  0  0  0  0  0  0  0
  137.3380  147.3212  130.5159 C   0  0  0  0  0  0  0  0  0  0  0  0
  136.0946  146.8706  130.9429 C   0  0  0  0  0  0  0  0  0  0  0  0
  135.5350  147.2434  132.1279 O   0  0  0  0  0  0  0  0  0  0  0  0
  136.1849  148.2097  132.9270 C   0  0  0  0  0  0  0  0  0  0  0  0
  135.4453  146.0110  130.0923 C   0  0  0  0  0  0  0  0  0  0  0  0
  134.1809  145.5807  130.5685 O   0  0  0  0  0  0  0  0  0  0  0  0
  133.9022  143.2912  126.9114 C   0  0  0  0  0  0  0  0  0  0  0  0
  133.5933  142.0437  126.3307 C   0  0  0  0  0  0  0  0  0  0  0  0
  1  2  1  0
  2  3  1  0
  3  4  2  0
  4  5  1  0
  5  6  2  0
  6  7  1  0
  7  8  1  0
  8  9  2  0
  9 10  1  0
 10 11  1  0
 11 12  1  0
 12 13  1  0
 13 14  1  0
 13 15  1  0
 16 13  1  1
 16 17  1  0
 17 18  1  0
 18 19  2  0
 19 20  1  0
 20 21  1  0
 21 22  1  0
 22 23  2  0
 23 24  1  0
 24 25  1  0
 23 26  1  0
 26 27  2  0
 27 28  1  0
 28 29  1  0
 29 30  1  0
 30 31  1  0
 27 32  1  0
 32 33  2  0
 20 34  2  0
 34 35  1  0
 34 36  1  0
 36 37  2  0
 10 38  2  0
 38 39  1  0
 39 40  1  0
 40 41  1  0
 39 42  2  0
 42 43  1  0
  6 44  1  0
 44 45  2  0
  1 30  1  6
 32  1  1  0
 45  3  1  0
 42  8  1  0
 16  9  1  0
 37 18  1  0
 33 22  1  0
M  CHG  1  13   1
M  END
$$$$
