
     RDKit          3D

 45 51  0  0  0  0  0  0  0  0999 V2000
  118.3066  166.3458  148.2967 C   0  0  2  0  0  0  0  0  0  0  0  0
  116.8589  166.4530  148.1449 C   0  0  0  0  0  0  0  0  0  0  0  0
  116.2718  166.4942  146.7665 C   0  0  0  0  0  0  0  0  0  0  0  0
  115.6011  167.5763  146.2385 C   0  0  0  0  0  0  0  0  0  0  0  0
  115.0664  167.5330  144.9261 C   0  0  0  0  0  0  0  0  0  0  0  0
  115.1670  166.4540  144.1015 C   0  0  0  0  0  0  0  0  0  0  0  0
  114.6966  166.2904  142.8207 O   0  0  0  0  0  0  0  0  0  0  0  0
  113.9288  166.6794  141.8270 C   0  0  0  0  0  0  0  0  0  0  0  0
  114.2996  167.7992  141.0496 C   0  0  0  0  0  0  0  0  0  0  0  0
  113.4621  168.1760  140.0200 C   0  0  0  0  0  0  0  0  0  0  0  0
  113.9315  169.4193  139.2888 C   0  0  0  0  0  0  0  0  0  0  0  0
  114.3156  170.3477  140.4192 C   0  0  0  0  0  0  0  0  0  0  0  0
  115.4270  169.9308  141.2195 N   0  0  0  0  0  4  0  0  0  0  0  0
  115.1445  170.5185  142.5528 C   0  0  0  0  0  0  0  0  0  0  0  0
  116.5620  170.6852  140.6993 C   0  0  0  0  0  0  0  0  0  0  0  0
  115.5757  168.5549  141.2665 C   0  0  2  0  0  0  0  0  0  0  0  0
  116.7199  167.8862  140.5484 C   0  0  0  0  0  0  0  0  0  0  0  0
  118.0757  168.0072  141.1533 C   0  0  0  0  0  0  0  0  0  0  0  0
  118.5399  167.6405  142.3940 C   0  0  0  0  0  0  0  0  0  0  0  0
  119.8651  167.8943  142.7110 C   0  0  0  0  0  0  0  0  0  0  0  0
  120.5534  167.6280  143.8805 O   0  0  0  0  0  0  0  0  0  0  0  0
  120.3811  167.1920  145.1804 C   0  0  0  0  0  0  0  0  0  0  0  0
  121.6289  166.7931  145.7317 C   0  0  0  0  0  0  0  0  0  0  0  0
  122.8166  166.8648  145.0134 O   0  0  0  0  0  0  0  0  0  0  0  0
  123.8671  167.6767  145.4450 C   0  0  0  0  0  0  0  0  0  0  0  0
  121.7259  166.3185  146.9974 C   0  0  0  0  0  0  0  0  0  0  0  0
  120.5763  166.2277  147.7479 C   0  0  0  0  0  0  0  0  0  0  0  0
  120.7791  165.6939  149.1148 C   0  0  0  0  0  0  0  0  0  0  0  0
  119.7372  166.0789  150.0682 C   0  0  0  0  0  0  0  0  0  0  0  0
  118.8516  167.0383  149.4516 N   0  0  0  0  0  0  0  0  0  0  0  0
  117.9661  167.5059  150.4342 C   0  0  0  0  0  0  0  0  0  0  0  0
  119.2961  166.6205  147.2270 C   0  0  0  0  0  0  0  0  0  0  0  0
  119.2176  167.1014  145.9473 C   0  0  0  0  0  0  0  0  0  0  0  0
  120.7010  168.5175  141.7523 C   0  0  0  0  0  0  0  0  0  0  0  0
  122.0657  168.7954  142.0316 O   0  0  0  0  0  0  0  0  0  0  0  0
  120.2776  168.8906  140.5164 C   0  0  0  0  0  0  0  0  0  0  0  0
  118.9653  168.6291  140.2353 C   0  0  0  0  0  0  0  0  0  0  0  0
  112.3092  167.5200  139.7241 C   0  0  0  0  0  0  0  0  0  0  0  0
  111.9028  166.4120  140.4580 C   0  0  0  0  0  0  0  0  0  0  0  0
  110.7551  165.7262  140.1958 O   0  0  0  0  0  0  0  0  0  0  0  0
  109.9260  166.1447  139.1318 C   0  0  0  0  0  0  0  0  0  0  0  0
  112.7340  166.0363  141.4836 C   0  0  0  0  0  0  0  0  0  0  0  0
  112.2804  164.9007  142.2014 O   0  0  0  0  0  0  0  0  0  0  0  0
  115.8360  165.3629  144.6176 C   0  0  0  0  0  0  0  0  0  0  0  0
  116.3687  165.4019  145.9227 C   0  0  0  0  0  0  0  0  0  0  0  0
  1  2  1  0
  2  3  1  0
  3  4  2  0
  4  5  1  0
  5  6  2  0
  6  7  1  0
  7  8  1  0
  8  9  2  0
  9 10  1  0
 10 11  1  0
 11 12  1  0
 12 13  1  0
 13 14  1  0
 13 15  1  0
 16 13  1  6
 16 17  1  0
 17 18  1  0
 18 19  2  0
 19 20  1  0
 20 21  1  0
 21 22  1  0
 22 23  2  0
 23 24  1  0
 24 25  1  0
 23 26  1  0
 26 27  2  0
 27 28  1  0
 28 29  1  0
 29 30  1  0
 30 31  1  0
 27 32  1  0
 32 33  2  0
 20 34  2  0
 34 35  1  0
 34 36  1  0
 36 37  2  0
 10 38  2  0
 38 39  1  0
 39 40  1  0
 40 41  1  0
 39 42  2  0
 42 43  1  0
  6 44  1  0
 44 45  2  0
  1 30  1  1
 32  1  1  0
 45  3  1  0
 42  8  1  0
 16  9  1  0
 37 18  1  0
 33 22  1  0
M  CHG  1  13   1
M  END
$$$$
