
     RDKit          3D

 45 51  0  0  0  0  0  0  0  0999 V2000
  154.5153  173.6549  151.5452 C   0  0  2  0  0  0  0  0  0  0  0  0
  153.8681  173.1050  152.7323 C   0  0  0  0  0  0  0  0  0  0  0  0
  152.3867  172.8775  152.7152 C   0  0  0  0  0  0  0  0  0  0  0  0
  151.4876  173.5460  153.5178 C   0  0  0  0  0  0  0  0  0  0  0  0
  150.0995  173.2663  153.4474 C   0  0  0  0  0  0  0  0  0  0  0  0
  149.5534  172.3438  152.6077 C   0  0  0  0  0  0  0  0  0  0  0  0
  148.2366  171.9852  152.4464 O   0  0  0  0  0  0  0  0  0  0  0  0
  146.9914  171.9891  152.8678 C   0  0  0  0  0  0  0  0  0  0  0  0
  146.2064  173.1552  152.7283 C   0  0  0  0  0  0  0  0  0  0  0  0
  144.9064  173.1172  153.1890 C   0  0  0  0  0  0  0  0  0  0  0  0
  144.1764  174.4379  153.0360 C   0  0  0  0  0  0  0  0  0  0  0  0
  145.1947  175.4424  153.5274 C   0  0  0  0  0  0  0  0  0  0  0  0
  146.3815  175.5663  152.7365 N   0  0  0  0  0  4  0  0  0  0  0  0
  147.4208  175.9689  153.7166 C   0  0  0  0  0  0  0  0  0  0  0  0
  146.1546  176.7466  151.9099 C   0  0  0  0  0  0  0  0  0  0  0  0
  146.7091  174.4012  152.0638 C   0  0  2  0  0  0  0  0  0  0  0  0
  146.5440  174.3114  150.5682 C   0  0  0  0  0  0  0  0  0  0  0  0
  147.5410  175.0254  149.7226 C   0  0  0  0  0  0  0  0  0  0  0  0
  148.9087  174.9066  149.6553 C   0  0  0  0  0  0  0  0  0  0  0  0
  149.6061  175.7252  148.7810 C   0  0  0  0  0  0  0  0  0  0  0  0
  150.9665  175.7960  148.5425 O   0  0  0  0  0  0  0  0  0  0  0  0
  152.1860  175.3314  148.9967 C   0  0  0  0  0  0  0  0  0  0  0  0
  153.1853  175.5318  148.0060 C   0  0  0  0  0  0  0  0  0  0  0  0
  152.9088  176.1241  146.7796 O   0  0  0  0  0  0  0  0  0  0  0  0
  152.5088  175.3540  145.6859 C   0  0  0  0  0  0  0  0  0  0  0  0
  154.4706  175.1526  148.2082 C   0  0  0  0  0  0  0  0  0  0  0  0
  154.7931  174.5602  149.4074 C   0  0  0  0  0  0  0  0  0  0  0  0
  156.2179  174.1754  149.5357 C   0  0  0  0  0  0  0  0  0  0  0  0
  156.6836  174.0572  150.9184 C   0  0  0  0  0  0  0  0  0  0  0  0
  155.6507  174.5199  151.8151 N   0  0  0  0  0  0  0  0  0  0  0  0
  156.1823  174.5455  153.1132 C   0  0  0  0  0  0  0  0  0  0  0  0
  153.8120  174.3399  150.4339 C   0  0  0  0  0  0  0  0  0  0  0  0
  152.5190  174.7329  150.2138 C   0  0  0  0  0  0  0  0  0  0  0  0
  148.8946  176.6539  147.9827 C   0  0  0  0  0  0  0  0  0  0  0  0
  149.5664  177.5117  147.0714 O   0  0  0  0  0  0  0  0  0  0  0  0
  147.5440  176.7968  148.0206 C   0  0  0  0  0  0  0  0  0  0  0  0
  146.8855  175.9770  148.8945 C   0  0  0  0  0  0  0  0  0  0  0  0
  144.3549  172.0154  153.7626 C   0  0  0  0  0  0  0  0  0  0  0  0
  145.0858  170.8438  153.9200 C   0  0  0  0  0  0  0  0  0  0  0  0
  144.5724  169.7178  154.4898 O   0  0  0  0  0  0  0  0  0  0  0  0
  143.1936  169.6602  154.7898 C   0  0  0  0  0  0  0  0  0  0  0  0
  146.3798  170.8801  153.4635 C   0  0  0  0  0  0  0  0  0  0  0  0
  147.0843  169.6628  153.6428 O   0  0  0  0  0  0  0  0  0  0  0  0
  150.4425  171.6665  151.7983 C   0  0  0  0  0  0  0  0  0  0  0  0
  151.8240  171.9414  151.8658 C   0  0  0  0  0  0  0  0  0  0  0  0
  1  2  1  0
  2  3  1  0
  3  4  2  0
  4  5  1  0
  5  6  2  0
  6  7  1  0
  7  8  1  0
  8  9  2  0
  9 10  1  0
 10 11  1  0
 11 12  1  0
 12 13  1  0
 13 14  1  0
 13 15  1  0
 16 13  1  1
 16 17  1  0
 17 18  1  0
 18 19  2  0
 19 20  1  0
 20 21  1  0
 21 22  1  0
 22 23  2  0
 23 24  1  0
 24 25  1  0
 23 26  1  0
 26 27  2  0
 27 28  1  0
 28 29  1  0
 29 30  1  0
 30 31  1  0
 27 32  1  0
 32 33  2  0
 20 34  2  0
 34 35  1  0
 34 36  1  0
 36 37  2  0
 10 38  2  0
 38 39  1  0
 39 40  1  0
 40 41  1  0
 39 42  2  0
 42 43  1  0
  6 44  1  0
 44 45  2  0
  1 30  1  1
 32  1  1  0
 45  3  1  0
 42  8  1  0
 16  9  1  0
 37 18  1  0
 33 22  1  0
M  CHG  1  13   1
M  END
$$$$
