
     RDKit          3D

 45 51  0  0  0  0  0  0  0  0999 V2000
  186.5741  161.9281  125.3729 C   0  0  2  0  0  0  0  0  0  0  0  0
  186.0516  162.3533  124.0781 C   0  0  0  0  0  0  0  0  0  0  0  0
  186.8340  162.0412  122.8384 C   0  0  0  0  0  0  0  0  0  0  0  0
  187.4045  162.9910  122.0187 C   0  0  0  0  0  0  0  0  0  0  0  0
  188.1237  162.6137  120.8565 C   0  0  0  0  0  0  0  0  0  0  0  0
  188.3069  161.3227  120.4638 C   0  0  0  0  0  0  0  0  0  0  0  0
  188.9782  160.8327  119.3694 O   0  0  0  0  0  0  0  0  0  0  0  0
  189.5415  161.0197  118.1964 C   0  0  0  0  0  0  0  0  0  0  0  0
  190.8108  161.6346  118.1168 C   0  0  0  0  0  0  0  0  0  0  0  0
  191.3627  161.8162  116.8653 C   0  0  0  0  0  0  0  0  0  0  0  0
  192.6997  162.5318  116.8970 C   0  0  0  0  0  0  0  0  0  0  0  0
  192.4469  163.6716  117.8583 C   0  0  0  0  0  0  0  0  0  0  0  0
  192.1800  163.2974  119.2141 N   0  0  0  0  0  4  0  0  0  0  0  0
  191.3040  164.3851  119.7167 C   0  0  0  0  0  0  0  0  0  0  0  0
  193.4518  163.4774  119.9057 C   0  0  0  0  0  0  0  0  0  0  0  0
  191.5930  162.0484  119.3266 C   0  0  2  0  0  0  0  0  0  0  0  0
  192.3755  160.8846  119.8791 C   0  0  0  0  0  0  0  0  0  0  0  0
  192.6151  160.8533  121.3489 C   0  0  0  0  0  0  0  0  0  0  0  0
  191.7315  160.8575  122.4018 C   0  0  0  0  0  0  0  0  0  0  0  0
  192.2343  160.8472  123.6933 C   0  0  0  0  0  0  0  0  0  0  0  0
  191.5559  160.8552  124.8984 O   0  0  0  0  0  0  0  0  0  0  0  0
  190.2947  160.9886  125.4470 C   0  0  0  0  0  0  0  0  0  0  0  0
  190.2888  160.5030  126.7828 C   0  0  0  0  0  0  0  0  0  0  0  0
  191.4267  159.9876  127.3921 O   0  0  0  0  0  0  0  0  0  0  0  0
  192.5771  159.7168  126.6490 C   0  0  0  0  0  0  0  0  0  0  0  0
  189.1635  160.5178  127.5378 C   0  0  0  0  0  0  0  0  0  0  0  0
  188.0107  161.0177  126.9775 C   0  0  0  0  0  0  0  0  0  0  0  0
  186.8322  160.9887  127.8747 C   0  0  0  0  0  0  0  0  0  0  0  0
  185.7921  161.9586  127.5278 C   0  0  0  0  0  0  0  0  0  0  0  0
  186.2724  162.8236  126.4762 N   0  0  0  0  0  0  0  0  0  0  0  0
  185.3215  163.8362  126.2789 C   0  0  0  0  0  0  0  0  0  0  0  0
  187.9755  161.5178  125.6308 C   0  0  0  0  0  0  0  0  0  0  0  0
  189.1229  161.4985  124.8838 C   0  0  0  0  0  0  0  0  0  0  0  0
  193.6365  160.8292  123.8921 C   0  0  0  0  0  0  0  0  0  0  0  0
  194.1974  160.8162  125.1971 O   0  0  0  0  0  0  0  0  0  0  0  0
  194.5388  160.8217  122.8764 C   0  0  0  0  0  0  0  0  0  0  0  0
  194.0115  160.8347  121.6149 C   0  0  0  0  0  0  0  0  0  0  0  0
  190.7438  161.4297  115.7188 C   0  0  0  0  0  0  0  0  0  0  0  0
  189.4958  160.8188  115.7453 C   0  0  0  0  0  0  0  0  0  0  0  0
  188.8403  160.4167  114.6206 O   0  0  0  0  0  0  0  0  0  0  0  0
  189.5809  159.8987  113.5353 C   0  0  0  0  0  0  0  0  0  0  0  0
  188.9444  160.6385  116.9893 C   0  0  0  0  0  0  0  0  0  0  0  0
  187.6737  160.0097  116.9665 O   0  0  0  0  0  0  0  0  0  0  0  0
  187.7405  160.3610  121.2754 C   0  0  0  0  0  0  0  0  0  0  0  0
  187.0240  160.7323  122.4319 C   0  0  0  0  0  0  0  0  0  0  0  0
  1  2  1  0
  2  3  1  0
  3  4  2  0
  4  5  1  0
  5  6  2  0
  6  7  1  0
  7  8  1  0
  8  9  2  0
  9 10  1  0
 10 11  1  0
 11 12  1  0
 12 13  1  0
 13 14  1  0
 13 15  1  0
 16 13  1  6
 16 17  1  0
 17 18  1  0
 18 19  2  0
 19 20  1  0
 20 21  1  0
 21 22  1  0
 22 23  2  0
 23 24  1  0
 24 25  1  0
 23 26  1  0
 26 27  2  0
 27 28  1  0
 28 29  1  0
 29 30  1  0
 30 31  1  0
 27 32  1  0
 32 33  2  0
 20 34  2  0
 34 35  1  0
 34 36  1  0
 36 37  2  0
 10 38  2  0
 38 39  1  0
 39 40  1  0
 40 41  1  0
 39 42  2  0
 42 43  1  0
  6 44  1  0
 44 45  2  0
  1 30  1  1
 32  1  1  0
 45  3  1  0
 42  8  1  0
 16  9  1  0
 37 18  1  0
 33 22  1  0
M  CHG  1  13   1
M  END
$$$$
