
     RDKit          3D

 45 51  0  0  0  0  0  0  0  0999 V2000
  144.1158  153.3982  120.7398 C   0  0  2  0  0  0  0  0  0  0  0  0
  144.6122  152.3445  121.6194 C   0  0  0  0  0  0  0  0  0  0  0  0
  144.4404  150.9128  121.2104 C   0  0  0  0  0  0  0  0  0  0  0  0
  143.6587  149.9995  121.8844 C   0  0  0  0  0  0  0  0  0  0  0  0
  143.5551  148.6581  121.4371 C   0  0  0  0  0  0  0  0  0  0  0  0
  144.1976  148.1732  120.3387 C   0  0  0  0  0  0  0  0  0  0  0  0
  144.1777  146.9061  119.8073 O   0  0  0  0  0  0  0  0  0  0  0  0
  143.8974  145.6262  119.9148 C   0  0  0  0  0  0  0  0  0  0  0  0
  142.5584  145.1889  119.8071 C   0  0  0  0  0  0  0  0  0  0  0  0
  142.3086  143.8377  119.9314 C   0  0  0  0  0  0  0  0  0  0  0  0
  140.8344  143.4900  119.8519 C   0  0  0  0  0  0  0  0  0  0  0  0
  140.1961  144.5306  120.7447 C   0  0  0  0  0  0  0  0  0  0  0  0
  140.2954  145.8857  120.2939 N   0  0  0  0  0  4  0  0  0  0  0  0
  140.2965  146.6780  121.5490 C   0  0  0  0  0  0  0  0  0  0  0  0
  139.0084  146.1626  119.6654 C   0  0  0  0  0  0  0  0  0  0  0  0
  141.4186  146.1184  119.5183 C   0  0  2  0  0  0  0  0  0  0  0  0
  141.2862  146.3550  118.0355 C   0  0  0  0  0  0  0  0  0  0  0  0
  140.7641  147.6785  117.5946 C   0  0  0  0  0  0  0  0  0  0  0  0
  141.2280  148.9502  117.8333 C   0  0  0  0  0  0  0  0  0  0  0  0
  140.5238  150.0246  117.3129 C   0  0  0  0  0  0  0  0  0  0  0  0
  140.7841  151.3785  117.4208 O   0  0  0  0  0  0  0  0  0  0  0  0
  141.6016  152.2915  118.0593 C   0  0  0  0  0  0  0  0  0  0  0  0
  141.5551  153.5430  117.3873 C   0  0  0  0  0  0  0  0  0  0  0  0
  140.7716  153.7528  116.2587 O   0  0  0  0  0  0  0  0  0  0  0  0
  139.3847  153.6017  116.3111 C   0  0  0  0  0  0  0  0  0  0  0  0
  142.2784  154.6058  117.8164 C   0  0  0  0  0  0  0  0  0  0  0  0
  143.0708  154.4464  118.9298 C   0  0  0  0  0  0  0  0  0  0  0  0
  143.8273  155.6587  119.3204 C   0  0  0  0  0  0  0  0  0  0  0  0
  144.2243  155.6883  120.7291 C   0  0  0  0  0  0  0  0  0  0  0  0
  143.6158  154.5783  121.4238 N   0  0  0  0  0  0  0  0  0  0  0  0
  143.8824  154.7246  122.7934 C   0  0  0  0  0  0  0  0  0  0  0  0
  143.1452  153.1977  119.6368 C   0  0  0  0  0  0  0  0  0  0  0  0
  142.4046  152.1357  119.1912 C   0  0  0  0  0  0  0  0  0  0  0  0
  139.3544  149.7845  116.5508 C   0  0  0  0  0  0  0  0  0  0  0  0
  138.6017  150.8538  115.9961 O   0  0  0  0  0  0  0  0  0  0  0  0
  138.8685  148.5423  116.2924 C   0  0  0  0  0  0  0  0  0  0  0  0
  139.5839  147.5040  116.8215 C   0  0  0  0  0  0  0  0  0  0  0  0
  143.2870  142.9196  120.1481 C   0  0  0  0  0  0  0  0  0  0  0  0
  144.6191  143.3000  120.2591 C   0  0  0  0  0  0  0  0  0  0  0  0
  145.6303  142.4133  120.4768 O   0  0  0  0  0  0  0  0  0  0  0  0
  145.5178  141.4797  121.5305 C   0  0  0  0  0  0  0  0  0  0  0  0
  144.8695  144.6441  120.1370 C   0  0  0  0  0  0  0  0  0  0  0  0
  146.2411  144.9837  120.2543 O   0  0  0  0  0  0  0  0  0  0  0  0
  144.9844  149.0770  119.6543 C   0  0  0  0  0  0  0  0  0  0  0  0
  145.0905  150.4119  120.0964 C   0  0  0  0  0  0  0  0  0  0  0  0
  1  2  1  0
  2  3  1  0
  3  4  2  0
  4  5  1  0
  5  6  2  0
  6  7  1  0
  7  8  1  0
  8  9  2  0
  9 10  1  0
 10 11  1  0
 11 12  1  0
 12 13  1  0
 13 14  1  0
 13 15  1  0
 16 13  1  6
 16 17  1  0
 17 18  1  0
 18 19  2  0
 19 20  1  0
 20 21  1  0
 21 22  1  0
 22 23  2  0
 23 24  1  0
 24 25  1  0
 23 26  1  0
 26 27  2  0
 27 28  1  0
 28 29  1  0
 29 30  1  0
 30 31  1  0
 27 32  1  0
 32 33  2  0
 20 34  2  0
 34 35  1  0
 34 36  1  0
 36 37  2  0
 10 38  2  0
 38 39  1  0
 39 40  1  0
 40 41  1  0
 39 42  2  0
 42 43  1  0
  6 44  1  0
 44 45  2  0
  1 30  1  1
 32  1  1  0
 45  3  1  0
 42  8  1  0
 16  9  1  0
 37 18  1  0
 33 22  1  0
M  CHG  1  13   1
M  END
$$$$
