
     RDKit          3D

 45 51  0  0  0  0  0  0  0  0999 V2000
  154.4950  166.5361  141.9154 C   0  0  2  0  0  0  0  0  0  0  0  0
  154.9649  167.2107  140.7094 C   0  0  0  0  0  0  0  0  0  0  0  0
  155.8025  166.4486  139.7275 C   0  0  0  0  0  0  0  0  0  0  0  0
  157.1175  166.7402  139.4352 C   0  0  0  0  0  0  0  0  0  0  0  0
  157.8401  165.9748  138.4854 C   0  0  0  0  0  0  0  0  0  0  0  0
  157.3142  164.9200  137.8033 C   0  0  0  0  0  0  0  0  0  0  0  0
  157.9062  164.1063  136.8674 O   0  0  0  0  0  0  0  0  0  0  0  0
  158.8859  163.8553  136.0275 C   0  0  0  0  0  0  0  0  0  0  0  0
  160.1364  163.4174  136.5175 C   0  0  0  0  0  0  0  0  0  0  0  0
  161.1382  163.1709  135.6014 C   0  0  0  0  0  0  0  0  0  0  0  0
  162.4494  162.7580  136.2424 C   0  0  0  0  0  0  0  0  0  0  0  0
  162.5955  163.7497  137.3748 C   0  0  0  0  0  0  0  0  0  0  0  0
  161.6153  163.6593  138.4143 N   0  0  0  0  0  4  0  0  0  0  0  0
  161.5139  165.0481  138.9282 C   0  0  0  0  0  0  0  0  0  0  0  0
  162.2697  162.9031  139.4763 C   0  0  0  0  0  0  0  0  0  0  0  0
  160.3992  163.1670  137.9717 C   0  0  2  0  0  0  0  0  0  0  0  0
  159.9476  161.7835  138.3644 C   0  0  0  0  0  0  0  0  0  0  0  0
  159.4664  161.5880  139.7605 C   0  0  0  0  0  0  0  0  0  0  0  0
  158.4477  162.1995  140.4517 C   0  0  0  0  0  0  0  0  0  0  0  0
  158.2269  161.8373  141.7712 C   0  0  0  0  0  0  0  0  0  0  0  0
  157.2810  162.3083  142.6632 O   0  0  0  0  0  0  0  0  0  0  0  0
  156.3086  163.2771  142.8218 C   0  0  0  0  0  0  0  0  0  0  0  0
  155.4376  162.9256  143.8885 C   0  0  0  0  0  0  0  0  0  0  0  0
  155.6021  161.7621  144.6307 O   0  0  0  0  0  0  0  0  0  0  0  0
  156.7225  160.9491  144.4495 C   0  0  0  0  0  0  0  0  0  0  0  0
  154.3927  163.7138  144.2402 C   0  0  0  0  0  0  0  0  0  0  0  0
  154.1881  164.8763  143.5334 C   0  0  0  0  0  0  0  0  0  0  0  0
  153.0212  165.6692  143.9852 C   0  0  0  0  0  0  0  0  0  0  0  0
  153.0956  167.0909  143.6445 C   0  0  0  0  0  0  0  0  0  0  0  0
  154.3959  167.3852  143.0898 N   0  0  0  0  0  0  0  0  0  0  0  0
  154.4928  168.7750  142.9242 C   0  0  0  0  0  0  0  0  0  0  0  0
  155.0459  165.2668  142.4487 C   0  0  0  0  0  0  0  0  0  0  0  0
  156.0990  164.4601  142.1097 C   0  0  0  0  0  0  0  0  0  0  0  0
  159.0497  160.8502  142.3669 C   0  0  0  0  0  0  0  0  0  0  0  0
  158.8595  160.4456  143.7152 O   0  0  0  0  0  0  0  0  0  0  0  0
  160.0628  160.2232  141.7140 C   0  0  0  0  0  0  0  0  0  0  0  0
  160.2566  160.6043  140.4152 C   0  0  0  0  0  0  0  0  0  0  0  0
  160.9727  163.3273  134.2615 C   0  0  0  0  0  0  0  0  0  0  0  0
  159.7610  163.7536  133.7309 C   0  0  0  0  0  0  0  0  0  0  0  0
  159.5527  163.9241  132.3954 O   0  0  0  0  0  0  0  0  0  0  0  0
  159.4199  162.7896  131.5648 C   0  0  0  0  0  0  0  0  0  0  0  0
  158.7634  164.0008  134.6408 C   0  0  0  0  0  0  0  0  0  0  0  0
  157.5464  164.4301  134.0534 O   0  0  0  0  0  0  0  0  0  0  0  0
  155.9979  164.6170  138.0859 C   0  0  0  0  0  0  0  0  0  0  0  0
  155.2756  165.3763  139.0296 C   0  0  0  0  0  0  0  0  0  0  0  0
  1  2  1  0
  2  3  1  0
  3  4  2  0
  4  5  1  0
  5  6  2  0
  6  7  1  0
  7  8  1  0
  8  9  2  0
  9 10  1  0
 10 11  1  0
 11 12  1  0
 12 13  1  0
 13 14  1  0
 13 15  1  0
 16 13  1  6
 16 17  1  0
 17 18  1  0
 18 19  2  0
 19 20  1  0
 20 21  1  0
 21 22  1  0
 22 23  2  0
 23 24  1  0
 24 25  1  0
 23 26  1  0
 26 27  2  0
 27 28  1  0
 28 29  1  0
 29 30  1  0
 30 31  1  0
 27 32  1  0
 32 33  2  0
 20 34  2  0
 34 35  1  0
 34 36  1  0
 36 37  2  0
 10 38  2  0
 38 39  1  0
 39 40  1  0
 40 41  1  0
 39 42  2  0
 42 43  1  0
  6 44  1  0
 44 45  2  0
  1 30  1  1
 32  1  1  0
 45  3  1  0
 42  8  1  0
 16  9  1  0
 37 18  1  0
 33 22  1  0
M  CHG  1  13   1
M  END
$$$$
