
     RDKit          3D

 45 51  0  0  0  0  0  0  0  0999 V2000
  133.6443  138.7344  125.8990 C   0  0  2  0  0  0  0  0  0  0  0  0
  134.4209  139.3286  126.9826 C   0  0  0  0  0  0  0  0  0  0  0  0
  133.9481  139.1611  128.3950 C   0  0  0  0  0  0  0  0  0  0  0  0
  133.5307  140.1962  129.2036 C   0  0  0  0  0  0  0  0  0  0  0  0
  133.1053  139.9554  130.5345 C   0  0  0  0  0  0  0  0  0  0  0  0
  133.0731  138.7212  131.1088 C   0  0  0  0  0  0  0  0  0  0  0  0
  132.6845  138.3609  132.3768 O   0  0  0  0  0  0  0  0  0  0  0  0
  132.3874  138.6841  133.6160 C   0  0  0  0  0  0  0  0  0  0  0  0
  131.1406  139.2811  133.9066 C   0  0  0  0  0  0  0  0  0  0  0  0
  130.8723  139.6090  135.2196 C   0  0  0  0  0  0  0  0  0  0  0  0
  129.5302  140.2907  135.4059 C   0  0  0  0  0  0  0  0  0  0  0  0
  129.5109  141.3047  134.2840 C   0  0  0  0  0  0  0  0  0  0  0  0
  129.4874  140.7675  132.9572 N   0  0  0  0  0  4  0  0  0  0  0  0
  130.1792  141.7988  132.1444 C   0  0  0  0  0  0  0  0  0  0  0  0
  128.0870  140.8360  132.5543 C   0  0  0  0  0  0  0  0  0  0  0  0
  130.0914  139.5251  132.8643 C   0  0  2  0  0  0  0  0  0  0  0  0
  129.2600  138.2870  132.6448 C   0  0  0  0  0  0  0  0  0  0  0  0
  128.7021  138.0665  131.2814 C   0  0  0  0  0  0  0  0  0  0  0  0
  129.3290  137.9539  130.0634 C   0  0  0  0  0  0  0  0  0  0  0  0
  128.5533  137.7720  128.9293 C   0  0  0  0  0  0  0  0  0  0  0  0
  128.9464  137.6403  127.6100 O   0  0  0  0  0  0  0  0  0  0  0  0
  130.0470  137.7262  126.7790 C   0  0  0  0  0  0  0  0  0  0  0  0
  129.7787  137.0763  125.5437 C   0  0  0  0  0  0  0  0  0  0  0  0
  128.5590  136.4680  125.2726 O   0  0  0  0  0  0  0  0  0  0  0  0
  127.9530  136.6032  124.0221 C   0  0  0  0  0  0  0  0  0  0  0  0
  130.7066  137.0162  124.5578 C   0  0  0  0  0  0  0  0  0  0  0  0
  131.9309  137.6034  124.7800 C   0  0  0  0  0  0  0  0  0  0  0  0
  132.8810  137.4828  123.6498 C   0  0  0  0  0  0  0  0  0  0  0  0
  133.9266  138.5072  123.6352 C   0  0  0  0  0  0  0  0  0  0  0  0
  133.6524  139.4891  124.6578 N   0  0  0  0  0  0  0  0  0  0  0  0
  134.5759  140.5354  124.5137 C   0  0  0  0  0  0  0  0  0  0  0  0
  132.2409  138.2697  126.0148 C   0  0  0  0  0  0  0  0  0  0  0  0
  131.2899  138.3240  126.9984 C   0  0  0  0  0  0  0  0  0  0  0  0
  127.1442  137.7038  129.0558 C   0  0  0  0  0  0  0  0  0  0  0  0
  126.3091  137.5165  127.9223 O   0  0  0  0  0  0  0  0  0  0  0  0
  126.4910  137.8081  130.2426 C   0  0  0  0  0  0  0  0  0  0  0  0
  127.2839  137.9894  131.3417 C   0  0  0  0  0  0  0  0  0  0  0  0
  131.7471  139.3812  136.2344 C   0  0  0  0  0  0  0  0  0  0  0  0
  132.9848  138.7944  135.9995 C   0  0  0  0  0  0  0  0  0  0  0  0
  133.8912  138.5491  136.9867 O   0  0  0  0  0  0  0  0  0  0  0  0
  134.2211  139.5787  137.8954 C   0  0  0  0  0  0  0  0  0  0  0  0
  133.2543  138.4687  134.6936 C   0  0  0  0  0  0  0  0  0  0  0  0
  134.5258  137.8708  134.5033 O   0  0  0  0  0  0  0  0  0  0  0  0
  133.4889  137.6752  130.3104 C   0  0  0  0  0  0  0  0  0  0  0  0
  133.9133  137.9107  128.9863 C   0  0  0  0  0  0  0  0  0  0  0  0
  1  2  1  0
  2  3  1  0
  3  4  2  0
  4  5  1  0
  5  6  2  0
  6  7  1  0
  7  8  1  0
  8  9  2  0
  9 10  1  0
 10 11  1  0
 11 12  1  0
 12 13  1  0
 13 14  1  0
 13 15  1  0
 16 13  1  1
 16 17  1  0
 17 18  1  0
 18 19  2  0
 19 20  1  0
 20 21  1  0
 21 22  1  0
 22 23  2  0
 23 24  1  0
 24 25  1  0
 23 26  1  0
 26 27  2  0
 27 28  1  0
 28 29  1  0
 29 30  1  0
 30 31  1  0
 27 32  1  0
 32 33  2  0
 20 34  2  0
 34 35  1  0
 34 36  1  0
 36 37  2  0
 10 38  2  0
 38 39  1  0
 39 40  1  0
 40 41  1  0
 39 42  2  0
 42 43  1  0
  6 44  1  0
 44 45  2  0
  1 30  1  6
 32  1  1  0
 45  3  1  0
 42  8  1  0
 16  9  1  0
 37 18  1  0
 33 22  1  0
M  CHG  1  13   1
M  END
$$$$
