
     RDKit          3D

 45 51  0  0  0  0  0  0  0  0999 V2000
  182.2767  160.9165  141.3706 C   0  0  2  0  0  0  0  0  0  0  0  0
  181.8424  161.0798  139.9867 C   0  0  0  0  0  0  0  0  0  0  0  0
  182.8621  161.0134  138.8903 C   0  0  0  0  0  0  0  0  0  0  0  0
  183.1908  162.0698  138.0684 C   0  0  0  0  0  0  0  0  0  0  0  0
  184.1624  161.9232  137.0463 C   0  0  0  0  0  0  0  0  0  0  0  0
  184.8325  160.7642  136.7975 C   0  0  0  0  0  0  0  0  0  0  0  0
  185.7880  160.4981  135.8463 O   0  0  0  0  0  0  0  0  0  0  0  0
  186.4239  160.8244  134.7429 C   0  0  0  0  0  0  0  0  0  0  0  0
  187.4034  161.8419  134.7714 C   0  0  0  0  0  0  0  0  0  0  0  0
  188.0424  162.1559  133.5896 C   0  0  0  0  0  0  0  0  0  0  0  0
  189.0335  163.2958  133.7277 C   0  0  0  0  0  0  0  0  0  0  0  0
  188.2645  164.3115  134.5428 C   0  0  0  0  0  0  0  0  0  0  0  0
  187.9399  163.9213  135.8813 N   0  0  0  0  0  4  0  0  0  0  0  0
  186.6799  164.6514  136.1682 C   0  0  0  0  0  0  0  0  0  0  0  0
  188.9537  164.5632  136.7109 C   0  0  0  0  0  0  0  0  0  0  0  0
  187.8049  162.5512  136.0293 C   0  0  2  0  0  0  0  0  0  0  0  0
  188.8448  161.7587  136.7795 C   0  0  0  0  0  0  0  0  0  0  0  0
  188.8557  161.8715  138.2647 C   0  0  0  0  0  0  0  0  0  0  0  0
  187.8755  161.6071  139.1913 C   0  0  0  0  0  0  0  0  0  0  0  0
  188.1503  161.8249  140.5322 C   0  0  0  0  0  0  0  0  0  0  0  0
  187.3362  161.6420  141.6351 O   0  0  0  0  0  0  0  0  0  0  0  0
  186.0378  161.3459  142.0037 C   0  0  0  0  0  0  0  0  0  0  0  0
  185.9964  160.9422  143.3659 C   0  0  0  0  0  0  0  0  0  0  0  0
  187.1358  160.8834  144.1594 O   0  0  0  0  0  0  0  0  0  0  0  0
  187.7137  159.6572  144.4936 C   0  0  0  0  0  0  0  0  0  0  0  0
  184.8333  160.5911  143.9665 C   0  0  0  0  0  0  0  0  0  0  0  0
  183.6778  160.6322  143.2207 C   0  0  0  0  0  0  0  0  0  0  0  0
  182.4590  160.2271  143.9589 C   0  0  0  0  0  0  0  0  0  0  0  0
  181.2153  160.7558  143.3963 C   0  0  0  0  0  0  0  0  0  0  0  0
  181.5243  161.6921  142.3415 N   0  0  0  0  0  0  0  0  0  0  0  0
  180.3262  162.2981  141.9342 C   0  0  0  0  0  0  0  0  0  0  0  0
  183.6779  161.0345  141.8413 C   0  0  0  0  0  0  0  0  0  0  0  0
  184.8618  161.3896  141.2519 C   0  0  0  0  0  0  0  0  0  0  0  0
  189.4272  162.3078  140.9094 C   0  0  0  0  0  0  0  0  0  0  0  0
  189.7549  162.5441  142.2713 O   0  0  0  0  0  0  0  0  0  0  0  0
  190.4203  162.5773  140.0222 C   0  0  0  0  0  0  0  0  0  0  0  0
  190.1172  162.3546  138.7076 C   0  0  0  0  0  0  0  0  0  0  0  0
  187.7735  161.5319  132.4127 C   0  0  0  0  0  0  0  0  0  0  0  0
  186.8204  160.5235  132.3341 C   0  0  0  0  0  0  0  0  0  0  0  0
  186.5196  159.8729  131.1754 O   0  0  0  0  0  0  0  0  0  0  0  0
  187.1283  160.2874  129.9703 C   0  0  0  0  0  0  0  0  0  0  0  0
  186.1825  160.2105  133.5085 C   0  0  0  0  0  0  0  0  0  0  0  0
  185.2219  159.1755  133.3799 O   0  0  0  0  0  0  0  0  0  0  0  0
  184.5129  159.6978  137.6129 C   0  0  0  0  0  0  0  0  0  0  0  0
  183.5467  159.8394  138.6304 C   0  0  0  0  0  0  0  0  0  0  0  0
  1  2  1  0
  2  3  1  0
  3  4  2  0
  4  5  1  0
  5  6  2  0
  6  7  1  0
  7  8  1  0
  8  9  2  0
  9 10  1  0
 10 11  1  0
 11 12  1  0
 12 13  1  0
 13 14  1  0
 13 15  1  0
 16 13  1  6
 16 17  1  0
 17 18  1  0
 18 19  2  0
 19 20  1  0
 20 21  1  0
 21 22  1  0
 22 23  2  0
 23 24  1  0
 24 25  1  0
 23 26  1  0
 26 27  2  0
 27 28  1  0
 28 29  1  0
 29 30  1  0
 30 31  1  0
 27 32  1  0
 32 33  2  0
 20 34  2  0
 34 35  1  0
 34 36  1  0
 36 37  2  0
 10 38  2  0
 38 39  1  0
 39 40  1  0
 40 41  1  0
 39 42  2  0
 42 43  1  0
  6 44  1  0
 44 45  2  0
  1 30  1  1
 32  1  1  0
 45  3  1  0
 42  8  1  0
 16  9  1  0
 37 18  1  0
 33 22  1  0
M  CHG  1  13   1
M  END
$$$$
