
     RDKit          3D

 45 51  0  0  0  0  0  0  0  0999 V2000
  147.1214  174.9953  131.5109 C   0  0  2  0  0  0  0  0  0  0  0  0
  148.1617  174.4321  132.3658 C   0  0  0  0  0  0  0  0  0  0  0  0
  148.6390  173.0347  132.1085 C   0  0  0  0  0  0  0  0  0  0  0  0
  148.4726  171.9824  132.9828 C   0  0  0  0  0  0  0  0  0  0  0  0
  148.9619  170.6893  132.6685 C   0  0  0  0  0  0  0  0  0  0  0  0
  149.6162  170.3861  131.5134 C   0  0  0  0  0  0  0  0  0  0  0  0
  150.1329  169.1832  131.0956 O   0  0  0  0  0  0  0  0  0  0  0  0
  150.5074  167.9495  131.3525 C   0  0  0  0  0  0  0  0  0  0  0  0
  149.5332  166.9410  131.5241 C   0  0  0  0  0  0  0  0  0  0  0  0
  149.9702  165.6612  131.7975 C   0  0  0  0  0  0  0  0  0  0  0  0
  148.8391  164.6742  132.0144 C   0  0  0  0  0  0  0  0  0  0  0  0
  147.9001  165.4352  132.9236 C   0  0  0  0  0  0  0  0  0  0  0  0
  147.2897  166.5997  132.3572 N   0  0  0  0  0  4  0  0  0  0  0  0
  147.0706  167.4891  133.5251 C   0  0  0  0  0  0  0  0  0  0  0  0
  145.9585  166.1609  131.9529 C   0  0  0  0  0  0  0  0  0  0  0  0
  148.0634  167.1942  131.3748 C   0  0  2  0  0  0  0  0  0  0  0  0
  147.6528  167.1127  129.9268 C   0  0  0  0  0  0  0  0  0  0  0  0
  146.5166  167.9688  129.4852 C   0  0  0  0  0  0  0  0  0  0  0  0
  146.3488  169.3321  129.5352 C   0  0  0  0  0  0  0  0  0  0  0  0
  145.1619  169.8746  129.0684 C   0  0  0  0  0  0  0  0  0  0  0  0
  144.7615  171.1974  129.0206 O   0  0  0  0  0  0  0  0  0  0  0  0
  145.1213  172.4683  129.4264 C   0  0  0  0  0  0  0  0  0  0  0  0
  144.4054  173.4416  128.6777 C   0  0  0  0  0  0  0  0  0  0  0  0
  143.4834  173.0955  127.6971 O   0  0  0  0  0  0  0  0  0  0  0  0
  142.1145  173.2739  127.9057 C   0  0  0  0  0  0  0  0  0  0  0  0
  144.5863  174.7688  128.8836 C   0  0  0  0  0  0  0  0  0  0  0  0
  145.4904  175.1609  129.8438 C   0  0  0  0  0  0  0  0  0  0  0  0
  145.6247  176.6285  129.9942 C   0  0  0  0  0  0  0  0  0  0  0  0
  146.1310  177.0523  131.3007 C   0  0  0  0  0  0  0  0  0  0  0  0
  146.2113  175.9092  132.1793 N   0  0  0  0  0  0  0  0  0  0  0  0
  146.5438  176.3702  133.4620 C   0  0  0  0  0  0  0  0  0  0  0  0
  146.2336  174.2082  130.6214 C   0  0  0  0  0  0  0  0  0  0  0  0
  146.0352  172.8712  130.4025 C   0  0  0  0  0  0  0  0  0  0  0  0
  144.1615  169.0150  128.5523 C   0  0  0  0  0  0  0  0  0  0  0  0
  142.9304  169.5257  128.0612 O   0  0  0  0  0  0  0  0  0  0  0  0
  144.2937  167.6645  128.4848 C   0  0  0  0  0  0  0  0  0  0  0  0
  145.4743  167.1602  128.9553 C   0  0  0  0  0  0  0  0  0  0  0  0
  151.2848  165.3336  131.9045 C   0  0  0  0  0  0  0  0  0  0  0  0
  152.2803  166.2895  131.7418 C   0  0  0  0  0  0  0  0  0  0  0  0
  153.6088  166.0044  131.8414 O   0  0  0  0  0  0  0  0  0  0  0  0
  154.0121  164.6979  132.1950 C   0  0  0  0  0  0  0  0  0  0  0  0
  151.8476  167.5637  131.4711 C   0  0  0  0  0  0  0  0  0  0  0  0
  152.8976  168.5029  131.3104 O   0  0  0  0  0  0  0  0  0  0  0  0
  149.7901  171.4308  130.6287 C   0  0  0  0  0  0  0  0  0  0  0  0
  149.3055  172.7185  130.9379 C   0  0  0  0  0  0  0  0  0  0  0  0
  1  2  1  0
  2  3  1  0
  3  4  2  0
  4  5  1  0
  5  6  2  0
  6  7  1  0
  7  8  1  0
  8  9  2  0
  9 10  1  0
 10 11  1  0
 11 12  1  0
 12 13  1  0
 13 14  1  0
 13 15  1  0
 16 13  1  1
 16 17  1  0
 17 18  1  0
 18 19  2  0
 19 20  1  0
 20 21  1  0
 21 22  1  0
 22 23  2  0
 23 24  1  0
 24 25  1  0
 23 26  1  0
 26 27  2  0
 27 28  1  0
 28 29  1  0
 29 30  1  0
 30 31  1  0
 27 32  1  0
 32 33  2  0
 20 34  2  0
 34 35  1  0
 34 36  1  0
 36 37  2  0
 10 38  2  0
 38 39  1  0
 39 40  1  0
 40 41  1  0
 39 42  2  0
 42 43  1  0
  6 44  1  0
 44 45  2  0
  1 30  1  1
 32  1  1  0
 45  3  1  0
 42  8  1  0
 16  9  1  0
 37 18  1  0
 33 22  1  0
M  CHG  1  13   1
M  END
$$$$
