
     RDKit          3D

 45 51  0  0  0  0  0  0  0  0999 V2000
  143.8040  173.6172  124.6449 C   0  0  2  0  0  0  0  0  0  0  0  0
  142.8569  172.8581  125.4556 C   0  0  0  0  0  0  0  0  0  0  0  0
  143.3130  172.2839  126.7628 C   0  0  0  0  0  0  0  0  0  0  0  0
  143.3940  170.9350  127.0341 C   0  0  0  0  0  0  0  0  0  0  0  0
  143.8280  170.4712  128.3016 C   0  0  0  0  0  0  0  0  0  0  0  0
  144.1908  171.2919  129.3259 C   0  0  0  0  0  0  0  0  0  0  0  0
  144.6255  170.9680  130.5887 O   0  0  0  0  0  0  0  0  0  0  0  0
  144.7795  170.0884  131.5536 C   0  0  0  0  0  0  0  0  0  0  0  0
  145.7960  169.1121  131.4584 C   0  0  0  0  0  0  0  0  0  0  0  0
  145.9187  168.2053  132.4911 C   0  0  0  0  0  0  0  0  0  0  0  0
  147.0057  167.1735  132.2579 C   0  0  0  0  0  0  0  0  0  0  0  0
  146.7719  166.7593  130.8223 C   0  0  0  0  0  0  0  0  0  0  0  0
  146.9887  167.7744  129.8363 N   0  0  0  0  0  4  0  0  0  0  0  0
  146.0587  167.4078  128.7391 C   0  0  0  0  0  0  0  0  0  0  0  0
  148.3241  167.5051  129.3145 C   0  0  0  0  0  0  0  0  0  0  0  0
  146.7652  169.0536  130.3166 C   0  0  2  0  0  0  0  0  0  0  0  0
  147.9200  169.9940  130.5490 C   0  0  0  0  0  0  0  0  0  0  0  0
  148.5603  170.6054  129.3511 C   0  0  0  0  0  0  0  0  0  0  0  0
  148.0298  171.3827  128.3492 C   0  0  0  0  0  0  0  0  0  0  0  0
  148.8606  171.8057  127.3237 C   0  0  0  0  0  0  0  0  0  0  0  0
  148.5629  172.5788  126.2163 O   0  0  0  0  0  0  0  0  0  0  0  0
  147.5099  173.1500  125.5277 C   0  0  0  0  0  0  0  0  0  0  0  0
  147.9902  174.1583  124.6486 C   0  0  0  0  0  0  0  0  0  0  0  0
  149.3404  174.4694  124.5404 O   0  0  0  0  0  0  0  0  0  0  0  0
  150.3031  173.4621  124.4527 C   0  0  0  0  0  0  0  0  0  0  0  0
  147.1491  174.8743  123.8634 C   0  0  0  0  0  0  0  0  0  0  0  0
  145.8022  174.6031  123.9363 C   0  0  0  0  0  0  0  0  0  0  0  0
  144.9614  175.4379  123.0471 C   0  0  0  0  0  0  0  0  0  0  0  0
  143.6692  174.8387  122.7095 C   0  0  0  0  0  0  0  0  0  0  0  0
  143.6212  173.4851  123.2098 N   0  0  0  0  0  0  0  0  0  0  0  0
  142.4439  172.8881  122.7346 C   0  0  0  0  0  0  0  0  0  0  0  0
  145.2771  173.5921  124.8121 C   0  0  0  0  0  0  0  0  0  0  0  0
  146.1422  172.8759  125.5955 C   0  0  0  0  0  0  0  0  0  0  0  0
  150.2264  171.4309  127.3375 C   0  0  0  0  0  0  0  0  0  0  0  0
  151.1158  171.8424  126.3092 O   0  0  0  0  0  0  0  0  0  0  0  0
  150.7855  170.6669  128.3120 C   0  0  0  0  0  0  0  0  0  0  0  0
  149.9395  170.2636  129.3077 C   0  0  0  0  0  0  0  0  0  0  0  0
  145.1129  168.2142  133.5854 C   0  0  0  0  0  0  0  0  0  0  0  0
  144.1005  169.1559  133.7261 C   0  0  0  0  0  0  0  0  0  0  0  0
  143.2703  169.2000  134.8055 O   0  0  0  0  0  0  0  0  0  0  0  0
  143.5167  168.3472  135.9039 C   0  0  0  0  0  0  0  0  0  0  0  0
  143.9758  170.0581  132.6991 C   0  0  0  0  0  0  0  0  0  0  0  0
  142.9328  170.9998  132.8879 O   0  0  0  0  0  0  0  0  0  0  0  0
  144.1142  172.6454  129.0682 C   0  0  0  0  0  0  0  0  0  0  0  0
  143.6825  173.1107  127.8089 C   0  0  0  0  0  0  0  0  0  0  0  0
  1  2  1  0
  2  3  1  0
  3  4  2  0
  4  5  1  0
  5  6  2  0
  6  7  1  0
  7  8  1  0
  8  9  2  0
  9 10  1  0
 10 11  1  0
 11 12  1  0
 12 13  1  0
 13 14  1  0
 13 15  1  0
 16 13  1  1
 16 17  1  0
 17 18  1  0
 18 19  2  0
 19 20  1  0
 20 21  1  0
 21 22  1  0
 22 23  2  0
 23 24  1  0
 24 25  1  0
 23 26  1  0
 26 27  2  0
 27 28  1  0
 28 29  1  0
 29 30  1  0
 30 31  1  0
 27 32  1  0
 32 33  2  0
 20 34  2  0
 34 35  1  0
 34 36  1  0
 36 37  2  0
 10 38  2  0
 38 39  1  0
 39 40  1  0
 40 41  1  0
 39 42  2  0
 42 43  1  0
  6 44  1  0
 44 45  2  0
  1 30  1  6
 32  1  1  0
 45  3  1  0
 42  8  1  0
 16  9  1  0
 37 18  1  0
 33 22  1  0
M  CHG  1  13   1
M  END
$$$$
