
     RDKit          3D

 45 51  0  0  0  0  0  0  0  0999 V2000
  207.3508  134.4999  136.5346 C   0  0  2  0  0  0  0  0  0  0  0  0
  208.0803  133.2512  136.7319 C   0  0  0  0  0  0  0  0  0  0  0  0
  208.2114  132.2948  135.5854 C   0  0  0  0  0  0  0  0  0  0  0  0
  207.6584  131.0327  135.5578 C   0  0  0  0  0  0  0  0  0  0  0  0
  207.8358  130.1835  134.4365 C   0  0  0  0  0  0  0  0  0  0  0  0
  208.5442  130.5310  133.3266 C   0  0  0  0  0  0  0  0  0  0  0  0
  208.7856  129.8046  132.1852 O   0  0  0  0  0  0  0  0  0  0  0  0
  208.7889  128.6600  131.5385 C   0  0  0  0  0  0  0  0  0  0  0  0
  207.5731  128.1148  131.0694 C   0  0  0  0  0  0  0  0  0  0  0  0
  207.6220  126.9091  130.4004 C   0  0  0  0  0  0  0  0  0  0  0  0
  206.2554  126.3945  129.9900 C   0  0  0  0  0  0  0  0  0  0  0  0
  205.4276  126.6109  131.2371 C   0  0  0  0  0  0  0  0  0  0  0  0
  205.2241  127.9745  131.6226 N   0  0  0  0  0  4  0  0  0  0  0  0
  205.0815  127.9086  133.0985 C   0  0  0  0  0  0  0  0  0  0  0  0
  203.8947  128.3068  131.1223 C   0  0  0  0  0  0  0  0  0  0  0  0
  206.2545  128.8100  131.2256 C   0  0  2  0  0  0  0  0  0  0  0  0
  206.0431  129.8078  130.1158 C   0  0  0  0  0  0  0  0  0  0  0  0
  205.2398  131.0228  130.4277 C   0  0  0  0  0  0  0  0  0  0  0  0
  205.4247  132.0012  131.3753 C   0  0  0  0  0  0  0  0  0  0  0  0
  204.4955  133.0256  131.4650 C   0  0  0  0  0  0  0  0  0  0  0  0
  204.4612  134.1051  132.3288 O   0  0  0  0  0  0  0  0  0  0  0  0
  205.0769  134.6370  133.4456 C   0  0  0  0  0  0  0  0  0  0  0  0
  204.7486  136.0137  133.5759 C   0  0  0  0  0  0  0  0  0  0  0  0
  203.9147  136.6679  132.6768 O   0  0  0  0  0  0  0  0  0  0  0  0
  202.5637  136.3306  132.5768 C   0  0  0  0  0  0  0  0  0  0  0  0
  205.2357  136.7660  134.5924 C   0  0  0  0  0  0  0  0  0  0  0  0
  206.0672  136.1626  135.5077 C   0  0  0  0  0  0  0  0  0  0  0  0
  206.5538  137.0632  136.5785 C   0  0  0  0  0  0  0  0  0  0  0  0
  206.9649  136.3715  137.8013 C   0  0  0  0  0  0  0  0  0  0  0  0
  206.6236  134.9721  137.7002 N   0  0  0  0  0  0  0  0  0  0  0  0
  206.8815  134.3716  138.9417 C   0  0  0  0  0  0  0  0  0  0  0  0
  206.4229  134.7738  135.4109 C   0  0  0  0  0  0  0  0  0  0  0  0
  205.9183  134.0281  134.3792 C   0  0  0  0  0  0  0  0  0  0  0  0
  203.3891  133.0386  130.5809 C   0  0  0  0  0  0  0  0  0  0  0  0
  202.4128  134.0689  130.6344 O   0  0  0  0  0  0  0  0  0  0  0  0
  203.1760  132.0908  129.6310 C   0  0  0  0  0  0  0  0  0  0  0  0
  204.1086  131.0928  129.5695 C   0  0  0  0  0  0  0  0  0  0  0  0
  208.7790  126.2330  130.1741 C   0  0  0  0  0  0  0  0  0  0  0  0
  210.0004  126.7293  130.6138 C   0  0  0  0  0  0  0  0  0  0  0  0
  211.1828  126.0841  130.4090 O   0  0  0  0  0  0  0  0  0  0  0  0
  211.2556  124.6891  130.6171 C   0  0  0  0  0  0  0  0  0  0  0  0
  209.9538  127.9281  131.2808 C   0  0  0  0  0  0  0  0  0  0  0  0
  211.2226  128.3956  131.7073 O   0  0  0  0  0  0  0  0  0  0  0  0
  209.1039  131.7922  133.3407 C   0  0  0  0  0  0  0  0  0  0  0  0
  208.9302  132.6397  134.4545 C   0  0  0  0  0  0  0  0  0  0  0  0
  1  2  1  0
  2  3  1  0
  3  4  2  0
  4  5  1  0
  5  6  2  0
  6  7  1  0
  7  8  1  0
  8  9  2  0
  9 10  1  0
 10 11  1  0
 11 12  1  0
 12 13  1  0
 13 14  1  0
 13 15  1  0
 16 13  1  6
 16 17  1  0
 17 18  1  0
 18 19  2  0
 19 20  1  0
 20 21  1  0
 21 22  1  0
 22 23  2  0
 23 24  1  0
 24 25  1  0
 23 26  1  0
 26 27  2  0
 27 28  1  0
 28 29  1  0
 29 30  1  0
 30 31  1  0
 27 32  1  0
 32 33  2  0
 20 34  2  0
 34 35  1  0
 34 36  1  0
 36 37  2  0
 10 38  2  0
 38 39  1  0
 39 40  1  0
 40 41  1  0
 39 42  2  0
 42 43  1  0
  6 44  1  0
 44 45  2  0
  1 30  1  1
 32  1  1  0
 45  3  1  0
 42  8  1  0
 16  9  1  0
 37 18  1  0
 33 22  1  0
M  CHG  1  13   1
M  END
$$$$
