
     RDKit          3D

 45 51  0  0  0  0  0  0  0  0999 V2000
  167.7765  143.6516  121.1885 C   0  0  2  0  0  0  0  0  0  0  0  0
  168.6061  142.7101  120.4430 C   0  0  0  0  0  0  0  0  0  0  0  0
  170.0522  142.5646  120.8093 C   0  0  0  0  0  0  0  0  0  0  0  0
  171.1020  142.9040  119.9832 C   0  0  0  0  0  0  0  0  0  0  0  0
  172.4451  142.7274  120.4015 C   0  0  0  0  0  0  0  0  0  0  0  0
  172.8014  142.2245  121.6158 C   0  0  0  0  0  0  0  0  0  0  0  0
  174.0555  142.0078  122.1343 O   0  0  0  0  0  0  0  0  0  0  0  0
  175.3553  141.8963  121.9722 C   0  0  0  0  0  0  0  0  0  0  0  0
  176.1417  143.0548  121.7849 C   0  0  0  0  0  0  0  0  0  0  0  0
  177.5009  142.8915  121.6134 C   0  0  0  0  0  0  0  0  0  0  0  0
  178.2360  144.1955  121.3684 C   0  0  0  0  0  0  0  0  0  0  0  0
  177.3560  144.8906  120.3537 C   0  0  0  0  0  0  0  0  0  0  0  0
  176.0521  145.2653  120.8106 N   0  0  0  0  0  4  0  0  0  0  0  0
  175.2183  145.2159  119.5837 C   0  0  0  0  0  0  0  0  0  0  0  0
  176.1676  146.6817  121.1402 C   0  0  0  0  0  0  0  0  0  0  0  0
  175.5708  144.4404  121.8131 C   0  0  2  0  0  0  0  0  0  0  0  0
  175.4635  144.9440  123.2298 C   0  0  0  0  0  0  0  0  0  0  0  0
  174.3564  145.8907  123.5408 C   0  0  0  0  0  0  0  0  0  0  0  0
  172.9954  145.7544  123.4054 C   0  0  0  0  0  0  0  0  0  0  0  0
  172.1812  146.8203  123.7547 C   0  0  0  0  0  0  0  0  0  0  0  0
  170.8033  146.9252  123.7019 O   0  0  0  0  0  0  0  0  0  0  0  0
  169.6694  146.2739  123.2554 C   0  0  0  0  0  0  0  0  0  0  0  0
  168.5168  146.8039  123.8964 C   0  0  0  0  0  0  0  0  0  0  0  0
  168.5901  147.8356  124.8247 O   0  0  0  0  0  0  0  0  0  0  0  0
  169.7454  148.6100  124.9455 C   0  0  0  0  0  0  0  0  0  0  0  0
  167.2761  146.3265  123.6330 C   0  0  0  0  0  0  0  0  0  0  0  0
  167.1528  145.3034  122.7213 C   0  0  0  0  0  0  0  0  0  0  0  0
  165.7616  144.8441  122.5021 C   0  0  0  0  0  0  0  0  0  0  0  0
  165.5461  144.1812  121.2149 C   0  0  0  0  0  0  0  0  0  0  0  0
  166.7372  144.2997  120.4074 N   0  0  0  0  0  0  0  0  0  0  0  0
  166.4467  143.7993  119.1292 C   0  0  0  0  0  0  0  0  0  0  0  0
  168.2932  144.7406  122.0522 C   0  0  0  0  0  0  0  0  0  0  0  0
  169.5387  145.2380  122.3279 C   0  0  0  0  0  0  0  0  0  0  0  0
  172.7699  148.0126  124.2423 C   0  0  0  0  0  0  0  0  0  0  0  0
  171.9757  149.1299  124.6145 O   0  0  0  0  0  0  0  0  0  0  0  0
  174.1096  148.1819  124.3920 C   0  0  0  0  0  0  0  0  0  0  0  0
  174.8855  147.1135  124.0365 C   0  0  0  0  0  0  0  0  0  0  0  0
  178.1084  141.6758  121.6200 C   0  0  0  0  0  0  0  0  0  0  0  0
  177.3784  140.5075  121.8029 C   0  0  0  0  0  0  0  0  0  0  0  0
  177.9468  139.2693  121.8156 O   0  0  0  0  0  0  0  0  0  0  0  0
  178.7180  138.8500  120.7093 C   0  0  0  0  0  0  0  0  0  0  0  0
  176.0257  140.6677  121.9723 C   0  0  0  0  0  0  0  0  0  0  0  0
  175.3238  139.4498  122.1579 O   0  0  0  0  0  0  0  0  0  0  0  0
  171.7600  141.8801  122.4532 C   0  0  0  0  0  0  0  0  0  0  0  0
  170.4227  142.0536  122.0406 C   0  0  0  0  0  0  0  0  0  0  0  0
  1  2  1  0
  2  3  1  0
  3  4  2  0
  4  5  1  0
  5  6  2  0
  6  7  1  0
  7  8  1  0
  8  9  2  0
  9 10  1  0
 10 11  1  0
 11 12  1  0
 12 13  1  0
 13 14  1  0
 13 15  1  0
 16 13  1  6
 16 17  1  0
 17 18  1  0
 18 19  2  0
 19 20  1  0
 20 21  1  0
 21 22  1  0
 22 23  2  0
 23 24  1  0
 24 25  1  0
 23 26  1  0
 26 27  2  0
 27 28  1  0
 28 29  1  0
 29 30  1  0
 30 31  1  0
 27 32  1  0
 32 33  2  0
 20 34  2  0
 34 35  1  0
 34 36  1  0
 36 37  2  0
 10 38  2  0
 38 39  1  0
 39 40  1  0
 40 41  1  0
 39 42  2  0
 42 43  1  0
  6 44  1  0
 44 45  2  0
  1 30  1  6
 32  1  1  0
 45  3  1  0
 42  8  1  0
 16  9  1  0
 37 18  1  0
 33 22  1  0
M  CHG  1  13   1
M  END
$$$$
