
     RDKit          3D

 45 51  0  0  0  0  0  0  0  0999 V2000
  186.4753  183.4054  138.3826 C   0  0  2  0  0  0  0  0  0  0  0  0
  186.2351  183.5739  139.8123 C   0  0  0  0  0  0  0  0  0  0  0  0
  185.5902  182.4592  140.5793 C   0  0  0  0  0  0  0  0  0  0  0  0
  184.3515  182.5415  141.1777 C   0  0  0  0  0  0  0  0  0  0  0  0
  183.8138  181.4426  141.8944 C   0  0  0  0  0  0  0  0  0  0  0  0
  184.4540  180.2505  142.0472 C   0  0  0  0  0  0  0  0  0  0  0  0
  184.0422  179.1200  142.7112 O   0  0  0  0  0  0  0  0  0  0  0  0
  183.2324  178.5231  143.5576 C   0  0  0  0  0  0  0  0  0  0  0  0
  181.9127  178.2085  143.1640 C   0  0  0  0  0  0  0  0  0  0  0  0
  181.0952  177.5871  144.0855 C   0  0  0  0  0  0  0  0  0  0  0  0
  179.6881  177.3456  143.5731 C   0  0  0  0  0  0  0  0  0  0  0  0
  179.3387  178.6640  142.9198 C   0  0  0  0  0  0  0  0  0  0  0  0
  180.1119  179.0139  141.7669 N   0  0  0  0  0  4  0  0  0  0  0  0
  180.1196  180.4981  141.7818 C   0  0  0  0  0  0  0  0  0  0  0  0
  179.2729  178.6451  140.6319 C   0  0  0  0  0  0  0  0  0  0  0  0
  181.3878  178.4762  141.7859 C   0  0  2  0  0  0  0  0  0  0  0  0
  181.7576  177.3560  140.8475 C   0  0  0  0  0  0  0  0  0  0  0  0
  181.9749  177.7027  139.4153 C   0  0  0  0  0  0  0  0  0  0  0  0
  182.8507  178.5851  138.8291 C   0  0  0  0  0  0  0  0  0  0  0  0
  182.8257  178.7321  137.4512 C   0  0  0  0  0  0  0  0  0  0  0  0
  183.5930  179.5506  136.6426 O   0  0  0  0  0  0  0  0  0  0  0  0
  184.5214  180.5732  136.6819 C   0  0  0  0  0  0  0  0  0  0  0  0
  185.1819  180.6823  135.4280 C   0  0  0  0  0  0  0  0  0  0  0  0
  184.8825  179.8517  134.3547 O   0  0  0  0  0  0  0  0  0  0  0  0
  183.7263  180.0483  133.5973 C   0  0  0  0  0  0  0  0  0  0  0  0
  186.1459  181.6101  135.2125 C   0  0  0  0  0  0  0  0  0  0  0  0
  186.4782  182.4551  136.2463 C   0  0  0  0  0  0  0  0  0  0  0  0
  187.5439  183.4309  135.9198 C   0  0  0  0  0  0  0  0  0  0  0  0
  187.5352  184.6298  136.7597 C   0  0  0  0  0  0  0  0  0  0  0  0
  186.3589  184.6219  137.5971 N   0  0  0  0  0  0  0  0  0  0  0  0
  186.2961  185.8520  138.2690 C   0  0  0  0  0  0  0  0  0  0  0  0
  185.8341  182.3768  137.5284 C   0  0  0  0  0  0  0  0  0  0  0  0
  184.8597  181.4356  137.7269 C   0  0  0  0  0  0  0  0  0  0  0  0
  181.9063  177.9710  136.6886 C   0  0  0  0  0  0  0  0  0  0  0  0
  181.8457  178.0868  135.2742 O   0  0  0  0  0  0  0  0  0  0  0  0
  181.0289  177.0881  137.2330 C   0  0  0  0  0  0  0  0  0  0  0  0
  181.0766  176.9678  138.5943 C   0  0  0  0  0  0  0  0  0  0  0  0
  181.5034  177.2661  145.3415 C   0  0  0  0  0  0  0  0  0  0  0  0
  182.7923  177.5529  145.7746 C   0  0  0  0  0  0  0  0  0  0  0  0
  183.2419  177.2494  147.0244 O   0  0  0  0  0  0  0  0  0  0  0  0
  182.7478  176.0989  147.6777 C   0  0  0  0  0  0  0  0  0  0  0  0
  183.6069  178.1724  144.8598 C   0  0  0  0  0  0  0  0  0  0  0  0
  184.9115  178.4422  145.3452 O   0  0  0  0  0  0  0  0  0  0  0  0
  185.6959  180.1543  141.4532 C   0  0  0  0  0  0  0  0  0  0  0  0
  186.2344  181.2453  140.7400 C   0  0  0  0  0  0  0  0  0  0  0  0
  1  2  1  0
  2  3  1  0
  3  4  2  0
  4  5  1  0
  5  6  2  0
  6  7  1  0
  7  8  1  0
  8  9  2  0
  9 10  1  0
 10 11  1  0
 11 12  1  0
 12 13  1  0
 13 14  1  0
 13 15  1  0
 16 13  1  1
 16 17  1  0
 17 18  1  0
 18 19  2  0
 19 20  1  0
 20 21  1  0
 21 22  1  0
 22 23  2  0
 23 24  1  0
 24 25  1  0
 23 26  1  0
 26 27  2  0
 27 28  1  0
 28 29  1  0
 29 30  1  0
 30 31  1  0
 27 32  1  0
 32 33  2  0
 20 34  2  0
 34 35  1  0
 34 36  1  0
 36 37  2  0
 10 38  2  0
 38 39  1  0
 39 40  1  0
 40 41  1  0
 39 42  2  0
 42 43  1  0
  6 44  1  0
 44 45  2  0
  1 30  1  6
 32  1  1  0
 45  3  1  0
 42  8  1  0
 16  9  1  0
 37 18  1  0
 33 22  1  0
M  CHG  1  13   1
M  END
$$$$
