
     RDKit          3D

 45 51  0  0  0  0  0  0  0  0999 V2000
  116.5866  171.0500  148.9159 C   0  0  2  0  0  0  0  0  0  0  0  0
  116.0683  170.9775  147.5534 C   0  0  0  0  0  0  0  0  0  0  0  0
  116.3512  169.7575  146.7301 C   0  0  0  0  0  0  0  0  0  0  0  0
  117.1153  169.7529  145.5831 C   0  0  0  0  0  0  0  0  0  0  0  0
  117.3292  168.5556  144.8544 C   0  0  0  0  0  0  0  0  0  0  0  0
  116.8154  167.3469  145.2141 C   0  0  0  0  0  0  0  0  0  0  0  0
  116.9499  166.1258  144.5983 O   0  0  0  0  0  0  0  0  0  0  0  0
  117.2860  165.4047  143.5517 C   0  0  0  0  0  0  0  0  0  0  0  0
  118.6503  165.1776  143.2640 C   0  0  0  0  0  0  0  0  0  0  0  0
  118.9582  164.4198  142.1529 C   0  0  0  0  0  0  0  0  0  0  0  0
  120.4498  164.2860  141.9122 C   0  0  0  0  0  0  0  0  0  0  0  0
  120.9489  165.7001  142.1080 C   0  0  0  0  0  0  0  0  0  0  0  0
  120.8201  166.2300  143.4317 N   0  0  0  0  0  4  0  0  0  0  0  0
  120.6635  167.6901  143.2157 C   0  0  0  0  0  0  0  0  0  0  0  0
  122.1426  166.0688  144.0259 C   0  0  0  0  0  0  0  0  0  0  0  0
  119.7614  165.6809  144.1351 C   0  0  2  0  0  0  0  0  0  0  0  0
  120.0153  164.7308  145.2774 C   0  0  0  0  0  0  0  0  0  0  0  0
  120.5052  165.3116  146.5586 C   0  0  0  0  0  0  0  0  0  0  0  0
  119.9556  166.2693  147.3771 C   0  0  0  0  0  0  0  0  0  0  0  0
  120.6467  166.6473  148.5175 C   0  0  0  0  0  0  0  0  0  0  0  0
  120.3071  167.5809  149.4796 O   0  0  0  0  0  0  0  0  0  0  0  0
  119.3883  168.5705  149.7725 C   0  0  0  0  0  0  0  0  0  0  0  0
  119.4300  168.8815  151.1587 C   0  0  0  0  0  0  0  0  0  0  0  0
  120.3007  168.2480  152.0374 O   0  0  0  0  0  0  0  0  0  0  0  0
  121.6754  168.2286  151.7947 C   0  0  0  0  0  0  0  0  0  0  0  0
  118.6160  169.8203  151.6998 C   0  0  0  0  0  0  0  0  0  0  0  0
  117.7352  170.4742  150.8694 C   0  0  0  0  0  0  0  0  0  0  0  0
  116.8839  171.4778  151.5496 C   0  0  0  0  0  0  0  0  0  0  0  0
  116.3595  172.5175  150.6626 C   0  0  0  0  0  0  0  0  0  0  0  0
  116.9599  172.3830  149.3563 N   0  0  0  0  0  0  0  0  0  0  0  0
  116.5626  173.4827  148.5808 C   0  0  0  0  0  0  0  0  0  0  0  0
  117.6624  170.1886  149.4630 C   0  0  0  0  0  0  0  0  0  0  0  0
  118.4951  169.2396  148.9330 C   0  0  0  0  0  0  0  0  0  0  0  0
  121.8915  166.0376  148.8087 C   0  0  0  0  0  0  0  0  0  0  0  0
  122.6344  166.3914  149.9665 O   0  0  0  0  0  0  0  0  0  0  0  0
  122.4633  165.0864  148.0249 C   0  0  0  0  0  0  0  0  0  0  0  0
  121.7582  164.7373  146.9066 C   0  0  0  0  0  0  0  0  0  0  0  0
  118.0137  163.8861  141.3343 C   0  0  0  0  0  0  0  0  0  0  0  0
  116.6590  164.0795  141.5766 C   0  0  0  0  0  0  0  0  0  0  0  0
  115.6800  163.5636  140.7817 O   0  0  0  0  0  0  0  0  0  0  0  0
  116.0381  162.8529  139.6150 C   0  0  0  0  0  0  0  0  0  0  0  0
  116.3505  164.8344  142.6808 C   0  0  0  0  0  0  0  0  0  0  0  0
  114.9580  165.0019  142.8889 O   0  0  0  0  0  0  0  0  0  0  0  0
  116.0478  167.3369  146.3608 C   0  0  0  0  0  0  0  0  0  0  0  0
  115.8322  168.5258  147.0880 C   0  0  0  0  0  0  0  0  0  0  0  0
  1  2  1  0
  2  3  1  0
  3  4  2  0
  4  5  1  0
  5  6  2  0
  6  7  1  0
  7  8  1  0
  8  9  2  0
  9 10  1  0
 10 11  1  0
 11 12  1  0
 12 13  1  0
 13 14  1  0
 13 15  1  0
 16 13  1  6
 16 17  1  0
 17 18  1  0
 18 19  2  0
 19 20  1  0
 20 21  1  0
 21 22  1  0
 22 23  2  0
 23 24  1  0
 24 25  1  0
 23 26  1  0
 26 27  2  0
 27 28  1  0
 28 29  1  0
 29 30  1  0
 30 31  1  0
 27 32  1  0
 32 33  2  0
 20 34  2  0
 34 35  1  0
 34 36  1  0
 36 37  2  0
 10 38  2  0
 38 39  1  0
 39 40  1  0
 40 41  1  0
 39 42  2  0
 42 43  1  0
  6 44  1  0
 44 45  2  0
  1 30  1  6
 32  1  1  0
 45  3  1  0
 42  8  1  0
 16  9  1  0
 37 18  1  0
 33 22  1  0
M  CHG  1  13   1
M  END
$$$$
