
     RDKit          3D

 45 51  0  0  0  0  0  0  0  0999 V2000
  195.1853  179.2121  134.2225 C   0  0  2  0  0  0  0  0  0  0  0  0
  195.1963  178.0935  133.2850 C   0  0  0  0  0  0  0  0  0  0  0  0
  194.4273  178.2090  132.0036 C   0  0  0  0  0  0  0  0  0  0  0  0
  193.3390  177.4293  131.6763 C   0  0  0  0  0  0  0  0  0  0  0  0
  192.6697  177.5951  130.4375 C   0  0  0  0  0  0  0  0  0  0  0  0
  193.0326  178.5094  129.4959 C   0  0  0  0  0  0  0  0  0  0  0  0
  192.4697  178.7654  128.2687 O   0  0  0  0  0  0  0  0  0  0  0  0
  191.6728  178.4185  127.2823 C   0  0  0  0  0  0  0  0  0  0  0  0
  190.2739  178.5472  127.4310 C   0  0  0  0  0  0  0  0  0  0  0  0
  189.4746  178.1665  126.3728 C   0  0  0  0  0  0  0  0  0  0  0  0
  187.9917  178.2978  126.6630 C   0  0  0  0  0  0  0  0  0  0  0  0
  187.8667  177.6990  128.0461 C   0  0  0  0  0  0  0  0  0  0  0  0
  188.5278  178.4115  129.0972 N   0  0  0  0  0  4  0  0  0  0  0  0
  188.8799  177.3533  130.0765 C   0  0  0  0  0  0  0  0  0  0  0  0
  187.4738  179.1917  129.7363 C   0  0  0  0  0  0  0  0  0  0  0  0
  189.6345  179.1195  128.6599 C   0  0  2  0  0  0  0  0  0  0  0  0
  189.5986  180.6248  128.5904 C   0  0  0  0  0  0  0  0  0  0  0  0
  189.6841  181.3744  129.8747 C   0  0  0  0  0  0  0  0  0  0  0  0
  190.6474  181.3665  130.8551 C   0  0  0  0  0  0  0  0  0  0  0  0
  190.4613  182.1573  131.9781 C   0  0  0  0  0  0  0  0  0  0  0  0
  191.2739  182.3114  133.0865 O   0  0  0  0  0  0  0  0  0  0  0  0
  192.4091  181.8091  133.6933 C   0  0  0  0  0  0  0  0  0  0  0  0
  192.8918  182.7282  134.6642 C   0  0  0  0  0  0  0  0  0  0  0  0
  192.2593  183.9385  134.9220 O   0  0  0  0  0  0  0  0  0  0  0  0
  192.9352  185.1492  134.7588 C   0  0  0  0  0  0  0  0  0  0  0  0
  194.0032  182.4692  135.3952 C   0  0  0  0  0  0  0  0  0  0  0  0
  194.6651  181.2833  135.1747 C   0  0  0  0  0  0  0  0  0  0  0  0
  195.8697  181.0900  136.0150 C   0  0  0  0  0  0  0  0  0  0  0  0
  196.2574  179.6895  136.1919 C   0  0  0  0  0  0  0  0  0  0  0  0
  195.2424  178.8340  135.6239 N   0  0  0  0  0  0  0  0  0  0  0  0
  195.5613  177.5070  135.9492 C   0  0  0  0  0  0  0  0  0  0  0  0
  194.2093  180.3284  134.2025 C   0  0  0  0  0  0  0  0  0  0  0  0
  193.0823  180.6051  133.4757 C   0  0  0  0  0  0  0  0  0  0  0  0
  189.2923  182.9501  132.0827 C   0  0  0  0  0  0  0  0  0  0  0  0
  189.0596  183.7774  133.2137 O   0  0  0  0  0  0  0  0  0  0  0  0
  188.3213  182.9851  131.1330 C   0  0  0  0  0  0  0  0  0  0  0  0
  188.5331  182.1924  130.0392 C   0  0  0  0  0  0  0  0  0  0  0  0
  189.9720  177.6807  125.2050 C   0  0  0  0  0  0  0  0  0  0  0  0
  191.3405  177.5376  125.0099 C   0  0  0  0  0  0  0  0  0  0  0  0
  191.8809  177.0545  123.8563 O   0  0  0  0  0  0  0  0  0  0  0  0
  191.3831  177.5086  122.6150 C   0  0  0  0  0  0  0  0  0  0  0  0
  192.1375  177.9146  126.0620 C   0  0  0  0  0  0  0  0  0  0  0  0
  193.5245  177.7535  125.8159 O   0  0  0  0  0  0  0  0  0  0  0  0
  194.1213  179.2969  129.8103 C   0  0  0  0  0  0  0  0  0  0  0  0
  194.7900  179.1347  131.0413 C   0  0  0  0  0  0  0  0  0  0  0  0
  1  2  1  0
  2  3  1  0
  3  4  2  0
  4  5  1  0
  5  6  2  0
  6  7  1  0
  7  8  1  0
  8  9  2  0
  9 10  1  0
 10 11  1  0
 11 12  1  0
 12 13  1  0
 13 14  1  0
 13 15  1  0
 16 13  1  6
 16 17  1  0
 17 18  1  0
 18 19  2  0
 19 20  1  0
 20 21  1  0
 21 22  1  0
 22 23  2  0
 23 24  1  0
 24 25  1  0
 23 26  1  0
 26 27  2  0
 27 28  1  0
 28 29  1  0
 29 30  1  0
 30 31  1  0
 27 32  1  0
 32 33  2  0
 20 34  2  0
 34 35  1  0
 34 36  1  0
 36 37  2  0
 10 38  2  0
 38 39  1  0
 39 40  1  0
 40 41  1  0
 39 42  2  0
 42 43  1  0
  6 44  1  0
 44 45  2  0
  1 30  1  1
 32  1  1  0
 45  3  1  0
 42  8  1  0
 16  9  1  0
 37 18  1  0
 33 22  1  0
M  CHG  1  13   1
M  END
$$$$
