
     RDKit          3D

 36 40  0  0  0  0  0  0  0  0999 V2000
  160.9698  145.3054  127.0533 C   0  0  0  0  0  0  0  0  0  0  0  0
  161.2775  146.6321  127.7816 C   0  0  0  0  0  0  0  0  0  0  0  0
  161.0123  146.3593  129.2429 C   0  0  0  0  0  0  0  0  0  0  0  0
  160.4383  147.7146  127.2003 C   0  0  0  0  0  0  0  0  0  0  0  0
  161.1646  148.5769  126.2015 C   0  0  0  0  0  0  0  0  0  0  0  0
  162.3156  149.3208  126.8509 C   0  0  2  0  0  0  0  0  0  0  0  0
  163.2000  149.9554  125.8199 C   0  0  0  0  0  0  0  0  0  0  0  0
  164.4195  149.1442  125.4995 C   0  0  0  0  0  0  0  0  0  0  0  0
  165.2492  148.6911  126.6329 C   0  0  2  0  0  0  0  0  0  0  0  0
  165.7479  147.2737  126.2949 C   0  0  0  0  0  0  0  0  0  0  0  0
  164.4415  148.7553  127.8683 C   0  0  1  0  0  0  0  0  0  0  0  0
  163.0043  148.3517  127.7653 C   0  0  2  0  0  0  0  0  0  0  0  0
  162.7331  146.9276  127.4882 C   0  0  0  0  0  0  0  0  0  0  0  0
  165.1880  148.1500  128.9581 C   0  0  0  0  0  0  0  0  0  0  0  0
  164.6183  147.5038  129.9108 O   0  0  0  0  0  0  0  0  0  0  0  0
  166.6269  148.3013  128.9417 C   0  0  0  0  0  0  0  0  0  0  0  0
  167.2944  148.8887  127.9709 C   0  0  0  0  0  0  0  0  0  0  0  0
  168.7707  148.9315  128.1515 C   0  0  1  0  0  0  0  0  0  0  0  0
  169.1817  150.0133  129.1169 C   0  0  0  0  0  0  0  0  0  0  0  0
  169.3026  147.6780  128.7550 C   0  0  0  0  0  0  0  0  0  0  0  0
  170.5794  147.4088  128.7301 C   0  0  0  0  0  0  0  0  0  0  0  0
  171.1244  146.2270  129.3028 C   0  0  0  0  0  0  0  0  0  0  0  0
  171.5944  145.2325  129.7811 N   0  0  0  0  0  0  0  0  0  0  0  0
  171.4698  148.3848  128.0483 C   0  0  0  0  0  0  0  0  0  0  0  0
  172.5936  148.5952  128.4874 O   0  0  0  0  0  0  0  0  0  0  0  0
  170.9408  149.0684  126.8364 C   0  0  0  0  0  0  0  0  0  0  0  0
  171.4792  148.2598  125.6441 C   0  0  0  0  0  0  0  0  0  0  0  0
  171.5156  150.4401  126.7023 C   0  0  0  0  0  0  0  0  0  0  0  0
  169.4283  149.0109  126.8214 C   0  0  2  0  0  0  0  0  0  0  0  0
  168.7864  149.9276  125.8318 C   0  0  0  0  0  0  0  0  0  0  0  0
  167.3777  149.4133  125.5994 C   0  0  0  0  0  0  0  0  0  0  0  0
  166.5400  149.4841  126.8571 C   0  0  1  0  0  0  0  0  0  0  0  0
  166.2835  150.9634  127.0854 C   0  0  0  0  0  0  0  0  0  0  0  0
  161.6502  150.4493  127.6141 C   0  0  0  0  0  0  0  0  0  0  0  0
  162.0559  150.6251  128.9186 O   0  0  0  0  0  0  0  0  0  0  0  0
  160.7980  151.1673  127.1034 O   0  0  0  0  0  0  0  0  0  0  0  0
  1  2  1  0
  2  3  1  0
  2  4  1  0
  4  5  1  0
  5  6  1  0
  6  7  1  0
  7  8  1  0
  8  9  1  0
  9 10  1  6
  9 11  1  0
 11 12  1  0
 12 13  1  6
 11 14  1  1
 14 15  2  0
 14 16  1  0
 16 17  2  0
 17 18  1  0
 18 19  1  1
 18 20  1  0
 20 21  2  0
 21 22  1  0
 22 23  3  0
 21 24  1  0
 24 25  2  0
 24 26  1  0
 26 27  1  0
 26 28  1  0
 26 29  1  0
 29 30  1  1
 30 31  1  0
 31 32  1  0
 32 33  1  1
  6 34  1  1
 34 35  1  0
 34 36  2  0
 13  2  1  0
 32 17  1  0
 12  6  1  0
 29 18  1  0
 32  9  1  0
M  END
$$$$
