
     RDKit          3D

 36 40  0  0  0  0  0  0  0  0999 V2000
  164.7961  156.0284  125.3252 C   0  0  0  0  0  0  0  0  0  0  0  0
  164.7759  155.2676  126.6691 C   0  0  0  0  0  0  0  0  0  0  0  0
  163.4708  155.6476  127.3266 C   0  0  0  0  0  0  0  0  0  0  0  0
  165.9851  155.6329  127.4555 C   0  0  0  0  0  0  0  0  0  0  0  0
  167.0938  154.6168  127.3731 C   0  0  0  0  0  0  0  0  0  0  0  0
  166.6664  153.2870  127.9637 C   0  0  2  0  0  0  0  0  0  0  0  0
  167.6546  152.2076  127.6376 C   0  0  0  0  0  0  0  0  0  0  0  0
  167.2546  151.3684  126.4614 C   0  0  0  0  0  0  0  0  0  0  0  0
  165.8964  150.7912  126.4711 C   0  0  2  0  0  0  0  0  0  0  0  0
  165.3675  150.8455  125.0256 C   0  0  0  0  0  0  0  0  0  0  0  0
  165.0668  151.5450  127.4334 C   0  0  1  0  0  0  0  0  0  0  0  0
  165.2667  153.0268  127.4920 C   0  0  2  0  0  0  0  0  0  0  0  0
  164.8513  153.8000  126.3053 C   0  0  0  0  0  0  0  0  0  0  0  0
  163.6876  151.1004  127.3250 C   0  0  0  0  0  0  0  0  0  0  0  0
  162.6908  151.8902  127.5051 O   0  0  0  0  0  0  0  0  0  0  0  0
  163.4624  149.7079  127.0032 C   0  0  0  0  0  0  0  0  0  0  0  0
  164.4240  148.8487  126.7379 C   0  0  0  0  0  0  0  0  0  0  0  0
  163.9711  147.4660  126.4263 C   0  0  1  0  0  0  0  0  0  0  0  0
  163.6077  146.7052  127.6755 C   0  0  0  0  0  0  0  0  0  0  0  0
  162.7256  147.4499  125.6099 C   0  0  0  0  0  0  0  0  0  0  0  0
  162.3340  146.3634  125.0021 C   0  0  0  0  0  0  0  0  0  0  0  0
  161.1470  146.3078  124.2213 C   0  0  0  0  0  0  0  0  0  0  0  0
  160.1454  146.2494  123.5639 N   0  0  0  0  0  0  0  0  0  0  0  0
  163.1970  145.1597  125.1315 C   0  0  0  0  0  0  0  0  0  0  0  0
  162.6873  144.0481  125.1975 O   0  0  0  0  0  0  0  0  0  0  0  0
  164.6700  145.3707  125.1699 C   0  0  0  0  0  0  0  0  0  0  0  0
  165.1526  145.1436  123.7274 C   0  0  0  0  0  0  0  0  0  0  0  0
  165.3385  144.3259  126.0015 C   0  0  0  0  0  0  0  0  0  0  0  0
  164.9844  146.7962  125.5704 C   0  0  2  0  0  0  0  0  0  0  0  0
  166.4110  147.0305  125.9462 C   0  0  0  0  0  0  0  0  0  0  0  0
  166.6585  148.5240  125.8391 C   0  0  0  0  0  0  0  0  0  0  0  0
  165.8200  149.3038  126.8278 C   0  0  1  0  0  0  0  0  0  0  0  0
  166.4189  148.9992  128.1897 C   0  0  0  0  0  0  0  0  0  0  0  0
  166.7311  153.5040  129.4629 C   0  0  0  0  0  0  0  0  0  0  0  0
  165.5415  153.3873  130.1474 O   0  0  0  0  0  0  0  0  0  0  0  0
  167.7805  153.7692  130.0380 O   0  0  0  0  0  0  0  0  0  0  0  0
  1  2  1  0
  2  3  1  0
  2  4  1  0
  4  5  1  0
  5  6  1  0
  6  7  1  0
  7  8  1  0
  8  9  1  0
  9 10  1  6
  9 11  1  0
 11 12  1  0
 12 13  1  6
 11 14  1  6
 14 15  2  0
 14 16  1  0
 16 17  2  0
 17 18  1  0
 18 19  1  1
 18 20  1  0
 20 21  2  0
 21 22  1  0
 22 23  3  0
 21 24  1  0
 24 25  2  0
 24 26  1  0
 26 27  1  0
 26 28  1  0
 26 29  1  0
 29 30  1  1
 30 31  1  0
 31 32  1  0
 32 33  1  1
  6 34  1  1
 34 35  1  0
 34 36  2  0
 13  2  1  0
 32 17  1  0
 12  6  1  0
 29 18  1  0
 32  9  1  0
M  END
$$$$
