
     RDKit          3D

 36 40  0  0  0  0  0  0  0  0999 V2000
  177.8290  158.4005  106.5975 C   0  0  0  0  0  0  0  0  0  0  0  0
  178.4817  159.6493  107.2299 C   0  0  0  0  0  0  0  0  0  0  0  0
  178.9049  160.5142  106.0668 C   0  0  0  0  0  0  0  0  0  0  0  0
  179.6010  159.2217  108.1121 C   0  0  0  0  0  0  0  0  0  0  0  0
  179.2415  159.1817  109.5742 C   0  0  0  0  0  0  0  0  0  0  0  0
  178.8811  160.5614  110.0902 C   0  0  2  0  0  0  0  0  0  0  0  0
  178.2630  160.4846  111.4540 C   0  0  0  0  0  0  0  0  0  0  0  0
  176.7646  160.5303  111.4330 C   0  0  0  0  0  0  0  0  0  0  0  0
  176.1304  161.6283  110.6778 C   0  0  2  0  0  0  0  0  0  0  0  0
  174.8768  161.0484  109.9964 C   0  0  0  0  0  0  0  0  0  0  0  0
  177.1167  162.1833  109.7283 C   0  0  1  0  0  0  0  0  0  0  0  0
  178.0260  161.2118  109.0437 C   0  0  2  0  0  0  0  0  0  0  0  0
  177.4017  160.2849  108.0795 C   0  0  0  0  0  0  0  0  0  0  0  0
  176.4559  163.1442  108.8614 C   0  0  0  0  0  0  0  0  0  0  0  0
  176.7959  163.3164  107.6348 O   0  0  0  0  0  0  0  0  0  0  0  0
  175.3790  163.9232  109.4331 C   0  0  0  0  0  0  0  0  0  0  0  0
  174.9242  163.7630  110.6581 C   0  0  0  0  0  0  0  0  0  0  0  0
  173.8065  164.6666  111.0432 C   0  0  1  0  0  0  0  0  0  0  0  0
  174.3014  166.0484  111.3854 C   0  0  0  0  0  0  0  0  0  0  0  0
  172.8465  164.8856  109.9258 C   0  0  0  0  0  0  0  0  0  0  0  0
  171.6691  165.4051  110.1429 C   0  0  0  0  0  0  0  0  0  0  0  0
  170.7298  165.6366  109.1008 C   0  0  0  0  0  0  0  0  0  0  0  0
  169.9289  165.8308  108.2294 N   0  0  0  0  0  0  0  0  0  0  0  0
  171.3173  165.7355  111.5492 C   0  0  0  0  0  0  0  0  0  0  0  0
  170.6372  166.7248  111.7913 O   0  0  0  0  0  0  0  0  0  0  0  0
  171.8161  164.8241  112.6151 C   0  0  0  0  0  0  0  0  0  0  0  0
  170.6520  163.8625  112.9075 C   0  0  0  0  0  0  0  0  0  0  0  0
  172.0672  165.5712  113.8834 C   0  0  0  0  0  0  0  0  0  0  0  0
  172.9955  164.0218  112.1081 C   0  0  2  0  0  0  0  0  0  0  0  0
  173.7661  163.3168  113.1761 C   0  0  0  0  0  0  0  0  0  0  0  0
  174.5605  162.2164  112.4971 C   0  0  0  0  0  0  0  0  0  0  0  0
  175.5801  162.7759  111.5295 C   0  0  1  0  0  0  0  0  0  0  0  0
  176.6459  163.4204  112.3984 C   0  0  0  0  0  0  0  0  0  0  0  0
  180.2159  161.2624  110.2513 C   0  0  0  0  0  0  0  0  0  0  0  0
  181.1672  160.5983  110.9938 O   0  0  0  0  0  0  0  0  0  0  0  0
  180.4403  162.3588  109.7514 O   0  0  0  0  0  0  0  0  0  0  0  0
  1  2  1  0
  2  3  1  0
  2  4  1  0
  4  5  1  0
  5  6  1  0
  6  7  1  0
  7  8  1  0
  8  9  1  0
  9 10  1  6
  9 11  1  0
 11 12  1  0
 12 13  1  1
 11 14  1  6
 14 15  2  0
 14 16  1  0
 16 17  2  0
 17 18  1  0
 18 19  1  1
 18 20  1  0
 20 21  2  0
 21 22  1  0
 22 23  3  0
 21 24  1  0
 24 25  2  0
 24 26  1  0
 26 27  1  0
 26 28  1  0
 26 29  1  0
 29 30  1  1
 30 31  1  0
 31 32  1  0
 32 33  1  1
  6 34  1  1
 34 35  1  0
 34 36  2  0
 13  2  1  0
 32 17  1  0
 12  6  1  0
 29 18  1  0
 32  9  1  0
M  END
$$$$
