
     RDKit          3D

 36 40  0  0  0  0  0  0  0  0999 V2000
  130.0142  161.6426  160.6763 C   0  0  0  0  0  0  0  0  0  0  0  0
  131.0500  160.7922  159.9087 C   0  0  0  0  0  0  0  0  0  0  0  0
  130.3024  159.5611  159.4550 C   0  0  0  0  0  0  0  0  0  0  0  0
  132.2074  160.5099  160.8001 C   0  0  0  0  0  0  0  0  0  0  0  0
  133.3906  161.4115  160.5640 C   0  0  0  0  0  0  0  0  0  0  0  0
  133.9548  161.2250  159.1688 C   0  0  2  0  0  0  0  0  0  0  0  0
  134.9435  162.3020  158.8366 C   0  0  0  0  0  0  0  0  0  0  0  0
  134.3583  163.4193  158.0261 C   0  0  0  0  0  0  0  0  0  0  0  0
  133.6155  163.0536  156.8043 C   0  0  2  0  0  0  0  0  0  0  0  0
  132.4184  164.0162  156.6931 C   0  0  0  0  0  0  0  0  0  0  0  0
  133.2251  161.6316  156.8936 C   0  0  1  0  0  0  0  0  0  0  0  0
  132.7871  161.1273  158.2326 C   0  0  2  0  0  0  0  0  0  0  0  0
  131.5154  161.6604  158.7591 C   0  0  0  0  0  0  0  0  0  0  0  0
  132.3475  161.3072  155.7818 C   0  0  0  0  0  0  0  0  0  0  0  0
  131.3931  160.4534  155.8811 O   0  0  0  0  0  0  0  0  0  0  0  0
  132.5862  161.9875  154.5273 C   0  0  0  0  0  0  0  0  0  0  0  0
  133.4972  162.9228  154.3587 C   0  0  0  0  0  0  0  0  0  0  0  0
  133.5718  163.4959  152.9875 C   0  0  1  0  0  0  0  0  0  0  0  0
  134.3061  162.5808  152.0417 C   0  0  0  0  0  0  0  0  0  0  0  0
  132.2265  163.6608  152.3702 C   0  0  0  0  0  0  0  0  0  0  0  0
  132.0607  164.3985  151.3063 C   0  0  0  0  0  0  0  0  0  0  0  0
  130.7939  164.5726  150.6847 C   0  0  0  0  0  0  0  0  0  0  0  0
  129.7200  164.7165  150.1700 N   0  0  0  0  0  0  0  0  0  0  0  0
  133.2589  165.0892  150.7609 C   0  0  0  0  0  0  0  0  0  0  0  0
  133.3859  165.2256  149.5504 O   0  0  0  0  0  0  0  0  0  0  0  0
  134.2635  165.5961  151.7353 C   0  0  0  0  0  0  0  0  0  0  0  0
  133.9203  167.0813  151.9400 C   0  0  0  0  0  0  0  0  0  0  0  0
  135.6380  165.5632  151.1525 C   0  0  0  0  0  0  0  0  0  0  0  0
  134.1190  164.8754  153.0587 C   0  0  2  0  0  0  0  0  0  0  0  0
  135.2646  165.0736  153.9967 C   0  0  0  0  0  0  0  0  0  0  0  0
  134.7658  164.7229  155.3864 C   0  0  0  0  0  0  0  0  0  0  0  0
  134.3726  163.2657  155.4901 C   0  0  1  0  0  0  0  0  0  0  0  0
  135.6789  162.4931  155.4383 C   0  0  0  0  0  0  0  0  0  0  0  0
  134.7311  159.9250  159.2485 C   0  0  0  0  0  0  0  0  0  0  0  0
  135.3154  159.6376  160.4623 O   0  0  0  0  0  0  0  0  0  0  0  0
  134.8361  159.1692  158.2893 O   0  0  0  0  0  0  0  0  0  0  0  0
  1  2  1  0
  2  3  1  0
  2  4  1  0
  4  5  1  0
  5  6  1  0
  6  7  1  0
  7  8  1  0
  8  9  1  0
  9 10  1  6
  9 11  1  0
 11 12  1  0
 12 13  1  1
 11 14  1  6
 14 15  2  0
 14 16  1  0
 16 17  2  0
 17 18  1  0
 18 19  1  6
 18 20  1  0
 20 21  2  0
 21 22  1  0
 22 23  3  0
 21 24  1  0
 24 25  2  0
 24 26  1  0
 26 27  1  0
 26 28  1  0
 26 29  1  0
 29 30  1  6
 30 31  1  0
 31 32  1  0
 32 33  1  1
  6 34  1  1
 34 35  1  0
 34 36  2  0
 13  2  1  0
 32 17  1  0
 12  6  1  0
 29 18  1  0
 32  9  1  0
M  END
$$$$
