
     RDKit          3D

 36 40  0  0  0  0  0  0  0  0999 V2000
  130.4540  170.6494  143.9605 C   0  0  0  0  0  0  0  0  0  0  0  0
  129.3845  169.5517  144.1516 C   0  0  0  0  0  0  0  0  0  0  0  0
  129.4985  168.6635  142.9358 C   0  0  0  0  0  0  0  0  0  0  0  0
  128.0516  170.1919  144.3174 C   0  0  0  0  0  0  0  0  0  0  0  0
  127.6016  170.2967  145.7509 C   0  0  0  0  0  0  0  0  0  0  0  0
  127.4242  168.9254  146.3737 C   0  0  2  0  0  0  0  0  0  0  0  0
  127.2483  169.0246  147.8593 C   0  0  0  0  0  0  0  0  0  0  0  0
  128.5122  168.7778  148.6272 C   0  0  0  0  0  0  0  0  0  0  0  0
  129.2679  167.5499  148.3123 C   0  0  2  0  0  0  0  0  0  0  0  0
  130.7649  167.9027  148.3920 C   0  0  0  0  0  0  0  0  0  0  0  0
  128.8454  167.0595  146.9844 C   0  0  1  0  0  0  0  0  0  0  0  0
  128.5858  168.0876  145.9286 C   0  0  2  0  0  0  0  0  0  0  0  0
  129.7539  168.8454  145.4387 C   0  0  0  0  0  0  0  0  0  0  0  0
  129.7025  165.9547  146.5890 C   0  0  0  0  0  0  0  0  0  0  0  0
  130.0263  165.7349  145.3656 O   0  0  0  0  0  0  0  0  0  0  0  0
  130.1913  165.0856  147.6374 C   0  0  0  0  0  0  0  0  0  0  0  0
  129.9630  165.2782  148.9195 C   0  0  0  0  0  0  0  0  0  0  0  0
  130.5637  164.2661  149.8299 C   0  0  1  0  0  0  0  0  0  0  0  0
  129.7570  162.9934  149.8561 C   0  0  0  0  0  0  0  0  0  0  0  0
  131.9169  163.8350  149.3812 C   0  0  0  0  0  0  0  0  0  0  0  0
  132.7142  163.1815  150.1815 C   0  0  0  0  0  0  0  0  0  0  0  0
  134.0089  162.7467  149.7860 C   0  0  0  0  0  0  0  0  0  0  0  0
  135.1049  162.3820  149.4629 N   0  0  0  0  0  0  0  0  0  0  0  0
  132.2295  162.9171  151.5620 C   0  0  0  0  0  0  0  0  0  0  0  0
  132.5232  161.8676  152.1208 O   0  0  0  0  0  0  0  0  0  0  0  0
  131.3977  163.9668  152.2116 C   0  0  0  0  0  0  0  0  0  0  0  0
  132.3733  164.7841  153.0750 C   0  0  0  0  0  0  0  0  0  0  0  0
  130.4135  163.3604  153.1567 C   0  0  0  0  0  0  0  0  0  0  0  0
  130.7928  164.8775  151.1646 C   0  0  2  0  0  0  0  0  0  0  0  0
  129.6995  165.7596  151.6727 C   0  0  0  0  0  0  0  0  0  0  0  0
  129.5536  166.9003  150.6823 C   0  0  0  0  0  0  0  0  0  0  0  0
  129.1117  166.4086  149.3215 C   0  0  1  0  0  0  0  0  0  0  0  0
  127.6654  165.9813  149.4997 C   0  0  0  0  0  0  0  0  0  0  0  0
  126.1101  168.4235  145.8080 C   0  0  0  0  0  0  0  0  0  0  0  0
  124.9664  168.9754  146.3415 O   0  0  0  0  0  0  0  0  0  0  0  0
  126.0629  167.5739  144.9257 O   0  0  0  0  0  0  0  0  0  0  0  0
  1  2  1  0
  2  3  1  0
  2  4  1  0
  4  5  1  0
  5  6  1  0
  6  7  1  0
  7  8  1  0
  8  9  1  0
  9 10  1  6
  9 11  1  0
 11 12  1  0
 12 13  1  1
 11 14  1  6
 14 15  2  0
 14 16  1  0
 16 17  2  0
 17 18  1  0
 18 19  1  1
 18 20  1  0
 20 21  2  0
 21 22  1  0
 22 23  3  0
 21 24  1  0
 24 25  2  0
 24 26  1  0
 26 27  1  0
 26 28  1  0
 26 29  1  0
 29 30  1  1
 30 31  1  0
 31 32  1  0
 32 33  1  1
  6 34  1  6
 34 35  1  0
 34 36  2  0
 13  2  1  0
 32 17  1  0
 12  6  1  0
 29 18  1  0
 32  9  1  0
M  END
$$$$
