
     RDKit          3D

 36 40  0  0  0  0  0  0  0  0999 V2000
  147.0676  161.0796  128.1407 C   0  0  0  0  0  0  0  0  0  0  0  0
  148.0221  161.7112  129.1777 C   0  0  0  0  0  0  0  0  0  0  0  0
  149.4032  161.5887  128.5797 C   0  0  0  0  0  0  0  0  0  0  0  0
  147.8572  161.0139  130.4817 C   0  0  0  0  0  0  0  0  0  0  0  0
  146.9789  161.7509  131.4585 C   0  0  0  0  0  0  0  0  0  0  0  0
  147.5810  163.0900  131.8379 C   0  0  2  0  0  0  0  0  0  0  0  0
  146.5925  163.9362  132.5826 C   0  0  0  0  0  0  0  0  0  0  0  0
  145.8928  164.9390  131.7150 C   0  0  0  0  0  0  0  0  0  0  0  0
  146.7344  165.8104  130.8721 C   0  0  2  0  0  0  0  0  0  0  0  0
  145.9977  165.9986  129.5328 C   0  0  0  0  0  0  0  0  0  0  0  0
  148.0682  165.1909  130.7318 C   0  0  1  0  0  0  0  0  0  0  0  0
  148.1166  163.7032  130.5783 C   0  0  2  0  0  0  0  0  0  0  0  0
  147.5657  163.1469  129.3270 C   0  0  0  0  0  0  0  0  0  0  0  0
  148.8468  165.9483  129.7666 C   0  0  0  0  0  0  0  0  0  0  0  0
  149.7049  165.3970  128.9858 O   0  0  0  0  0  0  0  0  0  0  0  0
  148.6251  167.3770  129.7094 C   0  0  0  0  0  0  0  0  0  0  0  0
  147.7196  168.0107  130.4247 C   0  0  0  0  0  0  0  0  0  0  0  0
  147.6552  169.4814  130.2078 C   0  0  1  0  0  0  0  0  0  0  0  0
  148.7626  170.1997  130.9351 C   0  0  0  0  0  0  0  0  0  0  0  0
  147.8531  169.8509  128.7786 C   0  0  0  0  0  0  0  0  0  0  0  0
  147.5528  171.0446  128.3449 C   0  0  0  0  0  0  0  0  0  0  0  0
  147.7357  171.4360  126.9903 C   0  0  0  0  0  0  0  0  0  0  0  0
  147.8896  171.7772  125.8507 N   0  0  0  0  0  0  0  0  0  0  0  0
  146.9771  172.0025  129.3254 C   0  0  0  0  0  0  0  0  0  0  0  0
  147.2584  173.1923  129.2528 O   0  0  0  0  0  0  0  0  0  0  0  0
  146.0635  171.4559  130.3657 C   0  0  0  0  0  0  0  0  0  0  0  0
  144.6430  171.6840  129.8219 C   0  0  0  0  0  0  0  0  0  0  0  0
  146.1573  172.2467  131.6289 C   0  0  0  0  0  0  0  0  0  0  0  0
  146.2891  169.9683  130.5311 C   0  0  2  0  0  0  0  0  0  0  0  0
  145.6615  169.3819  131.7533 C   0  0  0  0  0  0  0  0  0  0  0  0
  145.5553  167.8856  131.5230 C   0  0  0  0  0  0  0  0  0  0  0  0
  146.9172  167.2408  131.3877 C   0  0  1  0  0  0  0  0  0  0  0  0
  147.5225  167.2861  132.7797 C   0  0  0  0  0  0  0  0  0  0  0  0
  148.6859  162.7411  132.8159 C   0  0  0  0  0  0  0  0  0  0  0  0
  149.9620  163.1085  132.4500 O   0  0  0  0  0  0  0  0  0  0  0  0
  148.4612  162.1641  133.8737 O   0  0  0  0  0  0  0  0  0  0  0  0
  1  2  1  0
  2  3  1  0
  2  4  1  0
  4  5  1  0
  5  6  1  0
  6  7  1  0
  7  8  1  0
  8  9  1  0
  9 10  1  6
  9 11  1  0
 11 12  1  0
 12 13  1  6
 11 14  1  6
 14 15  2  0
 14 16  1  0
 16 17  2  0
 17 18  1  0
 18 19  1  1
 18 20  1  0
 20 21  2  0
 21 22  1  0
 22 23  3  0
 21 24  1  0
 24 25  2  0
 24 26  1  0
 26 27  1  0
 26 28  1  0
 26 29  1  0
 29 30  1  1
 30 31  1  0
 31 32  1  0
 32 33  1  1
  6 34  1  1
 34 35  1  0
 34 36  2  0
 13  2  1  0
 32 17  1  0
 12  6  1  0
 29 18  1  0
 32  9  1  0
M  END
$$$$
