
     RDKit          3D

 36 40  0  0  0  0  0  0  0  0999 V2000
  170.9140  149.2663  125.5071 C   0  0  0  0  0  0  0  0  0  0  0  0
  172.2574  148.5993  125.8750 C   0  0  0  0  0  0  0  0  0  0  0  0
  171.9946  147.8462  127.1571 C   0  0  0  0  0  0  0  0  0  0  0  0
  173.3085  149.6465  125.9863 C   0  0  0  0  0  0  0  0  0  0  0  0
  174.1793  149.7663  124.7632 C   0  0  0  0  0  0  0  0  0  0  0  0
  174.9634  148.4915  124.5189 C   0  0  2  0  0  0  0  0  0  0  0  0
  175.6107  148.5052  123.1666 C   0  0  0  0  0  0  0  0  0  0  0  0
  174.8310  147.7607  122.1247 C   0  0  0  0  0  0  0  0  0  0  0  0
  174.4153  146.3815  122.4459 C   0  0  2  0  0  0  0  0  0  0  0  0
  173.0088  146.1792  121.8519 C   0  0  0  0  0  0  0  0  0  0  0  0
  174.4710  146.1975  123.9107 C   0  0  1  0  0  0  0  0  0  0  0  0
  174.0254  147.3463  124.7598 C   0  0  2  0  0  0  0  0  0  0  0  0
  172.5908  147.6903  124.7111 C   0  0  0  0  0  0  0  0  0  0  0  0
  173.9003  144.9054  124.2513 C   0  0  0  0  0  0  0  0  0  0  0  0
  173.2494  144.7027  125.3400 O   0  0  0  0  0  0  0  0  0  0  0  0
  174.0924  143.8254  123.3078 C   0  0  0  0  0  0  0  0  0  0  0  0
  174.6871  143.9637  122.1415 C   0  0  0  0  0  0  0  0  0  0  0  0
  174.7741  142.7243  121.3228 C   0  0  1  0  0  0  0  0  0  0  0  0
  175.8787  141.8178  121.8019 C   0  0  0  0  0  0  0  0  0  0  0  0
  173.5436  141.8916  121.4258 C   0  0  0  0  0  0  0  0  0  0  0  0
  173.3107  140.9280  120.5770 C   0  0  0  0  0  0  0  0  0  0  0  0
  172.1519  140.1072  120.6487 C   0  0  0  0  0  0  0  0  0  0  0  0
  171.1810  139.4055  120.7088 N   0  0  0  0  0  0  0  0  0  0  0  0
  174.3036  140.7208  119.4899 C   0  0  0  0  0  0  0  0  0  0  0  0
  174.5512  139.5871  119.0981 O   0  0  0  0  0  0  0  0  0  0  0  0
  174.9574  141.9288  118.9163 C   0  0  0  0  0  0  0  0  0  0  0  0
  174.1503  142.2678  117.6517 C   0  0  0  0  0  0  0  0  0  0  0  0
  176.3432  141.6187  118.4546 C   0  0  0  0  0  0  0  0  0  0  0  0
  174.8565  143.0881  119.8845 C   0  0  2  0  0  0  0  0  0  0  0  0
  175.7427  144.2447  119.5554 C   0  0  0  0  0  0  0  0  0  0  0  0
  175.1856  145.4524  120.2864 C   0  0  0  0  0  0  0  0  0  0  0  0
  175.2474  145.2771  121.7878 C   0  0  1  0  0  0  0  0  0  0  0  0
  176.7214  145.3680  122.1418 C   0  0  0  0  0  0  0  0  0  0  0  0
  176.0815  148.5367  125.5420 C   0  0  0  0  0  0  0  0  0  0  0  0
  176.1465  147.4780  126.4209 O   0  0  0  0  0  0  0  0  0  0  0  0
  176.8846  149.4615  125.5888 O   0  0  0  0  0  0  0  0  0  0  0  0
  1  2  1  0
  2  3  1  0
  2  4  1  0
  4  5  1  0
  5  6  1  0
  6  7  1  0
  7  8  1  0
  8  9  1  0
  9 10  1  6
  9 11  1  0
 11 12  1  0
 12 13  1  6
 11 14  1  6
 14 15  2  0
 14 16  1  0
 16 17  2  0
 17 18  1  0
 18 19  1  1
 18 20  1  0
 20 21  2  0
 21 22  1  0
 22 23  3  0
 21 24  1  0
 24 25  2  0
 24 26  1  0
 26 27  1  0
 26 28  1  0
 26 29  1  0
 29 30  1  1
 30 31  1  0
 31 32  1  0
 32 33  1  1
  6 34  1  1
 34 35  1  0
 34 36  2  0
 13  2  1  0
 32 17  1  0
 12  6  1  0
 29 18  1  0
 32  9  1  0
M  END
$$$$
