
     RDKit          3D

 36 40  0  0  0  0  0  0  0  0999 V2000
  160.9343  143.7844  127.5461 C   0  0  0  0  0  0  0  0  0  0  0  0
  160.5243  145.2734  127.5514 C   0  0  0  0  0  0  0  0  0  0  0  0
  159.8444  145.4983  128.8808 C   0  0  0  0  0  0  0  0  0  0  0  0
  159.6616  145.5468  126.3703 C   0  0  0  0  0  0  0  0  0  0  0  0
  160.3932  146.1823  125.2172 C   0  0  0  0  0  0  0  0  0  0  0  0
  160.9339  147.5480  125.5942 C   0  0  2  0  0  0  0  0  0  0  0  0
  161.8870  148.0581  124.5554 C   0  0  0  0  0  0  0  0  0  0  0  0
  163.3271  147.8261  124.9021 C   0  0  0  0  0  0  0  0  0  0  0  0
  163.7836  148.2691  126.2339 C   0  0  2  0  0  0  0  0  0  0  0  0
  164.7872  147.2184  126.7447 C   0  0  0  0  0  0  0  0  0  0  0  0
  162.6048  148.4359  127.1087 C   0  0  1  0  0  0  0  0  0  0  0  0
  161.5077  147.4273  126.9746 C   0  0  2  0  0  0  0  0  0  0  0  0
  161.8158  146.0501  127.4070 C   0  0  0  0  0  0  0  0  0  0  0  0
  163.0517  148.7021  128.4655 C   0  0  0  0  0  0  0  0  0  0  0  0
  162.4067  148.2933  129.4983 O   0  0  0  0  0  0  0  0  0  0  0  0
  164.2727  149.4619  128.6252 C   0  0  0  0  0  0  0  0  0  0  0  0
  165.0284  149.8601  127.6235 C   0  0  0  0  0  0  0  0  0  0  0  0
  166.2444  150.6251  128.0112 C   0  0  1  0  0  0  0  0  0  0  0  0
  165.9151  152.0542  128.3582 C   0  0  0  0  0  0  0  0  0  0  0  0
  166.8828  150.0847  129.2435 C   0  0  0  0  0  0  0  0  0  0  0  0
  168.0960  150.4294  129.5789 C   0  0  0  0  0  0  0  0  0  0  0  0
  168.7348  149.9410  130.7515 C   0  0  0  0  0  0  0  0  0  0  0  0
  169.2732  149.5182  131.7365 N   0  0  0  0  0  0  0  0  0  0  0  0
  168.8206  151.3524  128.6660 C   0  0  0  0  0  0  0  0  0  0  0  0
  169.5807  152.1945  129.1275 O   0  0  0  0  0  0  0  0  0  0  0  0
  168.5845  151.1996  127.2042 C   0  0  0  0  0  0  0  0  0  0  0  0
  169.7439  150.3283  126.6925 C   0  0  0  0  0  0  0  0  0  0  0  0
  168.7090  152.5117  126.5023 C   0  0  0  0  0  0  0  0  0  0  0  0
  167.2810  150.4704  126.9580 C   0  0  2  0  0  0  0  0  0  0  0  0
  166.7921  150.5409  125.5482 C   0  0  0  0  0  0  0  0  0  0  0  0
  165.8017  149.4057  125.3648 C   0  0  0  0  0  0  0  0  0  0  0  0
  164.5864  149.5731  126.2501 C   0  0  1  0  0  0  0  0  0  0  0  0
  163.8160  150.7398  125.6572 C   0  0  0  0  0  0  0  0  0  0  0  0
  159.7193  148.4550  125.5596 C   0  0  0  0  0  0  0  0  0  0  0  0
  158.9396  148.3866  124.4262 O   0  0  0  0  0  0  0  0  0  0  0  0
  159.4430  149.2091  126.4856 O   0  0  0  0  0  0  0  0  0  0  0  0
  1  2  1  0
  2  3  1  0
  2  4  1  0
  4  5  1  0
  5  6  1  0
  6  7  1  0
  7  8  1  0
  8  9  1  0
  9 10  1  1
  9 11  1  0
 11 12  1  0
 12 13  1  6
 11 14  1  1
 14 15  2  0
 14 16  1  0
 16 17  2  0
 17 18  1  0
 18 19  1  1
 18 20  1  0
 20 21  2  0
 21 22  1  0
 22 23  3  0
 21 24  1  0
 24 25  2  0
 24 26  1  0
 26 27  1  0
 26 28  1  0
 26 29  1  0
 29 30  1  6
 30 31  1  0
 31 32  1  0
 32 33  1  6
  6 34  1  1
 34 35  1  0
 34 36  2  0
 13  2  1  0
 32 17  1  0
 12  6  1  0
 29 18  1  0
 32  9  1  0
M  END
$$$$
