
     RDKit          3D

 36 40  0  0  0  0  0  0  0  0999 V2000
  178.3120  158.1165  107.3981 C   0  0  0  0  0  0  0  0  0  0  0  0
  178.7680  159.5685  107.6609 C   0  0  0  0  0  0  0  0  0  0  0  0
  178.9455  160.1874  106.2950 C   0  0  0  0  0  0  0  0  0  0  0  0
  180.0045  159.5500  108.4883 C   0  0  0  0  0  0  0  0  0  0  0  0
  179.7597  159.8027  109.9529 C   0  0  0  0  0  0  0  0  0  0  0  0
  179.1902  161.1890  110.1844 C   0  0  2  0  0  0  0  0  0  0  0  0
  178.6918  161.3413  111.5902 C   0  0  0  0  0  0  0  0  0  0  0  0
  177.2123  161.1385  111.7236 C   0  0  0  0  0  0  0  0  0  0  0  0
  176.3382  161.9074  110.8165 C   0  0  2  0  0  0  0  0  0  0  0  0
  175.1674  160.9874  110.4229 C   0  0  0  0  0  0  0  0  0  0  0  0
  177.1392  162.3714  109.6651 C   0  0  1  0  0  0  0  0  0  0  0  0
  178.1610  161.4242  109.1192 C   0  0  2  0  0  0  0  0  0  0  0  0
  177.6513  160.2058  108.4602 C   0  0  0  0  0  0  0  0  0  0  0  0
  176.2563  162.9781  108.6834 C   0  0  0  0  0  0  0  0  0  0  0  0
  176.4740  162.9051  107.4196 O   0  0  0  0  0  0  0  0  0  0  0  0
  175.0974  163.6870  109.1812 C   0  0  0  0  0  0  0  0  0  0  0  0
  174.7647  163.7525  110.4533 C   0  0  0  0  0  0  0  0  0  0  0  0
  173.5302  164.5296  110.7470 C   0  0  1  0  0  0  0  0  0  0  0  0
  173.7873  166.0143  110.7162 C   0  0  0  0  0  0  0  0  0  0  0  0
  172.4718  164.3179  109.7208 C   0  0  0  0  0  0  0  0  0  0  0  0
  171.2372  164.6774  109.9441 C   0  0  0  0  0  0  0  0  0  0  0  0
  170.2021  164.4989  108.9858 C   0  0  0  0  0  0  0  0  0  0  0  0
  169.3250  164.3589  108.1797 N   0  0  0  0  0  0  0  0  0  0  0  0
  170.9287  165.2727  111.2711 C   0  0  0  0  0  0  0  0  0  0  0  0
  170.0980  166.1683  111.3594 O   0  0  0  0  0  0  0  0  0  0  0  0
  171.6574  164.7347  112.4523 C   0  0  0  0  0  0  0  0  0  0  0  0
  170.7109  163.6960  113.0773 C   0  0  0  0  0  0  0  0  0  0  0  0
  171.8547  165.7933  113.4868 C   0  0  0  0  0  0  0  0  0  0  0  0
  172.9255  164.0356  112.0111 C   0  0  2  0  0  0  0  0  0  0  0  0
  173.8833  163.7395  113.1186 C   0  0  0  0  0  0  0  0  0  0  0  0
  174.8163  162.6517  112.6194 C   0  0  0  0  0  0  0  0  0  0  0  0
  175.6479  163.1210  111.4459 C   0  0  1  0  0  0  0  0  0  0  0  0
  176.6355  164.1174  112.0272 C   0  0  0  0  0  0  0  0  0  0  0  0
  180.3828  162.1139  110.0382 C   0  0  0  0  0  0  0  0  0  0  0  0
  181.5762  161.6551  110.5506 O   0  0  0  0  0  0  0  0  0  0  0  0
  180.2946  163.2095  109.4958 O   0  0  0  0  0  0  0  0  0  0  0  0
  1  2  1  0
  2  3  1  0
  2  4  1  0
  4  5  1  0
  5  6  1  0
  6  7  1  0
  7  8  1  0
  8  9  1  0
  9 10  1  6
  9 11  1  0
 11 12  1  0
 12 13  1  1
 11 14  1  6
 14 15  2  0
 14 16  1  0
 16 17  2  0
 17 18  1  0
 18 19  1  1
 18 20  1  0
 20 21  2  0
 21 22  1  0
 22 23  3  0
 21 24  1  0
 24 25  2  0
 24 26  1  0
 26 27  1  0
 26 28  1  0
 26 29  1  0
 29 30  1  1
 30 31  1  0
 31 32  1  0
 32 33  1  1
  6 34  1  6
 34 35  1  0
 34 36  2  0
 13  2  1  0
 32 17  1  0
 12  6  1  0
 29 18  1  0
 32  9  1  0
M  END
$$$$
