
     RDKit          3D

 36 40  0  0  0  0  0  0  0  0999 V2000
  175.2562  162.0109  116.8512 C   0  0  0  0  0  0  0  0  0  0  0  0
  174.0373  161.9423  115.9054 C   0  0  0  0  0  0  0  0  0  0  0  0
  172.8901  162.5403  116.6841 C   0  0  0  0  0  0  0  0  0  0  0  0
  173.8217  160.5305  115.4878 C   0  0  0  0  0  0  0  0  0  0  0  0
  174.3734  160.2091  114.1236 C   0  0  0  0  0  0  0  0  0  0  0  0
  173.6772  161.0157  113.0445 C   0  0  2  0  0  0  0  0  0  0  0  0
  174.4008  160.9068  111.7360 C   0  0  0  0  0  0  0  0  0  0  0  0
  175.3147  162.0633  111.4619 C   0  0  0  0  0  0  0  0  0  0  0  0
  174.7476  163.4200  111.5874 C   0  0  2  0  0  0  0  0  0  0  0  0
  175.8398  164.3159  112.2009 C   0  0  0  0  0  0  0  0  0  0  0  0
  173.5164  163.3468  112.4007 C   0  0  1  0  0  0  0  0  0  0  0  0
  173.5257  162.4124  113.5695 C   0  0  2  0  0  0  0  0  0  0  0  0
  174.4200  162.7610  114.6907 C   0  0  0  0  0  0  0  0  0  0  0  0
  173.0460  164.6938  112.6763 C   0  0  0  0  0  0  0  0  0  0  0  0
  172.4555  165.0087  113.7726 O   0  0  0  0  0  0  0  0  0  0  0  0
  173.2641  165.6950  111.6549 C   0  0  0  0  0  0  0  0  0  0  0  0
  173.9184  165.4732  110.5342 C   0  0  0  0  0  0  0  0  0  0  0  0
  174.0321  166.6444  109.6235 C   0  0  1  0  0  0  0  0  0  0  0  0
  172.7561  166.8783  108.8566 C   0  0  0  0  0  0  0  0  0  0  0  0
  174.2548  167.9169  110.3647 C   0  0  0  0  0  0  0  0  0  0  0  0
  174.6592  168.9930  109.7468 C   0  0  0  0  0  0  0  0  0  0  0  0
  174.8745  170.2272  110.4192 C   0  0  0  0  0  0  0  0  0  0  0  0
  175.0660  171.2644  110.9904 N   0  0  0  0  0  0  0  0  0  0  0  0
  174.9185  168.8855  108.2868 C   0  0  0  0  0  0  0  0  0  0  0  0
  174.6616  169.8299  107.5506 O   0  0  0  0  0  0  0  0  0  0  0  0
  175.4949  167.6089  107.7830 C   0  0  0  0  0  0  0  0  0  0  0  0
  177.0103  167.8543  107.6895 C   0  0  0  0  0  0  0  0  0  0  0  0
  175.0327  167.3257  106.3916 C   0  0  0  0  0  0  0  0  0  0  0  0
  175.2420  166.4932  108.7742 C   0  0  2  0  0  0  0  0  0  0  0  0
  175.4922  165.1223  108.2362 C   0  0  0  0  0  0  0  0  0  0  0  0
  175.6717  164.2029  109.4302 C   0  0  0  0  0  0  0  0  0  0  0  0
  174.4124  164.1142  110.2641 C   0  0  1  0  0  0  0  0  0  0  0  0
  173.4289  163.3207  109.4219 C   0  0  0  0  0  0  0  0  0  0  0  0
  172.3386  160.3264  112.8654 C   0  0  0  0  0  0  0  0  0  0  0  0
  172.0306  159.9163  111.5870 O   0  0  0  0  0  0  0  0  0  0  0  0
  171.5700  160.1426  113.8024 O   0  0  0  0  0  0  0  0  0  0  0  0
  1  2  1  0
  2  3  1  0
  2  4  1  0
  4  5  1  0
  5  6  1  0
  6  7  1  0
  7  8  1  0
  8  9  1  0
  9 10  1  1
  9 11  1  0
 11 12  1  0
 12 13  1  1
 11 14  1  1
 14 15  2  0
 14 16  1  0
 16 17  2  0
 17 18  1  0
 18 19  1  6
 18 20  1  0
 20 21  2  0
 21 22  1  0
 22 23  3  0
 21 24  1  0
 24 25  2  0
 24 26  1  0
 26 27  1  0
 26 28  1  0
 26 29  1  0
 29 30  1  6
 30 31  1  0
 31 32  1  0
 32 33  1  6
  6 34  1  6
 34 35  1  0
 34 36  2  0
 13  2  1  0
 32 17  1  0
 12  6  1  0
 29 18  1  0
 32  9  1  0
M  END
$$$$
