
     RDKit          3D

 36 40  0  0  0  0  0  0  0  0999 V2000
  152.2868  164.6138  130.2037 C   0  0  0  0  0  0  0  0  0  0  0  0
  151.5796  165.3755  131.3459 C   0  0  0  0  0  0  0  0  0  0  0  0
  152.6757  166.1160  132.0742 C   0  0  0  0  0  0  0  0  0  0  0  0
  150.8324  164.4052  132.1910 C   0  0  0  0  0  0  0  0  0  0  0  0
  149.3594  164.3393  131.8833 C   0  0  0  0  0  0  0  0  0  0  0  0
  148.6784  165.6644  132.1659 C   0  0  2  0  0  0  0  0  0  0  0  0
  147.2874  165.6879  131.6069 C   0  0  0  0  0  0  0  0  0  0  0  0
  147.1915  166.3697  130.2751 C   0  0  0  0  0  0  0  0  0  0  0  0
  147.7799  167.7182  130.1599 C   0  0  2  0  0  0  0  0  0  0  0  0
  148.4218  167.8179  128.7634 C   0  0  0  0  0  0  0  0  0  0  0  0
  148.7382  167.9145  131.2670 C   0  0  1  0  0  0  0  0  0  0  0  0
  149.5853  166.7425  131.6516 C   0  0  2  0  0  0  0  0  0  0  0  0
  150.5907  166.2986  130.6662 C   0  0  0  0  0  0  0  0  0  0  0  0
  149.4494  169.1656  131.0661 C   0  0  0  0  0  0  0  0  0  0  0  0
  150.6738  169.3287  131.4187 O   0  0  0  0  0  0  0  0  0  0  0  0
  148.7215  170.2506  130.4446 C   0  0  0  0  0  0  0  0  0  0  0  0
  147.4891  170.1472  129.9936 C   0  0  0  0  0  0  0  0  0  0  0  0
  146.9304  171.3847  129.3848 C   0  0  1  0  0  0  0  0  0  0  0  0
  146.4854  172.3692  130.4355 C   0  0  0  0  0  0  0  0  0  0  0  0
  147.9443  172.1298  128.5879 C   0  0  0  0  0  0  0  0  0  0  0  0
  147.5873  173.0695  127.7556 C   0  0  0  0  0  0  0  0  0  0  0  0
  148.5267  173.8075  126.9846 C   0  0  0  0  0  0  0  0  0  0  0  0
  149.3106  174.4355  126.3288 N   0  0  0  0  0  0  0  0  0  0  0  0
  146.1321  173.3392  127.6136 C   0  0  0  0  0  0  0  0  0  0  0  0
  145.7390  174.4850  127.4331 O   0  0  0  0  0  0  0  0  0  0  0  0
  145.2062  172.1765  127.6944 C   0  0  0  0  0  0  0  0  0  0  0  0
  144.9283  171.7741  126.2362 C   0  0  0  0  0  0  0  0  0  0  0  0
  143.8899  172.5802  128.2726 C   0  0  0  0  0  0  0  0  0  0  0  0
  145.8799  171.0189  128.3997 C   0  0  2  0  0  0  0  0  0  0  0  0
  144.9510  169.9252  128.8147 C   0  0  0  0  0  0  0  0  0  0  0  0
  145.7974  168.6859  129.0402 C   0  0  0  0  0  0  0  0  0  0  0  0
  146.7756  168.8742  130.1788 C   0  0  1  0  0  0  0  0  0  0  0  0
  145.9270  168.8890  131.4382 C   0  0  0  0  0  0  0  0  0  0  0  0
  148.5461  165.7039  133.6758 C   0  0  0  0  0  0  0  0  0  0  0  0
  149.1168  166.7856  134.3095 O   0  0  0  0  0  0  0  0  0  0  0  0
  147.9654  164.8246  134.3020 O   0  0  0  0  0  0  0  0  0  0  0  0
  1  2  1  0
  2  3  1  0
  2  4  1  0
  4  5  1  0
  5  6  1  0
  6  7  1  0
  7  8  1  0
  8  9  1  0
  9 10  1  6
  9 11  1  0
 11 12  1  0
 12 13  1  6
 11 14  1  6
 14 15  2  0
 14 16  1  0
 16 17  2  0
 17 18  1  0
 18 19  1  1
 18 20  1  0
 20 21  2  0
 21 22  1  0
 22 23  3  0
 21 24  1  0
 24 25  2  0
 24 26  1  0
 26 27  1  0
 26 28  1  0
 26 29  1  0
 29 30  1  1
 30 31  1  0
 31 32  1  0
 32 33  1  1
  6 34  1  1
 34 35  1  0
 34 36  2  0
 13  2  1  0
 32 17  1  0
 12  6  1  0
 29 18  1  0
 32  9  1  0
M  END
$$$$
