
     RDKit          3D

 36 40  0  0  0  0  0  0  0  0999 V2000
  147.8357  166.7427  126.0252 C   0  0  0  0  0  0  0  0  0  0  0  0
  148.7133  167.2894  127.1725 C   0  0  0  0  0  0  0  0  0  0  0  0
  149.6521  168.2786  126.5241 C   0  0  0  0  0  0  0  0  0  0  0  0
  149.3954  166.1536  127.8497 C   0  0  0  0  0  0  0  0  0  0  0  0
  148.7269  165.7172  129.1269 C   0  0  0  0  0  0  0  0  0  0  0  0
  148.7483  166.8227  130.1648 C   0  0  2  0  0  0  0  0  0  0  0  0
  147.8528  166.4958  131.3220 C   0  0  0  0  0  0  0  0  0  0  0  0
  146.5029  167.1418  131.2325 C   0  0  0  0  0  0  0  0  0  0  0  0
  146.4625  168.5967  130.9880 C   0  0  2  0  0  0  0  0  0  0  0  0
  145.2724  168.8684  130.0489 C   0  0  0  0  0  0  0  0  0  0  0  0
  147.7638  169.0213  130.4322 C   0  0  1  0  0  0  0  0  0  0  0  0
  148.4197  168.1006  129.4518 C   0  0  2  0  0  0  0  0  0  0  0  0
  147.7510  167.9358  128.1463 C   0  0  0  0  0  0  0  0  0  0  0  0
  147.6777  170.4139  130.0265 C   0  0  0  0  0  0  0  0  0  0  0  0
  148.3205  170.8806  129.0171 O   0  0  0  0  0  0  0  0  0  0  0  0
  146.8286  171.2829  130.8122 C   0  0  0  0  0  0  0  0  0  0  0  0
  146.0853  170.8728  131.8183 C   0  0  0  0  0  0  0  0  0  0  0  0
  145.2827  171.9322  132.4874 C   0  0  1  0  0  0  0  0  0  0  0  0
  146.1256  172.7620  133.4213 C   0  0  0  0  0  0  0  0  0  0  0  0
  144.7281  172.9177  131.5181 C   0  0  0  0  0  0  0  0  0  0  0  0
  143.7787  173.7425  131.8666 C   0  0  0  0  0  0  0  0  0  0  0  0
  143.2306  174.7020  130.9718 C   0  0  0  0  0  0  0  0  0  0  0  0
  142.7609  175.5034  130.2130 N   0  0  0  0  0  0  0  0  0  0  0  0
  143.2548  173.6337  133.2538 C   0  0  0  0  0  0  0  0  0  0  0  0
  142.9132  174.6431  133.8575 O   0  0  0  0  0  0  0  0  0  0  0  0
  143.1651  172.2729  133.8502 C   0  0  0  0  0  0  0  0  0  0  0  0
  141.7105  171.8253  133.6285 C   0  0  0  0  0  0  0  0  0  0  0  0
  143.3641  172.3230  135.3293 C   0  0  0  0  0  0  0  0  0  0  0  0
  144.0856  171.3192  133.1189 C   0  0  2  0  0  0  0  0  0  0  0  0
  144.3136  170.0214  133.8227 C   0  0  0  0  0  0  0  0  0  0  0  0
  144.8197  169.0368  132.7847 C   0  0  0  0  0  0  0  0  0  0  0  0
  146.1570  169.4585  132.2166 C   0  0  1  0  0  0  0  0  0  0  0  0
  147.1553  169.2459  133.3410 C   0  0  0  0  0  0  0  0  0  0  0  0
  150.1696  166.8144  130.6927 C   0  0  0  0  0  0  0  0  0  0  0  0
  151.1544  166.4889  129.7863 O   0  0  0  0  0  0  0  0  0  0  0  0
  150.4325  167.0810  131.8598 O   0  0  0  0  0  0  0  0  0  0  0  0
  1  2  1  0
  2  3  1  0
  2  4  1  0
  4  5  1  0
  5  6  1  0
  6  7  1  0
  7  8  1  0
  8  9  1  0
  9 10  1  6
  9 11  1  0
 11 12  1  0
 12 13  1  6
 11 14  1  6
 14 15  2  0
 14 16  1  0
 16 17  2  0
 17 18  1  0
 18 19  1  1
 18 20  1  0
 20 21  2  0
 21 22  1  0
 22 23  3  0
 21 24  1  0
 24 25  2  0
 24 26  1  0
 26 27  1  0
 26 28  1  0
 26 29  1  0
 29 30  1  1
 30 31  1  0
 31 32  1  0
 32 33  1  1
  6 34  1  1
 34 35  1  0
 34 36  2  0
 13  2  1  0
 32 17  1  0
 12  6  1  0
 29 18  1  0
 32  9  1  0
M  END
$$$$
