
     RDKit          3D

 36 40  0  0  0  0  0  0  0  0999 V2000
  182.8756  153.7091  132.4350 C   0  0  0  0  0  0  0  0  0  0  0  0
  184.3623  153.6895  132.8530 C   0  0  0  0  0  0  0  0  0  0  0  0
  184.6401  152.2691  133.2836 C   0  0  0  0  0  0  0  0  0  0  0  0
  184.5838  154.7049  133.9178 C   0  0  0  0  0  0  0  0  0  0  0  0
  185.1731  155.9960  133.4135 C   0  0  0  0  0  0  0  0  0  0  0  0
  186.5550  155.7785  132.8281 C   0  0  2  0  0  0  0  0  0  0  0  0
  187.0245  156.9924  132.0839 C   0  0  0  0  0  0  0  0  0  0  0  0
  186.8115  156.9031  130.6025 C   0  0  0  0  0  0  0  0  0  0  0  0
  187.3108  155.6950  129.9175 C   0  0  2  0  0  0  0  0  0  0  0  0
  186.2854  155.3325  128.8270 C   0  0  0  0  0  0  0  0  0  0  0  0
  187.5101  154.6286  130.9202 C   0  0  1  0  0  0  0  0  0  0  0  0
  186.4934  154.5211  132.0129 C   0  0  2  0  0  0  0  0  0  0  0  0
  185.1363  154.0966  131.6172 C   0  0  0  0  0  0  0  0  0  0  0  0
  187.8339  153.3870  130.2382 C   0  0  0  0  0  0  0  0  0  0  0  0
  187.4662  152.2389  130.6816 O   0  0  0  0  0  0  0  0  0  0  0  0
  188.6034  153.4818  129.0167 C   0  0  0  0  0  0  0  0  0  0  0  0
  188.9620  154.6190  128.4588 C   0  0  0  0  0  0  0  0  0  0  0  0
  189.7462  154.4890  127.2009 C   0  0  1  0  0  0  0  0  0  0  0  0
  191.1875  154.1460  127.4771 C   0  0  0  0  0  0  0  0  0  0  0  0
  189.2594  153.3719  126.3445 C   0  0  0  0  0  0  0  0  0  0  0  0
  189.6215  153.2760  125.0943 C   0  0  0  0  0  0  0  0  0  0  0  0
  189.1841  152.2197  124.2489 C   0  0  0  0  0  0  0  0  0  0  0  0
  188.8129  151.3222  123.5450 N   0  0  0  0  0  0  0  0  0  0  0  0
  190.5081  154.3415  124.5565 C   0  0  0  0  0  0  0  0  0  0  0  0
  191.3710  154.0594  123.7345 O   0  0  0  0  0  0  0  0  0  0  0  0
  190.2940  155.7289  125.0514 C   0  0  0  0  0  0  0  0  0  0  0  0
  189.4057  156.4066  123.9945 C   0  0  0  0  0  0  0  0  0  0  0  0
  191.5762  156.4940  125.0698 C   0  0  0  0  0  0  0  0  0  0  0  0
  189.5511  155.7054  126.3701 C   0  0  2  0  0  0  0  0  0  0  0  0
  189.5616  157.0050  127.1066 C   0  0  0  0  0  0  0  0  0  0  0  0
  188.4167  156.9602  128.1018 C   0  0  0  0  0  0  0  0  0  0  0  0
  188.6169  155.8769  129.1387 C   0  0  1  0  0  0  0  0  0  0  0  0
  189.7556  156.3670  130.0159 C   0  0  0  0  0  0  0  0  0  0  0  0
  187.4561  155.6290  134.0383 C   0  0  0  0  0  0  0  0  0  0  0  0
  186.9326  156.0445  135.2428 O   0  0  0  0  0  0  0  0  0  0  0  0
  188.5877  155.1656  133.9546 O   0  0  0  0  0  0  0  0  0  0  0  0
  1  2  1  0
  2  3  1  0
  2  4  1  0
  4  5  1  0
  5  6  1  0
  6  7  1  0
  7  8  1  0
  8  9  1  0
  9 10  1  6
  9 11  1  0
 11 12  1  0
 12 13  1  6
 11 14  1  6
 14 15  2  0
 14 16  1  0
 16 17  2  0
 17 18  1  0
 18 19  1  1
 18 20  1  0
 20 21  2  0
 21 22  1  0
 22 23  3  0
 21 24  1  0
 24 25  2  0
 24 26  1  0
 26 27  1  0
 26 28  1  0
 26 29  1  0
 29 30  1  1
 30 31  1  0
 31 32  1  0
 32 33  1  1
  6 34  1  1
 34 35  1  0
 34 36  2  0
 13  2  1  0
 32 17  1  0
 12  6  1  0
 29 18  1  0
 32  9  1  0
M  END
$$$$
