
     RDKit          3D

 36 40  0  0  0  0  0  0  0  0999 V2000
  175.8046  141.2925  124.8923 C   0  0  0  0  0  0  0  0  0  0  0  0
  176.3712  142.6605  124.4532 C   0  0  0  0  0  0  0  0  0  0  0  0
  175.5871  143.6891  125.2323 C   0  0  0  0  0  0  0  0  0  0  0  0
  176.2480  142.7889  122.9759 C   0  0  0  0  0  0  0  0  0  0  0  0
  177.5225  142.4898  122.2312 C   0  0  0  0  0  0  0  0  0  0  0  0
  178.6147  143.4787  122.5903 C   0  0  2  0  0  0  0  0  0  0  0  0
  179.9465  143.0260  122.0715 C   0  0  0  0  0  0  0  0  0  0  0  0
  180.7820  142.3279  123.1022 C   0  0  0  0  0  0  0  0  0  0  0  0
  180.9762  143.0130  124.3949 C   0  0  2  0  0  0  0  0  0  0  0  0
  180.9535  141.9321  125.4917 C   0  0  0  0  0  0  0  0  0  0  0  0
  179.9236  144.0378  124.5521 C   0  0  1  0  0  0  0  0  0  0  0  0
  178.5504  143.6838  124.0747 C   0  0  2  0  0  0  0  0  0  0  0  0
  177.8390  142.6289  124.8228 C   0  0  0  0  0  0  0  0  0  0  0  0
  179.9991  144.5975  125.8909 C   0  0  0  0  0  0  0  0  0  0  0  0
  178.9593  144.9876  126.5364 O   0  0  0  0  0  0  0  0  0  0  0  0
  181.3109  144.7084  126.4911 C   0  0  0  0  0  0  0  0  0  0  0  0
  182.4177  144.2720  125.9275 C   0  0  0  0  0  0  0  0  0  0  0  0
  183.6590  144.4822  126.7206 C   0  0  1  0  0  0  0  0  0  0  0  0
  184.1462  145.9050  126.6243 C   0  0  0  0  0  0  0  0  0  0  0  0
  183.4418  144.2652  128.1780 C   0  0  0  0  0  0  0  0  0  0  0  0
  184.4501  144.1225  128.9943 C   0  0  0  0  0  0  0  0  0  0  0  0
  184.2820  143.9222  130.3919 C   0  0  0  0  0  0  0  0  0  0  0  0
  184.1347  143.7634  131.5717 N   0  0  0  0  0  0  0  0  0  0  0  0
  185.8149  144.1520  128.4053 C   0  0  0  0  0  0  0  0  0  0  0  0
  186.7376  144.6608  129.0296 O   0  0  0  0  0  0  0  0  0  0  0  0
  185.9961  143.5435  127.0590 C   0  0  0  0  0  0  0  0  0  0  0  0
  186.5088  142.1175  127.3214 C   0  0  0  0  0  0  0  0  0  0  0  0
  187.0757  144.2402  126.2980 C   0  0  0  0  0  0  0  0  0  0  0  0
  184.6669  143.4591  126.3395 C   0  0  2  0  0  0  0  0  0  0  0  0
  184.7742  143.1637  124.8792 C   0  0  0  0  0  0  0  0  0  0  0  0
  183.4216  142.6408  124.4317 C   0  0  0  0  0  0  0  0  0  0  0  0
  182.3388  143.6869  124.5802 C   0  0  1  0  0  0  0  0  0  0  0  0
  182.6295  144.7202  123.5058 C   0  0  0  0  0  0  0  0  0  0  0  0
  178.2491  144.7358  121.8254 C   0  0  0  0  0  0  0  0  0  0  0  0
  176.9201  144.8830  121.4946 O   0  0  0  0  0  0  0  0  0  0  0  0
  179.0857  145.5764  121.5160 O   0  0  0  0  0  0  0  0  0  0  0  0
  1  2  1  0
  2  3  1  0
  2  4  1  0
  4  5  1  0
  5  6  1  0
  6  7  1  0
  7  8  1  0
  8  9  1  0
  9 10  1  1
  9 11  1  0
 11 12  1  0
 12 13  1  1
 11 14  1  1
 14 15  2  0
 14 16  1  0
 16 17  2  0
 17 18  1  0
 18 19  1  1
 18 20  1  0
 20 21  2  0
 21 22  1  0
 22 23  3  0
 21 24  1  0
 24 25  2  0
 24 26  1  0
 26 27  1  0
 26 28  1  0
 26 29  1  0
 29 30  1  6
 30 31  1  0
 31 32  1  0
 32 33  1  6
  6 34  1  6
 34 35  1  0
 34 36  2  0
 13  2  1  0
 32 17  1  0
 12  6  1  0
 29 18  1  0
 32  9  1  0
M  END
$$$$
