
     RDKit          3D

 36 40  0  0  0  0  0  0  0  0999 V2000
  131.7096  151.6301  135.8933 C   0  0  0  0  0  0  0  0  0  0  0  0
  130.4271  151.3156  135.0922 C   0  0  0  0  0  0  0  0  0  0  0  0
  130.7547  151.6580  133.6585 C   0  0  0  0  0  0  0  0  0  0  0  0
  129.2927  152.0919  135.6617 C   0  0  0  0  0  0  0  0  0  0  0  0
  128.4122  151.2925  136.5860 C   0  0  0  0  0  0  0  0  0  0  0  0
  127.7365  150.1507  135.8516 C   0  0  2  0  0  0  0  0  0  0  0  0
  127.0873  149.1991  136.8112 C   0  0  0  0  0  0  0  0  0  0  0  0
  127.9241  147.9919  137.1118 C   0  0  0  0  0  0  0  0  0  0  0  0
  128.4540  147.2313  135.9634 C   0  0  2  0  0  0  0  0  0  0  0  0
  129.8711  146.7620  136.3421 C   0  0  0  0  0  0  0  0  0  0  0  0
  128.4170  148.0940  134.7646 C   0  0  1  0  0  0  0  0  0  0  0  0
  128.7673  149.5367  134.9515 C   0  0  2  0  0  0  0  0  0  0  0  0
  130.1680  149.8392  135.3050 C   0  0  0  0  0  0  0  0  0  0  0  0
  129.0941  147.4192  133.6703 C   0  0  0  0  0  0  0  0  0  0  0  0
  129.7620  148.0534  132.7749 O   0  0  0  0  0  0  0  0  0  0  0  0
  128.9905  145.9772  133.6140 C   0  0  0  0  0  0  0  0  0  0  0  0
  128.3838  145.2464  134.5255 C   0  0  0  0  0  0  0  0  0  0  0  0
  128.3985  143.7796  134.2758 C   0  0  1  0  0  0  0  0  0  0  0  0
  127.3744  143.3809  133.2445 C   0  0  0  0  0  0  0  0  0  0  0  0
  129.6944  143.3165  133.7061 C   0  0  0  0  0  0  0  0  0  0  0  0
  130.0049  142.0491  133.6846 C   0  0  0  0  0  0  0  0  0  0  0  0
  131.2282  141.5691  133.1417 C   0  0  0  0  0  0  0  0  0  0  0  0
  132.2561  141.1534  132.6842 N   0  0  0  0  0  0  0  0  0  0  0  0
  129.0303  141.0972  134.2800 C   0  0  0  0  0  0  0  0  0  0  0  0
  128.8771  139.9893  133.7808 O   0  0  0  0  0  0  0  0  0  0  0  0
  128.2769  141.5466  135.4825 C   0  0  0  0  0  0  0  0  0  0  0  0
  129.0501  140.9782  136.6844 C   0  0  0  0  0  0  0  0  0  0  0  0
  126.9207  140.9233  135.5279 C   0  0  0  0  0  0  0  0  0  0  0  0
  128.2830  143.0578  135.5694 C   0  0  2  0  0  0  0  0  0  0  0  0
  127.3028  143.6231  136.5447 C   0  0  0  0  0  0  0  0  0  0  0  0
  127.7589  145.0347  136.8645 C   0  0  0  0  0  0  0  0  0  0  0  0
  127.7153  145.9283  135.6445 C   0  0  1  0  0  0  0  0  0  0  0  0
  126.2396  146.1486  135.3615 C   0  0  0  0  0  0  0  0  0  0  0  0
  126.6208  150.8156  135.0693 C   0  0  0  0  0  0  0  0  0  0  0  0
  125.8334  151.7048  135.7669 O   0  0  0  0  0  0  0  0  0  0  0  0
  126.4261  150.5781  133.8827 O   0  0  0  0  0  0  0  0  0  0  0  0
  1  2  1  0
  2  3  1  0
  2  4  1  0
  4  5  1  0
  5  6  1  0
  6  7  1  0
  7  8  1  0
  8  9  1  0
  9 10  1  1
  9 11  1  0
 11 12  1  0
 12 13  1  1
 11 14  1  6
 14 15  2  0
 14 16  1  0
 16 17  2  0
 17 18  1  0
 18 19  1  6
 18 20  1  0
 20 21  2  0
 21 22  1  0
 22 23  3  0
 21 24  1  0
 24 25  2  0
 24 26  1  0
 26 27  1  0
 26 28  1  0
 26 29  1  0
 29 30  1  6
 30 31  1  0
 31 32  1  0
 32 33  1  6
  6 34  1  6
 34 35  1  0
 34 36  2  0
 13  2  1  0
 32 17  1  0
 12  6  1  0
 29 18  1  0
 32  9  1  0
M  END
$$$$
