
     RDKit          3D

 36 40  0  0  0  0  0  0  0  0999 V2000
  151.9754  162.9996  129.2929 C   0  0  0  0  0  0  0  0  0  0  0  0
  150.6417  163.4846  128.6837 C   0  0  0  0  0  0  0  0  0  0  0  0
  149.7086  162.3002  128.7645 C   0  0  0  0  0  0  0  0  0  0  0  0
  150.8864  163.9761  127.3007 C   0  0  0  0  0  0  0  0  0  0  0  0
  150.9980  165.4747  127.1989 C   0  0  0  0  0  0  0  0  0  0  0  0
  149.7012  166.1514  127.5991 C   0  0  2  0  0  0  0  0  0  0  0  0
  149.8909  167.6295  127.7644 C   0  0  0  0  0  0  0  0  0  0  0  0
  150.0929  168.0490  129.1896 C   0  0  0  0  0  0  0  0  0  0  0  0
  149.1081  167.5757  130.1816 C   0  0  2  0  0  0  0  0  0  0  0  0
  149.8808  167.2575  131.4753 C   0  0  0  0  0  0  0  0  0  0  0  0
  148.3896  166.4133  129.6204 C   0  0  1  0  0  0  0  0  0  0  0  0
  149.1917  165.4388  128.8165 C   0  0  2  0  0  0  0  0  0  0  0  0
  150.2004  164.6471  129.5474 C   0  0  0  0  0  0  0  0  0  0  0  0
  147.5433  165.8333  130.6494 C   0  0  0  0  0  0  0  0  0  0  0  0
  147.3066  164.5728  130.7201 O   0  0  0  0  0  0  0  0  0  0  0  0
  146.9577  166.7378  131.6150 C   0  0  0  0  0  0  0  0  0  0  0  0
  147.2015  168.0309  131.6548 C   0  0  0  0  0  0  0  0  0  0  0  0
  146.4981  168.7763  132.7335 C   0  0  1  0  0  0  0  0  0  0  0  0
  145.0567  169.0378  132.3798 C   0  0  0  0  0  0  0  0  0  0  0  0
  146.4308  168.0019  134.0040 C   0  0  0  0  0  0  0  0  0  0  0  0
  146.1146  168.5823  135.1293 C   0  0  0  0  0  0  0  0  0  0  0  0
  146.0322  167.8745  136.3597 C   0  0  0  0  0  0  0  0  0  0  0  0
  145.9516  167.2805  137.3987 N   0  0  0  0  0  0  0  0  0  0  0  0
  145.8591  170.0465  135.0942 C   0  0  0  0  0  0  0  0  0  0  0  0
  144.9977  170.5327  135.8164 O   0  0  0  0  0  0  0  0  0  0  0  0
  146.6851  170.8666  134.1663 C   0  0  0  0  0  0  0  0  0  0  0  0
  147.8280  171.4303  135.0273 C   0  0  0  0  0  0  0  0  0  0  0  0
  145.9179  172.0472  133.6688 C   0  0  0  0  0  0  0  0  0  0  0  0
  147.2772  169.9927  133.0814 C   0  0  2  0  0  0  0  0  0  0  0  0
  147.8548  170.7474  131.9288 C   0  0  0  0  0  0  0  0  0  0  0  0
  148.8030  169.8043  131.2115 C   0  0  0  0  0  0  0  0  0  0  0  0
  148.0745  168.6152  130.6249 C   0  0  1  0  0  0  0  0  0  0  0  0
  147.2706  169.1709  129.4626 C   0  0  0  0  0  0  0  0  0  0  0  0
  148.7911  165.9562  126.4023 C   0  0  0  0  0  0  0  0  0  0  0  0
  147.8690  166.9525  126.1690 O   0  0  0  0  0  0  0  0  0  0  0  0
  148.8673  164.9686  125.6803 O   0  0  0  0  0  0  0  0  0  0  0  0
  1  2  1  0
  2  3  1  0
  2  4  1  0
  4  5  1  0
  5  6  1  0
  6  7  1  0
  7  8  1  0
  8  9  1  0
  9 10  1  1
  9 11  1  0
 11 12  1  0
 12 13  1  1
 11 14  1  1
 14 15  2  0
 14 16  1  0
 16 17  2  0
 17 18  1  0
 18 19  1  6
 18 20  1  0
 20 21  2  0
 21 22  1  0
 22 23  3  0
 21 24  1  0
 24 25  2  0
 24 26  1  0
 26 27  1  0
 26 28  1  0
 26 29  1  0
 29 30  1  6
 30 31  1  0
 31 32  1  0
 32 33  1  6
  6 34  1  6
 34 35  1  0
 34 36  2  0
 13  2  1  0
 32 17  1  0
 12  6  1  0
 29 18  1  0
 32  9  1  0
M  END
$$$$
