
     RDKit          3D

 36 40  0  0  0  0  0  0  0  0999 V2000
  149.2490  165.9071  124.8569 C   0  0  0  0  0  0  0  0  0  0  0  0
  150.0903  165.8836  126.1519 C   0  0  0  0  0  0  0  0  0  0  0  0
  151.3506  166.6489  125.8264 C   0  0  0  0  0  0  0  0  0  0  0  0
  150.3214  164.4711  126.5588 C   0  0  0  0  0  0  0  0  0  0  0  0
  149.3954  163.9923  127.6459 C   0  0  0  0  0  0  0  0  0  0  0  0
  149.6002  164.7761  128.9279 C   0  0  2  0  0  0  0  0  0  0  0  0
  148.5061  164.4959  129.9140 C   0  0  0  0  0  0  0  0  0  0  0  0
  147.4237  165.5334  129.9146 C   0  0  0  0  0  0  0  0  0  0  0  0
  147.8373  166.9444  130.0419 C   0  0  2  0  0  0  0  0  0  0  0  0
  146.9089  167.7751  129.1364 C   0  0  0  0  0  0  0  0  0  0  0  0
  149.2664  167.0546  129.6841 C   0  0  1  0  0  0  0  0  0  0  0  0
  149.7501  166.2176  128.5418 C   0  0  2  0  0  0  0  0  0  0  0  0
  149.2377  166.5641  127.2017 C   0  0  0  0  0  0  0  0  0  0  0  0
  149.6396  168.4581  129.6374 C   0  0  0  0  0  0  0  0  0  0  0  0
  150.5152  168.9134  128.8152 O   0  0  0  0  0  0  0  0  0  0  0  0
  148.9831  169.3508  130.5678 C   0  0  0  0  0  0  0  0  0  0  0  0
  148.0289  168.9799  131.3954 C   0  0  0  0  0  0  0  0  0  0  0  0
  147.4866  170.0600  132.2634 C   0  0  1  0  0  0  0  0  0  0  0  0
  148.4045  170.3561  133.4214 C   0  0  0  0  0  0  0  0  0  0  0  0
  147.3711  171.3588  131.5436 C   0  0  0  0  0  0  0  0  0  0  0  0
  146.6634  172.3391  132.0348 C   0  0  0  0  0  0  0  0  0  0  0  0
  146.5368  173.5953  131.3808 C   0  0  0  0  0  0  0  0  0  0  0  0
  146.4346  174.6504  130.8196 N   0  0  0  0  0  0  0  0  0  0  0  0
  145.9549  172.0935  133.3187 C   0  0  0  0  0  0  0  0  0  0  0  0
  145.8439  172.9981  134.1367 O   0  0  0  0  0  0  0  0  0  0  0  0
  145.3994  170.7316  133.5478 C   0  0  0  0  0  0  0  0  0  0  0  0
  143.9192  170.8208  133.1399 C   0  0  0  0  0  0  0  0  0  0  0  0
  145.4105  170.3870  135.0008 C   0  0  0  0  0  0  0  0  0  0  0  0
  146.0921  169.7264  132.6528 C   0  0  2  0  0  0  0  0  0  0  0  0
  145.8422  168.2999  133.0193 C   0  0  0  0  0  0  0  0  0  0  0  0
  146.1728  167.4634  131.7970 C   0  0  0  0  0  0  0  0  0  0  0  0
  147.6368  167.5625  131.4286 C   0  0  1  0  0  0  0  0  0  0  0  0
  148.3764  166.8049  132.5173 C   0  0  0  0  0  0  0  0  0  0  0  0
  150.8774  164.2081  129.5152 C   0  0  0  0  0  0  0  0  0  0  0  0
  150.7547  163.0267  130.2128 O   0  0  0  0  0  0  0  0  0  0  0  0
  151.9607  164.7655  129.3800 O   0  0  0  0  0  0  0  0  0  0  0  0
  1  2  1  0
  2  3  1  0
  2  4  1  0
  4  5  1  0
  5  6  1  0
  6  7  1  0
  7  8  1  0
  8  9  1  0
  9 10  1  6
  9 11  1  0
 11 12  1  0
 12 13  1  6
 11 14  1  6
 14 15  2  0
 14 16  1  0
 16 17  2  0
 17 18  1  0
 18 19  1  1
 18 20  1  0
 20 21  2  0
 21 22  1  0
 22 23  3  0
 21 24  1  0
 24 25  2  0
 24 26  1  0
 26 27  1  0
 26 28  1  0
 26 29  1  0
 29 30  1  1
 30 31  1  0
 31 32  1  0
 32 33  1  1
  6 34  1  1
 34 35  1  0
 34 36  2  0
 13  2  1  0
 32 17  1  0
 12  6  1  0
 29 18  1  0
 32  9  1  0
M  END
$$$$
