
     RDKit          3D

 36 40  0  0  0  0  0  0  0  0999 V2000
  130.1796  167.1805  146.1324 C   0  0  0  0  0  0  0  0  0  0  0  0
  129.7900  166.2396  147.2935 C   0  0  0  0  0  0  0  0  0  0  0  0
  130.5613  166.7390  148.4917 C   0  0  0  0  0  0  0  0  0  0  0  0
  130.0998  164.8358  146.9096 C   0  0  0  0  0  0  0  0  0  0  0  0
  128.9024  164.0585  146.4293 C   0  0  0  0  0  0  0  0  0  0  0  0
  127.8648  163.9131  147.5256 C   0  0  2  0  0  0  0  0  0  0  0  0
  126.5705  163.3892  146.9796 C   0  0  0  0  0  0  0  0  0  0  0  0
  125.5604  164.4629  146.7063 C   0  0  0  0  0  0  0  0  0  0  0  0
  125.2730  165.4163  147.7955 C   0  0  2  0  0  0  0  0  0  0  0  0
  125.0707  166.7995  147.1492 C   0  0  0  0  0  0  0  0  0  0  0  0
  126.3838  165.3746  148.7686 C   0  0  1  0  0  0  0  0  0  0  0  0
  127.7685  165.2402  148.2177 C   0  0  2  0  0  0  0  0  0  0  0  0
  128.2913  166.3870  147.4495 C   0  0  0  0  0  0  0  0  0  0  0  0
  126.1975  166.4293  149.7507 C   0  0  0  0  0  0  0  0  0  0  0  0
  127.1823  167.0506  150.2928 O   0  0  0  0  0  0  0  0  0  0  0  0
  124.8378  166.7670  150.1122 C   0  0  0  0  0  0  0  0  0  0  0  0
  123.7728  166.2279  149.5571 C   0  0  0  0  0  0  0  0  0  0  0  0
  122.4684  166.7230  150.0741 C   0  0  1  0  0  0  0  0  0  0  0  0
  122.1211  166.0952  151.3994 C   0  0  0  0  0  0  0  0  0  0  0  0
  122.4901  168.1857  150.3540 C   0  0  0  0  0  0  0  0  0  0  0  0
  121.3829  168.8518  150.5374 C   0  0  0  0  0  0  0  0  0  0  0  0
  121.3646  170.2462  150.8148 C   0  0  0  0  0  0  0  0  0  0  0  0
  121.3405  171.4238  151.0414 N   0  0  0  0  0  0  0  0  0  0  0  0
  120.1060  168.0988  150.4224 C   0  0  0  0  0  0  0  0  0  0  0  0
  119.1628  168.3831  151.1500 O   0  0  0  0  0  0  0  0  0  0  0  0
  120.0352  167.0169  149.4026 C   0  0  0  0  0  0  0  0  0  0  0  0
  119.3734  167.6591  148.1717 C   0  0  0  0  0  0  0  0  0  0  0  0
  119.1188  165.9240  149.8449 C   0  0  0  0  0  0  0  0  0  0  0  0
  121.4286  166.5615  149.0250 C   0  0  2  0  0  0  0  0  0  0  0  0
  121.4716  165.2804  148.2578 C   0  0  0  0  0  0  0  0  0  0  0  0
  122.8177  165.2268  147.5591 C   0  0  0  0  0  0  0  0  0  0  0  0
  123.9614  165.1741  148.5481 C   0  0  1  0  0  0  0  0  0  0  0  0
  123.8918  163.7896  149.1683 C   0  0  0  0  0  0  0  0  0  0  0  0
  128.4266  162.8367  148.4337 C   0  0  0  0  0  0  0  0  0  0  0  0
  128.4871  163.1419  149.7756 O   0  0  0  0  0  0  0  0  0  0  0  0
  128.8075  161.7543  148.0027 O   0  0  0  0  0  0  0  0  0  0  0  0
  1  2  1  0
  2  3  1  0
  2  4  1  0
  4  5  1  0
  5  6  1  0
  6  7  1  0
  7  8  1  0
  8  9  1  0
  9 10  1  6
  9 11  1  0
 11 12  1  0
 12 13  1  6
 11 14  1  6
 14 15  2  0
 14 16  1  0
 16 17  2  0
 17 18  1  0
 18 19  1  1
 18 20  1  0
 20 21  2  0
 21 22  1  0
 22 23  3  0
 21 24  1  0
 24 25  2  0
 24 26  1  0
 26 27  1  0
 26 28  1  0
 26 29  1  0
 29 30  1  1
 30 31  1  0
 31 32  1  0
 32 33  1  1
  6 34  1  1
 34 35  1  0
 34 36  2  0
 13  2  1  0
 32 17  1  0
 12  6  1  0
 29 18  1  0
 32  9  1  0
M  END
$$$$
