
     RDKit          3D

 36 40  0  0  0  0  0  0  0  0999 V2000
  103.1761  168.3614  153.6724 C   0  0  0  0  0  0  0  0  0  0  0  0
  104.2712  168.9768  154.5709 C   0  0  0  0  0  0  0  0  0  0  0  0
  103.9178  170.4400  154.6905 C   0  0  0  0  0  0  0  0  0  0  0  0
  105.6044  168.7183  153.9628 C   0  0  0  0  0  0  0  0  0  0  0  0
  106.3379  167.5553  154.5777 C   0  0  0  0  0  0  0  0  0  0  0  0
  106.6507  167.8126  156.0391 C   0  0  2  0  0  0  0  0  0  0  0  0
  107.1267  166.5638  156.7186 C   0  0  0  0  0  0  0  0  0  0  0  0
  106.0492  165.8515  157.4799 C   0  0  0  0  0  0  0  0  0  0  0  0
  105.2553  166.6476  158.4361 C   0  0  2  0  0  0  0  0  0  0  0  0
  103.8035  166.1396  158.3575 C   0  0  0  0  0  0  0  0  0  0  0  0
  105.4007  168.0785  158.0985 C   0  0  1  0  0  0  0  0  0  0  0  0
  105.4296  168.4371  156.6460 C   0  0  2  0  0  0  0  0  0  0  0  0
  104.1796  168.2351  155.8875 C   0  0  0  0  0  0  0  0  0  0  0  0
  104.4900  168.8574  158.9204 C   0  0  0  0  0  0  0  0  0  0  0  0
  103.9240  169.9304  158.4982 O   0  0  0  0  0  0  0  0  0  0  0  0
  104.2338  168.3804  160.2622 C   0  0  0  0  0  0  0  0  0  0  0  0
  104.7185  167.2576  160.7495 C   0  0  0  0  0  0  0  0  0  0  0  0
  104.3258  166.9529  162.1520 C   0  0  1  0  0  0  0  0  0  0  0  0
  105.1315  167.7546  163.1417 C   0  0  0  0  0  0  0  0  0  0  0  0
  102.9130  167.3283  162.4373 C   0  0  0  0  0  0  0  0  0  0  0  0
  102.3023  166.8876  163.5032 C   0  0  0  0  0  0  0  0  0  0  0  0
  100.9577  167.2310  163.8128 C   0  0  0  0  0  0  0  0  0  0  0  0
   99.8208  167.5096  164.0748 N   0  0  0  0  0  0  0  0  0  0  0  0
  103.0619  165.9738  164.3967 C   0  0  0  0  0  0  0  0  0  0  0  0
  102.8979  166.0308  165.6091 O   0  0  0  0  0  0  0  0  0  0  0  0
  104.0004  165.0108  163.7582 C   0  0  0  0  0  0  0  0  0  0  0  0
  103.2158  163.6933  163.6407 C   0  0  0  0  0  0  0  0  0  0  0  0
  105.1626  164.7247  164.6510 C   0  0  0  0  0  0  0  0  0  0  0  0
  104.3702  165.4836  162.3685 C   0  0  2  0  0  0  0  0  0  0  0  0
  105.5369  164.7719  161.7655 C   0  0  0  0  0  0  0  0  0  0  0  0
  105.4672  164.9966  160.2662 C   0  0  0  0  0  0  0  0  0  0  0  0
  105.6247  166.4585  159.9102 C   0  0  1  0  0  0  0  0  0  0  0  0
  107.0804  166.7856  160.1934 C   0  0  0  0  0  0  0  0  0  0  0  0
  107.8251  168.7712  156.0084 C   0  0  0  0  0  0  0  0  0  0  0  0
  108.9931  168.2867  155.4621 O   0  0  0  0  0  0  0  0  0  0  0  0
  107.7447  169.9139  156.4445 O   0  0  0  0  0  0  0  0  0  0  0  0
  1  2  1  0
  2  3  1  0
  2  4  1  0
  4  5  1  0
  5  6  1  0
  6  7  1  0
  7  8  1  0
  8  9  1  0
  9 10  1  1
  9 11  1  0
 11 12  1  0
 12 13  1  6
 11 14  1  1
 14 15  2  0
 14 16  1  0
 16 17  2  0
 17 18  1  0
 18 19  1  1
 18 20  1  0
 20 21  2  0
 21 22  1  0
 22 23  3  0
 21 24  1  0
 24 25  2  0
 24 26  1  0
 26 27  1  0
 26 28  1  0
 26 29  1  0
 29 30  1  1
 30 31  1  0
 31 32  1  0
 32 33  1  6
  6 34  1  6
 34 35  1  0
 34 36  2  0
 13  2  1  0
 32 17  1  0
 12  6  1  0
 29 18  1  0
 32  9  1  0
M  END
$$$$
