
     RDKit          3D

 36 40  0  0  0  0  0  0  0  0999 V2000
  173.0875  163.9408  115.4422 C   0  0  0  0  0  0  0  0  0  0  0  0
  172.7695  163.0887  114.1940 C   0  0  0  0  0  0  0  0  0  0  0  0
  171.5676  163.7434  113.5560 C   0  0  0  0  0  0  0  0  0  0  0  0
  172.5474  161.6773  114.6095 C   0  0  0  0  0  0  0  0  0  0  0  0
  173.7437  160.7865  114.4000 C   0  0  0  0  0  0  0  0  0  0  0  0
  174.0990  160.6790  112.9296 C   0  0  2  0  0  0  0  0  0  0  0  0
  175.4364  160.0279  112.7424 C   0  0  0  0  0  0  0  0  0  0  0  0
  176.5530  161.0073  112.5377 C   0  0  0  0  0  0  0  0  0  0  0  0
  176.3688  162.0376  111.4972 C   0  0  2  0  0  0  0  0  0  0  0  0
  176.9952  163.3401  112.0293 C   0  0  0  0  0  0  0  0  0  0  0  0
  174.9276  162.1547  111.1946 C   0  0  1  0  0  0  0  0  0  0  0  0
  173.9784  162.0559  112.3472 C   0  0  2  0  0  0  0  0  0  0  0  0
  174.0105  163.1570  113.3296 C   0  0  0  0  0  0  0  0  0  0  0  0
  174.7176  163.2819  110.3020 C   0  0  0  0  0  0  0  0  0  0  0  0
  173.6605  164.0103  110.3456 O   0  0  0  0  0  0  0  0  0  0  0  0
  175.7570  163.5669  109.3367 C   0  0  0  0  0  0  0  0  0  0  0  0
  176.8982  162.9140  109.2692 C   0  0  0  0  0  0  0  0  0  0  0  0
  177.8298  163.3731  108.2037 C   0  0  1  0  0  0  0  0  0  0  0  0
  177.4264  162.8501  106.8491 C   0  0  0  0  0  0  0  0  0  0  0  0
  177.8201  164.8540  108.0444 C   0  0  0  0  0  0  0  0  0  0  0  0
  178.7591  165.4644  107.3744 C   0  0  0  0  0  0  0  0  0  0  0  0
  178.7786  166.8746  107.1942 C   0  0  0  0  0  0  0  0  0  0  0  0
  178.7986  168.0656  107.0531 N   0  0  0  0  0  0  0  0  0  0  0  0
  179.8496  164.6265  106.8094 C   0  0  0  0  0  0  0  0  0  0  0  0
  180.3444  164.9179  105.7276 O   0  0  0  0  0  0  0  0  0  0  0  0
  180.2986  163.4528  107.6071 C   0  0  0  0  0  0  0  0  0  0  0  0
  181.5344  163.9364  108.3846 C   0  0  0  0  0  0  0  0  0  0  0  0
  180.7720  162.3508  106.7174 C   0  0  0  0  0  0  0  0  0  0  0  0
  179.2261  163.0515  108.5971 C   0  0  2  0  0  0  0  0  0  0  0  0
  179.4339  161.7102  109.2210 C   0  0  0  0  0  0  0  0  0  0  0  0
  178.5980  161.6756  110.4872 C   0  0  0  0  0  0  0  0  0  0  0  0
  177.1193  161.7853  110.1863 C   0  0  1  0  0  0  0  0  0  0  0  0
  176.7417  160.4623  109.5434 C   0  0  0  0  0  0  0  0  0  0  0  0
  173.0636  159.7279  112.3619 C   0  0  0  0  0  0  0  0  0  0  0  0
  172.2976  160.2100  111.3236 O   0  0  0  0  0  0  0  0  0  0  0  0
  172.9126  158.5929  112.7994 O   0  0  0  0  0  0  0  0  0  0  0  0
  1  2  1  0
  2  3  1  0
  2  4  1  0
  4  5  1  0
  5  6  1  0
  6  7  1  0
  7  8  1  0
  8  9  1  0
  9 10  1  1
  9 11  1  0
 11 12  1  0
 12 13  1  1
 11 14  1  1
 14 15  2  0
 14 16  1  0
 16 17  2  0
 17 18  1  0
 18 19  1  6
 18 20  1  0
 20 21  2  0
 21 22  1  0
 22 23  3  0
 21 24  1  0
 24 25  2  0
 24 26  1  0
 26 27  1  0
 26 28  1  0
 26 29  1  0
 29 30  1  6
 30 31  1  0
 31 32  1  0
 32 33  1  6
  6 34  1  6
 34 35  1  0
 34 36  2  0
 13  2  1  0
 32 17  1  0
 12  6  1  0
 29 18  1  0
 32  9  1  0
M  END
$$$$
