
     RDKit          3D

 36 40  0  0  0  0  0  0  0  0999 V2000
  108.7016  160.3500  157.5382 C   0  0  0  0  0  0  0  0  0  0  0  0
  107.8223  161.2236  156.6168 C   0  0  0  0  0  0  0  0  0  0  0  0
  106.5162  160.4779  156.4824 C   0  0  0  0  0  0  0  0  0  0  0  0
  108.5340  161.4457  155.3291 C   0  0  0  0  0  0  0  0  0  0  0  0
  109.2262  162.7804  155.2394 C   0  0  0  0  0  0  0  0  0  0  0  0
  108.2303  163.9221  155.3037 C   0  0  2  0  0  0  0  0  0  0  0  0
  108.9258  165.2369  155.4923 C   0  0  0  0  0  0  0  0  0  0  0  0
  108.9522  165.6983  156.9185 C   0  0  0  0  0  0  0  0  0  0  0  0
  107.6688  165.7235  157.6467 C   0  0  2  0  0  0  0  0  0  0  0  0
  107.9565  165.2801  159.0933 C   0  0  0  0  0  0  0  0  0  0  0  0
  106.7055  164.8532  156.9416 C   0  0  1  0  0  0  0  0  0  0  0  0
  107.2331  163.5753  156.3690 C   0  0  2  0  0  0  0  0  0  0  0  0
  107.6771  162.5496  157.3329 C   0  0  0  0  0  0  0  0  0  0  0  0
  105.4978  164.7328  157.7406 C   0  0  0  0  0  0  0  0  0  0  0  0
  104.7906  163.6608  157.7669 O   0  0  0  0  0  0  0  0  0  0  0  0
  105.1024  165.8835  158.5236 C   0  0  0  0  0  0  0  0  0  0  0  0
  105.8040  166.9943  158.6059 C   0  0  0  0  0  0  0  0  0  0  0  0
  105.2174  168.0526  159.4719 C   0  0  1  0  0  0  0  0  0  0  0  0
  104.1000  168.7854  158.7748 C   0  0  0  0  0  0  0  0  0  0  0  0
  104.5822  167.4923  160.6970 C   0  0  0  0  0  0  0  0  0  0  0  0
  104.2704  168.2612  161.7044 C   0  0  0  0  0  0  0  0  0  0  0  0
  103.6559  167.7639  162.8862 C   0  0  0  0  0  0  0  0  0  0  0  0
  103.1468  167.3471  163.8892 N   0  0  0  0  0  0  0  0  0  0  0  0
  104.6051  169.7053  161.5904 C   0  0  0  0  0  0  0  0  0  0  0  0
  103.8567  170.5448  162.0753 O   0  0  0  0  0  0  0  0  0  0  0  0
  105.8634  170.0657  160.8816 C   0  0  0  0  0  0  0  0  0  0  0  0
  106.9143  170.2578  161.9880 C   0  0  0  0  0  0  0  0  0  0  0  0
  105.7327  171.3869  160.1981 C   0  0  0  0  0  0  0  0  0  0  0  0
  106.3027  168.9286  159.9842 C   0  0  2  0  0  0  0  0  0  0  0  0
  107.3626  169.2961  158.9978 C   0  0  0  0  0  0  0  0  0  0  0  0
  108.0143  168.0028  158.5443 C   0  0  0  0  0  0  0  0  0  0  0  0
  107.0375  167.1089  157.8125 C   0  0  1  0  0  0  0  0  0  0  0  0
  106.7831  167.7968  156.4828 C   0  0  0  0  0  0  0  0  0  0  0  0
  107.6026  163.9508  153.9238 C   0  0  0  0  0  0  0  0  0  0  0  0
  108.4727  164.0491  152.8605 O   0  0  0  0  0  0  0  0  0  0  0  0
  106.3895  163.8909  153.7586 O   0  0  0  0  0  0  0  0  0  0  0  0
  1  2  1  0
  2  3  1  0
  2  4  1  0
  4  5  1  0
  5  6  1  0
  6  7  1  0
  7  8  1  0
  8  9  1  0
  9 10  1  1
  9 11  1  0
 11 12  1  0
 12 13  1  1
 11 14  1  1
 14 15  2  0
 14 16  1  0
 16 17  2  0
 17 18  1  0
 18 19  1  6
 18 20  1  0
 20 21  2  0
 21 22  1  0
 22 23  3  0
 21 24  1  0
 24 25  2  0
 24 26  1  0
 26 27  1  0
 26 28  1  0
 26 29  1  0
 29 30  1  6
 30 31  1  0
 31 32  1  0
 32 33  1  6
  6 34  1  6
 34 35  1  0
 34 36  2  0
 13  2  1  0
 32 17  1  0
 12  6  1  0
 29 18  1  0
 32  9  1  0
M  END
$$$$
