
     RDKit          3D

 43 51  0  0  0  0  0  0  0  0999 V2000
  170.1668  165.1489  111.9879 C   0  0  0  0  0  0  0  0  0  0  0  0
  171.0264  164.6012  111.0820 O   0  0  0  0  0  0  0  0  0  0  0  0
  171.0775  163.2328  110.9962 C   0  0  2  0  0  0  0  0  0  0  0  0
  172.5454  162.8222  110.9391 C   0  0  1  0  0  0  0  0  0  0  0  0
  173.1582  163.8893  110.0452 C   0  0  0  0  0  0  0  0  0  0  0  0
  172.5198  163.7228  108.6720 C   0  0  1  0  0  0  0  0  0  0  0  0
  171.5312  162.8011  108.6486 O   0  0  0  0  0  0  0  0  0  0  0  0
  170.5172  162.8829  109.5981 C   0  0  1  0  0  0  0  0  0  0  0  0
  169.8960  161.5056  109.5770 C   0  0  0  0  0  0  0  0  0  0  0  0
  169.5525  163.8842  109.2253 N   0  0  0  0  0  0  0  0  0  0  0  0
  168.2156  163.8836  109.5258 C   0  0  0  0  0  0  0  0  0  0  0  0
  167.6167  165.0114  108.9574 C   0  0  0  0  0  0  0  0  0  0  0  0
  166.2816  165.2832  109.1106 C   0  0  0  0  0  0  0  0  0  0  0  0
  165.5207  164.4107  109.8496 C   0  0  0  0  0  0  0  0  0  0  0  0
  166.0732  163.2908  110.4254 C   0  0  0  0  0  0  0  0  0  0  0  0
  167.4243  163.0312  110.2608 C   0  0  0  0  0  0  0  0  0  0  0  0
  168.5876  165.7037  108.3130 C   0  0  0  0  0  0  0  0  0  0  0  0
  169.7439  165.0234  108.4787 C   0  0  0  0  0  0  0  0  0  0  0  0
  170.9245  165.4889  107.9606 C   0  0  0  0  0  0  0  0  0  0  0  0
  170.9308  166.6786  107.2546 C   0  0  0  0  0  0  0  0  0  0  0  0
  172.2296  166.8934  106.8767 C   0  0  0  0  0  0  0  0  0  0  0  0
  172.9451  165.8209  107.3738 C   0  0  0  0  0  0  0  0  0  0  0  0
  174.3003  165.7574  107.1518 C   0  0  0  0  0  0  0  0  0  0  0  0
  174.9587  166.7387  106.4449 C   0  0  0  0  0  0  0  0  0  0  0  0
  174.2241  167.7919  105.9629 C   0  0  0  0  0  0  0  0  0  0  0  0
  172.8404  167.8929  106.1681 C   0  0  0  0  0  0  0  0  0  0  0  0
  172.1592  164.9644  108.0321 N   0  0  0  0  0  0  0  0  0  0  0  0
  169.7248  167.3795  107.0840 C   0  0  0  0  0  0  0  0  0  0  0  0
  168.5543  166.9010  107.6078 C   0  0  0  0  0  0  0  0  0  0  0  0
  167.4452  167.7927  107.3030 C   0  0  0  0  0  0  0  0  0  0  0  0
  167.9991  168.8621  106.5473 N   0  0  0  0  0  0  0  0  0  0  0  0
  169.4127  168.6237  106.4029 C   0  0  0  0  0  0  0  0  0  0  0  0
  170.1563  169.4189  105.7762 O   0  0  0  0  0  0  0  0  0  0  0  0
  173.1889  162.6847  112.1908 N   0  0  0  0  0  0  0  0  0  0  0  0
  172.3286  162.7299  113.4174 C   0  0  0  0  0  0  0  0  0  0  0  0
  174.5542  162.4814  112.4454 C   0  0  0  0  0  0  0  0  0  0  0  0
  175.4775  162.6823  111.6604 O   0  0  0  0  0  0  0  0  0  0  0  0
  174.9361  161.9795  113.7859 C   0  0  0  0  0  0  0  0  0  0  0  0
  174.7342  162.7053  114.9331 C   0  0  0  0  0  0  0  0  0  0  0  0
  175.0801  162.2048  116.1899 C   0  0  0  0  0  0  0  0  0  0  0  0
  175.6407  160.9458  116.2912 C   0  0  0  0  0  0  0  0  0  0  0  0
  175.8425  160.2191  115.1302 C   0  0  0  0  0  0  0  0  0  0  0  0
  175.5016  160.7103  113.8787 C   0  0  0  0  0  0  0  0  0  0  0  0
  1  2  1  0
  3  2  1  6
  3  4  1  0
  4  5  1  0
  6  5  1  1
  6  7  1  0
  7  8  1  0
  8  9  1  1
  8 10  1  0
 10 11  1  0
 11 12  2  0
 12 13  1  0
 13 14  2  0
 14 15  1  0
 15 16  2  0
 12 17  1  0
 17 18  1  0
 18 19  2  0
 19 20  1  0
 20 21  1  0
 21 22  2  0
 22 23  1  0
 23 24  2  0
 24 25  1  0
 25 26  2  0
 22 27  1  0
 20 28  2  0
 28 29  1  0
 29 30  1  0
 30 31  1  0
 31 32  1  0
 32 33  2  0
  4 34  1  1
 34 35  1  0
 34 36  1  0
 36 37  2  0
 36 38  1  0
 38 39  2  0
 39 40  1  0
 40 41  2  0
 41 42  1  0
 42 43  2  0
  8  3  1  0
 18 10  1  0
 27 19  1  0
 32 28  1  0
 43 38  1  0
 27  6  1  0
 16 11  1  0
 29 17  2  0
 26 21  1  0
M  END
$$$$
