
     RDKit          3D

 43 51  0  0  0  0  0  0  0  0999 V2000
  192.8030  181.3876  131.5188 C   0  0  0  0  0  0  0  0  0  0  0  0
  191.5829  181.1168  130.9736 O   0  0  0  0  0  0  0  0  0  0  0  0
  190.6903  182.1524  130.8584 C   0  0  2  0  0  0  0  0  0  0  0  0
  189.5326  181.8807  131.8137 C   0  0  1  0  0  0  0  0  0  0  0  0
  189.3253  180.3807  131.6721 C   0  0  0  0  0  0  0  0  0  0  0  0
  188.8793  180.1389  130.2355 C   0  0  1  0  0  0  0  0  0  0  0  0
  188.9114  181.2523  129.4697 O   0  0  0  0  0  0  0  0  0  0  0  0
  190.0748  182.0155  129.4466 C   0  0  1  0  0  0  0  0  0  0  0  0
  189.6155  183.3507  128.9085 C   0  0  0  0  0  0  0  0  0  0  0  0
  191.0535  181.4222  128.5735 N   0  0  0  0  0  0  0  0  0  0  0  0
  192.0166  182.0824  127.8564 C   0  0  0  0  0  0  0  0  0  0  0  0
  192.7470  181.1559  127.1069 C   0  0  0  0  0  0  0  0  0  0  0  0
  193.7932  181.5303  126.3037 C   0  0  0  0  0  0  0  0  0  0  0  0
  194.1233  182.8622  126.2441 C   0  0  0  0  0  0  0  0  0  0  0  0
  193.4295  183.8039  126.9672 C   0  0  0  0  0  0  0  0  0  0  0  0
  192.3750  183.4082  127.7743 C   0  0  0  0  0  0  0  0  0  0  0  0
  192.2335  179.9290  127.3685 C   0  0  0  0  0  0  0  0  0  0  0  0
  191.2208  180.0963  128.2481 C   0  0  0  0  0  0  0  0  0  0  0  0
  190.5132  179.0263  128.7313 C   0  0  0  0  0  0  0  0  0  0  0  0
  190.8434  177.7510  128.3093 C   0  0  0  0  0  0  0  0  0  0  0  0
  189.9897  176.8991  128.9585 C   0  0  0  0  0  0  0  0  0  0  0  0
  189.1844  177.7034  129.7419 C   0  0  0  0  0  0  0  0  0  0  0  0
  188.2139  177.1230  130.5237 C   0  0  0  0  0  0  0  0  0  0  0  0
  188.0273  175.7589  130.5418 C   0  0  0  0  0  0  0  0  0  0  0  0
  188.8406  174.9844  129.7545 C   0  0  0  0  0  0  0  0  0  0  0  0
  189.8419  175.5382  128.9434 C   0  0  0  0  0  0  0  0  0  0  0  0
  189.4962  178.9955  129.6085 N   0  0  0  0  0  0  0  0  0  0  0  0
  191.8957  177.5844  127.3928 C   0  0  0  0  0  0  0  0  0  0  0  0
  192.5925  178.6634  126.9200 C   0  0  0  0  0  0  0  0  0  0  0  0
  193.6289  178.2451  125.9877 C   0  0  0  0  0  0  0  0  0  0  0  0
  193.5318  176.8292  125.9039 N   0  0  0  0  0  0  0  0  0  0  0  0
  192.4631  176.4012  126.7702 C   0  0  0  0  0  0  0  0  0  0  0  0
  192.1570  175.1891  126.8928 O   0  0  0  0  0  0  0  0  0  0  0  0
  189.7297  182.3085  133.1472 N   0  0  0  0  0  0  0  0  0  0  0  0
  190.9167  181.7597  133.8795 C   0  0  0  0  0  0  0  0  0  0  0  0
  188.9596  183.2189  133.8876 C   0  0  0  0  0  0  0  0  0  0  0  0
  189.3892  184.1155  134.6092 O   0  0  0  0  0  0  0  0  0  0  0  0
  187.4853  183.1033  133.7995 C   0  0  0  0  0  0  0  0  0  0  0  0
  186.7585  182.2695  134.6118 C   0  0  0  0  0  0  0  0  0  0  0  0
  185.3668  182.1921  134.5288 C   0  0  0  0  0  0  0  0  0  0  0  0
  184.6948  182.9725  133.6075 C   0  0  0  0  0  0  0  0  0  0  0  0
  185.4338  183.8109  132.7905 C   0  0  0  0  0  0  0  0  0  0  0  0
  186.8162  183.8926  132.8674 C   0  0  0  0  0  0  0  0  0  0  0  0
  1  2  1  0
  3  2  1  6
  3  4  1  0
  4  5  1  0
  6  5  1  1
  6  7  1  0
  7  8  1  0
  8  9  1  6
  8 10  1  0
 10 11  1  0
 11 12  2  0
 12 13  1  0
 13 14  2  0
 14 15  1  0
 15 16  2  0
 12 17  1  0
 17 18  1  0
 18 19  2  0
 19 20  1  0
 20 21  1  0
 21 22  2  0
 22 23  1  0
 23 24  2  0
 24 25  1  0
 25 26  2  0
 22 27  1  0
 20 28  2  0
 28 29  1  0
 29 30  1  0
 30 31  1  0
 31 32  1  0
 32 33  2  0
  4 34  1  1
 34 35  1  0
 34 36  1  0
 36 37  2  0
 36 38  1  0
 38 39  2  0
 39 40  1  0
 40 41  2  0
 41 42  1  0
 42 43  2  0
  8  3  1  0
 18 10  1  0
 27 19  1  0
 32 28  1  0
 43 38  1  0
 27  6  1  0
 16 11  1  0
 29 17  2  0
 26 21  1  0
M  END
$$$$
