
     RDKit          3D

 43 51  0  0  0  0  0  0  0  0999 V2000
  130.1393  161.8018  148.9894 C   0  0  0  0  0  0  0  0  0  0  0  0
  129.8432  162.8445  149.8168 O   0  0  0  0  0  0  0  0  0  0  0  0
  130.6767  163.0708  150.8829 C   0  0  2  0  0  0  0  0  0  0  0  0
  129.8338  163.0271  152.1534 C   0  0  1  0  0  0  0  0  0  0  0  0
  128.5560  163.7371  151.7333 C   0  0  0  0  0  0  0  0  0  0  0  0
  128.9440  165.1763  151.4181 C   0  0  1  0  0  0  0  0  0  0  0  0
  130.2770  165.3951  151.4669 O   0  0  0  0  0  0  0  0  0  0  0  0
  131.1210  164.5465  150.7570 C   0  0  1  0  0  0  0  0  0  0  0  0
  132.4735  164.7758  151.3906 C   0  0  0  0  0  0  0  0  0  0  0  0
  131.1432  164.9030  149.3625 N   0  0  0  0  0  0  0  0  0  0  0  0
  132.1888  164.7371  148.4926 C   0  0  0  0  0  0  0  0  0  0  0  0
  131.8268  165.2375  147.2388 C   0  0  0  0  0  0  0  0  0  0  0  0
  132.6738  165.1880  146.1617 C   0  0  0  0  0  0  0  0  0  0  0  0
  133.9145  164.6250  146.3351 C   0  0  0  0  0  0  0  0  0  0  0  0
  134.3072  164.1208  147.5527 C   0  0  0  0  0  0  0  0  0  0  0  0
  133.4386  164.1787  148.6308 C   0  0  0  0  0  0  0  0  0  0  0  0
  130.5589  165.7057  147.3406 C   0  0  0  0  0  0  0  0  0  0  0  0
  130.1559  165.5010  148.6145 C   0  0  0  0  0  0  0  0  0  0  0  0
  128.8955  165.8479  149.0271 C   0  0  0  0  0  0  0  0  0  0  0  0
  128.0202  166.4184  148.1205 C   0  0  0  0  0  0  0  0  0  0  0  0
  126.8535  166.6418  148.8024 C   0  0  0  0  0  0  0  0  0  0  0  0
  127.0821  166.1945  150.0895 C   0  0  0  0  0  0  0  0  0  0  0  0
  126.0755  166.2878  151.0212 C   0  0  0  0  0  0  0  0  0  0  0  0
  124.8461  166.8175  150.6990 C   0  0  0  0  0  0  0  0  0  0  0  0
  124.6464  167.2539  149.4141 C   0  0  0  0  0  0  0  0  0  0  0  0
  125.6477  167.1759  148.4352 C   0  0  0  0  0  0  0  0  0  0  0  0
  128.3195  165.7119  150.2332 N   0  0  0  0  0  0  0  0  0  0  0  0
  128.4465  166.6307  146.7984 C   0  0  0  0  0  0  0  0  0  0  0  0
  129.7084  166.2785  146.4023 C   0  0  0  0  0  0  0  0  0  0  0  0
  129.9193  166.5937  144.9971 C   0  0  0  0  0  0  0  0  0  0  0  0
  128.7042  167.1725  144.5391 N   0  0  0  0  0  0  0  0  0  0  0  0
  127.7781  167.2021  145.6425 C   0  0  0  0  0  0  0  0  0  0  0  0
  126.6166  167.6640  145.5180 O   0  0  0  0  0  0  0  0  0  0  0  0
  129.6210  161.7401  152.6995 N   0  0  0  0  0  0  0  0  0  0  0  0
  129.4919  160.5961  151.7398 C   0  0  0  0  0  0  0  0  0  0  0  0
  129.5375  161.3762  154.0526 C   0  0  0  0  0  0  0  0  0  0  0  0
  128.7780  160.5395  154.5344 O   0  0  0  0  0  0  0  0  0  0  0  0
  130.4479  162.0545  155.0043 C   0  0  0  0  0  0  0  0  0  0  0  0
  130.0844  162.3480  156.2947 C   0  0  0  0  0  0  0  0  0  0  0  0
  130.9655  162.9672  157.1836 C   0  0  0  0  0  0  0  0  0  0  0  0
  132.2396  163.2963  156.7619 C   0  0  0  0  0  0  0  0  0  0  0  0
  132.5998  162.9982  155.4588 C   0  0  0  0  0  0  0  0  0  0  0  0
  131.7297  162.3837  154.5705 C   0  0  0  0  0  0  0  0  0  0  0  0
  1  2  1  0
  3  2  1  6
  3  4  1  0
  4  5  1  0
  6  5  1  6
  6  7  1  0
  7  8  1  0
  8  9  1  1
  8 10  1  0
 10 11  1  0
 11 12  2  0
 12 13  1  0
 13 14  2  0
 14 15  1  0
 15 16  2  0
 12 17  1  0
 17 18  1  0
 18 19  2  0
 19 20  1  0
 20 21  1  0
 21 22  2  0
 22 23  1  0
 23 24  2  0
 24 25  1  0
 25 26  2  0
 22 27  1  0
 20 28  2  0
 28 29  1  0
 29 30  1  0
 30 31  1  0
 31 32  1  0
 32 33  2  0
  4 34  1  6
 34 35  1  0
 34 36  1  0
 36 37  2  0
 36 38  1  0
 38 39  2  0
 39 40  1  0
 40 41  2  0
 41 42  1  0
 42 43  2  0
  8  3  1  0
 18 10  1  0
 27 19  1  0
 32 28  1  0
 43 38  1  0
 27  6  1  0
 16 11  1  0
 29 17  2  0
 26 21  1  0
M  END
$$$$
