
     RDKit          3D

 43 51  0  0  0  0  0  0  0  0999 V2000
  131.6261  183.1356  152.8747 C   0  0  0  0  0  0  0  0  0  0  0  0
  131.3391  183.7278  151.6804 O   0  0  0  0  0  0  0  0  0  0  0  0
  132.3060  184.5159  151.1093 C   0  0  2  0  0  0  0  0  0  0  0  0
  131.9505  185.9719  151.3927 C   0  0  1  0  0  0  0  0  0  0  0  0
  130.4392  185.9878  151.2232 C   0  0  0  0  0  0  0  0  0  0  0  0
  130.1641  185.6626  149.7604 C   0  0  1  0  0  0  0  0  0  0  0  0
  131.2762  185.3335  149.0661 O   0  0  0  0  0  0  0  0  0  0  0  0
  132.1230  184.3572  149.5821 C   0  0  1  0  0  0  0  0  0  0  0  0
  133.4204  184.5813  148.8405 C   0  0  0  0  0  0  0  0  0  0  0  0
  131.6028  183.0418  149.3153 N   0  0  0  0  0  0  0  0  0  0  0  0
  132.3316  181.8960  149.1315 C   0  0  0  0  0  0  0  0  0  0  0  0
  131.4608  180.8358  148.8644 C   0  0  0  0  0  0  0  0  0  0  0  0
  131.9107  179.5575  148.6561 C   0  0  0  0  0  0  0  0  0  0  0  0
  133.2632  179.3261  148.7155 C   0  0  0  0  0  0  0  0  0  0  0  0
  134.1518  180.3425  148.9766 C   0  0  0  0  0  0  0  0  0  0  0  0
  133.6801  181.6286  149.1851 C   0  0  0  0  0  0  0  0  0  0  0  0
  130.1997  181.3320  148.8888 C   0  0  0  0  0  0  0  0  0  0  0  0
  130.2926  182.6530  149.1604 C   0  0  0  0  0  0  0  0  0  0  0  0
  129.1737  183.4361  149.2786 C   0  0  0  0  0  0  0  0  0  0  0  0
  127.9259  182.8615  149.1165 C   0  0  0  0  0  0  0  0  0  0  0  0
  127.0139  183.8666  149.3010 C   0  0  0  0  0  0  0  0  0  0  0  0
  127.7573  185.0008  149.5659 C   0  0  0  0  0  0  0  0  0  0  0  0
  127.1077  186.1896  149.7996 C   0  0  0  0  0  0  0  0  0  0  0  0
  125.7335  186.2737  149.7748 C   0  0  0  0  0  0  0  0  0  0  0  0
  125.0204  185.1325  149.5094 C   0  0  0  0  0  0  0  0  0  0  0  0
  125.6458  183.9011  149.2658 C   0  0  0  0  0  0  0  0  0  0  0  0
  129.0688  184.7469  149.5533 N   0  0  0  0  0  0  0  0  0  0  0  0
  127.8365  181.4882  148.8318 C   0  0  0  0  0  0  0  0  0  0  0  0
  128.9635  180.7200  148.7171 C   0  0  0  0  0  0  0  0  0  0  0  0
  128.6221  179.3368  148.4202 C   0  0  0  0  0  0  0  0  0  0  0  0
  127.2027  179.2901  148.3516 N   0  0  0  0  0  0  0  0  0  0  0  0
  126.6979  180.6153  148.6060 C   0  0  0  0  0  0  0  0  0  0  0  0
  125.4666  180.8641  148.6090 O   0  0  0  0  0  0  0  0  0  0  0  0
  132.3927  186.4759  152.6378 N   0  0  0  0  0  0  0  0  0  0  0  0
  131.3461  186.8139  153.6562 C   0  0  0  0  0  0  0  0  0  0  0  0
  133.7121  186.6839  153.0690 C   0  0  0  0  0  0  0  0  0  0  0  0
  134.4544  185.8424  153.5691 O   0  0  0  0  0  0  0  0  0  0  0  0
  134.2809  188.0426  152.9104 C   0  0  0  0  0  0  0  0  0  0  0  0
  134.0131  188.8345  151.8219 C   0  0  0  0  0  0  0  0  0  0  0  0
  134.5406  190.1218  151.7020 C   0  0  0  0  0  0  0  0  0  0  0  0
  135.3545  190.6204  152.7012 C   0  0  0  0  0  0  0  0  0  0  0  0
  135.6215  189.8163  153.7961 C   0  0  0  0  0  0  0  0  0  0  0  0
  135.1012  188.5367  153.9215 C   0  0  0  0  0  0  0  0  0  0  0  0
  1  2  1  0
  3  2  1  1
  3  4  1  0
  4  5  1  0
  6  5  1  1
  6  7  1  0
  7  8  1  0
  8  9  1  6
  8 10  1  0
 10 11  1  0
 11 12  2  0
 12 13  1  0
 13 14  2  0
 14 15  1  0
 15 16  2  0
 12 17  1  0
 17 18  1  0
 18 19  2  0
 19 20  1  0
 20 21  1  0
 21 22  2  0
 22 23  1  0
 23 24  2  0
 24 25  1  0
 25 26  2  0
 22 27  1  0
 20 28  2  0
 28 29  1  0
 29 30  1  0
 30 31  1  0
 31 32  1  0
 32 33  2  0
  4 34  1  1
 34 35  1  0
 34 36  1  0
 36 37  2  0
 36 38  1  0
 38 39  2  0
 39 40  1  0
 40 41  2  0
 41 42  1  0
 42 43  2  0
  8  3  1  0
 18 10  1  0
 27 19  1  0
 32 28  1  0
 43 38  1  0
 27  6  1  0
 16 11  1  0
 29 17  2  0
 26 21  1  0
M  END
$$$$
