
     RDKit          3D

 43 51  0  0  0  0  0  0  0  0999 V2000
  131.4579  142.8279  133.0052 C   0  0  0  0  0  0  0  0  0  0  0  0
  130.2790  142.3382  133.4845 O   0  0  0  0  0  0  0  0  0  0  0  0
  130.2173  142.0095  134.8150 C   0  0  2  0  0  0  0  0  0  0  0  0
  130.1265  140.4904  134.9181 C   0  0  1  0  0  0  0  0  0  0  0  0
  129.1960  140.1309  133.7700 C   0  0  0  0  0  0  0  0  0  0  0  0
  127.8446  140.7540  134.0966 C   0  0  1  0  0  0  0  0  0  0  0  0
  127.8663  141.5328  135.2012 O   0  0  0  0  0  0  0  0  0  0  0  0
  128.8424  142.5192  135.3057 C   0  0  1  0  0  0  0  0  0  0  0  0
  128.8645  142.8451  136.7810 C   0  0  0  0  0  0  0  0  0  0  0  0
  128.4782  143.6773  134.5322 N   0  0  0  0  0  0  0  0  0  0  0  0
  128.8162  144.9782  134.7990 C   0  0  0  0  0  0  0  0  0  0  0  0
  128.2440  145.8090  133.8315 C   0  0  0  0  0  0  0  0  0  0  0  0
  128.4297  147.1674  133.8349 C   0  0  0  0  0  0  0  0  0  0  0  0
  129.2059  147.7155  134.8266 C   0  0  0  0  0  0  0  0  0  0  0  0
  129.7868  146.9315  135.7955 C   0  0  0  0  0  0  0  0  0  0  0  0
  129.5891  145.5601  135.7772 C   0  0  0  0  0  0  0  0  0  0  0  0
  127.5596  145.0163  132.9710 C   0  0  0  0  0  0  0  0  0  0  0  0
  127.7053  143.7414  133.3962 C   0  0  0  0  0  0  0  0  0  0  0  0
  127.1455  142.6940  132.7117 C   0  0  0  0  0  0  0  0  0  0  0  0
  126.4176  142.9486  131.5632 C   0  0  0  0  0  0  0  0  0  0  0  0
  125.9992  141.7308  131.0965 C   0  0  0  0  0  0  0  0  0  0  0  0
  126.4959  140.7990  131.9877 C   0  0  0  0  0  0  0  0  0  0  0  0
  126.2371  139.4652  131.7780 C   0  0  0  0  0  0  0  0  0  0  0  0
  125.4937  139.0391  130.7001 C   0  0  0  0  0  0  0  0  0  0  0  0
  125.0130  139.9853  129.8313 C   0  0  0  0  0  0  0  0  0  0  0  0
  125.2552  141.3550  130.0105 C   0  0  0  0  0  0  0  0  0  0  0  0
  127.1921  141.3766  132.9707 N   0  0  0  0  0  0  0  0  0  0  0  0
  126.2679  144.2765  131.1281 C   0  0  0  0  0  0  0  0  0  0  0  0
  126.8334  145.3112  131.8231 C   0  0  0  0  0  0  0  0  0  0  0  0
  126.5433  146.5865  131.1847 C   0  0  0  0  0  0  0  0  0  0  0  0
  125.7525  146.2818  130.0431 N   0  0  0  0  0  0  0  0  0  0  0  0
  125.5728  144.8532  129.9908 C   0  0  0  0  0  0  0  0  0  0  0  0
  124.9106  144.3036  129.0757 O   0  0  0  0  0  0  0  0  0  0  0  0
  131.3620  139.8029  134.8909 N   0  0  0  0  0  0  0  0  0  0  0  0
  132.3812  140.2548  133.8891 C   0  0  0  0  0  0  0  0  0  0  0  0
  131.7831  138.7451  135.7119 C   0  0  0  0  0  0  0  0  0  0  0  0
  131.4139  137.5758  135.6370 O   0  0  0  0  0  0  0  0  0  0  0  0
  132.7696  139.0502  136.7741 C   0  0  0  0  0  0  0  0  0  0  0  0
  132.8285  140.2695  137.4013 C   0  0  0  0  0  0  0  0  0  0  0  0
  133.7510  140.5298  138.4167 C   0  0  0  0  0  0  0  0  0  0  0  0
  134.6316  139.5392  138.8076 C   0  0  0  0  0  0  0  0  0  0  0  0
  134.5675  138.3118  138.1705 C   0  0  0  0  0  0  0  0  0  0  0  0
  133.6541  138.0465  137.1611 C   0  0  0  0  0  0  0  0  0  0  0  0
  1  2  1  0
  3  2  1  6
  3  4  1  0
  4  5  1  0
  6  5  1  6
  6  7  1  0
  7  8  1  0
  8  9  1  1
  8 10  1  0
 10 11  1  0
 11 12  2  0
 12 13  1  0
 13 14  2  0
 14 15  1  0
 15 16  2  0
 12 17  1  0
 17 18  1  0
 18 19  2  0
 19 20  1  0
 20 21  1  0
 21 22  2  0
 22 23  1  0
 23 24  2  0
 24 25  1  0
 25 26  2  0
 22 27  1  0
 20 28  2  0
 28 29  1  0
 29 30  1  0
 30 31  1  0
 31 32  1  0
 32 33  2  0
  4 34  1  6
 34 35  1  0
 34 36  1  0
 36 37  2  0
 36 38  1  0
 38 39  2  0
 39 40  1  0
 40 41  2  0
 41 42  1  0
 42 43  2  0
  8  3  1  0
 18 10  1  0
 27 19  1  0
 32 28  1  0
 43 38  1  0
 27  6  1  0
 16 11  1  0
 29 17  2  0
 26 21  1  0
M  END
$$$$
