
     RDKit          3D

 43 51  0  0  0  0  0  0  0  0999 V2000
  190.1333  174.1313  120.0277 C   0  0  0  0  0  0  0  0  0  0  0  0
  189.7389  175.4090  120.2950 O   0  0  0  0  0  0  0  0  0  0  0  0
  188.3986  175.6926  120.2217 C   0  0  2  0  0  0  0  0  0  0  0  0
  188.2442  177.0526  119.5485 C   0  0  1  0  0  0  0  0  0  0  0  0
  189.3900  177.8549  120.1456 C   0  0  0  0  0  0  0  0  0  0  0  0
  189.1012  177.9788  121.6364 C   0  0  1  0  0  0  0  0  0  0  0  0
  188.0239  177.2660  122.0347 O   0  0  0  0  0  0  0  0  0  0  0  0
  187.9421  175.9227  121.6810 C   0  0  1  0  0  0  0  0  0  0  0  0
  186.4788  175.5935  121.8642 C   0  0  0  0  0  0  0  0  0  0  0  0
  188.7594  175.1182  122.5510 N   0  0  0  0  0  0  0  0  0  0  0  0
  188.5338  173.8156  122.9114 C   0  0  0  0  0  0  0  0  0  0  0  0
  189.5361  173.4031  123.7940 C   0  0  0  0  0  0  0  0  0  0  0  0
  189.5775  172.1327  124.3079 C   0  0  0  0  0  0  0  0  0  0  0  0
  188.5963  171.2473  123.9340 C   0  0  0  0  0  0  0  0  0  0  0  0
  187.5940  171.6149  123.0673 C   0  0  0  0  0  0  0  0  0  0  0  0
  187.5673  172.9028  122.5570 C   0  0  0  0  0  0  0  0  0  0  0  0
  190.3767  174.4516  123.9702 C   0  0  0  0  0  0  0  0  0  0  0  0
  189.9060  175.4745  123.2222 C   0  0  0  0  0  0  0  0  0  0  0  0
  190.5605  176.6777  123.1686 C   0  0  0  0  0  0  0  0  0  0  0  0
  191.7255  176.8467  123.8950 C   0  0  0  0  0  0  0  0  0  0  0  0
  192.1548  178.1221  123.6401 C   0  0  0  0  0  0  0  0  0  0  0  0
  191.2261  178.6616  122.7707 C   0  0  0  0  0  0  0  0  0  0  0  0
  191.3926  179.9520  122.3269 C   0  0  0  0  0  0  0  0  0  0  0  0
  192.4638  180.7173  122.7304 C   0  0  0  0  0  0  0  0  0  0  0  0
  193.3704  180.1570  123.5937 C   0  0  0  0  0  0  0  0  0  0  0  0
  193.2358  178.8443  124.0690 C   0  0  0  0  0  0  0  0  0  0  0  0
  190.2555  177.7907  122.4808 N   0  0  0  0  0  0  0  0  0  0  0  0
  192.2080  175.7802  124.6726 C   0  0  0  0  0  0  0  0  0  0  0  0
  191.5426  174.5849  124.7151 C   0  0  0  0  0  0  0  0  0  0  0  0
  192.2281  173.6387  125.5828 C   0  0  0  0  0  0  0  0  0  0  0  0
  193.3677  174.3238  126.0861 N   0  0  0  0  0  0  0  0  0  0  0  0
  193.3727  175.6533  125.5309 C   0  0  0  0  0  0  0  0  0  0  0  0
  194.2761  176.4814  125.8071 O   0  0  0  0  0  0  0  0  0  0  0  0
  188.2330  177.0349  118.1345 N   0  0  0  0  0  0  0  0  0  0  0  0
  187.1782  176.2082  117.4632 C   0  0  0  0  0  0  0  0  0  0  0  0
  189.0808  177.7233  117.2528 C   0  0  0  0  0  0  0  0  0  0  0  0
  188.7322  178.5019  116.3689 O   0  0  0  0  0  0  0  0  0  0  0  0
  190.5394  177.5034  117.3895 C   0  0  0  0  0  0  0  0  0  0  0  0
  191.0977  176.2506  117.4375 C   0  0  0  0  0  0  0  0  0  0  0  0
  192.4776  176.0645  117.5433 C   0  0  0  0  0  0  0  0  0  0  0  0
  193.3111  177.1651  117.6013 C   0  0  0  0  0  0  0  0  0  0  0  0
  192.7416  178.4260  117.5533 C   0  0  0  0  0  0  0  0  0  0  0  0
  191.3720  178.6182  117.4485 C   0  0  0  0  0  0  0  0  0  0  0  0
  1  2  1  0
  3  2  1  1
  3  4  1  0
  4  5  1  0
  6  5  1  6
  6  7  1  0
  7  8  1  0
  8  9  1  6
  8 10  1  0
 10 11  1  0
 11 12  2  0
 12 13  1  0
 13 14  2  0
 14 15  1  0
 15 16  2  0
 12 17  1  0
 17 18  1  0
 18 19  2  0
 19 20  1  0
 20 21  1  0
 21 22  2  0
 22 23  1  0
 23 24  2  0
 24 25  1  0
 25 26  2  0
 22 27  1  0
 20 28  2  0
 28 29  1  0
 29 30  1  0
 30 31  1  0
 31 32  1  0
 32 33  2  0
  4 34  1  6
 34 35  1  0
 34 36  1  0
 36 37  2  0
 36 38  1  0
 38 39  2  0
 39 40  1  0
 40 41  2  0
 41 42  1  0
 42 43  2  0
  8  3  1  0
 18 10  1  0
 27 19  1  0
 32 28  1  0
 43 38  1  0
 27  6  1  0
 16 11  1  0
 29 17  2  0
 26 21  1  0
M  END
$$$$
