
     RDKit          3D

 43 51  0  0  0  0  0  0  0  0999 V2000
  186.5671  161.4637  140.9738 C   0  0  0  0  0  0  0  0  0  0  0  0
  185.5724  162.1452  140.3371 O   0  0  0  0  0  0  0  0  0  0  0  0
  185.6660  163.5131  140.2866 C   0  0  2  0  0  0  0  0  0  0  0  0
  184.3232  164.0905  140.7225 C   0  0  1  0  0  0  0  0  0  0  0  0
  183.3243  163.1463  140.0713 C   0  0  0  0  0  0  0  0  0  0  0  0
  183.4937  163.3079  138.5659 C   0  0  1  0  0  0  0  0  0  0  0  0
  184.5264  164.1112  138.2258 O   0  0  0  0  0  0  0  0  0  0  0  0
  185.7768  163.8669  138.7854 C   0  0  1  0  0  0  0  0  0  0  0  0
  186.5227  165.1638  138.5735 C   0  0  0  0  0  0  0  0  0  0  0  0
  186.4344  162.7823  138.1044 N   0  0  0  0  0  0  0  0  0  0  0  0
  187.7851  162.6157  137.9456 C   0  0  0  0  0  0  0  0  0  0  0  0
  188.0203  161.4571  137.1999 C   0  0  0  0  0  0  0  0  0  0  0  0
  189.2874  161.0277  136.9000 C   0  0  0  0  0  0  0  0  0  0  0  0
  190.3503  161.7697  137.3541 C   0  0  0  0  0  0  0  0  0  0  0  0
  190.1600  162.9148  138.0913 C   0  0  0  0  0  0  0  0  0  0  0  0
  188.8726  163.3344  138.3858 C   0  0  0  0  0  0  0  0  0  0  0  0
  186.8141  160.9131  136.9063 C   0  0  0  0  0  0  0  0  0  0  0  0
  185.8695  161.7113  137.4520 C   0  0  0  0  0  0  0  0  0  0  0  0
  184.5362  161.4098  137.3492 C   0  0  0  0  0  0  0  0  0  0  0  0
  184.1518  160.2656  136.6734 C   0  0  0  0  0  0  0  0  0  0  0  0
  182.7848  160.2193  136.7444 C   0  0  0  0  0  0  0  0  0  0  0  0
  182.4102  161.3398  137.4609 C   0  0  0  0  0  0  0  0  0  0  0  0
  181.0759  161.5682  137.7005 C   0  0  0  0  0  0  0  0  0  0  0  0
  180.1062  160.7050  137.2417 C   0  0  0  0  0  0  0  0  0  0  0  0
  180.5059  159.6007  136.5333 C   0  0  0  0  0  0  0  0  0  0  0  0
  181.8568  159.3326  136.2681 C   0  0  0  0  0  0  0  0  0  0  0  0
  183.4681  162.0672  137.8305 N   0  0  0  0  0  0  0  0  0  0  0  0
  185.1388  159.4415  136.1064 C   0  0  0  0  0  0  0  0  0  0  0  0
  186.4660  159.7567  136.2181 C   0  0  0  0  0  0  0  0  0  0  0  0
  187.2946  158.7610  135.5546 C   0  0  0  0  0  0  0  0  0  0  0  0
  186.3959  157.8010  135.0143 N   0  0  0  0  0  0  0  0  0  0  0  0
  185.0540  158.2057  135.3481 C   0  0  0  0  0  0  0  0  0  0  0  0
  184.0537  157.5328  134.9950 O   0  0  0  0  0  0  0  0  0  0  0  0
  184.1471  164.2372  142.1180 N   0  0  0  0  0  0  0  0  0  0  0  0
  183.3454  165.4113  142.5925 C   0  0  0  0  0  0  0  0  0  0  0  0
  184.6115  163.3979  143.1427 C   0  0  0  0  0  0  0  0  0  0  0  0
  183.9266  162.6489  143.8349 O   0  0  0  0  0  0  0  0  0  0  0  0
  186.0652  163.4011  143.4281 C   0  0  0  0  0  0  0  0  0  0  0  0
  186.6315  164.2164  144.3757 C   0  0  0  0  0  0  0  0  0  0  0  0
  188.0011  164.1879  144.6461 C   0  0  0  0  0  0  0  0  0  0  0  0
  188.8158  163.3184  143.9463 C   0  0  0  0  0  0  0  0  0  0  0  0
  188.2385  162.4991  142.9912 C   0  0  0  0  0  0  0  0  0  0  0  0
  186.8790  162.5225  142.7173 C   0  0  0  0  0  0  0  0  0  0  0  0
  1  2  1  0
  3  2  1  6
  3  4  1  0
  4  5  1  0
  6  5  1  1
  6  7  1  0
  7  8  1  0
  8  9  1  1
  8 10  1  0
 10 11  1  0
 11 12  2  0
 12 13  1  0
 13 14  2  0
 14 15  1  0
 15 16  2  0
 12 17  1  0
 17 18  1  0
 18 19  2  0
 19 20  1  0
 20 21  1  0
 21 22  2  0
 22 23  1  0
 23 24  2  0
 24 25  1  0
 25 26  2  0
 22 27  1  0
 20 28  2  0
 28 29  1  0
 29 30  1  0
 30 31  1  0
 31 32  1  0
 32 33  2  0
  4 34  1  1
 34 35  1  0
 34 36  1  0
 36 37  2  0
 36 38  1  0
 38 39  2  0
 39 40  1  0
 40 41  2  0
 41 42  1  0
 42 43  2  0
  8  3  1  0
 18 10  1  0
 27 19  1  0
 32 28  1  0
 43 38  1  0
 27  6  1  0
 16 11  1  0
 29 17  2  0
 26 21  1  0
M  END
$$$$
