
     RDKit          3D

 43 51  0  0  0  0  0  0  0  0999 V2000
  191.5090  161.6456  123.1406 C   0  0  0  0  0  0  0  0  0  0  0  0
  190.7360  160.5714  123.4690 O   0  0  0  0  0  0  0  0  0  0  0  0
  189.5381  160.8129  124.0926 C   0  0  2  0  0  0  0  0  0  0  0  0
  189.5414  160.0609  125.4197 C   0  0  1  0  0  0  0  0  0  0  0  0
  190.2176  158.7471  125.0595 C   0  0  0  0  0  0  0  0  0  0  0  0
  189.2985  158.0445  124.0681 C   0  0  1  0  0  0  0  0  0  0  0  0
  188.2416  158.7978  123.6904 O   0  0  0  0  0  0  0  0  0  0  0  0
  188.4709  160.0929  123.2359 C   0  0  1  0  0  0  0  0  0  0  0  0
  187.1197  160.7584  123.3564 C   0  0  0  0  0  0  0  0  0  0  0  0
  188.9132  160.0791  121.8661 N   0  0  0  0  0  0  0  0  0  0  0  0
  188.6996  161.0548  120.9280 C   0  0  0  0  0  0  0  0  0  0  0  0
  189.2583  160.6525  119.7116 C   0  0  0  0  0  0  0  0  0  0  0  0
  189.2131  161.4423  118.5918 C   0  0  0  0  0  0  0  0  0  0  0  0
  188.5964  162.6661  118.6834 C   0  0  0  0  0  0  0  0  0  0  0  0
  188.0358  163.0979  119.8624 C   0  0  0  0  0  0  0  0  0  0  0  0
  188.0906  162.2872  120.9848 C   0  0  0  0  0  0  0  0  0  0  0  0
  189.8170  159.4331  119.9066 C   0  0  0  0  0  0  0  0  0  0  0  0
  189.6074  159.0968  121.1990 C   0  0  0  0  0  0  0  0  0  0  0  0
  190.0824  157.9187  121.7144 C   0  0  0  0  0  0  0  0  0  0  0  0
  190.7899  157.0583  120.8942 C   0  0  0  0  0  0  0  0  0  0  0  0
  191.1428  155.9889  121.6738 C   0  0  0  0  0  0  0  0  0  0  0  0
  190.6301  156.2566  122.9286 C   0  0  0  0  0  0  0  0  0  0  0  0
  190.8285  155.3493  123.9422 C   0  0  0  0  0  0  0  0  0  0  0  0
  191.5261  154.1807  123.7332 C   0  0  0  0  0  0  0  0  0  0  0  0
  192.0241  153.9403  122.4781 C   0  0  0  0  0  0  0  0  0  0  0  0
  191.8431  154.8406  121.4181 C   0  0  0  0  0  0  0  0  0  0  0  0
  189.9848  157.4258  122.9603 N   0  0  0  0  0  0  0  0  0  0  0  0
  191.0020  157.4128  119.5510 C   0  0  0  0  0  0  0  0  0  0  0  0
  190.5212  158.5931  119.0519 C   0  0  0  0  0  0  0  0  0  0  0  0
  190.8624  158.7401  117.6447 C   0  0  0  0  0  0  0  0  0  0  0  0
  191.5867  157.5683  117.2931 N   0  0  0  0  0  0  0  0  0  0  0  0
  191.6848  156.7339  118.4637 C   0  0  0  0  0  0  0  0  0  0  0  0
  192.2806  155.6284  118.4390 O   0  0  0  0  0  0  0  0  0  0  0  0
  190.1471  160.7390  126.5028 N   0  0  0  0  0  0  0  0  0  0  0  0
  190.0290  160.1147  127.8604 C   0  0  0  0  0  0  0  0  0  0  0  0
  190.8835  161.9335  126.4742 C   0  0  0  0  0  0  0  0  0  0  0  0
  191.9391  162.1507  127.0639 O   0  0  0  0  0  0  0  0  0  0  0  0
  190.3522  163.0490  125.6568 C   0  0  0  0  0  0  0  0  0  0  0  0
  190.8426  163.3528  124.4115 C   0  0  0  0  0  0  0  0  0  0  0  0
  190.3125  164.3940  123.6468 C   0  0  0  0  0  0  0  0  0  0  0  0
  189.2659  165.1436  124.1489 C   0  0  0  0  0  0  0  0  0  0  0  0
  188.7764  164.8327  125.4060 C   0  0  0  0  0  0  0  0  0  0  0  0
  189.2983  163.8002  126.1710 C   0  0  0  0  0  0  0  0  0  0  0  0
  1  2  1  0
  3  2  1  6
  3  4  1  0
  4  5  1  0
  6  5  1  6
  6  7  1  0
  7  8  1  0
  8  9  1  6
  8 10  1  0
 10 11  1  0
 11 12  2  0
 12 13  1  0
 13 14  2  0
 14 15  1  0
 15 16  2  0
 12 17  1  0
 17 18  1  0
 18 19  2  0
 19 20  1  0
 20 21  1  0
 21 22  2  0
 22 23  1  0
 23 24  2  0
 24 25  1  0
 25 26  2  0
 22 27  1  0
 20 28  2  0
 28 29  1  0
 29 30  1  0
 30 31  1  0
 31 32  1  0
 32 33  2  0
  4 34  1  1
 34 35  1  0
 34 36  1  0
 36 37  2  0
 36 38  1  0
 38 39  2  0
 39 40  1  0
 40 41  2  0
 41 42  1  0
 42 43  2  0
  8  3  1  0
 18 10  1  0
 27 19  1  0
 32 28  1  0
 43 38  1  0
 27  6  1  0
 16 11  1  0
 29 17  2  0
 26 21  1  0
M  END
$$$$
