
     RDKit          3D

 43 51  0  0  0  0  0  0  0  0999 V2000
  190.0246  175.4180  119.2074 C   0  0  0  0  0  0  0  0  0  0  0  0
  189.2965  174.8493  120.2104 O   0  0  0  0  0  0  0  0  0  0  0  0
  188.6120  175.6852  121.0560 C   0  0  2  0  0  0  0  0  0  0  0  0
  189.2371  175.5629  122.4420 C   0  0  1  0  0  0  0  0  0  0  0  0
  189.5268  174.0737  122.5495 C   0  0  0  0  0  0  0  0  0  0  0  0
  188.1773  173.3671  122.5256 C   0  0  1  0  0  0  0  0  0  0  0  0
  187.1393  174.2017  122.2945 O   0  0  0  0  0  0  0  0  0  0  0  0
  187.2037  175.0640  121.2042 C   0  0  1  0  0  0  0  0  0  0  0  0
  186.1632  176.1140  121.5172 C   0  0  0  0  0  0  0  0  0  0  0  0
  186.8773  174.3683  119.9870 N   0  0  0  0  0  0  0  0  0  0  0  0
  186.2897  174.9043  118.8712 C   0  0  0  0  0  0  0  0  0  0  0  0
  186.1111  173.8978  117.9179 C   0  0  0  0  0  0  0  0  0  0  0  0
  185.5596  174.1482  116.6878 C   0  0  0  0  0  0  0  0  0  0  0  0
  185.1757  175.4343  116.3966 C   0  0  0  0  0  0  0  0  0  0  0  0
  185.3359  176.4520  117.3074 C   0  0  0  0  0  0  0  0  0  0  0  0
  185.8953  176.1816  118.5460 C   0  0  0  0  0  0  0  0  0  0  0  0
  186.5928  172.7475  118.4488 C   0  0  0  0  0  0  0  0  0  0  0  0
  187.0509  173.0372  119.6872 C   0  0  0  0  0  0  0  0  0  0  0  0
  187.6288  172.0761  120.4755 C   0  0  0  0  0  0  0  0  0  0  0  0
  187.7447  170.7850  119.9926 C   0  0  0  0  0  0  0  0  0  0  0  0
  188.3626  170.0612  120.9776 C   0  0  0  0  0  0  0  0  0  0  0  0
  188.5897  170.9523  122.0088 C   0  0  0  0  0  0  0  0  0  0  0  0
  189.2084  170.5100  123.1540 C   0  0  0  0  0  0  0  0  0  0  0  0
  189.6054  169.1991  123.2949 C   0  0  0  0  0  0  0  0  0  0  0  0
  189.3676  168.3360  122.2558 C   0  0  0  0  0  0  0  0  0  0  0  0
  188.7395  168.7484  121.0717 C   0  0  0  0  0  0  0  0  0  0  0  0
  188.1464  172.1769  121.7112 N   0  0  0  0  0  0  0  0  0  0  0  0
  187.2642  170.4902  118.7053 C   0  0  0  0  0  0  0  0  0  0  0  0
  186.6898  171.4614  117.9306 C   0  0  0  0  0  0  0  0  0  0  0  0
  186.2704  170.9214  116.6458 C   0  0  0  0  0  0  0  0  0  0  0  0
  186.6169  169.5427  116.6688 N   0  0  0  0  0  0  0  0  0  0  0  0
  187.2361  169.2573  117.9381 C   0  0  0  0  0  0  0  0  0  0  0  0
  187.6458  168.1061  118.2295 O   0  0  0  0  0  0  0  0  0  0  0  0
  190.3641  176.3842  122.6768 N   0  0  0  0  0  0  0  0  0  0  0  0
  190.5148  177.6086  121.8255 C   0  0  0  0  0  0  0  0  0  0  0  0
  191.3719  176.2177  123.6395 C   0  0  0  0  0  0  0  0  0  0  0  0
  192.3900  176.8960  123.7503 O   0  0  0  0  0  0  0  0  0  0  0  0
  191.2061  175.1252  124.6263 C   0  0  0  0  0  0  0  0  0  0  0  0
  190.8421  175.3542  125.9295 C   0  0  0  0  0  0  0  0  0  0  0  0
  190.6685  174.3086  126.8387 C   0  0  0  0  0  0  0  0  0  0  0  0
  190.8656  173.0053  126.4239 C   0  0  0  0  0  0  0  0  0  0  0  0
  191.2335  172.7812  125.1081 C   0  0  0  0  0  0  0  0  0  0  0  0
  191.4080  173.8149  124.2001 C   0  0  0  0  0  0  0  0  0  0  0  0
  1  2  1  0
  3  2  1  6
  3  4  1  0
  4  5  1  0
  6  5  1  6
  6  7  1  0
  7  8  1  0
  8  9  1  1
  8 10  1  0
 10 11  1  0
 11 12  2  0
 12 13  1  0
 13 14  2  0
 14 15  1  0
 15 16  2  0
 12 17  1  0
 17 18  1  0
 18 19  2  0
 19 20  1  0
 20 21  1  0
 21 22  2  0
 22 23  1  0
 23 24  2  0
 24 25  1  0
 25 26  2  0
 22 27  1  0
 20 28  2  0
 28 29  1  0
 29 30  1  0
 30 31  1  0
 31 32  1  0
 32 33  2  0
  4 34  1  6
 34 35  1  0
 34 36  1  0
 36 37  2  0
 36 38  1  0
 38 39  2  0
 39 40  1  0
 40 41  2  0
 41 42  1  0
 42 43  2  0
  8  3  1  0
 18 10  1  0
 27 19  1  0
 32 28  1  0
 43 38  1  0
 27  6  1  0
 16 11  1  0
 29 17  2  0
 26 21  1  0
M  END
$$$$
