
     RDKit          3D

 43 51  0  0  0  0  0  0  0  0999 V2000
  145.0474  168.5121  130.6592 C   0  0  0  0  0  0  0  0  0  0  0  0
  146.2002  168.5875  131.3838 O   0  0  0  0  0  0  0  0  0  0  0  0
  146.0993  168.9124  132.7129 C   0  0  2  0  0  0  0  0  0  0  0  0
  146.1171  170.4334  132.8255 C   0  0  1  0  0  0  0  0  0  0  0  0
  147.1552  170.8348  131.7888 C   0  0  0  0  0  0  0  0  0  0  0  0
  148.4854  170.2644  132.2647 C   0  0  1  0  0  0  0  0  0  0  0  0
  148.3713  169.4804  133.3600 O   0  0  0  0  0  0  0  0  0  0  0  0
  147.4300  168.4556  133.3545 C   0  0  1  0  0  0  0  0  0  0  0  0
  147.2560  168.1224  134.8180 C   0  0  0  0  0  0  0  0  0  0  0  0
  147.9245  167.3163  132.6266 N   0  0  0  0  0  0  0  0  0  0  0  0
  147.6111  166.0019  132.8538 C   0  0  0  0  0  0  0  0  0  0  0  0
  148.3208  165.1989  131.9565 C   0  0  0  0  0  0  0  0  0  0  0  0
  148.1904  163.8341  131.9390 C   0  0  0  0  0  0  0  0  0  0  0  0
  147.3306  163.2512  132.8375 C   0  0  0  0  0  0  0  0  0  0  0  0
  146.6140  164.0070  133.7354 C   0  0  0  0  0  0  0  0  0  0  0  0
  146.7575  165.3853  133.7393 C   0  0  0  0  0  0  0  0  0  0  0  0
  149.0648  166.0219  131.1781 C   0  0  0  0  0  0  0  0  0  0  0  0
  148.8216  167.2881  131.5843 C   0  0  0  0  0  0  0  0  0  0  0  0
  149.4121  168.3600  130.9668 C   0  0  0  0  0  0  0  0  0  0  0  0
  150.2736  168.1397  129.9071 C   0  0  0  0  0  0  0  0  0  0  0  0
  150.6925  169.3753  129.4902 C   0  0  0  0  0  0  0  0  0  0  0  0
  150.0623  170.2826  130.3201 C   0  0  0  0  0  0  0  0  0  0  0  0
  150.2894  171.6265  130.1408 C   0  0  0  0  0  0  0  0  0  0  0  0
  151.1311  172.0867  129.1529 C   0  0  0  0  0  0  0  0  0  0  0  0
  151.7435  171.1643  128.3434 C   0  0  0  0  0  0  0  0  0  0  0  0
  151.5377  169.7852  128.4943 C   0  0  0  0  0  0  0  0  0  0  0  0
  149.2842  169.6733  131.2190 N   0  0  0  0  0  0  0  0  0  0  0  0
  150.5240  166.8208  129.4915 C   0  0  0  0  0  0  0  0  0  0  0  0
  149.9261  165.7614  130.1187 C   0  0  0  0  0  0  0  0  0  0  0  0
  150.3367  164.5015  129.5168 C   0  0  0  0  0  0  0  0  0  0  0  0
  151.2374  164.8425  128.4710 N   0  0  0  0  0  0  0  0  0  0  0  0
  151.3646  166.2773  128.4391 C   0  0  0  0  0  0  0  0  0  0  0  0
  152.1025  166.8569  127.6039 O   0  0  0  0  0  0  0  0  0  0  0  0
  144.8659  171.0714  132.6601 N   0  0  0  0  0  0  0  0  0  0  0  0
  144.4805  171.4849  131.2719 C   0  0  0  0  0  0  0  0  0  0  0  0
  143.9015  171.3543  133.6399 C   0  0  0  0  0  0  0  0  0  0  0  0
  142.8828  172.0231  133.4850 O   0  0  0  0  0  0  0  0  0  0  0  0
  144.1158  170.7979  134.9961 C   0  0  0  0  0  0  0  0  0  0  0  0
  144.6727  171.5280  136.0160 C   0  0  0  0  0  0  0  0  0  0  0  0
  144.8450  170.9926  137.2941 C   0  0  0  0  0  0  0  0  0  0  0  0
  144.4466  169.6941  137.5482 C   0  0  0  0  0  0  0  0  0  0  0  0
  143.8862  168.9626  136.5149 C   0  0  0  0  0  0  0  0  0  0  0  0
  143.7125  169.4880  135.2431 C   0  0  0  0  0  0  0  0  0  0  0  0
  1  2  1  0
  3  2  1  6
  3  4  1  0
  4  5  1  0
  6  5  1  6
  6  7  1  0
  7  8  1  0
  8  9  1  1
  8 10  1  0
 10 11  1  0
 11 12  2  0
 12 13  1  0
 13 14  2  0
 14 15  1  0
 15 16  2  0
 12 17  1  0
 17 18  1  0
 18 19  2  0
 19 20  1  0
 20 21  1  0
 21 22  2  0
 22 23  1  0
 23 24  2  0
 24 25  1  0
 25 26  2  0
 22 27  1  0
 20 28  2  0
 28 29  1  0
 29 30  1  0
 30 31  1  0
 31 32  1  0
 32 33  2  0
  4 34  1  6
 34 35  1  0
 34 36  1  0
 36 37  2  0
 36 38  1  0
 38 39  2  0
 39 40  1  0
 40 41  2  0
 41 42  1  0
 42 43  2  0
  8  3  1  0
 18 10  1  0
 27 19  1  0
 32 28  1  0
 43 38  1  0
 27  6  1  0
 16 11  1  0
 29 17  2  0
 26 21  1  0
M  END
$$$$
