
     RDKit          3D

 43 51  0  0  0  0  0  0  0  0999 V2000
  192.7071  172.3488  151.7403 C   0  0  0  0  0  0  0  0  0  0  0  0
  192.8504  172.5897  150.4058 O   0  0  0  0  0  0  0  0  0  0  0  0
  191.7110  172.6821  149.6472 C   0  0  2  0  0  0  0  0  0  0  0  0
  191.5858  171.3985  148.8327 C   0  0  1  0  0  0  0  0  0  0  0  0
  193.0234  171.1200  148.4217 C   0  0  0  0  0  0  0  0  0  0  0  0
  193.4452  172.2697  147.5155 C   0  0  1  0  0  0  0  0  0  0  0  0
  192.5191  173.2505  147.4275 O   0  0  0  0  0  0  0  0  0  0  0  0
  191.9963  173.7846  148.6013 C   0  0  1  0  0  0  0  0  0  0  0  0
  190.7248  174.4644  148.1492 C   0  0  0  0  0  0  0  0  0  0  0  0
  192.9090  174.7383  149.1754 N   0  0  0  0  0  0  0  0  0  0  0  0
  192.5794  175.8354  149.9272 C   0  0  0  0  0  0  0  0  0  0  0  0
  193.7460  176.5251  150.2693 C   0  0  0  0  0  0  0  0  0  0  0  0
  193.7234  177.6593  151.0392 C   0  0  0  0  0  0  0  0  0  0  0  0
  192.5079  178.1207  151.4822 C   0  0  0  0  0  0  0  0  0  0  0  0
  191.3382  177.4697  151.1679 C   0  0  0  0  0  0  0  0  0  0  0  0
  191.3792  176.3245  150.3889 C   0  0  0  0  0  0  0  0  0  0  0  0
  194.7892  175.8479  149.7303 C   0  0  0  0  0  0  0  0  0  0  0  0
  194.2804  174.7788  149.0779 C   0  0  0  0  0  0  0  0  0  0  0  0
  195.0957  173.8767  148.4450 C   0  0  0  0  0  0  0  0  0  0  0  0
  196.4657  174.0656  148.4757 C   0  0  0  0  0  0  0  0  0  0  0  0
  197.0129  173.0182  147.7833 C   0  0  0  0  0  0  0  0  0  0  0  0
  195.9445  172.2469  147.3677 C   0  0  0  0  0  0  0  0  0  0  0  0
  196.1835  171.1062  146.6385 C   0  0  0  0  0  0  0  0  0  0  0  0
  197.4638  170.7171  146.3137 C   0  0  0  0  0  0  0  0  0  0  0  0
  198.5057  171.5012  146.7390 C   0  0  0  0  0  0  0  0  0  0  0  0
  198.3032  172.6717  147.4845 C   0  0  0  0  0  0  0  0  0  0  0  0
  194.7778  172.7623  147.7653 N   0  0  0  0  0  0  0  0  0  0  0  0
  196.9878  175.1804  149.1535 C   0  0  0  0  0  0  0  0  0  0  0  0
  196.1600  176.0720  149.7807 C   0  0  0  0  0  0  0  0  0  0  0  0
  196.9252  177.1381  150.4100 C   0  0  0  0  0  0  0  0  0  0  0  0
  198.2907  176.8572  150.1308 N   0  0  0  0  0  0  0  0  0  0  0  0
  198.3491  175.6453  149.3537 C   0  0  0  0  0  0  0  0  0  0  0  0
  199.4415  175.1603  148.9671 O   0  0  0  0  0  0  0  0  0  0  0  0
  190.9588  170.3165  149.4930 N   0  0  0  0  0  0  0  0  0  0  0  0
  190.7373  170.4444  150.9698 C   0  0  0  0  0  0  0  0  0  0  0  0
  190.4815  169.1203  148.9349 C   0  0  0  0  0  0  0  0  0  0  0  0
  191.0968  168.0602  148.8533 O   0  0  0  0  0  0  0  0  0  0  0  0
  189.1039  169.1178  148.3899 C   0  0  0  0  0  0  0  0  0  0  0  0
  188.4972  170.2500  147.9066 C   0  0  0  0  0  0  0  0  0  0  0  0
  187.2060  170.2224  147.3756 C   0  0  0  0  0  0  0  0  0  0  0  0
  186.5132  169.0276  147.3308 C   0  0  0  0  0  0  0  0  0  0  0  0
  187.1305  167.8893  147.8206 C   0  0  0  0  0  0  0  0  0  0  0  0
  188.4124  167.9097  148.3497 C   0  0  0  0  0  0  0  0  0  0  0  0
  1  2  1  0
  3  2  1  1
  3  4  1  0
  4  5  1  0
  6  5  1  1
  6  7  1  0
  7  8  1  0
  8  9  1  6
  8 10  1  0
 10 11  1  0
 11 12  2  0
 12 13  1  0
 13 14  2  0
 14 15  1  0
 15 16  2  0
 12 17  1  0
 17 18  1  0
 18 19  2  0
 19 20  1  0
 20 21  1  0
 21 22  2  0
 22 23  1  0
 23 24  2  0
 24 25  1  0
 25 26  2  0
 22 27  1  0
 20 28  2  0
 28 29  1  0
 29 30  1  0
 30 31  1  0
 31 32  1  0
 32 33  2  0
  4 34  1  1
 34 35  1  0
 34 36  1  0
 36 37  2  0
 36 38  1  0
 38 39  2  0
 39 40  1  0
 40 41  2  0
 41 42  1  0
 42 43  2  0
  8  3  1  0
 18 10  1  0
 27 19  1  0
 32 28  1  0
 43 38  1  0
 27  6  1  0
 16 11  1  0
 29 17  2  0
 26 21  1  0
M  END
$$$$
