
     RDKit          3D

 43 51  0  0  0  0  0  0  0  0999 V2000
  134.0861  139.2483  131.3755 C   0  0  0  0  0  0  0  0  0  0  0  0
  132.7308  139.1619  131.2527 O   0  0  0  0  0  0  0  0  0  0  0  0
  132.1774  137.9112  131.1446 C   0  0  2  0  0  0  0  0  0  0  0  0
  131.9336  137.6337  129.6646 C   0  0  1  0  0  0  0  0  0  0  0  0
  131.4419  138.9770  129.1477 C   0  0  0  0  0  0  0  0  0  0  0  0
  130.1174  139.2522  129.8484 C   0  0  1  0  0  0  0  0  0  0  0  0
  129.8110  138.3364  130.7944 O   0  0  0  0  0  0  0  0  0  0  0  0
  130.7638  138.0275  131.7604 C   0  0  1  0  0  0  0  0  0  0  0  0
  130.2904  136.7058  132.3193 C   0  0  0  0  0  0  0  0  0  0  0  0
  130.7908  139.0360  132.7872 N   0  0  0  0  0  0  0  0  0  0  0  0
  131.1170  138.8524  134.1053 C   0  0  0  0  0  0  0  0  0  0  0  0
  130.9920  140.0684  134.7830 C   0  0  0  0  0  0  0  0  0  0  0  0
  131.2738  140.1908  136.1192 C   0  0  0  0  0  0  0  0  0  0  0  0
  131.6920  139.0741  136.8008 C   0  0  0  0  0  0  0  0  0  0  0  0
  131.8283  137.8602  136.1693 C   0  0  0  0  0  0  0  0  0  0  0  0
  131.5396  137.7542  134.8183 C   0  0  0  0  0  0  0  0  0  0  0  0
  130.5935  140.9963  133.8790 C   0  0  0  0  0  0  0  0  0  0  0  0
  130.4761  140.3712  132.6862 C   0  0  0  0  0  0  0  0  0  0  0  0
  130.1111  141.0559  131.5562 C   0  0  0  0  0  0  0  0  0  0  0  0
  129.8581  142.4133  131.6401 C   0  0  0  0  0  0  0  0  0  0  0  0
  129.5342  142.8221  130.3736 C   0  0  0  0  0  0  0  0  0  0  0  0
  129.6076  141.6893  129.5858 C   0  0  0  0  0  0  0  0  0  0  0  0
  129.3323  141.7870  128.2424 C   0  0  0  0  0  0  0  0  0  0  0  0
  128.9850  142.9885  127.6665 C   0  0  0  0  0  0  0  0  0  0  0  0
  128.9198  144.0969  128.4716 C   0  0  0  0  0  0  0  0  0  0  0  0
  129.1933  144.0384  129.8460 C   0  0  0  0  0  0  0  0  0  0  0  0
  129.9565  140.6136  130.2971 N   0  0  0  0  0  0  0  0  0  0  0  0
  129.9795  143.0565  132.8837 C   0  0  0  0  0  0  0  0  0  0  0  0
  130.3452  142.3583  134.0027 C   0  0  0  0  0  0  0  0  0  0  0  0
  130.4031  143.2322  135.1650 C   0  0  0  0  0  0  0  0  0  0  0  0
  130.0439  144.5268  134.6998 N   0  0  0  0  0  0  0  0  0  0  0  0
  129.7792  144.4375  133.2863 C   0  0  0  0  0  0  0  0  0  0  0  0
  129.4403  145.4422  132.6128 O   0  0  0  0  0  0  0  0  0  0  0  0
  133.0393  137.1153  128.9516 N   0  0  0  0  0  0  0  0  0  0  0  0
  134.2894  137.9416  128.9212 C   0  0  0  0  0  0  0  0  0  0  0  0
  133.1353  135.8905  128.2729 C   0  0  0  0  0  0  0  0  0  0  0  0
  134.1328  135.4491  127.7079 O   0  0  0  0  0  0  0  0  0  0  0  0
  131.9275  135.0338  128.2266 C   0  0  0  0  0  0  0  0  0  0  0  0
  131.2389  134.7876  127.0652 C   0  0  0  0  0  0  0  0  0  0  0  0
  130.1158  133.9583  127.0384 C   0  0  0  0  0  0  0  0  0  0  0  0
  129.6791  133.3648  128.2074 C   0  0  0  0  0  0  0  0  0  0  0  0
  130.3776  133.6178  129.3756 C   0  0  0  0  0  0  0  0  0  0  0  0
  131.4936  134.4406  129.4095 C   0  0  0  0  0  0  0  0  0  0  0  0
  1  2  1  0
  3  2  1  6
  3  4  1  0
  4  5  1  0
  6  5  1  1
  6  7  1  0
  7  8  1  0
  8  9  1  1
  8 10  1  0
 10 11  1  0
 11 12  2  0
 12 13  1  0
 13 14  2  0
 14 15  1  0
 15 16  2  0
 12 17  1  0
 17 18  1  0
 18 19  2  0
 19 20  1  0
 20 21  1  0
 21 22  2  0
 22 23  1  0
 23 24  2  0
 24 25  1  0
 25 26  2  0
 22 27  1  0
 20 28  2  0
 28 29  1  0
 29 30  1  0
 30 31  1  0
 31 32  1  0
 32 33  2  0
  4 34  1  6
 34 35  1  0
 34 36  1  0
 36 37  2  0
 36 38  1  0
 38 39  2  0
 39 40  1  0
 40 41  2  0
 41 42  1  0
 42 43  2  0
  8  3  1  0
 18 10  1  0
 27 19  1  0
 32 28  1  0
 43 38  1  0
 27  6  1  0
 16 11  1  0
 29 17  2  0
 26 21  1  0
M  END
$$$$
