
     RDKit          3D

 43 51  0  0  0  0  0  0  0  0999 V2000
  181.4374  174.6503  143.9930 C   0  0  0  0  0  0  0  0  0  0  0  0
  182.4312  175.3334  143.3565 O   0  0  0  0  0  0  0  0  0  0  0  0
  182.3582  176.7033  143.3440 C   0  0  2  0  0  0  0  0  0  0  0  0
  181.8708  177.1334  141.9641 C   0  0  1  0  0  0  0  0  0  0  0  0
  182.6037  176.1770  141.0359 C   0  0  0  0  0  0  0  0  0  0  0  0
  184.0885  176.4859  141.1805 C   0  0  1  0  0  0  0  0  0  0  0  0
  184.3557  177.3941  142.1455 O   0  0  0  0  0  0  0  0  0  0  0  0
  183.8214  177.1982  143.4154 C   0  0  1  0  0  0  0  0  0  0  0  0
  183.9161  178.5628  144.0573 C   0  0  0  0  0  0  0  0  0  0  0  0
  184.5980  176.2335  144.1493 N   0  0  0  0  0  0  0  0  0  0  0  0
  184.7724  176.1870  145.5076 C   0  0  0  0  0  0  0  0  0  0  0  0
  185.6198  175.1218  145.8256 C   0  0  0  0  0  0  0  0  0  0  0  0
  185.9583  174.8207  147.1196 C   0  0  0  0  0  0  0  0  0  0  0  0
  185.4400  175.5990  148.1256 C   0  0  0  0  0  0  0  0  0  0  0  0
  184.6023  176.6549  147.8534 C   0  0  0  0  0  0  0  0  0  0  0  0
  184.2701  176.9453  146.5398 C   0  0  0  0  0  0  0  0  0  0  0  0
  185.9603  174.5145  144.6627 C   0  0  0  0  0  0  0  0  0  0  0  0
  185.3440  175.1849  143.6636 C   0  0  0  0  0  0  0  0  0  0  0  0
  185.4724  174.7914  142.3568 C   0  0  0  0  0  0  0  0  0  0  0  0
  186.2484  173.6862  142.0564 C   0  0  0  0  0  0  0  0  0  0  0  0
  186.1806  173.5279  140.6977 C   0  0  0  0  0  0  0  0  0  0  0  0
  185.3657  174.5471  140.2434 C   0  0  0  0  0  0  0  0  0  0  0  0
  185.1053  174.6489  138.8974 C   0  0  0  0  0  0  0  0  0  0  0  0
  185.6393  173.7579  137.9936 C   0  0  0  0  0  0  0  0  0  0  0  0
  186.4448  172.7560  138.4717 C   0  0  0  0  0  0  0  0  0  0  0  0
  186.7342  172.6184  139.8371 C   0  0  0  0  0  0  0  0  0  0  0  0
  184.9328  175.3181  141.2449 N   0  0  0  0  0  0  0  0  0  0  0  0
  186.8883  172.9954  143.0996 C   0  0  0  0  0  0  0  0  0  0  0  0
  186.7497  173.4013  144.3994 C   0  0  0  0  0  0  0  0  0  0  0  0
  187.5011  172.5365  145.2971 C   0  0  0  0  0  0  0  0  0  0  0  0
  188.1250  171.5621  144.4708 N   0  0  0  0  0  0  0  0  0  0  0  0
  187.7549  171.8299  143.1044 C   0  0  0  0  0  0  0  0  0  0  0  0
  188.1664  171.1160  142.1563 O   0  0  0  0  0  0  0  0  0  0  0  0
  180.4677  177.1399  141.7881 N   0  0  0  0  0  0  0  0  0  0  0  0
  179.8628  176.0010  141.0242 C   0  0  0  0  0  0  0  0  0  0  0  0
  179.5391  178.0783  142.2651 C   0  0  0  0  0  0  0  0  0  0  0  0
  178.5555  177.8382  142.9608 O   0  0  0  0  0  0  0  0  0  0  0  0
  179.7526  179.4998  141.9068 C   0  0  0  0  0  0  0  0  0  0  0  0
  180.2983  179.8871  140.7086 C   0  0  0  0  0  0  0  0  0  0  0  0
  180.4700  181.2333  140.3801 C   0  0  0  0  0  0  0  0  0  0  0  0
  180.0824  182.2087  141.2789 C   0  0  0  0  0  0  0  0  0  0  0  0
  179.5333  181.8115  142.4861 C   0  0  0  0  0  0  0  0  0  0  0  0
  179.3603  180.4763  142.8190 C   0  0  0  0  0  0  0  0  0  0  0  0
  1  2  1  0
  3  2  1  6
  3  4  1  0
  4  5  1  0
  6  5  1  1
  6  7  1  0
  7  8  1  0
  8  9  1  1
  8 10  1  0
 10 11  1  0
 11 12  2  0
 12 13  1  0
 13 14  2  0
 14 15  1  0
 15 16  2  0
 12 17  1  0
 17 18  1  0
 18 19  2  0
 19 20  1  0
 20 21  1  0
 21 22  2  0
 22 23  1  0
 23 24  2  0
 24 25  1  0
 25 26  2  0
 22 27  1  0
 20 28  2  0
 28 29  1  0
 29 30  1  0
 30 31  1  0
 31 32  1  0
 32 33  2  0
  4 34  1  1
 34 35  1  0
 34 36  1  0
 36 37  2  0
 36 38  1  0
 38 39  2  0
 39 40  1  0
 40 41  2  0
 41 42  1  0
 42 43  2  0
  8  3  1  0
 18 10  1  0
 27 19  1  0
 32 28  1  0
 43 38  1  0
 27  6  1  0
 16 11  1  0
 29 17  2  0
 26 21  1  0
M  END
$$$$
