
     RDKit          3D

 43 51  0  0  0  0  0  0  0  0999 V2000
  189.4103  158.3000  119.2968 C   0  0  0  0  0  0  0  0  0  0  0  0
  190.1513  159.1218  120.0937 O   0  0  0  0  0  0  0  0  0  0  0  0
  189.7053  159.3448  121.3718 C   0  0  2  0  0  0  0  0  0  0  0  0
  189.4223  160.8368  121.5149 C   0  0  1  0  0  0  0  0  0  0  0  0
  190.5715  161.4718  120.7473 C   0  0  0  0  0  0  0  0  0  0  0  0
  191.8463  161.1117  121.5000 C   0  0  1  0  0  0  0  0  0  0  0  0
  191.6395  160.2561  122.5258 O   0  0  0  0  0  0  0  0  0  0  0  0
  190.9237  159.0866  122.2882 C   0  0  1  0  0  0  0  0  0  0  0  0
  190.4973  158.6421  123.6679 C   0  0  0  0  0  0  0  0  0  0  0  0
  191.7633  158.0948  121.6687 N   0  0  0  0  0  0  0  0  0  0  0  0
  191.6512  156.7349  121.7938 C   0  0  0  0  0  0  0  0  0  0  0  0
  192.6733  156.1209  121.0645 C   0  0  0  0  0  0  0  0  0  0  0  0
  192.7993  154.7576  120.9916 C   0  0  0  0  0  0  0  0  0  0  0  0
  191.8840  153.9829  121.6614 C   0  0  0  0  0  0  0  0  0  0  0  0
  190.8638  154.5494  122.3888 C   0  0  0  0  0  0  0  0  0  0  0  0
  190.7509  155.9290  122.4517 C   0  0  0  0  0  0  0  0  0  0  0  0
  193.4078  157.1046  120.4902 C   0  0  0  0  0  0  0  0  0  0  0  0
  192.8565  158.2835  120.8555 C   0  0  0  0  0  0  0  0  0  0  0  0
  193.3635  159.4759  120.4080 C   0  0  0  0  0  0  0  0  0  0  0  0
  194.4611  159.4707  119.5661 C   0  0  0  0  0  0  0  0  0  0  0  0
  194.7301  160.7825  119.2785 C   0  0  0  0  0  0  0  0  0  0  0  0
  193.7801  161.5167  119.9622 C   0  0  0  0  0  0  0  0  0  0  0  0
  193.7936  162.8879  119.8648 C   0  0  0  0  0  0  0  0  0  0  0  0
  194.7332  163.5441  119.1015 C   0  0  0  0  0  0  0  0  0  0  0  0
  195.6645  162.7907  118.4334 C   0  0  0  0  0  0  0  0  0  0  0  0
  195.6840  161.3903  118.5072 C   0  0  0  0  0  0  0  0  0  0  0  0
  192.9478  160.7302  120.6503 N   0  0  0  0  0  0  0  0  0  0  0  0
  195.0309  158.2417  119.1922 C   0  0  0  0  0  0  0  0  0  0  0  0
  194.5125  157.0597  119.6477 C   0  0  0  0  0  0  0  0  0  0  0  0
  195.2659  155.9274  119.1296 C   0  0  0  0  0  0  0  0  0  0  0  0
  196.2964  156.4800  118.3209 N   0  0  0  0  0  0  0  0  0  0  0  0
  196.1654  157.9146  118.3464 C   0  0  0  0  0  0  0  0  0  0  0  0
  196.9505  158.6612  117.7107 O   0  0  0  0  0  0  0  0  0  0  0  0
  188.1431  161.2585  121.0838 N   0  0  0  0  0  0  0  0  0  0  0  0
  188.0439  161.8808  119.7239 C   0  0  0  0  0  0  0  0  0  0  0  0
  186.9199  161.1477  121.7632 C   0  0  0  0  0  0  0  0  0  0  0  0
  186.3966  162.0112  122.4630 O   0  0  0  0  0  0  0  0  0  0  0  0
  186.1736  159.8747  121.6320 C   0  0  0  0  0  0  0  0  0  0  0  0
  185.5659  159.4902  120.4631 C   0  0  0  0  0  0  0  0  0  0  0  0
  184.8867  158.2751  120.3530 C   0  0  0  0  0  0  0  0  0  0  0  0
  184.8200  157.4306  121.4447 C   0  0  0  0  0  0  0  0  0  0  0  0
  185.4344  157.8246  122.6211 C   0  0  0  0  0  0  0  0  0  0  0  0
  186.1103  159.0301  122.7375 C   0  0  0  0  0  0  0  0  0  0  0  0
  1  2  1  0
  3  2  1  6
  3  4  1  0
  4  5  1  0
  6  5  1  6
  6  7  1  0
  7  8  1  0
  8  9  1  1
  8 10  1  0
 10 11  1  0
 11 12  2  0
 12 13  1  0
 13 14  2  0
 14 15  1  0
 15 16  2  0
 12 17  1  0
 17 18  1  0
 18 19  2  0
 19 20  1  0
 20 21  1  0
 21 22  2  0
 22 23  1  0
 23 24  2  0
 24 25  1  0
 25 26  2  0
 22 27  1  0
 20 28  2  0
 28 29  1  0
 29 30  1  0
 30 31  1  0
 31 32  1  0
 32 33  2  0
  4 34  1  6
 34 35  1  0
 34 36  1  0
 36 37  2  0
 36 38  1  0
 38 39  2  0
 39 40  1  0
 40 41  2  0
 41 42  1  0
 42 43  2  0
  8  3  1  0
 18 10  1  0
 27 19  1  0
 32 28  1  0
 43 38  1  0
 27  6  1  0
 16 11  1  0
 29 17  2  0
 26 21  1  0
M  END
$$$$
