
     RDKit          3D

 43 51  0  0  0  0  0  0  0  0999 V2000
  192.4270  174.4874  151.2715 C   0  0  0  0  0  0  0  0  0  0  0  0
  192.8192  173.9492  150.0816 O   0  0  0  0  0  0  0  0  0  0  0  0
  191.9359  174.0044  149.0333 C   0  0  2  0  0  0  0  0  0  0  0  0
  191.4469  172.5860  148.7583 C   0  0  1  0  0  0  0  0  0  0  0  0
  192.7071  171.7546  148.9424 C   0  0  0  0  0  0  0  0  0  0  0  0
  193.6761  172.1895  147.8501 C   0  0  1  0  0  0  0  0  0  0  0  0
  193.2300  173.2392  147.1246 O   0  0  0  0  0  0  0  0  0  0  0  0
  192.7839  174.3745  147.7944 C   0  0  1  0  0  0  0  0  0  0  0  0
  191.9624  175.1023  146.7558 C   0  0  0  0  0  0  0  0  0  0  0  0
  193.8966  175.1811  148.2227 N   0  0  0  0  0  0  0  0  0  0  0  0
  193.9095  176.5430  148.3727 C   0  0  0  0  0  0  0  0  0  0  0  0
  195.1855  176.9488  148.7736 C   0  0  0  0  0  0  0  0  0  0  0  0
  195.4889  178.2631  149.0197 C   0  0  0  0  0  0  0  0  0  0  0  0
  194.4968  179.2000  148.8638 C   0  0  0  0  0  0  0  0  0  0  0  0
  193.2287  178.8403  148.4718 C   0  0  0  0  0  0  0  0  0  0  0  0
  192.9391  177.5075  148.2275 C   0  0  0  0  0  0  0  0  0  0  0  0
  195.9517  175.8352  148.8728 C   0  0  0  0  0  0  0  0  0  0  0  0
  195.1730  174.7807  148.5425 C   0  0  0  0  0  0  0  0  0  0  0  0
  195.6590  173.4993  148.5732 C   0  0  0  0  0  0  0  0  0  0  0  0
  196.9724  173.2830  148.9497 C   0  0  0  0  0  0  0  0  0  0  0  0
  197.1674  171.9282  148.9001 C   0  0  0  0  0  0  0  0  0  0  0  0
  195.9601  171.3921  148.4951 C   0  0  0  0  0  0  0  0  0  0  0  0
  195.8445  170.0295  148.3535 C   0  0  0  0  0  0  0  0  0  0  0  0
  196.9056  169.1891  148.6059 C   0  0  0  0  0  0  0  0  0  0  0  0
  198.0924  169.7480  149.0065 C   0  0  0  0  0  0  0  0  0  0  0  0
  198.2503  171.1328  149.1626 C   0  0  0  0  0  0  0  0  0  0  0  0
  195.0403  172.3399  148.2943 N   0  0  0  0  0  0  0  0  0  0  0  0
  197.7772  174.3839  149.2894 C   0  0  0  0  0  0  0  0  0  0  0  0
  197.2765  175.6573  149.2538 C   0  0  0  0  0  0  0  0  0  0  0  0
  198.2906  176.6258  149.6434 C   0  0  0  0  0  0  0  0  0  0  0  0
  199.4642  175.8732  149.9218 N   0  0  0  0  0  0  0  0  0  0  0  0
  199.1642  174.4801  149.7092 C   0  0  0  0  0  0  0  0  0  0  0  0
  200.0267  173.5840  149.8855 O   0  0  0  0  0  0  0  0  0  0  0  0
  190.3553  172.1541  149.5469 N   0  0  0  0  0  0  0  0  0  0  0  0
  190.6073  171.0490  150.5276 C   0  0  0  0  0  0  0  0  0  0  0  0
  189.0420  172.6492  149.5538 C   0  0  0  0  0  0  0  0  0  0  0  0
  188.2882  172.6962  150.5226 O   0  0  0  0  0  0  0  0  0  0  0  0
  188.4979  173.1720  148.2789 C   0  0  0  0  0  0  0  0  0  0  0  0
  187.7294  174.3072  148.2124 C   0  0  0  0  0  0  0  0  0  0  0  0
  187.2451  174.7968  146.9977 C   0  0  0  0  0  0  0  0  0  0  0  0
  187.5430  174.1275  145.8260 C   0  0  0  0  0  0  0  0  0  0  0  0
  188.3179  172.9827  145.9000 C   0  0  0  0  0  0  0  0  0  0  0  0
  188.8019  172.4907  147.1030 C   0  0  0  0  0  0  0  0  0  0  0  0
  1  2  1  0
  3  2  1  1
  3  4  1  0
  4  5  1  0
  6  5  1  1
  6  7  1  0
  7  8  1  0
  8  9  1  6
  8 10  1  0
 10 11  1  0
 11 12  2  0
 12 13  1  0
 13 14  2  0
 14 15  1  0
 15 16  2  0
 12 17  1  0
 17 18  1  0
 18 19  2  0
 19 20  1  0
 20 21  1  0
 21 22  2  0
 22 23  1  0
 23 24  2  0
 24 25  1  0
 25 26  2  0
 22 27  1  0
 20 28  2  0
 28 29  1  0
 29 30  1  0
 30 31  1  0
 31 32  1  0
 32 33  2  0
  4 34  1  1
 34 35  1  0
 34 36  1  0
 36 37  2  0
 36 38  1  0
 38 39  2  0
 39 40  1  0
 40 41  2  0
 41 42  1  0
 42 43  2  0
  8  3  1  0
 18 10  1  0
 27 19  1  0
 32 28  1  0
 43 38  1  0
 27  6  1  0
 16 11  1  0
 29 17  2  0
 26 21  1  0
M  END
$$$$
