
     RDKit          3D

 43 51  0  0  0  0  0  0  0  0999 V2000
  194.4421  167.1709  130.3493 C   0  0  0  0  0  0  0  0  0  0  0  0
  195.5698  166.4433  130.5910 O   0  0  0  0  0  0  0  0  0  0  0  0
  196.4381  166.9089  131.5457 C   0  0  2  0  0  0  0  0  0  0  0  0
  197.7269  167.3244  130.8434 C   0  0  1  0  0  0  0  0  0  0  0  0
  197.9048  166.2358  129.7963 C   0  0  0  0  0  0  0  0  0  0  0  0
  198.1258  164.9347  130.5576 C   0  0  1  0  0  0  0  0  0  0  0  0
  197.9815  165.0652  131.8953 O   0  0  0  0  0  0  0  0  0  0  0  0
  196.8310  165.6732  132.3882 C   0  0  1  0  0  0  0  0  0  0  0  0
  197.2077  166.0596  133.7996 C   0  0  0  0  0  0  0  0  0  0  0  0
  195.7285  164.7476  132.3891 N   0  0  0  0  0  0  0  0  0  0  0  0
  194.6697  164.7377  133.2590 C   0  0  0  0  0  0  0  0  0  0  0  0
  193.8304  163.6641  132.9486 C   0  0  0  0  0  0  0  0  0  0  0  0
  192.6754  163.4165  133.6448 C   0  0  0  0  0  0  0  0  0  0  0  0
  192.3450  164.2596  134.6775 C   0  0  0  0  0  0  0  0  0  0  0  0
  193.1442  165.3271  135.0128 C   0  0  0  0  0  0  0  0  0  0  0  0
  194.3080  165.5631  134.2986 C   0  0  0  0  0  0  0  0  0  0  0  0
  194.3733  163.0199  131.8868 C   0  0  0  0  0  0  0  0  0  0  0  0
  195.5088  163.6749  131.5567 C   0  0  0  0  0  0  0  0  0  0  0  0
  196.2778  163.2760  130.4944 C   0  0  0  0  0  0  0  0  0  0  0  0
  195.8825  162.1815  129.7465 C   0  0  0  0  0  0  0  0  0  0  0  0
  196.8220  162.0306  128.7614 C   0  0  0  0  0  0  0  0  0  0  0  0
  197.7402  163.0432  128.9632 C   0  0  0  0  0  0  0  0  0  0  0  0
  198.8164  163.1523  128.1148 C   0  0  0  0  0  0  0  0  0  0  0  0
  198.9985  162.2744  127.0698 C   0  0  0  0  0  0  0  0  0  0  0  0
  198.0720  161.2787  126.8925 C   0  0  0  0  0  0  0  0  0  0  0  0
  196.9609  161.1341  127.7361 C   0  0  0  0  0  0  0  0  0  0  0  0
  197.4165  163.8025  130.0136 N   0  0  0  0  0  0  0  0  0  0  0  0
  194.7023  161.5036  130.0966 C   0  0  0  0  0  0  0  0  0  0  0  0
  193.9455  161.9148  131.1603 C   0  0  0  0  0  0  0  0  0  0  0  0
  192.7777  161.0625  131.3280 C   0  0  0  0  0  0  0  0  0  0  0  0
  192.8557  160.0847  130.2988 N   0  0  0  0  0  0  0  0  0  0  0  0
  194.0424  160.3435  129.5238 C   0  0  0  0  0  0  0  0  0  0  0  0
  194.3592  159.6277  128.5414 O   0  0  0  0  0  0  0  0  0  0  0  0
  197.7368  168.6357  130.3140 N   0  0  0  0  0  0  0  0  0  0  0  0
  196.6639  168.9902  129.3292 C   0  0  0  0  0  0  0  0  0  0  0  0
  198.6219  169.6835  130.6119 C   0  0  0  0  0  0  0  0  0  0  0  0
  198.7638  170.7200  129.9679 O   0  0  0  0  0  0  0  0  0  0  0  0
  199.4720  169.5435  131.8171 C   0  0  0  0  0  0  0  0  0  0  0  0
  199.0113  169.8087  133.0824 C   0  0  0  0  0  0  0  0  0  0  0  0
  199.8218  169.6484  134.2082 C   0  0  0  0  0  0  0  0  0  0  0  0
  201.1234  169.2109  134.0539 C   0  0  0  0  0  0  0  0  0  0  0  0
  201.5822  168.9460  132.7748 C   0  0  0  0  0  0  0  0  0  0  0  0
  200.7829  169.1033  131.6523 C   0  0  0  0  0  0  0  0  0  0  0  0
  1  2  1  0
  3  2  1  6
  3  4  1  0
  4  5  1  0
  6  5  1  6
  6  7  1  0
  7  8  1  0
  8  9  1  1
  8 10  1  0
 10 11  1  0
 11 12  2  0
 12 13  1  0
 13 14  2  0
 14 15  1  0
 15 16  2  0
 12 17  1  0
 17 18  1  0
 18 19  2  0
 19 20  1  0
 20 21  1  0
 21 22  2  0
 22 23  1  0
 23 24  2  0
 24 25  1  0
 25 26  2  0
 22 27  1  0
 20 28  2  0
 28 29  1  0
 29 30  1  0
 30 31  1  0
 31 32  1  0
 32 33  2  0
  4 34  1  6
 34 35  1  0
 34 36  1  0
 36 37  2  0
 36 38  1  0
 38 39  2  0
 39 40  1  0
 40 41  2  0
 41 42  1  0
 42 43  2  0
  8  3  1  0
 18 10  1  0
 27 19  1  0
 32 28  1  0
 43 38  1  0
 27  6  1  0
 16 11  1  0
 29 17  2  0
 26 21  1  0
M  END
$$$$
