
     RDKit          3D

 43 51  0  0  0  0  0  0  0  0999 V2000
  169.9463  162.6888  112.2555 C   0  0  0  0  0  0  0  0  0  0  0  0
  171.0252  163.2494  111.6381 O   0  0  0  0  0  0  0  0  0  0  0  0
  171.9495  162.4056  111.0760 C   0  0  2  0  0  0  0  0  0  0  0  0
  173.2862  162.6467  111.7701 C   0  0  1  0  0  0  0  0  0  0  0  0
  173.3075  164.1577  111.9424 C   0  0  0  0  0  0  0  0  0  0  0  0
  173.3369  164.7530  110.5403 C   0  0  1  0  0  0  0  0  0  0  0  0
  173.2100  163.8283  109.5625 O   0  0  0  0  0  0  0  0  0  0  0  0
  172.1582  162.9200  109.6327 C   0  0  1  0  0  0  0  0  0  0  0  0
  172.5837  161.8080  108.7024 C   0  0  0  0  0  0  0  0  0  0  0  0
  170.9337  163.5255  109.1786 N   0  0  0  0  0  0  0  0  0  0  0  0
  169.8828  162.8891  108.5718 C   0  0  0  0  0  0  0  0  0  0  0  0
  168.8980  163.8290  108.2547 C   0  0  0  0  0  0  0  0  0  0  0  0
  167.7179  163.4741  107.6537 C   0  0  0  0  0  0  0  0  0  0  0  0
  167.5103  162.1485  107.3601 C   0  0  0  0  0  0  0  0  0  0  0  0
  168.4544  161.1939  107.6572 C   0  0  0  0  0  0  0  0  0  0  0  0
  169.6415  161.5698  108.2650 C   0  0  0  0  0  0  0  0  0  0  0  0
  169.3445  165.0391  108.6711 C   0  0  0  0  0  0  0  0  0  0  0  0
  170.5634  164.8494  109.2241 C   0  0  0  0  0  0  0  0  0  0  0  0
  171.2691  165.8916  109.7669 C   0  0  0  0  0  0  0  0  0  0  0  0
  170.7217  167.1619  109.7475 C   0  0  0  0  0  0  0  0  0  0  0  0
  171.6318  167.9811  110.3612 C   0  0  0  0  0  0  0  0  0  0  0  0
  172.6860  167.1638  110.7216 C   0  0  0  0  0  0  0  0  0  0  0  0
  173.7685  167.7108  111.3687 C   0  0  0  0  0  0  0  0  0  0  0  0
  173.8244  169.0545  111.6644 C   0  0  0  0  0  0  0  0  0  0  0  0
  172.7643  169.8426  111.2953 C   0  0  0  0  0  0  0  0  0  0  0  0
  171.6421  169.3226  110.6339 C   0  0  0  0  0  0  0  0  0  0  0  0
  172.4729  165.8945  110.3634 N   0  0  0  0  0  0  0  0  0  0  0  0
  169.4554  167.3526  109.1688 C   0  0  0  0  0  0  0  0  0  0  0  0
  168.7634  166.3011  108.6311 C   0  0  0  0  0  0  0  0  0  0  0  0
  167.4846  166.7408  108.0933 C   0  0  0  0  0  0  0  0  0  0  0  0
  167.4230  168.1420  108.3261 N   0  0  0  0  0  0  0  0  0  0  0  0
  168.6363  168.5391  108.9940 C   0  0  0  0  0  0  0  0  0  0  0  0
  168.8486  169.7323  109.3244 O   0  0  0  0  0  0  0  0  0  0  0  0
  173.4863  161.9301  112.9727 N   0  0  0  0  0  0  0  0  0  0  0  0
  173.4402  160.4337  112.8999 C   0  0  0  0  0  0  0  0  0  0  0  0
  173.7538  162.4420  114.2519 C   0  0  0  0  0  0  0  0  0  0  0  0
  173.3074  163.4839  114.7256 O   0  0  0  0  0  0  0  0  0  0  0  0
  174.6570  161.6617  115.1295 C   0  0  0  0  0  0  0  0  0  0  0  0
  176.0114  161.8786  115.1776 C   0  0  0  0  0  0  0  0  0  0  0  0
  176.8428  161.1479  116.0288 C   0  0  0  0  0  0  0  0  0  0  0  0
  176.2963  160.1790  116.8487 C   0  0  0  0  0  0  0  0  0  0  0  0
  174.9297  159.9647  116.7948 C   0  0  0  0  0  0  0  0  0  0  0  0
  174.0980  160.6864  115.9515 C   0  0  0  0  0  0  0  0  0  0  0  0
  1  2  1  0
  3  2  1  1
  3  4  1  0
  4  5  1  0
  6  5  1  1
  6  7  1  0
  7  8  1  0
  8  9  1  6
  8 10  1  0
 10 11  1  0
 11 12  2  0
 12 13  1  0
 13 14  2  0
 14 15  1  0
 15 16  2  0
 12 17  1  0
 17 18  1  0
 18 19  2  0
 19 20  1  0
 20 21  1  0
 21 22  2  0
 22 23  1  0
 23 24  2  0
 24 25  1  0
 25 26  2  0
 22 27  1  0
 20 28  2  0
 28 29  1  0
 29 30  1  0
 30 31  1  0
 31 32  1  0
 32 33  2  0
  4 34  1  1
 34 35  1  0
 34 36  1  0
 36 37  2  0
 36 38  1  0
 38 39  2  0
 39 40  1  0
 40 41  2  0
 41 42  1  0
 42 43  2  0
  8  3  1  0
 18 10  1  0
 27 19  1  0
 32 28  1  0
 43 38  1  0
 27  6  1  0
 16 11  1  0
 29 17  2  0
 26 21  1  0
M  END
$$$$
