
     RDKit          3D

 43 51  0  0  0  0  0  0  0  0999 V2000
  116.1163  164.1293  144.1693 C   0  0  0  0  0  0  0  0  0  0  0  0
  116.3502  165.4605  143.9888 O   0  0  0  0  0  0  0  0  0  0  0  0
  117.2862  166.0597  144.7932 C   0  0  2  0  0  0  0  0  0  0  0  0
  116.6436  167.2926  145.4206 C   0  0  1  0  0  0  0  0  0  0  0  0
  115.8192  167.8610  144.2759 C   0  0  0  0  0  0  0  0  0  0  0  0
  116.8091  168.2844  143.1979 C   0  0  1  0  0  0  0  0  0  0  0  0
  118.0858  167.9389  143.4770 O   0  0  0  0  0  0  0  0  0  0  0  0
  118.3603  166.6221  143.8335 C   0  0  1  0  0  0  0  0  0  0  0  0
  119.7129  166.7073  144.5015 C   0  0  0  0  0  0  0  0  0  0  0  0
  118.4191  165.7821  142.6659 N   0  0  0  0  0  0  0  0  0  0  0  0
  119.1776  164.6517  142.5093 C   0  0  0  0  0  0  0  0  0  0  0  0
  118.9805  164.1411  141.2232 C   0  0  0  0  0  0  0  0  0  0  0  0
  119.6005  162.9975  140.7898 C   0  0  0  0  0  0  0  0  0  0  0  0
  120.4390  162.3429  141.6586 C   0  0  0  0  0  0  0  0  0  0  0  0
  120.6579  162.8131  142.9321 C   0  0  0  0  0  0  0  0  0  0  0  0
  120.0230  163.9702  143.3541 C   0  0  0  0  0  0  0  0  0  0  0  0
  118.0988  164.9564  140.5948 C   0  0  0  0  0  0  0  0  0  0  0  0
  117.7664  165.9359  141.4651 C   0  0  0  0  0  0  0  0  0  0  0  0
  116.8627  166.9105  141.1292 C   0  0  0  0  0  0  0  0  0  0  0  0
  116.2806  166.8895  139.8745 C   0  0  0  0  0  0  0  0  0  0  0  0
  115.4257  167.9587  139.8304 C   0  0  0  0  0  0  0  0  0  0  0  0
  115.5340  168.5739  141.0628 C   0  0  0  0  0  0  0  0  0  0  0  0
  114.7812  169.6947  141.3219 C   0  0  0  0  0  0  0  0  0  0  0  0
  113.9231  170.2166  140.3799 C   0  0  0  0  0  0  0  0  0  0  0  0
  113.8353  169.5860  139.1650 C   0  0  0  0  0  0  0  0  0  0  0  0
  114.5863  168.4408  138.8624 C   0  0  0  0  0  0  0  0  0  0  0  0
  116.4048  167.9435  141.8558 N   0  0  0  0  0  0  0  0  0  0  0  0
  116.6325  165.8698  138.9737 C   0  0  0  0  0  0  0  0  0  0  0  0
  117.5365  164.9039  139.3247 C   0  0  0  0  0  0  0  0  0  0  0  0
  117.7405  163.9617  138.2344 C   0  0  0  0  0  0  0  0  0  0  0  0
  116.9056  164.4052  137.1725 N   0  0  0  0  0  0  0  0  0  0  0  0
  116.2092  165.5869  137.6135 C   0  0  0  0  0  0  0  0  0  0  0  0
  115.3970  166.1914  136.8700 O   0  0  0  0  0  0  0  0  0  0  0  0
  115.9005  167.0586  146.6008 N   0  0  0  0  0  0  0  0  0  0  0  0
  116.6389  167.1161  147.9039 C   0  0  0  0  0  0  0  0  0  0  0  0
  114.5266  166.7983  146.7221 C   0  0  0  0  0  0  0  0  0  0  0  0
  114.0100  165.7029  146.9278 O   0  0  0  0  0  0  0  0  0  0  0  0
  113.5961  167.9442  146.5956 C   0  0  0  0  0  0  0  0  0  0  0  0
  112.9892  168.5278  147.6794 C   0  0  0  0  0  0  0  0  0  0  0  0
  112.1330  169.6222  147.5412 C   0  0  0  0  0  0  0  0  0  0  0  0
  111.8848  170.1386  146.2838 C   0  0  0  0  0  0  0  0  0  0  0  0
  112.4995  169.5448  145.1946 C   0  0  0  0  0  0  0  0  0  0  0  0
  113.3506  168.4575  145.3245 C   0  0  0  0  0  0  0  0  0  0  0  0
  1  2  1  0
  3  2  1  6
  3  4  1  0
  4  5  1  0
  6  5  1  1
  6  7  1  0
  7  8  1  0
  8  9  1  1
  8 10  1  0
 10 11  1  0
 11 12  2  0
 12 13  1  0
 13 14  2  0
 14 15  1  0
 15 16  2  0
 12 17  1  0
 17 18  1  0
 18 19  2  0
 19 20  1  0
 20 21  1  0
 21 22  2  0
 22 23  1  0
 23 24  2  0
 24 25  1  0
 25 26  2  0
 22 27  1  0
 20 28  2  0
 28 29  1  0
 29 30  1  0
 30 31  1  0
 31 32  1  0
 32 33  2  0
  4 34  1  1
 34 35  1  0
 34 36  1  0
 36 37  2  0
 36 38  1  0
 38 39  2  0
 39 40  1  0
 40 41  2  0
 41 42  1  0
 42 43  2  0
  8  3  1  0
 18 10  1  0
 27 19  1  0
 32 28  1  0
 43 38  1  0
 27  6  1  0
 16 11  1  0
 29 17  2  0
 26 21  1  0
M  END
$$$$
