
     RDKit          3D

 43 51  0  0  0  0  0  0  0  0999 V2000
  128.4250  148.5894  136.6331 C   0  0  0  0  0  0  0  0  0  0  0  0
  128.1776  149.9084  136.8748 O   0  0  0  0  0  0  0  0  0  0  0  0
  129.1486  150.8142  136.5298 C   0  0  2  0  0  0  0  0  0  0  0  0
  129.9371  151.1574  137.7897 C   0  0  1  0  0  0  0  0  0  0  0  0
  128.8535  151.2317  138.8543 C   0  0  0  0  0  0  0  0  0  0  0  0
  127.9516  152.3990  138.4735 C   0  0  1  0  0  0  0  0  0  0  0  0
  128.2627  152.9492  137.2786 O   0  0  0  0  0  0  0  0  0  0  0  0
  128.3944  152.1158  136.1720 C   0  0  1  0  0  0  0  0  0  0  0  0
  129.1710  152.9544  135.1835 C   0  0  0  0  0  0  0  0  0  0  0  0
  127.1020  151.7678  135.6422 N   0  0  0  0  0  0  0  0  0  0  0  0
  126.8026  151.4877  134.3347 C   0  0  0  0  0  0  0  0  0  0  0  0
  125.4337  151.2287  134.2223 C   0  0  0  0  0  0  0  0  0  0  0  0
  124.8498  150.8986  133.0265 C   0  0  0  0  0  0  0  0  0  0  0  0
  125.6483  150.8232  131.9116 C   0  0  0  0  0  0  0  0  0  0  0  0
  126.9993  151.0699  131.9815 C   0  0  0  0  0  0  0  0  0  0  0  0
  127.5733  151.4020  133.1982 C   0  0  0  0  0  0  0  0  0  0  0  0
  124.8966  151.3463  135.4612 C   0  0  0  0  0  0  0  0  0  0  0  0
  125.9015  151.6682  136.3061 C   0  0  0  0  0  0  0  0  0  0  0  0
  125.6784  151.8311  137.6488 C   0  0  0  0  0  0  0  0  0  0  0  0
  124.3990  151.6625  138.1471 C   0  0  0  0  0  0  0  0  0  0  0  0
  124.4828  151.8717  139.4980 C   0  0  0  0  0  0  0  0  0  0  0  0
  125.8112  152.1570  139.7496 C   0  0  0  0  0  0  0  0  0  0  0  0
  126.2096  152.4148  141.0398 C   0  0  0  0  0  0  0  0  0  0  0  0
  125.3137  152.3951  142.0853 C   0  0  0  0  0  0  0  0  0  0  0  0
  124.0014  152.1091  141.8072 C   0  0  0  0  0  0  0  0  0  0  0  0
  123.5557  151.8407  140.5048 C   0  0  0  0  0  0  0  0  0  0  0  0
  126.5424  152.1347  138.6317 N   0  0  0  0  0  0  0  0  0  0  0  0
  123.3584  151.3305  137.2628 C   0  0  0  0  0  0  0  0  0  0  0  0
  123.5980  151.1711  135.9247 C   0  0  0  0  0  0  0  0  0  0  0  0
  122.3741  150.8317  135.2141 C   0  0  0  0  0  0  0  0  0  0  0  0
  121.3481  150.7934  136.1977 N   0  0  0  0  0  0  0  0  0  0  0  0
  121.9405  151.0986  137.4751 C   0  0  0  0  0  0  0  0  0  0  0  0
  121.2577  151.1320  138.5290 O   0  0  0  0  0  0  0  0  0  0  0  0
  130.9930  150.2721  138.1077 N   0  0  0  0  0  0  0  0  0  0  0  0
  130.7595  148.8093  137.8790 C   0  0  0  0  0  0  0  0  0  0  0  0
  132.2703  150.5874  138.5969 C   0  0  0  0  0  0  0  0  0  0  0  0
  132.5214  151.2830  139.5778 O   0  0  0  0  0  0  0  0  0  0  0  0
  133.4391  150.0339  137.8741 C   0  0  0  0  0  0  0  0  0  0  0  0
  134.0058  150.6614  136.7932 C   0  0  0  0  0  0  0  0  0  0  0  0
  135.1219  150.1349  136.1396 C   0  0  0  0  0  0  0  0  0  0  0  0
  135.6777  148.9514  136.5866 C   0  0  0  0  0  0  0  0  0  0  0  0
  135.1008  148.3230  137.6770 C   0  0  0  0  0  0  0  0  0  0  0  0
  133.9922  148.8401  138.3305 C   0  0  0  0  0  0  0  0  0  0  0  0
  1  2  1  0
  3  2  1  1
  3  4  1  0
  4  5  1  0
  6  5  1  6
  6  7  1  0
  7  8  1  0
  8  9  1  6
  8 10  1  0
 10 11  1  0
 11 12  2  0
 12 13  1  0
 13 14  2  0
 14 15  1  0
 15 16  2  0
 12 17  1  0
 17 18  1  0
 18 19  2  0
 19 20  1  0
 20 21  1  0
 21 22  2  0
 22 23  1  0
 23 24  2  0
 24 25  1  0
 25 26  2  0
 22 27  1  0
 20 28  2  0
 28 29  1  0
 29 30  1  0
 30 31  1  0
 31 32  1  0
 32 33  2  0
  4 34  1  1
 34 35  1  0
 34 36  1  0
 36 37  2  0
 36 38  1  0
 38 39  2  0
 39 40  1  0
 40 41  2  0
 41 42  1  0
 42 43  2  0
  8  3  1  0
 18 10  1  0
 27 19  1  0
 32 28  1  0
 43 38  1  0
 27  6  1  0
 16 11  1  0
 29 17  2  0
 26 21  1  0
M  END
$$$$
