
     RDKit          3D

 43 51  0  0  0  0  0  0  0  0999 V2000
  173.8089  147.2747  121.7914 C   0  0  0  0  0  0  0  0  0  0  0  0
  173.1028  146.1627  121.4387 O   0  0  0  0  0  0  0  0  0  0  0  0
  172.9902  145.8748  120.1020 C   0  0  2  0  0  0  0  0  0  0  0  0
  171.5123  145.6583  119.7929 C   0  0  1  0  0  0  0  0  0  0  0  0
  171.0234  144.8901  121.0111 C   0  0  0  0  0  0  0  0  0  0  0  0
  171.7555  143.5541  121.0031 C   0  0  1  0  0  0  0  0  0  0  0  0
  172.6958  143.4639  120.0361 O   0  0  0  0  0  0  0  0  0  0  0  0
  173.6373  144.4821  119.9210 C   0  0  1  0  0  0  0  0  0  0  0  0
  174.1889  144.3025  118.5257 C   0  0  0  0  0  0  0  0  0  0  0  0
  174.6763  144.3261  120.9050 N   0  0  0  0  0  0  0  0  0  0  0  0
  175.9847  144.7138  120.7811 C   0  0  0  0  0  0  0  0  0  0  0  0
  176.6807  144.3584  121.9399 C   0  0  0  0  0  0  0  0  0  0  0  0
  178.0121  144.6404  122.1062 C   0  0  0  0  0  0  0  0  0  0  0  0
  178.6701  145.2942  121.0933 C   0  0  0  0  0  0  0  0  0  0  0  0
  178.0202  145.6613  119.9384 C   0  0  0  0  0  0  0  0  0  0  0  0
  176.6742  145.3688  119.7868 C   0  0  0  0  0  0  0  0  0  0  0  0
  175.7975  143.7572  122.7740 C   0  0  0  0  0  0  0  0  0  0  0  0
  174.5994  143.7425  122.1481 C   0  0  0  0  0  0  0  0  0  0  0  0
  173.4864  143.2186  122.7529 C   0  0  0  0  0  0  0  0  0  0  0  0
  173.5932  142.6951  124.0289 C   0  0  0  0  0  0  0  0  0  0  0  0
  172.3394  142.2649  124.3731 C   0  0  0  0  0  0  0  0  0  0  0  0
  171.5355  142.5501  123.2861 C   0  0  0  0  0  0  0  0  0  0  0  0
  170.1997  142.2293  123.3366 C   0  0  0  0  0  0  0  0  0  0  0  0
  169.6468  141.6301  124.4462 C   0  0  0  0  0  0  0  0  0  0  0  0
  170.4676  141.3582  125.5110 C   0  0  0  0  0  0  0  0  0  0  0  0
  171.8349  141.6699  125.4982 C   0  0  0  0  0  0  0  0  0  0  0  0
  172.2252  143.1284  122.2989 N   0  0  0  0  0  0  0  0  0  0  0  0
  174.8422  142.7113  124.6729 C   0  0  0  0  0  0  0  0  0  0  0  0
  175.9440  143.2383  124.0551 C   0  0  0  0  0  0  0  0  0  0  0  0
  177.1162  143.1433  124.9126 C   0  0  0  0  0  0  0  0  0  0  0  0
  176.6755  142.5159  126.1098 N   0  0  0  0  0  0  0  0  0  0  0  0
  175.2669  142.2421  125.9801 C   0  0  0  0  0  0  0  0  0  0  0  0
  174.6138  141.6890  126.8996 O   0  0  0  0  0  0  0  0  0  0  0  0
  170.7693  146.8297  119.5182 N   0  0  0  0  0  0  0  0  0  0  0  0
  169.5639  146.6916  118.6381 C   0  0  0  0  0  0  0  0  0  0  0  0
  170.9987  148.1317  119.9898 C   0  0  0  0  0  0  0  0  0  0  0  0
  171.5021  149.0559  119.3561 O   0  0  0  0  0  0  0  0  0  0  0  0
  170.5983  148.4387  121.3827 C   0  0  0  0  0  0  0  0  0  0  0  0
  170.6371  147.5040  122.3869 C   0  0  0  0  0  0  0  0  0  0  0  0
  170.2774  147.8194  123.6988 C   0  0  0  0  0  0  0  0  0  0  0  0
  169.8711  149.1045  124.0035 C   0  0  0  0  0  0  0  0  0  0  0  0
  169.8334  150.0424  122.9859 C   0  0  0  0  0  0  0  0  0  0  0  0
  170.1888  149.7359  121.6808 C   0  0  0  0  0  0  0  0  0  0  0  0
  1  2  1  0
  3  2  1  1
  3  4  1  0
  4  5  1  0
  6  5  1  1
  6  7  1  0
  7  8  1  0
  8  9  1  6
  8 10  1  0
 10 11  1  0
 11 12  2  0
 12 13  1  0
 13 14  2  0
 14 15  1  0
 15 16  2  0
 12 17  1  0
 17 18  1  0
 18 19  2  0
 19 20  1  0
 20 21  1  0
 21 22  2  0
 22 23  1  0
 23 24  2  0
 24 25  1  0
 25 26  2  0
 22 27  1  0
 20 28  2  0
 28 29  1  0
 29 30  1  0
 30 31  1  0
 31 32  1  0
 32 33  2  0
  4 34  1  1
 34 35  1  0
 34 36  1  0
 36 37  2  0
 36 38  1  0
 38 39  2  0
 39 40  1  0
 40 41  2  0
 41 42  1  0
 42 43  2  0
  8  3  1  0
 18 10  1  0
 27 19  1  0
 32 28  1  0
 43 38  1  0
 27  6  1  0
 16 11  1  0
 29 17  2  0
 26 21  1  0
M  END
$$$$
