
     RDKit          3D

 43 51  0  0  0  0  0  0  0  0999 V2000
  114.5326  167.3960  144.9261 C   0  0  0  0  0  0  0  0  0  0  0  0
  115.7187  167.6047  144.2867 O   0  0  0  0  0  0  0  0  0  0  0  0
  116.7948  167.9896  145.0459 C   0  0  2  0  0  0  0  0  0  0  0  0
  116.7675  169.5105  145.1590 C   0  0  1  0  0  0  0  0  0  0  0  0
  116.3395  169.9433  143.7652 C   0  0  0  0  0  0  0  0  0  0  0  0
  117.4526  169.5140  142.8176 C   0  0  1  0  0  0  0  0  0  0  0  0
  118.4165  168.7822  143.4195 O   0  0  0  0  0  0  0  0  0  0  0  0
  118.0419  167.6821  144.1850 C   0  0  1  0  0  0  0  0  0  0  0  0
  119.2567  167.4132  145.0425 C   0  0  0  0  0  0  0  0  0  0  0  0
  117.7517  166.5522  143.3417 N   0  0  0  0  0  0  0  0  0  0  0  0
  117.9113  165.2297  143.6629 C   0  0  0  0  0  0  0  0  0  0  0  0
  117.5496  164.4436  142.5652 C   0  0  0  0  0  0  0  0  0  0  0  0
  117.5906  163.0737  142.6042 C   0  0  0  0  0  0  0  0  0  0  0  0
  118.0017  162.4681  143.7664 C   0  0  0  0  0  0  0  0  0  0  0  0
  118.3647  163.2067  144.8680 C   0  0  0  0  0  0  0  0  0  0  0  0
  118.3171  164.5903  144.8115 C   0  0  0  0  0  0  0  0  0  0  0  0
  117.1650  165.2848  141.5744 C   0  0  0  0  0  0  0  0  0  0  0  0
  117.2876  166.5453  142.0469 C   0  0  0  0  0  0  0  0  0  0  0  0
  116.9458  167.6294  141.2808 C   0  0  0  0  0  0  0  0  0  0  0  0
  116.4661  167.4275  139.9991 C   0  0  0  0  0  0  0  0  0  0  0  0
  116.2003  168.6705  139.4888 C   0  0  0  0  0  0  0  0  0  0  0  0
  116.5332  169.5635  140.4893 C   0  0  0  0  0  0  0  0  0  0  0  0
  116.3704  170.9105  140.2681 C   0  0  0  0  0  0  0  0  0  0  0  0
  115.8836  171.3878  139.0717 C   0  0  0  0  0  0  0  0  0  0  0  0
  115.5611  170.4794  138.0961 C   0  0  0  0  0  0  0  0  0  0  0  0
  115.7127  169.0977  138.2830 C   0  0  0  0  0  0  0  0  0  0  0  0
  116.9870  168.9386  141.5794 N   0  0  0  0  0  0  0  0  0  0  0  0
  116.3435  166.1146  139.5132 C   0  0  0  0  0  0  0  0  0  0  0  0
  116.6890  165.0428  140.2910 C   0  0  0  0  0  0  0  0  0  0  0  0
  116.4777  163.7923  139.5770 C   0  0  0  0  0  0  0  0  0  0  0  0
  115.9799  164.1530  138.2950 N   0  0  0  0  0  0  0  0  0  0  0  0
  115.8883  165.5898  138.2377 C   0  0  0  0  0  0  0  0  0  0  0  0
  115.4728  166.1851  137.2126 O   0  0  0  0  0  0  0  0  0  0  0  0
  115.9567  170.0301  146.1945 N   0  0  0  0  0  0  0  0  0  0  0  0
  115.3532  169.0509  147.1555 C   0  0  0  0  0  0  0  0  0  0  0  0
  115.6535  171.3734  146.4661 C   0  0  0  0  0  0  0  0  0  0  0  0
  114.6316  171.9690  146.1343 O   0  0  0  0  0  0  0  0  0  0  0  0
  116.6495  172.1625  147.2276 C   0  0  0  0  0  0  0  0  0  0  0  0
  116.5833  173.5289  147.3379 C   0  0  0  0  0  0  0  0  0  0  0  0
  117.5191  174.2525  148.0798 C   0  0  0  0  0  0  0  0  0  0  0  0
  118.5422  173.5835  148.7242 C   0  0  0  0  0  0  0  0  0  0  0  0
  118.6037  172.2053  148.6084 C   0  0  0  0  0  0  0  0  0  0  0  0
  117.6779  171.4804  147.8729 C   0  0  0  0  0  0  0  0  0  0  0  0
  1  2  1  0
  3  2  1  6
  3  4  1  0
  4  5  1  0
  6  5  1  1
  6  7  1  0
  7  8  1  0
  8  9  1  1
  8 10  1  0
 10 11  1  0
 11 12  2  0
 12 13  1  0
 13 14  2  0
 14 15  1  0
 15 16  2  0
 12 17  1  0
 17 18  1  0
 18 19  2  0
 19 20  1  0
 20 21  1  0
 21 22  2  0
 22 23  1  0
 23 24  2  0
 24 25  1  0
 25 26  2  0
 22 27  1  0
 20 28  2  0
 28 29  1  0
 29 30  1  0
 30 31  1  0
 31 32  1  0
 32 33  2  0
  4 34  1  1
 34 35  1  0
 34 36  1  0
 36 37  2  0
 36 38  1  0
 38 39  2  0
 39 40  1  0
 40 41  2  0
 41 42  1  0
 42 43  2  0
  8  3  1  0
 18 10  1  0
 27 19  1  0
 32 28  1  0
 43 38  1  0
 27  6  1  0
 16 11  1  0
 29 17  2  0
 26 21  1  0
M  END
$$$$
