
     RDKit          3D

 43 51  0  0  0  0  0  0  0  0999 V2000
  189.3601  175.8457  149.5801 C   0  0  0  0  0  0  0  0  0  0  0  0
  190.5965  175.9531  150.1450 O   0  0  0  0  0  0  0  0  0  0  0  0
  190.7004  176.6370  151.3298 C   0  0  2  0  0  0  0  0  0  0  0  0
  191.1269  178.0660  151.0093 C   0  0  1  0  0  0  0  0  0  0  0  0
  192.1398  177.8715  149.8915 C   0  0  0  0  0  0  0  0  0  0  0  0
  193.3095  177.1047  150.4957 C   0  0  1  0  0  0  0  0  0  0  0  0
  193.0892  176.7063  151.7685 O   0  0  0  0  0  0  0  0  0  0  0  0
  191.9148  176.0193  152.0610 C   0  0  1  0  0  0  0  0  0  0  0  0
  191.7872  176.1523  153.5607 C   0  0  0  0  0  0  0  0  0  0  0  0
  192.0274  174.6362  151.6786 N   0  0  0  0  0  0  0  0  0  0  0  0
  191.4007  173.5707  152.2698 C   0  0  0  0  0  0  0  0  0  0  0  0
  191.7937  172.3928  151.6280 C   0  0  0  0  0  0  0  0  0  0  0  0
  191.3083  171.1647  151.9968 C   0  0  0  0  0  0  0  0  0  0  0  0
  190.4070  171.1054  153.0314 C   0  0  0  0  0  0  0  0  0  0  0  0
  189.9950  172.2417  153.6870 C   0  0  0  0  0  0  0  0  0  0  0  0
  190.4953  173.4750  153.3013 C   0  0  0  0  0  0  0  0  0  0  0  0
  192.6573  172.7380  150.6421 C   0  0  0  0  0  0  0  0  0  0  0  0
  192.7915  174.0827  150.6777 C   0  0  0  0  0  0  0  0  0  0  0  0
  193.5870  174.7430  149.7776 C   0  0  0  0  0  0  0  0  0  0  0  0
  194.2649  174.0175  148.8145 C   0  0  0  0  0  0  0  0  0  0  0  0
  194.9558  174.9301  148.0624 C   0  0  0  0  0  0  0  0  0  0  0  0
  194.6607  176.1642  148.6094 C   0  0  0  0  0  0  0  0  0  0  0  0
  195.2165  177.2936  148.0567 C   0  0  0  0  0  0  0  0  0  0  0  0
  196.0604  177.2208  146.9711 C   0  0  0  0  0  0  0  0  0  0  0  0
  196.3362  175.9832  146.4481 C   0  0  0  0  0  0  0  0  0  0  0  0
  195.7892  174.8078  146.9833 C   0  0  0  0  0  0  0  0  0  0  0  0
  193.8310  176.0580  149.6511 N   0  0  0  0  0  0  0  0  0  0  0  0
  194.1229  172.6197  148.7846 C   0  0  0  0  0  0  0  0  0  0  0  0
  193.3245  171.9754  149.6906 C   0  0  0  0  0  0  0  0  0  0  0  0
  193.3357  170.5378  149.4638 C   0  0  0  0  0  0  0  0  0  0  0  0
  194.2000  170.3232  148.3555 N   0  0  0  0  0  0  0  0  0  0  0  0
  194.6964  171.6036  147.9197 C   0  0  0  0  0  0  0  0  0  0  0  0
  195.4852  171.7106  146.9480 O   0  0  0  0  0  0  0  0  0  0  0  0
  190.0779  178.9565  150.6832 N   0  0  0  0  0  0  0  0  0  0  0  0
  189.8875  179.2979  149.2362 C   0  0  0  0  0  0  0  0  0  0  0  0
  189.1523  179.5590  151.5494 C   0  0  0  0  0  0  0  0  0  0  0  0
  188.5920  179.0220  152.5017 O   0  0  0  0  0  0  0  0  0  0  0  0
  188.8089  180.9798  151.3080 C   0  0  0  0  0  0  0  0  0  0  0  0
  187.5241  181.4010  151.0731 C   0  0  0  0  0  0  0  0  0  0  0  0
  187.2177  182.7482  150.8706 C   0  0  0  0  0  0  0  0  0  0  0  0
  188.2286  183.6896  150.9067 C   0  0  0  0  0  0  0  0  0  0  0  0
  189.5226  183.2582  151.1434 C   0  0  0  0  0  0  0  0  0  0  0  0
  189.8340  181.9217  151.3449 C   0  0  0  0  0  0  0  0  0  0  0  0
  1  2  1  0
  3  2  1  6
  3  4  1  0
  4  5  1  0
  6  5  1  6
  6  7  1  0
  7  8  1  0
  8  9  1  1
  8 10  1  0
 10 11  1  0
 11 12  2  0
 12 13  1  0
 13 14  2  0
 14 15  1  0
 15 16  2  0
 12 17  1  0
 17 18  1  0
 18 19  2  0
 19 20  1  0
 20 21  1  0
 21 22  2  0
 22 23  1  0
 23 24  2  0
 24 25  1  0
 25 26  2  0
 22 27  1  0
 20 28  2  0
 28 29  1  0
 29 30  1  0
 30 31  1  0
 31 32  1  0
 32 33  2  0
  4 34  1  6
 34 35  1  0
 34 36  1  0
 36 37  2  0
 36 38  1  0
 38 39  2  0
 39 40  1  0
 40 41  2  0
 41 42  1  0
 42 43  2  0
  8  3  1  0
 18 10  1  0
 27 19  1  0
 32 28  1  0
 43 38  1  0
 27  6  1  0
 16 11  1  0
 29 17  2  0
 26 21  1  0
M  END
$$$$
