
     RDKit          3D

 33 38  0  0  0  0  0  0  0  0999 V2000
  127.8124  143.0456  133.4267 C   0  0  2  0  0  0  0  0  0  0  0  0
  126.9262  142.3004  132.5240 C   0  0  0  0  0  0  0  0  0  0  0  0
  127.3426  140.8604  132.8756 C   0  0  1  0  0  0  0  0  0  0  0  0
  128.6401  140.6176  132.4568 O   0  0  0  0  0  0  0  0  0  0  0  0
  129.1412  139.8039  133.4409 C   0  0  2  0  0  0  0  0  0  0  0  0
  128.5587  138.4035  133.2157 C   0  0  0  0  0  0  0  0  0  0  0  0
  128.7549  140.3136  134.6561 O   0  0  0  0  0  0  0  0  0  0  0  0
  127.5107  140.9316  134.3882 C   0  0  2  0  0  0  0  0  0  0  0  0
  126.4809  140.1476  135.0884 C   0  0  0  0  0  0  0  0  0  0  0  0
  126.7005  138.8794  135.8359 C   0  0  0  0  0  0  0  0  0  0  0  0
  125.3156  140.5936  135.0549 O   0  0  0  0  0  0  0  0  0  0  0  0
  127.5595  142.3621  134.7807 C   0  0  2  0  0  0  0  0  0  0  0  0
  126.3722  142.9035  135.4790 C   0  0  0  0  0  0  0  0  0  0  0  0
  128.8369  142.6982  135.5504 C   0  0  0  0  0  0  0  0  0  0  0  0
  129.0535  144.1696  135.6698 C   0  0  0  0  0  0  0  0  0  0  0  0
  128.8381  144.9611  134.4383 C   0  0  1  0  0  0  0  0  0  0  0  0
  127.6231  144.4890  133.6244 C   0  0  1  0  0  0  0  0  0  0  0  0
  127.6572  145.2950  132.3434 C   0  0  0  0  0  0  0  0  0  0  0  0
  127.2217  146.6890  132.6679 C   0  0  0  0  0  0  0  0  0  0  0  0
  128.1877  147.2399  133.6626 C   0  0  0  0  0  0  0  0  0  0  0  0
  128.5386  148.5099  133.5879 C   0  0  0  0  0  0  0  0  0  0  0  0
  129.4700  149.1424  134.5056 C   0  0  0  0  0  0  0  0  0  0  0  0
  129.6310  150.4069  134.4877 O   0  0  0  0  0  0  0  0  0  0  0  0
  130.2353  148.3340  135.4627 C   0  0  0  0  0  0  0  0  0  0  0  0
  130.2171  146.8711  135.0419 C   0  0  0  0  0  0  0  0  0  0  0  0
  128.7818  146.4189  134.7471 C   0  0  2  0  0  0  0  0  0  0  0  0
  127.9878  146.7180  136.0057 C   0  0  0  0  0  0  0  0  0  0  0  0
  130.6151  139.7000  133.4231 C   0  0  0  0  0  0  0  0  0  0  0  0
  131.3353  139.1916  134.4855 C   0  0  0  0  0  0  0  0  0  0  0  0
  132.7275  139.1205  134.4052 C   0  0  0  0  0  0  0  0  0  0  0  0
  133.4188  139.5439  133.2917 C   0  0  0  0  0  0  0  0  0  0  0  0
  132.6907  140.0526  132.2302 C   0  0  0  0  0  0  0  0  0  0  0  0
  131.3301  140.1169  132.3208 C   0  0  0  0  0  0  0  0  0  0  0  0
  1  2  1  6
  3  2  1  6
  3  4  1  0
  4  5  1  0
  5  6  1  6
  5  7  1  0
  7  8  1  0
  8  9  1  1
  9 10  1  0
  9 11  2  0
  8 12  1  0
 12 13  1  1
 12 14  1  0
 14 15  1  0
 16 15  1  1
 16 17  1  0
 17 18  1  6
 18 19  1  0
 19 20  1  0
 20 21  2  0
 21 22  1  0
 22 23  2  0
 22 24  1  0
 24 25  1  0
 25 26  1  0
 26 27  1  1
  5 28  1  0
 28 29  2  0
 29 30  1  0
 30 31  2  0
 31 32  1  0
 32 33  2  0
 12  1  1  0
 26 16  1  0
 33 28  1  0
 17  1  1  0
 26 20  1  0
  8  3  1  0
M  END
$$$$
