
     RDKit          3D

 33 38  0  0  0  0  0  0  0  0999 V2000
  118.2884  165.3876  143.1872 C   0  0  2  0  0  0  0  0  0  0  0  0
  119.4513  165.0318  142.3646 C   0  0  0  0  0  0  0  0  0  0  0  0
  119.3466  166.1168  141.2772 C   0  0  1  0  0  0  0  0  0  0  0  0
  118.2222  165.9097  140.4958 O   0  0  0  0  0  0  0  0  0  0  0  0
  117.7920  167.1826  140.2198 C   0  0  2  0  0  0  0  0  0  0  0  0
  118.7212  167.7547  139.1425 C   0  0  0  0  0  0  0  0  0  0  0  0
  117.8605  167.9182  141.3773 O   0  0  0  0  0  0  0  0  0  0  0  0
  118.9448  167.3458  142.0831 C   0  0  2  0  0  0  0  0  0  0  0  0
  120.0180  168.3522  142.1137 C   0  0  0  0  0  0  0  0  0  0  0  0
  119.8475  169.8222  141.9546 C   0  0  0  0  0  0  0  0  0  0  0  0
  121.1786  167.9306  142.2956 O   0  0  0  0  0  0  0  0  0  0  0  0
  118.4956  166.8929  143.4232 C   0  0  2  0  0  0  0  0  0  0  0  0
  119.4011  167.1718  144.5602 C   0  0  0  0  0  0  0  0  0  0  0  0
  117.0756  167.3641  143.7373 C   0  0  0  0  0  0  0  0  0  0  0  0
  116.4959  166.6616  144.9191 C   0  0  0  0  0  0  0  0  0  0  0  0
  116.6940  165.1960  144.9664 C   0  0  1  0  0  0  0  0  0  0  0  0
  118.0933  164.7625  144.5023 C   0  0  1  0  0  0  0  0  0  0  0  0
  118.0558  163.2496  144.4648 C   0  0  0  0  0  0  0  0  0  0  0  0
  118.0900  162.7557  145.8766 C   0  0  0  0  0  0  0  0  0  0  0  0
  116.8838  163.2953  146.5693 C   0  0  0  0  0  0  0  0  0  0  0  0
  116.2525  162.5414  147.4494 C   0  0  0  0  0  0  0  0  0  0  0  0
  115.0712  162.9718  148.1768 C   0  0  0  0  0  0  0  0  0  0  0  0
  114.6150  162.2668  149.1361 O   0  0  0  0  0  0  0  0  0  0  0  0
  114.3903  164.2214  147.8163 C   0  0  0  0  0  0  0  0  0  0  0  0
  114.8221  164.6687  146.4267 C   0  0  0  0  0  0  0  0  0  0  0  0
  116.3514  164.6572  146.3140 C   0  0  2  0  0  0  0  0  0  0  0  0
  116.8552  165.5409  147.4405 C   0  0  0  0  0  0  0  0  0  0  0  0
  116.4058  167.2367  139.7109 C   0  0  0  0  0  0  0  0  0  0  0  0
  115.6368  168.3814  139.7749 C   0  0  0  0  0  0  0  0  0  0  0  0
  114.3328  168.3661  139.2758 C   0  0  0  0  0  0  0  0  0  0  0  0
  113.7772  167.2378  138.7145 C   0  0  0  0  0  0  0  0  0  0  0  0
  114.5536  166.0936  138.6535 C   0  0  0  0  0  0  0  0  0  0  0  0
  115.8269  166.1211  139.1448 C   0  0  0  0  0  0  0  0  0  0  0  0
  1  2  1  1
  3  2  1  1
  3  4  1  0
  4  5  1  0
  5  6  1  6
  5  7  1  0
  7  8  1  0
  8  9  1  1
  9 10  1  0
  9 11  2  0
  8 12  1  0
 12 13  1  1
 12 14  1  0
 14 15  1  0
 16 15  1  1
 16 17  1  0
 17 18  1  6
 18 19  1  0
 19 20  1  0
 20 21  2  0
 21 22  1  0
 22 23  2  0
 22 24  1  0
 24 25  1  0
 25 26  1  0
 26 27  1  1
  5 28  1  0
 28 29  2  0
 29 30  1  0
 30 31  2  0
 31 32  1  0
 32 33  2  0
 12  1  1  0
 26 16  1  0
 33 28  1  0
 17  1  1  0
 26 20  1  0
  8  3  1  0
M  END
$$$$
