
     RDKit          3D

 33 38  0  0  0  0  0  0  0  0999 V2000
  204.2904  134.0246  133.4547 C   0  0  2  0  0  0  0  0  0  0  0  0
  205.3026  132.9626  133.3961 C   0  0  0  0  0  0  0  0  0  0  0  0
  204.6805  131.9516  134.3768 C   0  0  1  0  0  0  0  0  0  0  0  0
  204.7002  132.4558  135.6664 O   0  0  0  0  0  0  0  0  0  0  0  0
  203.5266  131.9914  136.2037 C   0  0  2  0  0  0  0  0  0  0  0  0
  203.7306  130.5074  136.5314 C   0  0  0  0  0  0  0  0  0  0  0  0
  202.5319  132.1629  135.2726 O   0  0  0  0  0  0  0  0  0  0  0  0
  203.1989  132.0345  134.0315 C   0  0  2  0  0  0  0  0  0  0  0  0
  202.7141  130.7926  133.4086 C   0  0  0  0  0  0  0  0  0  0  0  0
  201.4335  130.0987  133.7152 C   0  0  0  0  0  0  0  0  0  0  0  0
  203.4456  130.2780  132.5379 O   0  0  0  0  0  0  0  0  0  0  0  0
  202.9831  133.2523  133.2111 C   0  0  2  0  0  0  0  0  0  0  0  0
  202.7026  133.0470  131.7725 C   0  0  0  0  0  0  0  0  0  0  0  0
  201.9430  134.1827  133.8352 C   0  0  0  0  0  0  0  0  0  0  0  0
  201.9477  135.5366  133.2081 C   0  0  0  0  0  0  0  0  0  0  0  0
  203.2776  136.1452  132.9839 C   0  0  1  0  0  0  0  0  0  0  0  0
  204.3268  135.1351  132.4936 C   0  0  1  0  0  0  0  0  0  0  0  0
  205.6382  135.8911  132.4765 C   0  0  0  0  0  0  0  0  0  0  0  0
  205.6141  136.8232  131.3065 C   0  0  0  0  0  0  0  0  0  0  0  0
  204.4691  137.7594  131.5033 C   0  0  0  0  0  0  0  0  0  0  0  0
  204.5986  139.0230  131.1454 C   0  0  0  0  0  0  0  0  0  0  0  0
  203.5463  140.0131  131.2945 C   0  0  0  0  0  0  0  0  0  0  0  0
  203.6724  141.1685  130.7706 O   0  0  0  0  0  0  0  0  0  0  0  0
  202.3277  139.6951  132.0488 C   0  0  0  0  0  0  0  0  0  0  0  0
  202.5582  138.4674  132.9189 C   0  0  0  0  0  0  0  0  0  0  0  0
  203.1735  137.3338  132.0895 C   0  0  2  0  0  0  0  0  0  0  0  0
  202.2223  137.1083  130.9284 C   0  0  0  0  0  0  0  0  0  0  0  0
  203.1324  132.6891  137.4451 C   0  0  0  0  0  0  0  0  0  0  0  0
  204.0560  133.1462  138.3638 C   0  0  0  0  0  0  0  0  0  0  0  0
  203.6175  133.7984  139.5180 C   0  0  0  0  0  0  0  0  0  0  0  0
  202.2810  134.0058  139.7784 C   0  0  0  0  0  0  0  0  0  0  0  0
  201.3604  133.5451  138.8532 C   0  0  0  0  0  0  0  0  0  0  0  0
  201.8015  132.9091  137.7288 C   0  0  0  0  0  0  0  0  0  0  0  0
  1  2  1  6
  3  2  1  6
  3  4  1  0
  4  5  1  0
  5  6  1  1
  5  7  1  0
  7  8  1  0
  8  9  1  6
  9 10  1  0
  9 11  2  0
  8 12  1  0
 12 13  1  6
 12 14  1  0
 14 15  1  0
 16 15  1  6
 16 17  1  0
 17 18  1  1
 18 19  1  0
 19 20  1  0
 20 21  2  0
 21 22  1  0
 22 23  2  0
 22 24  1  0
 24 25  1  0
 25 26  1  0
 26 27  1  6
  5 28  1  0
 28 29  2  0
 29 30  1  0
 30 31  2  0
 31 32  1  0
 32 33  2  0
 12  1  1  0
 26 16  1  0
 33 28  1  0
 17  1  1  0
 26 20  1  0
  8  3  1  0
M  END
$$$$
