
     RDKit          3D

 33 38  0  0  0  0  0  0  0  0999 V2000
  201.3858  137.7654  130.9862 C   0  0  2  0  0  0  0  0  0  0  0  0
  200.2110  137.8922  130.1146 C   0  0  0  0  0  0  0  0  0  0  0  0
  200.4271  139.3228  129.5880 C   0  0  1  0  0  0  0  0  0  0  0  0
  200.2700  140.2424  130.6114 O   0  0  0  0  0  0  0  0  0  0  0  0
  201.2077  141.2004  130.3201 C   0  0  2  0  0  0  0  0  0  0  0  0
  200.6552  142.0429  129.1642 C   0  0  0  0  0  0  0  0  0  0  0  0
  202.3712  140.5656  129.9611 O   0  0  0  0  0  0  0  0  0  0  0  0
  201.9332  139.3611  129.3618 C   0  0  2  0  0  0  0  0  0  0  0  0
  202.2676  139.4455  127.9313 C   0  0  0  0  0  0  0  0  0  0  0  0
  202.7288  140.6617  127.2080 C   0  0  0  0  0  0  0  0  0  0  0  0
  202.1580  138.3952  127.2657 O   0  0  0  0  0  0  0  0  0  0  0  0
  202.5351  138.1984  130.0609 C   0  0  2  0  0  0  0  0  0  0  0  0
  203.0301  137.0920  129.2115 C   0  0  0  0  0  0  0  0  0  0  0  0
  203.6060  138.6284  131.0635 C   0  0  0  0  0  0  0  0  0  0  0  0
  203.9871  137.5238  131.9913 C   0  0  0  0  0  0  0  0  0  0  0  0
  202.8698  136.7419  132.5655 C   0  0  1  0  0  0  0  0  0  0  0  0
  201.7496  136.4594  131.5522 C   0  0  1  0  0  0  0  0  0  0  0  0
  200.6413  135.8035  132.3478 C   0  0  0  0  0  0  0  0  0  0  0  0
  201.0664  134.4026  132.6561 C   0  0  0  0  0  0  0  0  0  0  0  0
  202.3183  134.4821  133.4638 C   0  0  0  0  0  0  0  0  0  0  0  0
  202.5115  133.6189  134.4431 C   0  0  0  0  0  0  0  0  0  0  0  0
  203.6939  133.6110  135.2868 C   0  0  0  0  0  0  0  0  0  0  0  0
  203.8996  132.6473  136.0958 O   0  0  0  0  0  0  0  0  0  0  0  0
  204.6638  134.7108  135.2178 C   0  0  0  0  0  0  0  0  0  0  0  0
  204.0367  135.9174  134.5335 C   0  0  0  0  0  0  0  0  0  0  0  0
  203.3721  135.4979  133.2167 C   0  0  2  0  0  0  0  0  0  0  0  0
  204.4572  134.8128  132.4063 C   0  0  0  0  0  0  0  0  0  0  0  0
  201.4965  142.1033  131.4536 C   0  0  0  0  0  0  0  0  0  0  0  0
  202.6798  142.8065  131.5582 C   0  0  0  0  0  0  0  0  0  0  0  0
  202.8909  143.6439  132.6555 C   0  0  0  0  0  0  0  0  0  0  0  0
  201.9510  143.7971  133.6507 C   0  0  0  0  0  0  0  0  0  0  0  0
  200.7670  143.0891  133.5396 C   0  0  0  0  0  0  0  0  0  0  0  0
  200.5724  142.2737  132.4622 C   0  0  0  0  0  0  0  0  0  0  0  0
  1  2  1  6
  3  2  1  1
  3  4  1  0
  4  5  1  0
  5  6  1  6
  5  7  1  0
  7  8  1  0
  8  9  1  6
  9 10  1  0
  9 11  2  0
  8 12  1  0
 12 13  1  6
 12 14  1  0
 14 15  1  0
 16 15  1  6
 16 17  1  0
 17 18  1  1
 18 19  1  0
 19 20  1  0
 20 21  2  0
 21 22  1  0
 22 23  2  0
 22 24  1  0
 24 25  1  0
 25 26  1  0
 26 27  1  6
  5 28  1  0
 28 29  2  0
 29 30  1  0
 30 31  2  0
 31 32  1  0
 32 33  2  0
 12  1  1  0
 26 16  1  0
 33 28  1  0
 17  1  1  0
 26 20  1  0
  8  3  1  0
M  END
$$$$
