
     RDKit          3D

 33 38  0  0  0  0  0  0  0  0999 V2000
  118.8548  167.1666  142.1124 C   0  0  2  0  0  0  0  0  0  0  0  0
  120.2844  167.0554  141.7965 C   0  0  0  0  0  0  0  0  0  0  0  0
  120.8400  168.1779  142.6920 C   0  0  1  0  0  0  0  0  0  0  0  0
  120.4210  169.4147  142.2309 O   0  0  0  0  0  0  0  0  0  0  0  0
  120.2236  170.1301  143.3846 C   0  0  2  0  0  0  0  0  0  0  0  0
  121.6052  170.5350  143.9124 C   0  0  0  0  0  0  0  0  0  0  0  0
  119.5655  169.3244  144.2809 O   0  0  0  0  0  0  0  0  0  0  0  0
  120.0117  168.0205  143.9610 C   0  0  2  0  0  0  0  0  0  0  0  0
  120.8304  167.5560  145.0921 C   0  0  0  0  0  0  0  0  0  0  0  0
  121.0610  168.2877  146.3675 C   0  0  0  0  0  0  0  0  0  0  0  0
  121.3774  166.4408  144.9692 O   0  0  0  0  0  0  0  0  0  0  0  0
  118.8513  167.1490  143.6501 C   0  0  2  0  0  0  0  0  0  0  0  0
  118.8798  165.7767  144.2040 C   0  0  0  0  0  0  0  0  0  0  0  0
  117.5227  167.8327  143.9731 C   0  0  0  0  0  0  0  0  0  0  0  0
  116.3584  167.1143  143.3776 C   0  0  0  0  0  0  0  0  0  0  0  0
  116.5126  166.6781  141.9721 C   0  0  1  0  0  0  0  0  0  0  0  0
  117.9148  166.1313  141.6620 C   0  0  1  0  0  0  0  0  0  0  0  0
  117.9335  165.8918  140.1674 C   0  0  0  0  0  0  0  0  0  0  0  0
  117.1154  164.6705  139.8892 C   0  0  0  0  0  0  0  0  0  0  0  0
  115.7269  164.9445  140.3613 C   0  0  0  0  0  0  0  0  0  0  0  0
  114.7048  164.4830  139.6656 C   0  0  0  0  0  0  0  0  0  0  0  0
  113.3170  164.6941  140.0386 C   0  0  0  0  0  0  0  0  0  0  0  0
  112.3857  164.0765  139.4250 O   0  0  0  0  0  0  0  0  0  0  0  0
  112.9715  165.6194  141.1247 C   0  0  0  0  0  0  0  0  0  0  0  0
  114.1481  166.5389  141.4207 C   0  0  0  0  0  0  0  0  0  0  0  0
  115.4341  165.7212  141.5918 C   0  0  2  0  0  0  0  0  0  0  0  0
  115.1387  164.7110  142.6855 C   0  0  0  0  0  0  0  0  0  0  0  0
  119.4268  171.3584  143.1849 C   0  0  0  0  0  0  0  0  0  0  0  0
  119.7446  172.5555  143.7946 C   0  0  0  0  0  0  0  0  0  0  0  0
  118.9500  173.6803  143.5641 C   0  0  0  0  0  0  0  0  0  0  0  0
  117.8465  173.6405  142.7408 C   0  0  0  0  0  0  0  0  0  0  0  0
  117.5335  172.4372  142.1327 C   0  0  0  0  0  0  0  0  0  0  0  0
  118.3180  171.3447  142.3659 C   0  0  0  0  0  0  0  0  0  0  0  0
  1  2  1  6
  3  2  1  6
  3  4  1  0
  4  5  1  0
  5  6  1  1
  5  7  1  0
  7  8  1  0
  8  9  1  1
  9 10  1  0
  9 11  2  0
  8 12  1  0
 12 13  1  6
 12 14  1  0
 14 15  1  0
 16 15  1  1
 16 17  1  0
 17 18  1  6
 18 19  1  0
 19 20  1  0
 20 21  2  0
 21 22  1  0
 22 23  2  0
 22 24  1  0
 24 25  1  0
 25 26  1  0
 26 27  1  1
  5 28  1  0
 28 29  2  0
 29 30  1  0
 30 31  2  0
 31 32  1  0
 32 33  2  0
 12  1  1  0
 26 16  1  0
 33 28  1  0
 17  1  1  0
 26 20  1  0
  8  3  1  0
M  END
$$$$
