
     RDKit          3D

 33 38  0  0  0  0  0  0  0  0999 V2000
  204.8493  133.6592  133.7134 C   0  0  2  0  0  0  0  0  0  0  0  0
  204.1350  132.9054  132.6755 C   0  0  0  0  0  0  0  0  0  0  0  0
  202.7041  133.4218  132.9128 C   0  0  1  0  0  0  0  0  0  0  0  0
  202.2268  132.9762  134.1340 O   0  0  0  0  0  0  0  0  0  0  0  0
  201.4761  134.0330  134.5829 C   0  0  2  0  0  0  0  0  0  0  0  0
  200.1577  134.0210  133.8001 C   0  0  0  0  0  0  0  0  0  0  0  0
  202.1814  135.1882  134.3515 O   0  0  0  0  0  0  0  0  0  0  0  0
  202.9351  134.9022  133.1888 C   0  0  2  0  0  0  0  0  0  0  0  0
  202.4000  135.7478  132.1099 C   0  0  0  0  0  0  0  0  0  0  0  0
  201.6120  136.9984  132.2838 C   0  0  0  0  0  0  0  0  0  0  0  0
  202.6353  135.3818  130.9400 O   0  0  0  0  0  0  0  0  0  0  0  0
  204.3807  135.1016  133.4594 C   0  0  2  0  0  0  0  0  0  0  0  0
  205.1695  135.7796  132.4065 C   0  0  0  0  0  0  0  0  0  0  0  0
  204.6205  135.7581  134.8190 C   0  0  0  0  0  0  0  0  0  0  0  0
  206.0486  135.6736  135.2429 C   0  0  0  0  0  0  0  0  0  0  0  0
  206.7059  134.3610  135.0569 C   0  0  1  0  0  0  0  0  0  0  0  0
  206.3182  133.6754  133.7375 C   0  0  1  0  0  0  0  0  0  0  0  0
  206.9476  132.2999  133.7969 C   0  0  0  0  0  0  0  0  0  0  0  0
  208.4191  132.4600  133.5792 C   0  0  0  0  0  0  0  0  0  0  0  0
  208.9423  133.3263  134.6754 C   0  0  0  0  0  0  0  0  0  0  0  0
  210.1294  133.0694  135.1915 C   0  0  0  0  0  0  0  0  0  0  0  0
  210.7283  133.8506  136.2597 C   0  0  0  0  0  0  0  0  0  0  0  0
  211.9444  133.6597  136.5911 O   0  0  0  0  0  0  0  0  0  0  0  0
  209.9413  134.8671  136.9685 C   0  0  0  0  0  0  0  0  0  0  0  0
  208.4560  134.6425  136.7219 C   0  0  0  0  0  0  0  0  0  0  0  0
  208.1832  134.4790  135.2218 C   0  0  2  0  0  0  0  0  0  0  0  0
  208.7459  135.7245  134.5615 C   0  0  0  0  0  0  0  0  0  0  0  0
  201.1588  133.9578  136.0241 C   0  0  0  0  0  0  0  0  0  0  0  0
  201.4890  134.9644  136.9093 C   0  0  0  0  0  0  0  0  0  0  0  0
  201.1606  134.8315  138.2599 C   0  0  0  0  0  0  0  0  0  0  0  0
  200.5112  133.7198  138.7493 C   0  0  0  0  0  0  0  0  0  0  0  0
  200.1831  132.7144  137.8564 C   0  0  0  0  0  0  0  0  0  0  0  0
  200.5095  132.8560  136.5385 C   0  0  0  0  0  0  0  0  0  0  0  0
  1  2  1  6
  3  2  1  1
  3  4  1  0
  4  5  1  0
  5  6  1  6
  5  7  1  0
  7  8  1  0
  8  9  1  6
  9 10  1  0
  9 11  2  0
  8 12  1  0
 12 13  1  6
 12 14  1  0
 14 15  1  0
 16 15  1  6
 16 17  1  0
 17 18  1  1
 18 19  1  0
 19 20  1  0
 20 21  2  0
 21 22  1  0
 22 23  2  0
 22 24  1  0
 24 25  1  0
 25 26  1  0
 26 27  1  6
  5 28  1  0
 28 29  2  0
 29 30  1  0
 30 31  2  0
 31 32  1  0
 32 33  2  0
 12  1  1  0
 26 16  1  0
 33 28  1  0
 17  1  1  0
 26 20  1  0
  8  3  1  0
M  END
$$$$
