
     RDKit          3D

 33 38  0  0  0  0  0  0  0  0999 V2000
  173.1602  163.9886  110.2775 C   0  0  2  0  0  0  0  0  0  0  0  0
  172.0744  164.1371  109.3005 C   0  0  0  0  0  0  0  0  0  0  0  0
  170.8983  163.5877  110.1284 C   0  0  1  0  0  0  0  0  0  0  0  0
  171.0571  162.2301  110.3504 O   0  0  0  0  0  0  0  0  0  0  0  0
  170.5618  162.0584  111.6180 C   0  0  2  0  0  0  0  0  0  0  0  0
  169.0322  162.1001  111.5196 C   0  0  0  0  0  0  0  0  0  0  0  0
  171.0374  163.0780  112.4053 O   0  0  0  0  0  0  0  0  0  0  0  0
  171.1770  164.1650  111.5106 C   0  0  2  0  0  0  0  0  0  0  0  0
  170.1730  165.1701  111.8941 C   0  0  0  0  0  0  0  0  0  0  0  0
  169.2375  165.0802  113.0482 C   0  0  0  0  0  0  0  0  0  0  0  0
  170.1057  166.1958  111.1859 O   0  0  0  0  0  0  0  0  0  0  0  0
  172.5753  164.6621  111.5302 C   0  0  2  0  0  0  0  0  0  0  0  0
  172.7619  166.1303  111.5270 C   0  0  0  0  0  0  0  0  0  0  0  0
  173.3934  164.0175  112.6492 C   0  0  0  0  0  0  0  0  0  0  0  0
  174.8575  164.2553  112.4874 C   0  0  0  0  0  0  0  0  0  0  0  0
  175.4010  164.0638  111.1246 C   0  0  1  0  0  0  0  0  0  0  0  0
  174.4716  164.6009  110.0250 C   0  0  1  0  0  0  0  0  0  0  0  0
  175.1064  164.1778  108.7174 C   0  0  0  0  0  0  0  0  0  0  0  0
  176.3030  165.0459  108.4875 C   0  0  0  0  0  0  0  0  0  0  0  0
  177.2425  164.8239  109.6250 C   0  0  0  0  0  0  0  0  0  0  0  0
  178.5421  164.8074  109.3961 C   0  0  0  0  0  0  0  0  0  0  0  0
  179.5387  164.5994  110.4322 C   0  0  0  0  0  0  0  0  0  0  0  0
  180.7762  164.7692  110.1767 O   0  0  0  0  0  0  0  0  0  0  0  0
  179.1331  164.1920  111.7829 C   0  0  0  0  0  0  0  0  0  0  0  0
  177.7116  163.6478  111.7589 C   0  0  0  0  0  0  0  0  0  0  0  0
  176.7814  164.6181  111.0209 C   0  0  2  0  0  0  0  0  0  0  0  0
  176.9290  165.9519  111.7303 C   0  0  0  0  0  0  0  0  0  0  0  0
  170.9508  160.7716  112.2313 C   0  0  0  0  0  0  0  0  0  0  0  0
  170.4933  159.5574  111.7599 C   0  0  0  0  0  0  0  0  0  0  0  0
  170.8991  158.3766  112.3849 C   0  0  0  0  0  0  0  0  0  0  0  0
  171.7496  158.3769  113.4682 C   0  0  0  0  0  0  0  0  0  0  0  0
  172.2046  159.5976  113.9358 C   0  0  0  0  0  0  0  0  0  0  0  0
  171.8007  160.7450  113.3163 C   0  0  0  0  0  0  0  0  0  0  0  0
  1  2  1  6
  3  2  1  6
  3  4  1  0
  4  5  1  0
  5  6  1  6
  5  7  1  0
  7  8  1  0
  8  9  1  1
  9 10  1  0
  9 11  2  0
  8 12  1  0
 12 13  1  6
 12 14  1  0
 14 15  1  0
 16 15  1  1
 16 17  1  0
 17 18  1  6
 18 19  1  0
 19 20  1  0
 20 21  2  0
 21 22  1  0
 22 23  2  0
 22 24  1  0
 24 25  1  0
 25 26  1  0
 26 27  1  1
  5 28  1  0
 28 29  2  0
 29 30  1  0
 30 31  2  0
 31 32  1  0
 32 33  2  0
 12  1  1  0
 26 16  1  0
 33 28  1  0
 17  1  1  0
 26 20  1  0
  8  3  1  0
M  END
$$$$
