
     RDKit          3D

 33 38  0  0  0  0  0  0  0  0999 V2000
  127.1147  144.1467  134.3372 C   0  0  2  0  0  0  0  0  0  0  0  0
  125.9628  145.0489  134.2159 C   0  0  0  0  0  0  0  0  0  0  0  0
  126.4236  146.1901  135.1411 C   0  0  1  0  0  0  0  0  0  0  0  0
  126.4606  145.7594  136.4567 O   0  0  0  0  0  0  0  0  0  0  0  0
  127.5501  146.4148  136.9717 C   0  0  2  0  0  0  0  0  0  0  0  0
  127.1337  147.8702  137.2156 C   0  0  0  0  0  0  0  0  0  0  0  0
  128.5698  146.3362  136.0553 O   0  0  0  0  0  0  0  0  0  0  0  0
  127.9059  146.3004  134.8065 C   0  0  2  0  0  0  0  0  0  0  0  0
  128.2166  147.5628  134.1173 C   0  0  0  0  0  0  0  0  0  0  0  0
  129.3371  148.4872  134.4417 C   0  0  0  0  0  0  0  0  0  0  0  0
  127.4715  147.8832  133.1684 O   0  0  0  0  0  0  0  0  0  0  0  0
  128.3018  145.0827  134.0559 C   0  0  2  0  0  0  0  0  0  0  0  0
  128.5670  145.2472  132.6091 C   0  0  0  0  0  0  0  0  0  0  0  0
  129.4562  144.3454  134.7347 C   0  0  0  0  0  0  0  0  0  0  0  0
  129.6511  142.9725  134.1839 C   0  0  0  0  0  0  0  0  0  0  0  0
  128.4237  142.1694  133.9890 C   0  0  1  0  0  0  0  0  0  0  0  0
  127.2475  142.9915  133.4393 C   0  0  1  0  0  0  0  0  0  0  0  0
  126.0571  142.0567  133.4594 C   0  0  0  0  0  0  0  0  0  0  0  0
  126.2268  141.0751  132.3431 C   0  0  0  0  0  0  0  0  0  0  0  0
  127.4907  140.3237  132.5959 C   0  0  0  0  0  0  0  0  0  0  0  0
  127.5461  139.0369  132.3085 C   0  0  0  0  0  0  0  0  0  0  0  0
  128.7266  138.2164  132.5164 C   0  0  0  0  0  0  0  0  0  0  0  0
  128.7719  137.0279  132.0571 O   0  0  0  0  0  0  0  0  0  0  0  0
  129.8788  138.7453  133.2564 C   0  0  0  0  0  0  0  0  0  0  0  0
  129.4662  139.9733  134.0560 C   0  0  0  0  0  0  0  0  0  0  0  0
  128.7059  140.9608  133.1625 C   0  0  2  0  0  0  0  0  0  0  0  0
  129.6289  141.2558  131.9942 C   0  0  0  0  0  0  0  0  0  0  0  0
  128.0249  145.8491  138.2515 C   0  0  0  0  0  0  0  0  0  0  0  0
  127.1857  145.1901  139.1274 C   0  0  0  0  0  0  0  0  0  0  0  0
  127.6977  144.6784  140.3214 C   0  0  0  0  0  0  0  0  0  0  0  0
  129.0257  144.8077  140.6632 C   0  0  0  0  0  0  0  0  0  0  0  0
  129.8615  145.4694  139.7806 C   0  0  0  0  0  0  0  0  0  0  0  0
  129.3491  145.9652  138.6165 C   0  0  0  0  0  0  0  0  0  0  0  0
  1  2  1  6
  3  2  1  6
  3  4  1  0
  4  5  1  0
  5  6  1  1
  5  7  1  0
  7  8  1  0
  8  9  1  6
  9 10  1  0
  9 11  2  0
  8 12  1  0
 12 13  1  6
 12 14  1  0
 14 15  1  0
 16 15  1  6
 16 17  1  0
 17 18  1  1
 18 19  1  0
 19 20  1  0
 20 21  2  0
 21 22  1  0
 22 23  2  0
 22 24  1  0
 24 25  1  0
 25 26  1  0
 26 27  1  6
  5 28  1  0
 28 29  2  0
 29 30  1  0
 30 31  2  0
 31 32  1  0
 32 33  2  0
 12  1  1  0
 26 16  1  0
 33 28  1  0
 17  1  1  0
 26 20  1  0
  8  3  1  0
M  END
$$$$
