
     RDKit          3D

 33 38  0  0  0  0  0  0  0  0999 V2000
  147.8816  168.2453  131.4030 C   0  0  2  0  0  0  0  0  0  0  0  0
  148.6621  169.3373  131.9980 C   0  0  0  0  0  0  0  0  0  0  0  0
  147.5303  170.3374  132.2972 C   0  0  1  0  0  0  0  0  0  0  0  0
  146.9920  170.8237  131.1176 O   0  0  0  0  0  0  0  0  0  0  0  0
  145.6581  170.9528  131.4102 C   0  0  2  0  0  0  0  0  0  0  0  0
  145.4999  172.2102  132.2734 C   0  0  0  0  0  0  0  0  0  0  0  0
  145.2582  169.8291  132.0906 O   0  0  0  0  0  0  0  0  0  0  0  0
  146.4161  169.4262  132.7967 C   0  0  2  0  0  0  0  0  0  0  0  0
  146.1421  169.6343  134.2275 C   0  0  0  0  0  0  0  0  0  0  0  0
  144.8683  169.3229  134.9315 C   0  0  0  0  0  0  0  0  0  0  0  0
  147.0690  170.1122  134.9134 O   0  0  0  0  0  0  0  0  0  0  0  0
  146.7673  168.0289  132.4404 C   0  0  2  0  0  0  0  0  0  0  0  0
  147.1859  167.1424  133.5492 C   0  0  0  0  0  0  0  0  0  0  0  0
  145.6763  167.3636  131.6014 C   0  0  0  0  0  0  0  0  0  0  0  0
  146.1434  166.0941  130.9717 C   0  0  0  0  0  0  0  0  0  0  0  0
  147.4811  166.1345  130.3407 C   0  0  1  0  0  0  0  0  0  0  0  0
  148.5065  166.9391  131.1548 C   0  0  1  0  0  0  0  0  0  0  0  0
  149.7469  167.0051  130.2896 C   0  0  0  0  0  0  0  0  0  0  0  0
  150.3975  165.6582  130.3185 C   0  0  0  0  0  0  0  0  0  0  0  0
  149.4202  164.6768  129.7638 C   0  0  0  0  0  0  0  0  0  0  0  0
  149.8563  163.6882  129.0061 C   0  0  0  0  0  0  0  0  0  0  0  0
  148.9889  162.6821  128.4186 C   0  0  0  0  0  0  0  0  0  0  0  0
  149.4883  161.6586  127.8456 O   0  0  0  0  0  0  0  0  0  0  0  0
  147.5298  162.8321  128.4779 C   0  0  0  0  0  0  0  0  0  0  0  0
  147.1664  164.2732  128.8075 C   0  0  0  0  0  0  0  0  0  0  0  0
  147.9614  164.7584  130.0257 C   0  0  2  0  0  0  0  0  0  0  0  0
  147.6613  163.7678  131.1359 C   0  0  0  0  0  0  0  0  0  0  0  0
  144.8060  171.1040  130.2125 C   0  0  0  0  0  0  0  0  0  0  0  0
  143.4283  171.0375  130.2697 C   0  0  0  0  0  0  0  0  0  0  0  0
  142.6804  171.1886  129.1002 C   0  0  0  0  0  0  0  0  0  0  0  0
  143.2727  171.4042  127.8756 C   0  0  0  0  0  0  0  0  0  0  0  0
  144.6543  171.4698  127.8253 C   0  0  0  0  0  0  0  0  0  0  0  0
  145.3743  171.3205  128.9754 C   0  0  0  0  0  0  0  0  0  0  0  0
  1  2  1  1
  3  2  1  6
  3  4  1  0
  4  5  1  0
  5  6  1  1
  5  7  1  0
  7  8  1  0
  8  9  1  1
  9 10  1  0
  9 11  2  0
  8 12  1  0
 12 13  1  1
 12 14  1  0
 14 15  1  0
 16 15  1  1
 16 17  1  0
 17 18  1  6
 18 19  1  0
 19 20  1  0
 20 21  2  0
 21 22  1  0
 22 23  2  0
 22 24  1  0
 24 25  1  0
 25 26  1  0
 26 27  1  1
  5 28  1  0
 28 29  2  0
 29 30  1  0
 30 31  2  0
 31 32  1  0
 32 33  2  0
 12  1  1  0
 26 16  1  0
 33 28  1  0
 17  1  1  0
 26 20  1  0
  8  3  1  0
M  END
$$$$
