
     RDKit          3D

 33 38  0  0  0  0  0  0  0  0999 V2000
  186.8279  139.8541  127.0904 C   0  0  2  0  0  0  0  0  0  0  0  0
  185.8701  139.0981  126.2738 C   0  0  0  0  0  0  0  0  0  0  0  0
  184.5489  139.6057  126.8801 C   0  0  1  0  0  0  0  0  0  0  0  0
  184.4113  139.1552  128.1823 O   0  0  0  0  0  0  0  0  0  0  0  0
  183.7993  140.2067  128.8160 C   0  0  2  0  0  0  0  0  0  0  0  0
  182.3217  140.1885  128.4066 C   0  0  0  0  0  0  0  0  0  0  0  0
  184.4132  141.3664  128.4114 O   0  0  0  0  0  0  0  0  0  0  0  0
  184.8367  141.0869  127.0907 C   0  0  2  0  0  0  0  0  0  0  0  0
  184.0329  141.9314  126.1929 C   0  0  0  0  0  0  0  0  0  0  0  0
  183.9135  143.4137  126.2555 C   0  0  0  0  0  0  0  0  0  0  0  0
  183.3967  141.3470  125.2919 O   0  0  0  0  0  0  0  0  0  0  0  0
  186.3017  141.2942  126.9730 C   0  0  2  0  0  0  0  0  0  0  0  0
  186.7830  141.9787  125.7522 C   0  0  0  0  0  0  0  0  0  0  0  0
  186.8866  141.9496  128.2242 C   0  0  0  0  0  0  0  0  0  0  0  0
  188.3762  141.8725  128.2581 C   0  0  0  0  0  0  0  0  0  0  0  0
  188.9684  140.5642  127.9018 C   0  0  1  0  0  0  0  0  0  0  0  0
  188.2514  139.8787  126.7281 C   0  0  1  0  0  0  0  0  0  0  0  0
  188.8814  138.5068  126.6157 C   0  0  0  0  0  0  0  0  0  0  0  0
  190.2433  138.6759  126.0199 C   0  0  0  0  0  0  0  0  0  0  0  0
  191.0315  139.5432  126.9432 C   0  0  0  0  0  0  0  0  0  0  0  0
  192.3137  139.2922  127.1288 C   0  0  0  0  0  0  0  0  0  0  0  0
  193.1680  140.0749  128.0049 C   0  0  0  0  0  0  0  0  0  0  0  0
  194.4294  139.8904  128.0049 O   0  0  0  0  0  0  0  0  0  0  0  0
  192.5895  141.0854  128.8988 C   0  0  0  0  0  0  0  0  0  0  0  0
  191.0927  140.8528  129.0500 C   0  0  0  0  0  0  0  0  0  0  0  0
  190.4365  140.6904  127.6735 C   0  0  2  0  0  0  0  0  0  0  0  0
  190.7999  141.9403  126.8928 C   0  0  0  0  0  0  0  0  0  0  0  0
  183.8718  140.1270  130.2896 C   0  0  0  0  0  0  0  0  0  0  0  0
  184.4034  139.0360  130.9478 C   0  0  0  0  0  0  0  0  0  0  0  0
  184.4425  139.0231  132.3435 C   0  0  0  0  0  0  0  0  0  0  0  0
  183.9646  140.0710  133.0987 C   0  0  0  0  0  0  0  0  0  0  0  0
  183.4330  141.1616  132.4326 C   0  0  0  0  0  0  0  0  0  0  0  0
  183.4004  141.1624  131.0679 C   0  0  0  0  0  0  0  0  0  0  0  0
  1  2  1  6
  3  2  1  1
  3  4  1  0
  4  5  1  0
  5  6  1  1
  5  7  1  0
  7  8  1  0
  8  9  1  6
  9 10  1  0
  9 11  2  0
  8 12  1  0
 12 13  1  6
 12 14  1  0
 14 15  1  0
 16 15  1  6
 16 17  1  0
 17 18  1  1
 18 19  1  0
 19 20  1  0
 20 21  2  0
 21 22  1  0
 22 23  2  0
 22 24  1  0
 24 25  1  0
 25 26  1  0
 26 27  1  6
  5 28  1  0
 28 29  2  0
 29 30  1  0
 30 31  2  0
 31 32  1  0
 32 33  2  0
 12  1  1  0
 26 16  1  0
 33 28  1  0
 17  1  1  0
 26 20  1  0
  8  3  1  0
M  END
$$$$
