
     RDKit          3D

 33 38  0  0  0  0  0  0  0  0999 V2000
  192.6345  160.0759  122.0243 C   0  0  2  0  0  0  0  0  0  0  0  0
  193.5188  161.2406  122.1557 C   0  0  0  0  0  0  0  0  0  0  0  0
  194.0153  161.3594  120.7031 C   0  0  1  0  0  0  0  0  0  0  0  0
  194.8183  160.2791  120.3779 O   0  0  0  0  0  0  0  0  0  0  0  0
  194.5071  160.0401  119.0634 C   0  0  2  0  0  0  0  0  0  0  0  0
  195.2116  161.1137  118.2254 C   0  0  0  0  0  0  0  0  0  0  0  0
  193.1431  160.1174  118.9254 O   0  0  0  0  0  0  0  0  0  0  0  0
  192.7529  161.0623  119.9035 C   0  0  2  0  0  0  0  0  0  0  0  0
  192.2704  162.2521  119.1845 C   0  0  0  0  0  0  0  0  0  0  0  0
  191.9206  162.3225  117.7395 C   0  0  0  0  0  0  0  0  0  0  0  0
  192.1383  163.2977  119.8533 O   0  0  0  0  0  0  0  0  0  0  0  0
  191.7554  160.4593  120.8223 C   0  0  2  0  0  0  0  0  0  0  0  0
  190.6038  161.3061  121.2060 C   0  0  0  0  0  0  0  0  0  0  0  0
  191.2786  159.0933  120.3283 C   0  0  0  0  0  0  0  0  0  0  0  0
  190.5348  158.3406  121.3801 C   0  0  0  0  0  0  0  0  0  0  0  0
  191.1384  158.3419  122.7310 C   0  0  1  0  0  0  0  0  0  0  0  0
  191.7332  159.7036  123.1231 C   0  0  1  0  0  0  0  0  0  0  0  0
  192.4361  159.4722  124.4437 C   0  0  0  0  0  0  0  0  0  0  0  0
  191.3879  159.3365  125.5025 C   0  0  0  0  0  0  0  0  0  0  0  0
  190.5394  158.1626  125.1449 C   0  0  0  0  0  0  0  0  0  0  0  0
  190.0892  157.3746  126.1030 C   0  0  0  0  0  0  0  0  0  0  0  0
  189.2575  156.2085  125.8612 C   0  0  0  0  0  0  0  0  0  0  0  0
  188.7132  155.5942  126.8366 O   0  0  0  0  0  0  0  0  0  0  0  0
  189.0349  155.7250  124.4931 C   0  0  0  0  0  0  0  0  0  0  0  0
  190.0794  156.3138  123.5551 C   0  0  0  0  0  0  0  0  0  0  0  0
  190.1712  157.8327  123.7452 C   0  0  2  0  0  0  0  0  0  0  0  0
  188.7654  158.3619  123.5275 C   0  0  0  0  0  0  0  0  0  0  0  0
  194.9525  158.7146  118.5860 C   0  0  0  0  0  0  0  0  0  0  0  0
  195.9570  158.0014  119.2092 C   0  0  0  0  0  0  0  0  0  0  0  0
  196.3312  156.7532  118.7074 C   0  0  0  0  0  0  0  0  0  0  0  0
  195.7285  156.1991  117.5999 C   0  0  0  0  0  0  0  0  0  0  0  0
  194.7223  156.9194  116.9799 C   0  0  0  0  0  0  0  0  0  0  0  0
  194.3654  158.1385  117.4799 C   0  0  0  0  0  0  0  0  0  0  0  0
  1  2  1  1
  3  2  1  1
  3  4  1  0
  4  5  1  0
  5  6  1  6
  5  7  1  0
  7  8  1  0
  8  9  1  6
  9 10  1  0
  9 11  2  0
  8 12  1  0
 12 13  1  1
 12 14  1  0
 14 15  1  0
 16 15  1  6
 16 17  1  0
 17 18  1  1
 18 19  1  0
 19 20  1  0
 20 21  2  0
 21 22  1  0
 22 23  2  0
 22 24  1  0
 24 25  1  0
 25 26  1  0
 26 27  1  6
  5 28  1  0
 28 29  2  0
 29 30  1  0
 30 31  2  0
 31 32  1  0
 32 33  2  0
 12  1  1  0
 26 16  1  0
 33 28  1  0
 17  1  1  0
 26 20  1  0
  8  3  1  0
M  END
$$$$
