
     RDKit          3D

 33 38  0  0  0  0  0  0  0  0999 V2000
  126.5747  142.7330  135.0272 C   0  0  2  0  0  0  0  0  0  0  0  0
  127.2017  143.7072  135.9292 C   0  0  0  0  0  0  0  0  0  0  0  0
  128.5495  143.9018  135.2107 C   0  0  1  0  0  0  0  0  0  0  0  0
  129.3053  142.7436  135.2811 O   0  0  0  0  0  0  0  0  0  0  0  0
  129.9441  142.7106  134.0676 C   0  0  2  0  0  0  0  0  0  0  0  0
  131.0836  143.7352  134.1239 C   0  0  0  0  0  0  0  0  0  0  0  0
  129.0314  143.0349  133.0942 O   0  0  0  0  0  0  0  0  0  0  0  0
  128.1361  143.9166  133.7444 C   0  0  2  0  0  0  0  0  0  0  0  0
  128.3235  145.2445  133.1387 C   0  0  0  0  0  0  0  0  0  0  0  0
  128.9986  146.4104  133.7713 C   0  0  0  0  0  0  0  0  0  0  0  0
  127.8778  145.4032  131.9836 O   0  0  0  0  0  0  0  0  0  0  0  0
  126.7504  143.3936  133.6497 C   0  0  2  0  0  0  0  0  0  0  0  0
  125.6852  144.3763  133.3494 C   0  0  0  0  0  0  0  0  0  0  0  0
  126.6576  142.1936  132.7072 C   0  0  0  0  0  0  0  0  0  0  0  0
  125.3625  141.4657  132.8455 C   0  0  0  0  0  0  0  0  0  0  0  0
  124.9032  141.2121  134.2290 C   0  0  1  0  0  0  0  0  0  0  0  0
  125.1514  142.3992  135.1727 C   0  0  1  0  0  0  0  0  0  0  0  0
  124.7737  141.9041  136.5525 C   0  0  0  0  0  0  0  0  0  0  0  0
  123.2809  141.8314  136.6201 C   0  0  0  0  0  0  0  0  0  0  0  0
  122.8316  140.8677  135.5735 C   0  0  0  0  0  0  0  0  0  0  0  0
  121.8148  140.0656  135.8273 C   0  0  0  0  0  0  0  0  0  0  0  0
  121.3008  139.0935  134.8782 C   0  0  0  0  0  0  0  0  0  0  0  0
  120.2117  138.4756  135.1177 O   0  0  0  0  0  0  0  0  0  0  0  0
  122.0283  138.8121  133.6346 C   0  0  0  0  0  0  0  0  0  0  0  0
  123.4610  139.3152  133.7430 C   0  0  0  0  0  0  0  0  0  0  0  0
  123.4807  140.7649  134.2426 C   0  0  2  0  0  0  0  0  0  0  0  0
  122.6142  141.5477  133.2729 C   0  0  0  0  0  0  0  0  0  0  0  0
  130.5247  141.3907  133.7452 C   0  0  0  0  0  0  0  0  0  0  0  0
  130.4742  140.8485  132.4766 C   0  0  0  0  0  0  0  0  0  0  0  0
  131.0424  139.5955  132.2379 C   0  0  0  0  0  0  0  0  0  0  0  0
  131.6596  138.8703  133.2330 C   0  0  0  0  0  0  0  0  0  0  0  0
  131.7067  139.4196  134.5025 C   0  0  0  0  0  0  0  0  0  0  0  0
  131.1476  140.6453  134.7233 C   0  0  0  0  0  0  0  0  0  0  0  0
  1  2  1  1
  3  2  1  1
  3  4  1  0
  4  5  1  0
  5  6  1  1
  5  7  1  0
  7  8  1  0
  8  9  1  6
  9 10  1  0
  9 11  2  0
  8 12  1  0
 12 13  1  6
 12 14  1  0
 14 15  1  0
 16 15  1  6
 16 17  1  0
 17 18  1  1
 18 19  1  0
 19 20  1  0
 20 21  2  0
 21 22  1  0
 22 23  2  0
 22 24  1  0
 24 25  1  0
 25 26  1  0
 26 27  1  6
  5 28  1  0
 28 29  2  0
 29 30  1  0
 30 31  2  0
 31 32  1  0
 32 33  2  0
 12  1  1  0
 26 16  1  0
 33 28  1  0
 17  1  1  0
 26 20  1  0
  8  3  1  0
M  END
$$$$
