
     RDKit          3D

 33 38  0  0  0  0  0  0  0  0999 V2000
  165.0258  158.3601  125.6622 C   0  0  2  0  0  0  0  0  0  0  0  0
  163.5623  158.3439  125.5455 C   0  0  0  0  0  0  0  0  0  0  0  0
  163.2639  156.9670  126.1667 C   0  0  1  0  0  0  0  0  0  0  0  0
  163.7438  155.9558  125.3514 O   0  0  0  0  0  0  0  0  0  0  0  0
  164.1792  155.0108  126.2455 C   0  0  2  0  0  0  0  0  0  0  0  0
  162.9384  154.2968  126.7950 C   0  0  0  0  0  0  0  0  0  0  0  0
  164.8674  155.6525  127.2456 O   0  0  0  0  0  0  0  0  0  0  0  0
  164.2424  156.9187  127.3335 C   0  0  2  0  0  0  0  0  0  0  0  0
  163.5477  156.9668  128.6298 C   0  0  0  0  0  0  0  0  0  0  0  0
  163.7350  156.0187  129.7617 C   0  0  0  0  0  0  0  0  0  0  0  0
  162.7287  157.8943  128.7943 O   0  0  0  0  0  0  0  0  0  0  0  0
  165.2461  157.9947  127.1396 C   0  0  2  0  0  0  0  0  0  0  0  0
  165.1490  159.1676  128.0369 C   0  0  0  0  0  0  0  0  0  0  0  0
  166.6729  157.4463  127.1224 C   0  0  0  0  0  0  0  0  0  0  0  0
  167.6565  158.4469  126.6148 C   0  0  0  0  0  0  0  0  0  0  0  0
  167.2579  159.1930  125.4008 C   0  0  1  0  0  0  0  0  0  0  0  0
  165.7752  159.5967  125.4021 C   0  0  1  0  0  0  0  0  0  0  0  0
  165.5184  160.1956  124.0358 C   0  0  0  0  0  0  0  0  0  0  0  0
  166.1523  161.5504  124.0034 C   0  0  0  0  0  0  0  0  0  0  0  0
  167.6152  161.3660  124.2310 C   0  0  0  0  0  0  0  0  0  0  0  0
  168.4722  162.1254  123.5749 C   0  0  0  0  0  0  0  0  0  0  0  0
  169.9136  162.0258  123.7245 C   0  0  0  0  0  0  0  0  0  0  0  0
  170.6761  162.9015  123.1983 O   0  0  0  0  0  0  0  0  0  0  0  0
  170.5076  160.9174  124.4819 C   0  0  0  0  0  0  0  0  0  0  0  0
  169.4911  159.7969  124.6507 C   0  0  0  0  0  0  0  0  0  0  0  0
  168.1620  160.3566  125.1721 C   0  0  2  0  0  0  0  0  0  0  0  0
  168.4993  161.0940  126.4551 C   0  0  0  0  0  0  0  0  0  0  0  0
  165.0671  153.9959  125.6415 C   0  0  0  0  0  0  0  0  0  0  0  0
  165.2057  153.8507  124.2756 C   0  0  0  0  0  0  0  0  0  0  0  0
  166.0619  152.8712  123.7685 C   0  0  0  0  0  0  0  0  0  0  0  0
  166.7831  152.0332  124.5899 C   0  0  0  0  0  0  0  0  0  0  0  0
  166.6396  152.1841  125.9582 C   0  0  0  0  0  0  0  0  0  0  0  0
  165.7994  153.1453  126.4417 C   0  0  0  0  0  0  0  0  0  0  0  0
  1  2  1  1
  3  2  1  6
  3  4  1  0
  4  5  1  0
  5  6  1  1
  5  7  1  0
  7  8  1  0
  8  9  1  1
  9 10  1  0
  9 11  2  0
  8 12  1  0
 12 13  1  1
 12 14  1  0
 14 15  1  0
 16 15  1  1
 16 17  1  0
 17 18  1  6
 18 19  1  0
 19 20  1  0
 20 21  2  0
 21 22  1  0
 22 23  2  0
 22 24  1  0
 24 25  1  0
 25 26  1  0
 26 27  1  1
  5 28  1  0
 28 29  2  0
 29 30  1  0
 30 31  2  0
 31 32  1  0
 32 33  2  0
 12  1  1  0
 26 16  1  0
 33 28  1  0
 17  1  1  0
 26 20  1  0
  8  3  1  0
M  END
$$$$
