
     RDKit          3D

 33 38  0  0  0  0  0  0  0  0999 V2000
  171.6377  146.5771  123.7377 C   0  0  2  0  0  0  0  0  0  0  0  0
  170.6684  145.5046  123.9943 C   0  0  0  0  0  0  0  0  0  0  0  0
  170.0234  146.0365  125.2872 C   0  0  1  0  0  0  0  0  0  0  0  0
  170.9367  146.0111  126.3279 O   0  0  0  0  0  0  0  0  0  0  0  0
  170.6279  147.1389  127.0451 C   0  0  2  0  0  0  0  0  0  0  0  0
  169.3555  146.8363  127.8456 C   0  0  0  0  0  0  0  0  0  0  0  0
  170.4250  148.1679  126.1588 O   0  0  0  0  0  0  0  0  0  0  0  0
  169.9135  147.5296  125.0044 C   0  0  2  0  0  0  0  0  0  0  0  0
  168.5123  147.9557  124.8619 C   0  0  0  0  0  0  0  0  0  0  0  0
  167.8654  149.0955  125.5672 C   0  0  0  0  0  0  0  0  0  0  0  0
  167.8035  147.3006  124.0703 O   0  0  0  0  0  0  0  0  0  0  0  0
  170.7677  147.8416  123.8315 C   0  0  2  0  0  0  0  0  0  0  0  0
  170.0719  148.1496  122.5620 C   0  0  0  0  0  0  0  0  0  0  0  0
  171.8046  148.9182  124.1523 C   0  0  0  0  0  0  0  0  0  0  0  0
  172.8628  149.0131  123.1047 C   0  0  0  0  0  0  0  0  0  0  0  0
  173.4211  147.7292  122.6255 C   0  0  1  0  0  0  0  0  0  0  0  0
  172.3553  146.6351  122.4570 C   0  0  1  0  0  0  0  0  0  0  0  0
  173.1215  145.3728  122.1236 C   0  0  0  0  0  0  0  0  0  0  0  0
  173.5974  145.4862  120.7097 C   0  0  0  0  0  0  0  0  0  0  0  0
  174.4893  146.6797  120.6318 C   0  0  0  0  0  0  0  0  0  0  0  0
  175.5603  146.6370  119.8620 C   0  0  0  0  0  0  0  0  0  0  0  0
  176.4910  147.7427  119.7166 C   0  0  0  0  0  0  0  0  0  0  0  0
  177.4037  147.7016  118.8275 O   0  0  0  0  0  0  0  0  0  0  0  0
  176.3914  148.9181  120.5905 C   0  0  0  0  0  0  0  0  0  0  0  0
  175.5456  148.5893  121.8127 C   0  0  0  0  0  0  0  0  0  0  0  0
  174.2279  147.9301  121.3877 C   0  0  2  0  0  0  0  0  0  0  0  0
  173.5759  148.8983  120.4174 C   0  0  0  0  0  0  0  0  0  0  0  0
  171.6871  147.5394  127.9944 C   0  0  0  0  0  0  0  0  0  0  0  0
  172.3184  146.6356  128.8253 C   0  0  0  0  0  0  0  0  0  0  0  0
  173.3121  147.0792  129.7003 C   0  0  0  0  0  0  0  0  0  0  0  0
  173.6915  148.4015  129.7669 C   0  0  0  0  0  0  0  0  0  0  0  0
  173.0546  149.3024  128.9312 C   0  0  0  0  0  0  0  0  0  0  0  0
  172.0847  148.8565  128.0802 C   0  0  0  0  0  0  0  0  0  0  0  0
  1  2  1  6
  3  2  1  6
  3  4  1  0
  4  5  1  0
  5  6  1  1
  5  7  1  0
  7  8  1  0
  8  9  1  6
  9 10  1  0
  9 11  2  0
  8 12  1  0
 12 13  1  6
 12 14  1  0
 14 15  1  0
 16 15  1  6
 16 17  1  0
 17 18  1  1
 18 19  1  0
 19 20  1  0
 20 21  2  0
 21 22  1  0
 22 23  2  0
 22 24  1  0
 24 25  1  0
 25 26  1  0
 26 27  1  6
  5 28  1  0
 28 29  2  0
 29 30  1  0
 30 31  2  0
 31 32  1  0
 32 33  2  0
 12  1  1  0
 26 16  1  0
 33 28  1  0
 17  1  1  0
 26 20  1  0
  8  3  1  0
M  END
$$$$
