
     RDKit          3D

 33 38  0  0  0  0  0  0  0  0999 V2000
  142.1205  150.3325  120.2500 C   0  0  2  0  0  0  0  0  0  0  0  0
  143.2119  150.2563  119.2708 C   0  0  0  0  0  0  0  0  0  0  0  0
  143.8879  151.6163  119.5237 C   0  0  1  0  0  0  0  0  0  0  0  0
  143.0581  152.6496  119.1220 O   0  0  0  0  0  0  0  0  0  0  0  0
  143.2979  153.6264  120.0548 C   0  0  2  0  0  0  0  0  0  0  0  0
  144.6483  154.2655  119.7094 C   0  0  0  0  0  0  0  0  0  0  0  0
  143.3295  153.0363  121.2943 O   0  0  0  0  0  0  0  0  0  0  0  0
  143.8216  151.7343  121.0412 C   0  0  2  0  0  0  0  0  0  0  0  0
  145.1573  151.6522  121.6532 C   0  0  0  0  0  0  0  0  0  0  0  0
  145.9857  152.8014  122.1096 C   0  0  0  0  0  0  0  0  0  0  0  0
  145.6356  150.5096  121.8073 O   0  0  0  0  0  0  0  0  0  0  0  0
  142.8587  150.7217  121.5416 C   0  0  2  0  0  0  0  0  0  0  0  0
  143.4272  149.5515  122.2474 C   0  0  0  0  0  0  0  0  0  0  0  0
  141.7408  151.3580  122.3676 C   0  0  0  0  0  0  0  0  0  0  0  0
  140.6070  150.4171  122.6032 C   0  0  0  0  0  0  0  0  0  0  0  0
  140.1529  149.6387  121.4297 C   0  0  1  0  0  0  0  0  0  0  0  0
  141.3121  149.1432  120.5509 C   0  0  1  0  0  0  0  0  0  0  0  0
  140.6596  148.5195  119.3357 C   0  0  0  0  0  0  0  0  0  0  0  0
  140.0757  147.2067  119.7528 C   0  0  0  0  0  0  0  0  0  0  0  0
  139.0612  147.4839  120.8111 C   0  0  0  0  0  0  0  0  0  0  0  0
  137.9487  146.7747  120.8415 C   0  0  0  0  0  0  0  0  0  0  0  0
  136.9001  146.9653  121.8284 C   0  0  0  0  0  0  0  0  0  0  0  0
  135.9360  146.1352  121.9100 O   0  0  0  0  0  0  0  0  0  0  0  0
  136.9384  148.1141  122.7416 C   0  0  0  0  0  0  0  0  0  0  0  0
  137.8982  149.1702  122.2114 C   0  0  0  0  0  0  0  0  0  0  0  0
  139.2440  148.5323  121.8459 C   0  0  2  0  0  0  0  0  0  0  0  0
  139.7215  147.8268  123.1021 C   0  0  0  0  0  0  0  0  0  0  0  0
  142.2727  154.6904  120.0678 C   0  0  0  0  0  0  0  0  0  0  0  0
  142.0657  155.5336  118.9944 C   0  0  0  0  0  0  0  0  0  0  0  0
  141.0798  156.5195  119.0707 C   0  0  0  0  0  0  0  0  0  0  0  0
  140.2957  156.6851  120.1908 C   0  0  0  0  0  0  0  0  0  0  0  0
  140.5084  155.8365  121.2633 C   0  0  0  0  0  0  0  0  0  0  0  0
  141.4751  154.8766  121.1766 C   0  0  0  0  0  0  0  0  0  0  0  0
  1  2  1  6
  3  2  1  1
  3  4  1  0
  4  5  1  0
  5  6  1  6
  5  7  1  0
  7  8  1  0
  8  9  1  1
  9 10  1  0
  9 11  2  0
  8 12  1  0
 12 13  1  1
 12 14  1  0
 14 15  1  0
 16 15  1  1
 16 17  1  0
 17 18  1  6
 18 19  1  0
 19 20  1  0
 20 21  2  0
 21 22  1  0
 22 23  2  0
 22 24  1  0
 24 25  1  0
 25 26  1  0
 26 27  1  1
  5 28  1  0
 28 29  2  0
 29 30  1  0
 30 31  2  0
 31 32  1  0
 32 33  2  0
 12  1  1  0
 26 16  1  0
 33 28  1  0
 17  1  1  0
 26 20  1  0
  8  3  1  0
M  END
$$$$
