
     RDKit          3D

 33 38  0  0  0  0  0  0  0  0999 V2000
  128.1707  148.1419  135.8665 C   0  0  2  0  0  0  0  0  0  0  0  0
  127.7798  148.9138  137.0527 C   0  0  0  0  0  0  0  0  0  0  0  0
  127.6240  150.3086  136.4197 C   0  0  1  0  0  0  0  0  0  0  0  0
  128.8553  150.7935  136.0119 O   0  0  0  0  0  0  0  0  0  0  0  0
  128.5589  151.4748  134.8587 C   0  0  2  0  0  0  0  0  0  0  0  0
  127.9102  152.8028  135.2673 C   0  0  0  0  0  0  0  0  0  0  0  0
  127.6950  150.7067  134.1175 O   0  0  0  0  0  0  0  0  0  0  0  0
  126.9578  149.9877  135.0877 C   0  0  2  0  0  0  0  0  0  0  0  0
  125.5748  150.4878  135.0354 C   0  0  0  0  0  0  0  0  0  0  0  0
  125.0604  151.5533  134.1325 C   0  0  0  0  0  0  0  0  0  0  0  0
  124.7577  149.9635  135.8198 O   0  0  0  0  0  0  0  0  0  0  0  0
  127.0879  148.5291  134.8456 C   0  0  2  0  0  0  0  0  0  0  0  0
  125.8582  147.7172  134.9841 C   0  0  0  0  0  0  0  0  0  0  0  0
  127.7827  148.2320  133.5167 C   0  0  0  0  0  0  0  0  0  0  0  0
  128.2058  146.8054  133.4072 C   0  0  0  0  0  0  0  0  0  0  0  0
  128.8639  146.2286  134.6004 C   0  0  1  0  0  0  0  0  0  0  0  0
  128.2151  146.6745  135.9202 C   0  0  1  0  0  0  0  0  0  0  0  0
  129.1062  146.1256  137.0139 C   0  0  0  0  0  0  0  0  0  0  0  0
  128.8711  144.6505  137.0988 C   0  0  0  0  0  0  0  0  0  0  0  0
  129.2361  144.0621  135.7774 C   0  0  0  0  0  0  0  0  0  0  0  0
  129.8309  142.8847  135.7362 C   0  0  0  0  0  0  0  0  0  0  0  0
  130.2266  142.2260  134.5036 C   0  0  0  0  0  0  0  0  0  0  0  0
  130.6350  141.0185  134.5229 O   0  0  0  0  0  0  0  0  0  0  0  0
  130.1610  142.9421  133.2238 C   0  0  0  0  0  0  0  0  0  0  0  0
  130.0642  144.4414  133.4692 C   0  0  0  0  0  0  0  0  0  0  0  0
  128.9595  144.7447  134.4886 C   0  0  2  0  0  0  0  0  0  0  0  0
  127.6957  144.1197  133.9263 C   0  0  0  0  0  0  0  0  0  0  0  0
  129.7464  151.7753  134.0323 C   0  0  0  0  0  0  0  0  0  0  0  0
  129.7760  152.8187  133.1288 C   0  0  0  0  0  0  0  0  0  0  0  0
  130.9303  153.0494  132.3778 C   0  0  0  0  0  0  0  0  0  0  0  0
  132.0554  152.2653  132.5057 C   0  0  0  0  0  0  0  0  0  0  0  0
  132.0190  151.2210  133.4132 C   0  0  0  0  0  0  0  0  0  0  0  0
  130.8847  151.0056  134.1416 C   0  0  0  0  0  0  0  0  0  0  0  0
  1  2  1  1
  3  2  1  1
  3  4  1  0
  4  5  1  0
  5  6  1  1
  5  7  1  0
  7  8  1  0
  8  9  1  1
  9 10  1  0
  9 11  2  0
  8 12  1  0
 12 13  1  1
 12 14  1  0
 14 15  1  0
 16 15  1  6
 16 17  1  0
 17 18  1  1
 18 19  1  0
 19 20  1  0
 20 21  2  0
 21 22  1  0
 22 23  2  0
 22 24  1  0
 24 25  1  0
 25 26  1  0
 26 27  1  6
  5 28  1  0
 28 29  2  0
 29 30  1  0
 30 31  2  0
 31 32  1  0
 32 33  2  0
 12  1  1  0
 26 16  1  0
 33 28  1  0
 17  1  1  0
 26 20  1  0
  8  3  1  0
M  END
$$$$
