
     RDKit          3D

 33 38  0  0  0  0  0  0  0  0999 V2000
  165.8244  150.2446  126.4318 C   0  0  2  0  0  0  0  0  0  0  0  0
  165.0379  149.0680  126.0408 C   0  0  0  0  0  0  0  0  0  0  0  0
  166.0407  147.9531  126.3899 C   0  0  1  0  0  0  0  0  0  0  0  0
  167.1347  148.0056  125.5425 O   0  0  0  0  0  0  0  0  0  0  0  0
  168.1807  147.6529  126.3569 C   0  0  2  0  0  0  0  0  0  0  0  0
  168.1129  146.1339  126.5545 C   0  0  0  0  0  0  0  0  0  0  0  0
  168.0368  148.3166  127.5504 O   0  0  0  0  0  0  0  0  0  0  0  0
  166.6365  148.4514  127.7005 C   0  0  2  0  0  0  0  0  0  0  0  0
  166.2415  147.6030  128.8362 C   0  0  0  0  0  0  0  0  0  0  0  0
  167.1571  146.8003  129.6922 C   0  0  0  0  0  0  0  0  0  0  0  0
  165.0240  147.5587  129.1078 O   0  0  0  0  0  0  0  0  0  0  0  0
  166.2783  149.8833  127.8559 C   0  0  2  0  0  0  0  0  0  0  0  0
  165.2590  150.2092  128.8784 C   0  0  0  0  0  0  0  0  0  0  0  0
  167.5155  150.7645  128.0287 C   0  0  0  0  0  0  0  0  0  0  0  0
  167.2036  152.2143  127.8647 C   0  0  0  0  0  0  0  0  0  0  0  0
  166.3383  152.5681  126.7177 C   0  0  1  0  0  0  0  0  0  0  0  0
  165.1917  151.5688  126.4982 C   0  0  1  0  0  0  0  0  0  0  0  0
  164.5242  151.9969  125.2087 C   0  0  0  0  0  0  0  0  0  0  0  0
  163.7337  153.2353  125.4916 C   0  0  0  0  0  0  0  0  0  0  0  0
  164.6901  154.2795  125.9614 C   0  0  0  0  0  0  0  0  0  0  0  0
  164.5086  155.5341  125.5946 C   0  0  0  0  0  0  0  0  0  0  0  0
  165.3808  156.6239  125.9967 C   0  0  0  0  0  0  0  0  0  0  0  0
  165.0527  157.8319  125.7551 O   0  0  0  0  0  0  0  0  0  0  0  0
  166.6476  156.3471  126.6847 C   0  0  0  0  0  0  0  0  0  0  0  0
  167.0357  154.8872  126.4960 C   0  0  0  0  0  0  0  0  0  0  0  0
  165.8517  153.9729  126.8332 C   0  0  2  0  0  0  0  0  0  0  0  0
  165.4416  154.3334  128.2494 C   0  0  0  0  0  0  0  0  0  0  0  0
  169.5042  147.9870  125.7910 C   0  0  0  0  0  0  0  0  0  0  0  0
  169.6621  148.4587  124.5032 C   0  0  0  0  0  0  0  0  0  0  0  0
  170.9412  148.7560  124.0286 C   0  0  0  0  0  0  0  0  0  0  0  0
  172.0663  148.5943  124.8065 C   0  0  0  0  0  0  0  0  0  0  0  0
  171.9009  148.1210  126.0965 C   0  0  0  0  0  0  0  0  0  0  0  0
  170.6453  147.8340  126.5490 C   0  0  0  0  0  0  0  0  0  0  0  0
  1  2  1  1
  3  2  1  6
  3  4  1  0
  4  5  1  0
  5  6  1  1
  5  7  1  0
  7  8  1  0
  8  9  1  1
  9 10  1  0
  9 11  2  0
  8 12  1  0
 12 13  1  1
 12 14  1  0
 14 15  1  0
 16 15  1  1
 16 17  1  0
 17 18  1  6
 18 19  1  0
 19 20  1  0
 20 21  2  0
 21 22  1  0
 22 23  2  0
 22 24  1  0
 24 25  1  0
 25 26  1  0
 26 27  1  1
  5 28  1  0
 28 29  2  0
 29 30  1  0
 30 31  2  0
 31 32  1  0
 32 33  2  0
 12  1  1  0
 26 16  1  0
 33 28  1  0
 17  1  1  0
 26 20  1  0
  8  3  1  0
M  END
$$$$
