
     RDKit          3D

 33 38  0  0  0  0  0  0  0  0999 V2000
  128.5241  147.2426  135.5073 C   0  0  2  0  0  0  0  0  0  0  0  0
  129.0690  147.8578  136.7240 C   0  0  0  0  0  0  0  0  0  0  0  0
  128.5008  149.2812  136.5765 C   0  0  1  0  0  0  0  0  0  0  0  0
  129.0887  149.9263  135.5014 O   0  0  0  0  0  0  0  0  0  0  0  0
  128.0627  150.6761  134.9849 C   0  0  2  0  0  0  0  0  0  0  0  0
  127.8734  151.8867  135.9067 C   0  0  0  0  0  0  0  0  0  0  0  0
  126.9345  149.8939  134.9532 O   0  0  0  0  0  0  0  0  0  0  0  0
  127.0952  149.0166  136.0515 C   0  0  2  0  0  0  0  0  0  0  0  0
  126.0672  149.3736  137.0419 C   0  0  0  0  0  0  0  0  0  0  0  0
  125.3649  150.6818  137.1453 C   0  0  0  0  0  0  0  0  0  0  0  0
  125.7532  148.4926  137.8685 O   0  0  0  0  0  0  0  0  0  0  0  0
  127.0326  147.6077  135.5889 C   0  0  2  0  0  0  0  0  0  0  0  0
  126.2602  146.6636  136.4272 C   0  0  0  0  0  0  0  0  0  0  0  0
  126.5999  147.5072  134.1261 C   0  0  0  0  0  0  0  0  0  0  0  0
  126.8389  146.1481  133.5586 C   0  0  0  0  0  0  0  0  0  0  0  0
  128.1500  145.5354  133.8672 C   0  0  1  0  0  0  0  0  0  0  0  0
  128.6076  145.7889  135.3121 C   0  0  1  0  0  0  0  0  0  0  0  0
  130.0150  145.2373  135.3927 C   0  0  0  0  0  0  0  0  0  0  0  0
  129.9210  143.7442  135.4124 C   0  0  0  0  0  0  0  0  0  0  0  0
  129.2612  143.3203  134.1432 C   0  0  0  0  0  0  0  0  0  0  0  0
  129.6681  142.2196  133.5395 C   0  0  0  0  0  0  0  0  0  0  0  0
  129.0930  141.7212  132.3022 C   0  0  0  0  0  0  0  0  0  0  0  0
  129.4095  140.5657  131.8663 O   0  0  0  0  0  0  0  0  0  0  0  0
  128.1425  142.5410  131.5410 C   0  0  0  0  0  0  0  0  0  0  0  0
  128.2310  143.9934  131.9884 C   0  0  0  0  0  0  0  0  0  0  0  0
  128.1542  144.0860  133.5172 C   0  0  2  0  0  0  0  0  0  0  0  0
  126.8647  143.3878  133.9090 C   0  0  0  0  0  0  0  0  0  0  0  0
  128.3279  151.1723  133.6186 C   0  0  0  0  0  0  0  0  0  0  0  0
  127.3336  151.2963  132.6689 C   0  0  0  0  0  0  0  0  0  0  0  0
  127.6507  151.7720  131.3950 C   0  0  0  0  0  0  0  0  0  0  0  0
  128.9347  152.1271  131.0451 C   0  0  0  0  0  0  0  0  0  0  0  0
  129.9267  152.0003  132.0019 C   0  0  0  0  0  0  0  0  0  0  0  0
  129.6042  151.5341  133.2437 C   0  0  0  0  0  0  0  0  0  0  0  0
  1  2  1  1
  3  2  1  6
  3  4  1  0
  4  5  1  0
  5  6  1  1
  5  7  1  0
  7  8  1  0
  8  9  1  1
  9 10  1  0
  9 11  2  0
  8 12  1  0
 12 13  1  1
 12 14  1  0
 14 15  1  0
 16 15  1  1
 16 17  1  0
 17 18  1  6
 18 19  1  0
 19 20  1  0
 20 21  2  0
 21 22  1  0
 22 23  2  0
 22 24  1  0
 24 25  1  0
 25 26  1  0
 26 27  1  1
  5 28  1  0
 28 29  2  0
 29 30  1  0
 30 31  2  0
 31 32  1  0
 32 33  2  0
 12  1  1  0
 26 16  1  0
 33 28  1  0
 17  1  1  0
 26 20  1  0
  8  3  1  0
M  END
$$$$
