
     RDKit          3D

 33 38  0  0  0  0  0  0  0  0999 V2000
  127.2513  144.5643  133.6748 C   0  0  2  0  0  0  0  0  0  0  0  0
  126.1904  145.5287  133.3583 C   0  0  0  0  0  0  0  0  0  0  0  0
  126.5517  146.6518  134.3477 C   0  0  1  0  0  0  0  0  0  0  0  0
  126.3397  146.2334  135.6506 O   0  0  0  0  0  0  0  0  0  0  0  0
  127.3614  146.8318  136.3433 C   0  0  2  0  0  0  0  0  0  0  0  0
  126.9937  148.3108  136.5116 C   0  0  0  0  0  0  0  0  0  0  0  0
  128.5159  146.6863  135.6142 O   0  0  0  0  0  0  0  0  0  0  0  0
  128.0731  146.6749  134.2705 C   0  0  2  0  0  0  0  0  0  0  0  0
  128.5684  147.9105  133.6434 C   0  0  0  0  0  0  0  0  0  0  0  0
  129.6851  148.7601  134.1398 C   0  0  0  0  0  0  0  0  0  0  0  0
  127.9996  148.2749  132.5938 O   0  0  0  0  0  0  0  0  0  0  0  0
  128.5206  145.4291  133.5993 C   0  0  2  0  0  0  0  0  0  0  0  0
  129.0370  145.5632  132.2188 C   0  0  0  0  0  0  0  0  0  0  0  0
  129.4985  144.6350  134.4654 C   0  0  0  0  0  0  0  0  0  0  0  0
  129.7053  143.2477  133.9568 C   0  0  0  0  0  0  0  0  0  0  0  0
  128.4850  142.5129  133.5562 C   0  0  1  0  0  0  0  0  0  0  0  0
  127.4685  143.3942  132.8135 C   0  0  1  0  0  0  0  0  0  0  0  0
  126.2404  142.5282  132.6311 C   0  0  0  0  0  0  0  0  0  0  0  0
  126.5410  141.5269  131.5608 C   0  0  0  0  0  0  0  0  0  0  0  0
  127.6983  140.7083  132.0258 C   0  0  0  0  0  0  0  0  0  0  0  0
  127.7280  139.4174  131.7530 C   0  0  0  0  0  0  0  0  0  0  0  0
  128.8069  138.5339  132.1596 C   0  0  0  0  0  0  0  0  0  0  0  0
  128.8616  137.3401  131.7156 O   0  0  0  0  0  0  0  0  0  0  0  0
  129.8449  139.0049  133.0847 C   0  0  0  0  0  0  0  0  0  0  0  0
  129.3734  140.2624  133.8014 C   0  0  0  0  0  0  0  0  0  0  0  0
  128.8339  141.2817  132.7907 C   0  0  2  0  0  0  0  0  0  0  0  0
  129.9576  141.5120  131.7966 C   0  0  0  0  0  0  0  0  0  0  0  0
  127.5784  146.2536  137.6857 C   0  0  0  0  0  0  0  0  0  0  0  0
  128.7720  146.3874  138.3664 C   0  0  0  0  0  0  0  0  0  0  0  0
  128.9126  145.8166  139.6329 C   0  0  0  0  0  0  0  0  0  0  0  0
  127.8923  145.1159  140.2371 C   0  0  0  0  0  0  0  0  0  0  0  0
  126.6983  144.9855  139.5493 C   0  0  0  0  0  0  0  0  0  0  0  0
  126.5732  145.5480  138.3117 C   0  0  0  0  0  0  0  0  0  0  0  0
  1  2  1  6
  3  2  1  6
  3  4  1  0
  4  5  1  0
  5  6  1  1
  5  7  1  0
  7  8  1  0
  8  9  1  6
  9 10  1  0
  9 11  2  0
  8 12  1  0
 12 13  1  6
 12 14  1  0
 14 15  1  0
 16 15  1  6
 16 17  1  0
 17 18  1  1
 18 19  1  0
 19 20  1  0
 20 21  2  0
 21 22  1  0
 22 23  2  0
 22 24  1  0
 24 25  1  0
 25 26  1  0
 26 27  1  6
  5 28  1  0
 28 29  2  0
 29 30  1  0
 30 31  2  0
 31 32  1  0
 32 33  2  0
 12  1  1  0
 26 16  1  0
 33 28  1  0
 17  1  1  0
 26 20  1  0
  8  3  1  0
M  END
$$$$
