
     RDKit          3D

 33 38  0  0  0  0  0  0  0  0999 V2000
  147.9010  168.4852  129.4914 C   0  0  2  0  0  0  0  0  0  0  0  0
  148.7772  169.6215  129.8022 C   0  0  0  0  0  0  0  0  0  0  0  0
  147.7478  170.7658  129.7647 C   0  0  1  0  0  0  0  0  0  0  0  0
  147.2849  170.9560  128.4734 O   0  0  0  0  0  0  0  0  0  0  0  0
  145.9656  171.2839  128.6573 C   0  0  2  0  0  0  0  0  0  0  0  0
  145.9200  172.7396  129.1370 C   0  0  0  0  0  0  0  0  0  0  0  0
  145.4401  170.4335  129.5986 O   0  0  0  0  0  0  0  0  0  0  0  0
  146.5370  170.1351  130.4410 C   0  0  2  0  0  0  0  0  0  0  0  0
  146.2581  170.7541  131.7466 C   0  0  0  0  0  0  0  0  0  0  0  0
  144.9121  170.9896  132.3367 C   0  0  0  0  0  0  0  0  0  0  0  0
  147.2455  171.1091  132.4225 O   0  0  0  0  0  0  0  0  0  0  0  0
  146.7506  168.6674  130.4955 C   0  0  2  0  0  0  0  0  0  0  0  0
  147.0550  168.0860  131.8221 C   0  0  0  0  0  0  0  0  0  0  0  0
  145.6138  167.9009  129.8194 C   0  0  0  0  0  0  0  0  0  0  0  0
  145.9609  166.4694  129.5818 C   0  0  0  0  0  0  0  0  0  0  0  0
  147.3077  166.2099  129.0267 C   0  0  1  0  0  0  0  0  0  0  0  0
  148.3940  167.1090  129.6377 C   0  0  1  0  0  0  0  0  0  0  0  0
  149.6511  166.8185  128.8461 C   0  0  0  0  0  0  0  0  0  0  0  0
  150.1602  165.4774  129.2711 C   0  0  0  0  0  0  0  0  0  0  0  0
  149.0987  164.4763  128.9597 C   0  0  0  0  0  0  0  0  0  0  0  0
  149.4462  163.2811  128.5211 C   0  0  0  0  0  0  0  0  0  0  0  0
  148.4921  162.2370  128.1900 C   0  0  0  0  0  0  0  0  0  0  0  0
  148.8954  161.0535  127.9413 O   0  0  0  0  0  0  0  0  0  0  0  0
  147.0551  162.5323  128.1382 C   0  0  0  0  0  0  0  0  0  0  0  0
  146.8344  164.0357  128.0454 C   0  0  0  0  0  0  0  0  0  0  0  0
  147.6510  164.7619  129.1212 C   0  0  2  0  0  0  0  0  0  0  0  0
  147.2301  164.1480  130.4440 C   0  0  0  0  0  0  0  0  0  0  0  0
  145.1568  171.1775  127.4253 C   0  0  0  0  0  0  0  0  0  0  0  0
  145.2936  172.0574  126.3704 C   0  0  0  0  0  0  0  0  0  0  0  0
  144.4980  171.9017  125.2335 C   0  0  0  0  0  0  0  0  0  0  0  0
  143.5696  170.8903  125.1229 C   0  0  0  0  0  0  0  0  0  0  0  0
  143.4375  170.0117  126.1841 C   0  0  0  0  0  0  0  0  0  0  0  0
  144.2210  170.1744  127.2901 C   0  0  0  0  0  0  0  0  0  0  0  0
  1  2  1  1
  3  2  1  6
  3  4  1  0
  4  5  1  0
  5  6  1  1
  5  7  1  0
  7  8  1  0
  8  9  1  1
  9 10  1  0
  9 11  2  0
  8 12  1  0
 12 13  1  1
 12 14  1  0
 14 15  1  0
 16 15  1  1
 16 17  1  0
 17 18  1  6
 18 19  1  0
 19 20  1  0
 20 21  2  0
 21 22  1  0
 22 23  2  0
 22 24  1  0
 24 25  1  0
 25 26  1  0
 26 27  1  1
  5 28  1  0
 28 29  2  0
 29 30  1  0
 30 31  2  0
 31 32  1  0
 32 33  2  0
 12  1  1  0
 26 16  1  0
 33 28  1  0
 17  1  1  0
 26 20  1  0
  8  3  1  0
M  END
$$$$
