
     RDKit          3D

 33 38  0  0  0  0  0  0  0  0999 V2000
  200.9769  135.0476  131.6212 C   0  0  2  0  0  0  0  0  0  0  0  0
  200.6121  133.7211  131.1081 C   0  0  0  0  0  0  0  0  0  0  0  0
  199.3120  133.4819  131.8975 C   0  0  1  0  0  0  0  0  0  0  0  0
  199.5875  133.3300  133.2461 O   0  0  0  0  0  0  0  0  0  0  0  0
  198.5183  133.9357  133.8558 C   0  0  2  0  0  0  0  0  0  0  0  0
  197.3288  132.9737  133.7520 C   0  0  0  0  0  0  0  0  0  0  0  0
  198.2628  135.1148  133.2000 O   0  0  0  0  0  0  0  0  0  0  0  0
  198.6556  134.8565  131.8656 C   0  0  2  0  0  0  0  0  0  0  0  0
  197.4317  134.8572  131.0486 C   0  0  0  0  0  0  0  0  0  0  0  0
  196.1048  135.3943  131.4561 C   0  0  0  0  0  0  0  0  0  0  0  0
  197.5192  134.3649  129.9050 O   0  0  0  0  0  0  0  0  0  0  0  0
  199.6755  135.8456  131.4362 C   0  0  2  0  0  0  0  0  0  0  0  0
  199.5357  136.3984  130.0704 C   0  0  0  0  0  0  0  0  0  0  0  0
  199.8439  136.9702  132.4579 C   0  0  0  0  0  0  0  0  0  0  0  0
  201.0692  137.7835  132.2057 C   0  0  0  0  0  0  0  0  0  0  0  0
  202.3024  137.0248  131.9009 C   0  0  1  0  0  0  0  0  0  0  0  0
  202.0546  135.8165  130.9842 C   0  0  1  0  0  0  0  0  0  0  0  0
  203.3769  135.0827  130.9170 C   0  0  0  0  0  0  0  0  0  0  0  0
  204.2984  135.8786  130.0476 C   0  0  0  0  0  0  0  0  0  0  0  0
  204.4706  137.2167  130.6845 C   0  0  0  0  0  0  0  0  0  0  0  0
  205.6508  137.8058  130.6419 C   0  0  0  0  0  0  0  0  0  0  0  0
  205.9226  139.1058  131.2300 C   0  0  0  0  0  0  0  0  0  0  0  0
  207.0303  139.6948  131.0029 O   0  0  0  0  0  0  0  0  0  0  0  0
  204.9268  139.7551  132.0912 C   0  0  0  0  0  0  0  0  0  0  0  0
  203.9000  138.7347  132.5625 C   0  0  0  0  0  0  0  0  0  0  0  0
  203.3648  137.9283  131.3731 C   0  0  2  0  0  0  0  0  0  0  0  0
  202.8250  138.9510  130.3900 C   0  0  0  0  0  0  0  0  0  0  0  0
  198.7485  134.2340  135.2846 C   0  0  0  0  0  0  0  0  0  0  0  0
  197.7253  134.2583  136.2110 C   0  0  0  0  0  0  0  0  0  0  0  0
  198.0100  134.5472  137.5471 C   0  0  0  0  0  0  0  0  0  0  0  0
  199.2897  134.8125  137.9818 C   0  0  0  0  0  0  0  0  0  0  0  0
  200.3109  134.7865  137.0479 C   0  0  0  0  0  0  0  0  0  0  0  0
  200.0198  134.5027  135.7447 C   0  0  0  0  0  0  0  0  0  0  0  0
  1  2  1  6
  3  2  1  6
  3  4  1  0
  4  5  1  0
  5  6  1  1
  5  7  1  0
  7  8  1  0
  8  9  1  6
  9 10  1  0
  9 11  2  0
  8 12  1  0
 12 13  1  6
 12 14  1  0
 14 15  1  0
 16 15  1  6
 16 17  1  0
 17 18  1  1
 18 19  1  0
 19 20  1  0
 20 21  2  0
 21 22  1  0
 22 23  2  0
 22 24  1  0
 24 25  1  0
 25 26  1  0
 26 27  1  6
  5 28  1  0
 28 29  2  0
 29 30  1  0
 30 31  2  0
 31 32  1  0
 32 33  2  0
 12  1  1  0
 26 16  1  0
 33 28  1  0
 17  1  1  0
 26 20  1  0
  8  3  1  0
M  END
$$$$
