
     RDKit          3D

 33 38  0  0  0  0  0  0  0  0999 V2000
  201.5801  137.1829  132.5213 C   0  0  2  0  0  0  0  0  0  0  0  0
  201.0293  136.6354  133.7673 C   0  0  0  0  0  0  0  0  0  0  0  0
  201.7241  135.2615  133.7810 C   0  0  1  0  0  0  0  0  0  0  0  0
  201.2486  134.4701  132.7489 O   0  0  0  0  0  0  0  0  0  0  0  0
  202.3598  133.7716  132.3504 C   0  0  2  0  0  0  0  0  0  0  0  0
  202.6054  132.6727  133.3912 C   0  0  0  0  0  0  0  0  0  0  0  0
  203.4170  134.6459  132.2915 O   0  0  0  0  0  0  0  0  0  0  0  0
  203.1265  135.6024  133.2928 C   0  0  2  0  0  0  0  0  0  0  0  0
  204.1300  135.4317  134.3554 C   0  0  0  0  0  0  0  0  0  0  0  0
  204.9865  136.5028  134.9339 C   0  0  0  0  0  0  0  0  0  0  0  0
  204.2701  134.2803  134.8164 O   0  0  0  0  0  0  0  0  0  0  0  0
  203.0914  136.9627  132.7003 C   0  0  2  0  0  0  0  0  0  0  0  0
  203.7367  138.0454  133.4760 C   0  0  0  0  0  0  0  0  0  0  0  0
  203.5871  136.9671  131.2542 C   0  0  0  0  0  0  0  0  0  0  0  0
  203.2614  138.2413  130.5494 C   0  0  0  0  0  0  0  0  0  0  0  0
  201.8888  138.7591  130.7423 C   0  0  1  0  0  0  0  0  0  0  0  0
  201.3823  138.5991  132.1843 C   0  0  1  0  0  0  0  0  0  0  0  0
  199.9306  139.0268  132.1522 C   0  0  0  0  0  0  0  0  0  0  0  0
  199.8951  140.5177  132.0325 C   0  0  0  0  0  0  0  0  0  0  0  0
  200.5794  140.8810  130.7575 C   0  0  0  0  0  0  0  0  0  0  0  0
  200.1106  141.8806  130.0345 C   0  0  0  0  0  0  0  0  0  0  0  0
  200.7025  142.3130  128.7805 C   0  0  0  0  0  0  0  0  0  0  0  0
  200.3105  143.3904  128.2228 O   0  0  0  0  0  0  0  0  0  0  0  0
  201.7569  141.5158  128.1421 C   0  0  0  0  0  0  0  0  0  0  0  0
  201.7709  140.1086  128.7226 C   0  0  0  0  0  0  0  0  0  0  0  0
  201.7781  140.1640  130.2551 C   0  0  2  0  0  0  0  0  0  0  0  0
  202.9816  141.0085  130.6322 C   0  0  0  0  0  0  0  0  0  0  0  0
  202.2074  133.1302  131.0280 C   0  0  0  0  0  0  0  0  0  0  0  0
  203.1283  133.2962  130.0130 C   0  0  0  0  0  0  0  0  0  0  0  0
  202.9253  132.6619  128.7857 C   0  0  0  0  0  0  0  0  0  0  0  0
  201.8268  131.8664  128.5459 C   0  0  0  0  0  0  0  0  0  0  0  0
  200.9075  131.7042  129.5677 C   0  0  0  0  0  0  0  0  0  0  0  0
  201.1171  132.3295  130.7630 C   0  0  0  0  0  0  0  0  0  0  0  0
  1  2  1  1
  3  2  1  6
  3  4  1  0
  4  5  1  0
  5  6  1  1
  5  7  1  0
  7  8  1  0
  8  9  1  1
  9 10  1  0
  9 11  2  0
  8 12  1  0
 12 13  1  1
 12 14  1  0
 14 15  1  0
 16 15  1  1
 16 17  1  0
 17 18  1  6
 18 19  1  0
 19 20  1  0
 20 21  2  0
 21 22  1  0
 22 23  2  0
 22 24  1  0
 24 25  1  0
 25 26  1  0
 26 27  1  6
  5 28  1  0
 28 29  2  0
 29 30  1  0
 30 31  2  0
 31 32  1  0
 32 33  2  0
 12  1  1  0
 26 16  1  0
 33 28  1  0
 17  1  1  0
 26 20  1  0
  8  3  1  0
M  END
$$$$
