
     RDKit          3D

 33 38  0  0  0  0  0  0  0  0999 V2000
  195.5303  160.6641  121.6525 C   0  0  2  0  0  0  0  0  0  0  0  0
  196.9108  161.1555  121.7434 C   0  0  0  0  0  0  0  0  0  0  0  0
  197.0605  161.7806  120.3442 C   0  0  1  0  0  0  0  0  0  0  0  0
  197.0473  160.7949  119.3716 O   0  0  0  0  0  0  0  0  0  0  0  0
  196.3786  161.3883  118.3313 C   0  0  2  0  0  0  0  0  0  0  0  0
  197.3527  162.3638  117.6600 C   0  0  0  0  0  0  0  0  0  0  0  0
  195.2885  162.0477  118.8435 O   0  0  0  0  0  0  0  0  0  0  0  0
  195.7034  162.4416  120.1375 C   0  0  2  0  0  0  0  0  0  0  0  0
  195.8079  163.9093  120.1281 C   0  0  0  0  0  0  0  0  0  0  0  0
  194.8875  164.8503  119.4333 C   0  0  0  0  0  0  0  0  0  0  0  0
  196.7556  164.4093  120.7682 O   0  0  0  0  0  0  0  0  0  0  0  0
  194.7676  161.9037  121.1562 C   0  0  2  0  0  0  0  0  0  0  0  0
  194.3840  162.8151  122.2575 C   0  0  0  0  0  0  0  0  0  0  0  0
  193.5272  161.2793  120.5170 C   0  0  0  0  0  0  0  0  0  0  0  0
  192.7434  160.4604  121.4872 C   0  0  0  0  0  0  0  0  0  0  0  0
  193.5265  159.5512  122.3529 C   0  0  1  0  0  0  0  0  0  0  0  0
  194.8377  160.1773  122.8532 C   0  0  1  0  0  0  0  0  0  0  0  0
  195.5669  159.0645  123.5753 C   0  0  0  0  0  0  0  0  0  0  0  0
  194.8764  158.8378  124.8830 C   0  0  0  0  0  0  0  0  0  0  0  0
  193.4704  158.4386  124.5838 C   0  0  0  0  0  0  0  0  0  0  0  0
  192.8842  157.5250  125.3344 C   0  0  0  0  0  0  0  0  0  0  0  0
  191.5214  157.0672  125.1271 C   0  0  0  0  0  0  0  0  0  0  0  0
  190.9579  156.3159  125.9893 O   0  0  0  0  0  0  0  0  0  0  0  0
  190.7786  157.4638  123.9246 C   0  0  0  0  0  0  0  0  0  0  0  0
  191.7404  157.9819  122.8645 C   0  0  0  0  0  0  0  0  0  0  0  0
  192.6872  159.0263  123.4681 C   0  0  2  0  0  0  0  0  0  0  0  0
  191.7933  160.0916  124.0764 C   0  0  0  0  0  0  0  0  0  0  0  0
  195.9091  160.4281  117.3110 C   0  0  0  0  0  0  0  0  0  0  0  0
  196.4085  159.1446  117.2156 C   0  0  0  0  0  0  0  0  0  0  0  0
  195.9219  158.2859  116.2279 C   0  0  0  0  0  0  0  0  0  0  0  0
  194.9500  158.6757  115.3332 C   0  0  0  0  0  0  0  0  0  0  0  0
  194.4538  159.9638  115.4344 C   0  0  0  0  0  0  0  0  0  0  0  0
  194.9375  160.7938  116.4042 C   0  0  0  0  0  0  0  0  0  0  0  0
  1  2  1  1
  3  2  1  1
  3  4  1  0
  4  5  1  0
  5  6  1  6
  5  7  1  0
  7  8  1  0
  8  9  1  6
  9 10  1  0
  9 11  2  0
  8 12  1  0
 12 13  1  1
 12 14  1  0
 14 15  1  0
 16 15  1  1
 16 17  1  0
 17 18  1  6
 18 19  1  0
 19 20  1  0
 20 21  2  0
 21 22  1  0
 22 23  2  0
 22 24  1  0
 24 25  1  0
 25 26  1  0
 26 27  1  1
  5 28  1  0
 28 29  2  0
 29 30  1  0
 30 31  2  0
 31 32  1  0
 32 33  2  0
 12  1  1  0
 26 16  1  0
 33 28  1  0
 17  1  1  0
 26 20  1  0
  8  3  1  0
M  END
$$$$
