
     RDKit          3D

 33 38  0  0  0  0  0  0  0  0999 V2000
  127.0344  146.6443  135.2180 C   0  0  2  0  0  0  0  0  0  0  0  0
  125.8615  145.7631  135.1572 C   0  0  0  0  0  0  0  0  0  0  0  0
  126.5491  144.3971  135.3356 C   0  0  1  0  0  0  0  0  0  0  0  0
  127.3312  144.1028  134.2313 O   0  0  0  0  0  0  0  0  0  0  0  0
  128.4104  143.4531  134.7743 C   0  0  2  0  0  0  0  0  0  0  0  0
  127.9578  142.0303  135.1240 C   0  0  0  0  0  0  0  0  0  0  0  0
  128.8035  144.1397  135.8966 O   0  0  0  0  0  0  0  0  0  0  0  0
  127.6031  144.7001  136.3932 C   0  0  2  0  0  0  0  0  0  0  0  0
  127.3072  144.0248  137.6667 C   0  0  0  0  0  0  0  0  0  0  0  0
  128.2622  143.2190  138.4754 C   0  0  0  0  0  0  0  0  0  0  0  0
  126.1467  144.1453  138.1103 O   0  0  0  0  0  0  0  0  0  0  0  0
  127.7380  146.1741  136.5019 C   0  0  2  0  0  0  0  0  0  0  0  0
  127.1836  146.8071  137.7196 C   0  0  0  0  0  0  0  0  0  0  0  0
  129.1763  146.6336  136.2631 C   0  0  0  0  0  0  0  0  0  0  0  0
  129.2704  148.1076  136.0513 C   0  0  0  0  0  0  0  0  0  0  0  0
  128.2649  148.6997  135.1415 C   0  0  1  0  0  0  0  0  0  0  0  0
  126.8619  148.0995  135.3228 C   0  0  1  0  0  0  0  0  0  0  0  0
  126.0197  148.7003  134.2176 C   0  0  0  0  0  0  0  0  0  0  0  0
  125.7375  150.1242  134.5796 C   0  0  0  0  0  0  0  0  0  0  0  0
  127.0489  150.8280  134.6841 C   0  0  0  0  0  0  0  0  0  0  0  0
  127.1491  152.0742  134.2617 C   0  0  0  0  0  0  0  0  0  0  0  0
  128.3779  152.8466  134.3189 C   0  0  0  0  0  0  0  0  0  0  0  0
  128.3649  154.0947  134.0592 O   0  0  0  0  0  0  0  0  0  0  0  0
  129.6466  152.2000  134.6758 C   0  0  0  0  0  0  0  0  0  0  0  0
  129.5216  150.6898  134.5298 C   0  0  0  0  0  0  0  0  0  0  0  0
  128.2633  150.1870  135.2478 C   0  0  2  0  0  0  0  0  0  0  0  0
  128.3855  150.6692  136.6818 C   0  0  0  0  0  0  0  0  0  0  0  0
  129.5629  143.3587  133.8544 C   0  0  0  0  0  0  0  0  0  0  0  0
  130.8479  143.6835  134.2403 C   0  0  0  0  0  0  0  0  0  0  0  0
  131.8938  143.5724  133.3219 C   0  0  0  0  0  0  0  0  0  0  0  0
  131.6896  143.1454  132.0284 C   0  0  0  0  0  0  0  0  0  0  0  0
  130.3989  142.8213  131.6481 C   0  0  0  0  0  0  0  0  0  0  0  0
  129.3849  142.9341  132.5551 C   0  0  0  0  0  0  0  0  0  0  0  0
  1  2  1  1
  3  2  1  6
  3  4  1  0
  4  5  1  0
  5  6  1  1
  5  7  1  0
  7  8  1  0
  8  9  1  1
  9 10  1  0
  9 11  2  0
  8 12  1  0
 12 13  1  1
 12 14  1  0
 14 15  1  0
 16 15  1  1
 16 17  1  0
 17 18  1  6
 18 19  1  0
 19 20  1  0
 20 21  2  0
 21 22  1  0
 22 23  2  0
 22 24  1  0
 24 25  1  0
 25 26  1  0
 26 27  1  1
  5 28  1  0
 28 29  2  0
 29 30  1  0
 30 31  2  0
 31 32  1  0
 32 33  2  0
 12  1  1  0
 26 16  1  0
 33 28  1  0
 17  1  1  0
 26 20  1  0
  8  3  1  0
M  END
$$$$
