
     RDKit          3D

 33 38  0  0  0  0  0  0  0  0999 V2000
  166.3687  151.3622  126.3322 C   0  0  2  0  0  0  0  0  0  0  0  0
  166.4428  150.1627  125.4888 C   0  0  0  0  0  0  0  0  0  0  0  0
  166.4598  149.0752  126.5786 C   0  0  1  0  0  0  0  0  0  0  0  0
  167.6405  149.1336  127.2999 O   0  0  0  0  0  0  0  0  0  0  0  0
  167.2459  148.8179  128.5753 C   0  0  2  0  0  0  0  0  0  0  0  0
  167.0206  147.3019  128.6210 C   0  0  0  0  0  0  0  0  0  0  0  0
  166.0862  149.5014  128.8463 O   0  0  0  0  0  0  0  0  0  0  0  0
  165.4509  149.6107  127.5868 C   0  0  2  0  0  0  0  0  0  0  0  0
  164.2399  148.7765  127.6416 C   0  0  0  0  0  0  0  0  0  0  0  0
  163.6732  148.1307  128.8569 C   0  0  0  0  0  0  0  0  0  0  0  0
  163.6300  148.6002  126.5669 O   0  0  0  0  0  0  0  0  0  0  0  0
  165.1941  151.0378  127.2701 C   0  0  2  0  0  0  0  0  0  0  0  0
  163.8804  151.3626  126.6708 C   0  0  0  0  0  0  0  0  0  0  0  0
  165.4807  151.9470  128.4651 C   0  0  0  0  0  0  0  0  0  0  0  0
  165.5391  153.3868  128.0781 C   0  0  0  0  0  0  0  0  0  0  0  0
  166.3087  153.7007  126.8540 C   0  0  1  0  0  0  0  0  0  0  0  0
  166.0968  152.6744  125.7300 C   0  0  1  0  0  0  0  0  0  0  0  0
  167.0705  153.0640  124.6385 C   0  0  0  0  0  0  0  0  0  0  0  0
  166.5393  154.2913  123.9677 C   0  0  0  0  0  0  0  0  0  0  0  0
  166.4503  155.3635  125.0012 C   0  0  0  0  0  0  0  0  0  0  0  0
  166.7425  156.6069  124.6693 C   0  0  0  0  0  0  0  0  0  0  0  0
  166.6875  157.7217  125.5989 C   0  0  0  0  0  0  0  0  0  0  0  0
  166.8102  158.9180  125.1756 O   0  0  0  0  0  0  0  0  0  0  0  0
  166.4902  157.4840  127.0341 C   0  0  0  0  0  0  0  0  0  0  0  0
  166.7883  156.0289  127.3677 C   0  0  0  0  0  0  0  0  0  0  0  0
  166.0436  155.0974  126.4038 C   0  0  2  0  0  0  0  0  0  0  0  0
  164.5779  155.4767  126.5125 C   0  0  0  0  0  0  0  0  0  0  0  0
  168.2477  149.1677  129.6035 C   0  0  0  0  0  0  0  0  0  0  0  0
  167.9482  149.9668  130.6888 C   0  0  0  0  0  0  0  0  0  0  0  0
  168.9413  150.2600  131.6255 C   0  0  0  0  0  0  0  0  0  0  0  0
  170.2253  149.7761  131.5065 C   0  0  0  0  0  0  0  0  0  0  0  0
  170.5189  148.9757  130.4162 C   0  0  0  0  0  0  0  0  0  0  0  0
  169.5395  148.6962  129.5073 C   0  0  0  0  0  0  0  0  0  0  0  0
  1  2  1  6
  3  2  1  6
  3  4  1  0
  4  5  1  0
  5  6  1  6
  5  7  1  0
  7  8  1  0
  8  9  1  1
  9 10  1  0
  9 11  2  0
  8 12  1  0
 12 13  1  6
 12 14  1  0
 14 15  1  0
 16 15  1  1
 16 17  1  0
 17 18  1  6
 18 19  1  0
 19 20  1  0
 20 21  2  0
 21 22  1  0
 22 23  2  0
 22 24  1  0
 24 25  1  0
 25 26  1  0
 26 27  1  6
  5 28  1  0
 28 29  2  0
 29 30  1  0
 30 31  2  0
 31 32  1  0
 32 33  2  0
 12  1  1  0
 26 16  1  0
 33 28  1  0
 17  1  1  0
 26 20  1  0
  8  3  1  0
M  END
$$$$
