
     RDKit          3D

 33 38  0  0  0  0  0  0  0  0999 V2000
  127.7857  146.5001  136.1873 C   0  0  2  0  0  0  0  0  0  0  0  0
  127.7780  147.3994  137.3479 C   0  0  0  0  0  0  0  0  0  0  0  0
  128.0189  148.7452  136.6397 C   0  0  1  0  0  0  0  0  0  0  0  0
  129.2961  148.7877  136.1061 O   0  0  0  0  0  0  0  0  0  0  0  0
  129.1259  149.4862  134.9378 C   0  0  2  0  0  0  0  0  0  0  0  0
  128.9800  150.9669  135.3088 C   0  0  0  0  0  0  0  0  0  0  0  0
  127.9948  149.0151  134.3180 O   0  0  0  0  0  0  0  0  0  0  0  0
  127.1615  148.6108  135.3875 C   0  0  2  0  0  0  0  0  0  0  0  0
  126.0141  149.5318  135.4112 C   0  0  0  0  0  0  0  0  0  0  0  0
  125.5597  150.3969  134.2885 C   0  0  0  0  0  0  0  0  0  0  0  0
  125.3593  149.5865  136.4725 O   0  0  0  0  0  0  0  0  0  0  0  0
  126.7927  147.1817  135.2313 C   0  0  2  0  0  0  0  0  0  0  0  0
  125.3865  146.8200  135.5181 C   0  0  0  0  0  0  0  0  0  0  0  0
  127.2256  146.6267  133.8743 C   0  0  0  0  0  0  0  0  0  0  0  0
  127.1558  145.1371  133.8250 C   0  0  0  0  0  0  0  0  0  0  0  0
  127.7041  144.4209  134.9979 C   0  0  1  0  0  0  0  0  0  0  0  0
  127.3614  145.1011  136.3326 C   0  0  1  0  0  0  0  0  0  0  0  0
  128.1288  144.3318  137.3866 C   0  0  0  0  0  0  0  0  0  0  0  0
  127.4417  143.0178  137.5854 C   0  0  0  0  0  0  0  0  0  0  0  0
  127.4710  142.2952  136.2805 C   0  0  0  0  0  0  0  0  0  0  0  0
  127.6494  140.9877  136.2695 C   0  0  0  0  0  0  0  0  0  0  0  0
  127.6936  140.1920  135.0551 C   0  0  0  0  0  0  0  0  0  0  0  0
  127.6924  138.9188  135.1208 O   0  0  0  0  0  0  0  0  0  0  0  0
  127.7401  140.8437  133.7406 C   0  0  0  0  0  0  0  0  0  0  0  0
  128.1536  142.3007  133.8949 C   0  0  0  0  0  0  0  0  0  0  0  0
  127.3070  142.9837  134.9757 C   0  0  2  0  0  0  0  0  0  0  0  0
  125.8621  142.7845  134.5558 C   0  0  0  0  0  0  0  0  0  0  0  0
  130.2628  149.3536  134.0033 C   0  0  0  0  0  0  0  0  0  0  0  0
  131.3589  148.5603  134.2772 C   0  0  0  0  0  0  0  0  0  0  0  0
  132.4007  148.4782  133.3512 C   0  0  0  0  0  0  0  0  0  0  0  0
  132.3762  149.1676  132.1591 C   0  0  0  0  0  0  0  0  0  0  0  0
  131.2744  149.9611  131.8907 C   0  0  0  0  0  0  0  0  0  0  0  0
  130.2623  150.0331  132.8040 C   0  0  0  0  0  0  0  0  0  0  0  0
  1  2  1  1
  3  2  1  1
  3  4  1  0
  4  5  1  0
  5  6  1  1
  5  7  1  0
  7  8  1  0
  8  9  1  1
  9 10  1  0
  9 11  2  0
  8 12  1  0
 12 13  1  1
 12 14  1  0
 14 15  1  0
 16 15  1  6
 16 17  1  0
 17 18  1  1
 18 19  1  0
 19 20  1  0
 20 21  2  0
 21 22  1  0
 22 23  2  0
 22 24  1  0
 24 25  1  0
 25 26  1  0
 26 27  1  6
  5 28  1  0
 28 29  2  0
 29 30  1  0
 30 31  2  0
 31 32  1  0
 32 33  2  0
 12  1  1  0
 26 16  1  0
 33 28  1  0
 17  1  1  0
 26 20  1  0
  8  3  1  0
M  END
$$$$
