
     RDKit          3D

 33 38  0  0  0  0  0  0  0  0999 V2000
  129.0904  147.6408  134.5721 C   0  0  2  0  0  0  0  0  0  0  0  0
  130.3143  147.1362  133.9371 C   0  0  0  0  0  0  0  0  0  0  0  0
  130.1067  145.6229  134.1306 C   0  0  1  0  0  0  0  0  0  0  0  0
  130.1847  145.2932  135.4734 O   0  0  0  0  0  0  0  0  0  0  0  0
  129.2505  144.2976  135.6076 C   0  0  2  0  0  0  0  0  0  0  0  0
  129.8587  143.0190  135.0189 C   0  0  0  0  0  0  0  0  0  0  0  0
  128.1224  144.6735  134.9209 O   0  0  0  0  0  0  0  0  0  0  0  0
  128.6169  145.4621  133.8554 C   0  0  2  0  0  0  0  0  0  0  0  0
  128.3699  144.7119  132.6138 C   0  0  0  0  0  0  0  0  0  0  0  0
  127.7580  143.3588  132.5129 C   0  0  0  0  0  0  0  0  0  0  0  0
  128.7011  145.2674  131.5463 O   0  0  0  0  0  0  0  0  0  0  0  0
  127.9930  146.8084  133.8884 C   0  0  2  0  0  0  0  0  0  0  0  0
  127.5702  147.3801  132.5903 C   0  0  0  0  0  0  0  0  0  0  0  0
  126.8553  146.8842  134.9065 C   0  0  0  0  0  0  0  0  0  0  0  0
  126.4367  148.2896  135.1820 C   0  0  0  0  0  0  0  0  0  0  0  0
  127.5296  149.2649  135.3908 C   0  0  1  0  0  0  0  0  0  0  0  0
  128.7147  149.0545  134.4356 C   0  0  1  0  0  0  0  0  0  0  0  0
  129.7830  150.0222  134.8979 C   0  0  0  0  0  0  0  0  0  0  0  0
  129.3636  151.3980  134.4860 C   0  0  0  0  0  0  0  0  0  0  0  0
  128.0632  151.6894  135.1567 C   0  0  0  0  0  0  0  0  0  0  0  0
  127.8248  152.9084  135.6026 C   0  0  0  0  0  0  0  0  0  0  0  0
  126.5930  153.2948  136.2684 C   0  0  0  0  0  0  0  0  0  0  0  0
  126.3544  154.5223  136.5163 O   0  0  0  0  0  0  0  0  0  0  0  0
  125.6105  152.2778  136.6629 C   0  0  0  0  0  0  0  0  0  0  0  0
  126.2580  150.9000  136.6651 C   0  0  0  0  0  0  0  0  0  0  0  0
  127.0095  150.6618  135.3498 C   0  0  2  0  0  0  0  0  0  0  0  0
  125.9882  150.8716  134.2467 C   0  0  0  0  0  0  0  0  0  0  0  0
  128.8771  144.0280  137.0116 C   0  0  0  0  0  0  0  0  0  0  0  0
  129.3118  144.8158  138.0586 C   0  0  0  0  0  0  0  0  0  0  0  0
  128.9225  144.5067  139.3635 C   0  0  0  0  0  0  0  0  0  0  0  0
  128.1106  143.4315  139.6496 C   0  0  0  0  0  0  0  0  0  0  0  0
  127.6784  142.6459  138.5953 C   0  0  0  0  0  0  0  0  0  0  0  0
  128.0658  142.9584  137.3242 C   0  0  0  0  0  0  0  0  0  0  0  0
  1  2  1  6
  3  2  1  1
  3  4  1  0
  4  5  1  0
  5  6  1  6
  5  7  1  0
  7  8  1  0
  8  9  1  6
  9 10  1  0
  9 11  2  0
  8 12  1  0
 12 13  1  6
 12 14  1  0
 14 15  1  0
 16 15  1  6
 16 17  1  0
 17 18  1  1
 18 19  1  0
 19 20  1  0
 20 21  2  0
 21 22  1  0
 22 23  2  0
 22 24  1  0
 24 25  1  0
 25 26  1  0
 26 27  1  6
  5 28  1  0
 28 29  2  0
 29 30  1  0
 30 31  2  0
 31 32  1  0
 32 33  2  0
 12  1  1  0
 26 16  1  0
 33 28  1  0
 17  1  1  0
 26 20  1  0
  8  3  1  0
M  END
$$$$
