
     RDKit          3D

 33 38  0  0  0  0  0  0  0  0999 V2000
  173.8916  163.2228  111.2026 C   0  0  2  0  0  0  0  0  0  0  0  0
  174.6831  162.1201  110.6429 C   0  0  0  0  0  0  0  0  0  0  0  0
  175.8774  162.1336  111.6144 C   0  0  1  0  0  0  0  0  0  0  0  0
  176.6223  163.2889  111.4471 O   0  0  0  0  0  0  0  0  0  0  0  0
  177.0266  163.5900  112.7229 C   0  0  2  0  0  0  0  0  0  0  0  0
  178.1667  162.6284  113.0791 C   0  0  0  0  0  0  0  0  0  0  0  0
  175.9536  163.4221  113.5631 O   0  0  0  0  0  0  0  0  0  0  0  0
  175.2016  162.3890  112.9557 C   0  0  2  0  0  0  0  0  0  0  0  0
  175.2869  161.2167  113.8410 C   0  0  0  0  0  0  0  0  0  0  0  0
  175.9020  161.1830  115.1960 C   0  0  0  0  0  0  0  0  0  0  0  0
  174.7913  160.1534  113.4148 O   0  0  0  0  0  0  0  0  0  0  0  0
  173.8172  162.8556  112.6940 C   0  0  2  0  0  0  0  0  0  0  0  0
  172.7242  161.9032  112.9921 C   0  0  0  0  0  0  0  0  0  0  0  0
  173.5412  164.2122  113.3423 C   0  0  0  0  0  0  0  0  0  0  0  0
  172.2868  164.8378  112.8310 C   0  0  0  0  0  0  0  0  0  0  0  0
  172.0875  164.7922  111.3656 C   0  0  1  0  0  0  0  0  0  0  0  0
  172.5163  163.4551  110.7412 C   0  0  1  0  0  0  0  0  0  0  0  0
  172.3942  163.6505  109.2450 C   0  0  0  0  0  0  0  0  0  0  0  0
  170.9387  163.6391  108.8991 C   0  0  0  0  0  0  0  0  0  0  0  0
  170.2955  164.7684  109.6318 C   0  0  0  0  0  0  0  0  0  0  0  0
  169.3351  165.4566  109.0440 C   0  0  0  0  0  0  0  0  0  0  0  0
  168.6461  166.5719  109.6696 C   0  0  0  0  0  0  0  0  0  0  0  0
  167.6138  167.0793  109.1198 O   0  0  0  0  0  0  0  0  0  0  0  0
  169.1297  167.1264  110.9399 C   0  0  0  0  0  0  0  0  0  0  0  0
  170.5626  166.6787  111.1927 C   0  0  0  0  0  0  0  0  0  0  0  0
  170.6876  165.1615  111.0085 C   0  0  2  0  0  0  0  0  0  0  0  0
  169.6649  164.5459  111.9460 C   0  0  0  0  0  0  0  0  0  0  0  0
  177.5255  164.9731  112.8699 C   0  0  0  0  0  0  0  0  0  0  0  0
  176.9655  166.0388  112.1942 C   0  0  0  0  0  0  0  0  0  0  0  0
  177.4843  167.3222  112.3773 C   0  0  0  0  0  0  0  0  0  0  0  0
  178.5476  167.5687  113.2174 C   0  0  0  0  0  0  0  0  0  0  0  0
  179.1043  166.4959  113.8916 C   0  0  0  0  0  0  0  0  0  0  0  0
  178.5882  165.2460  113.7043 C   0  0  0  0  0  0  0  0  0  0  0  0
  1  2  1  6
  3  2  1  6
  3  4  1  0
  4  5  1  0
  5  6  1  1
  5  7  1  0
  7  8  1  0
  8  9  1  1
  9 10  1  0
  9 11  2  0
  8 12  1  0
 12 13  1  6
 12 14  1  0
 14 15  1  0
 16 15  1  1
 16 17  1  0
 17 18  1  6
 18 19  1  0
 19 20  1  0
 20 21  2  0
 21 22  1  0
 22 23  2  0
 22 24  1  0
 24 25  1  0
 25 26  1  0
 26 27  1  1
  5 28  1  0
 28 29  2  0
 29 30  1  0
 30 31  2  0
 31 32  1  0
 32 33  2  0
 12  1  1  0
 26 16  1  0
 33 28  1  0
 17  1  1  0
 26 20  1  0
  8  3  1  0
M  END
$$$$
