
     RDKit          3D

 32 37  0  0  0  0  0  0  0  0999 V2000
  189.1532  160.8383  121.0512 C   0  0  2  0  0  0  0  0  0  0  0  0
  188.7616  161.7601  119.9043 C   0  0  0  0  0  0  0  0  0  0  0  0
  189.1384  163.1639  120.3415 C   0  0  0  0  0  0  0  0  0  0  0  0
  189.6505  162.9768  121.7805 C   0  0  1  0  0  0  0  0  0  0  0  0
  190.4783  163.9843  122.1823 O   0  0  0  0  0  0  0  0  0  0  0  0
  188.5199  162.7402  122.6751 C   0  0  0  0  0  0  0  0  0  0  0  0
  187.5725  162.5446  123.3994 C   0  0  0  0  0  0  0  0  0  0  0  0
  186.4352  162.2959  124.2947 C   0  0  0  0  0  0  0  0  0  0  0  0
  190.3430  161.6399  121.6002 C   0  0  2  0  0  0  0  0  0  0  0  0
  191.3691  161.8200  120.5322 C   0  0  0  0  0  0  0  0  0  0  0  0
  190.9311  161.0586  122.8251 C   0  0  0  0  0  0  0  0  0  0  0  0
  190.3401  159.6473  123.0543 C   0  0  2  0  0  0  0  0  0  0  0  0
  190.6180  159.1498  124.3702 C   0  0  0  0  0  0  0  0  0  0  0  0
  189.6476  158.6887  125.2181 C   0  0  0  0  0  0  0  0  0  0  0  0
  189.9792  158.2833  126.4861 C   0  0  0  0  0  0  0  0  0  0  0  0
  191.2737  158.3189  126.9594 C   0  0  0  0  0  0  0  0  0  0  0  0
  191.9127  157.9913  128.1487 O   0  0  0  0  0  0  0  0  0  0  0  0
  193.1757  158.6178  128.1847 C   0  0  0  0  0  0  0  0  0  0  0  0
  193.4884  158.7325  126.7934 O   0  0  0  0  0  0  0  0  0  0  0  0
  192.2643  158.7808  126.1185 C   0  0  0  0  0  0  0  0  0  0  0  0
  191.9146  159.1808  124.8568 C   0  0  0  0  0  0  0  0  0  0  0  0
  190.3588  158.8839  121.8497 C   0  0  0  0  0  0  0  0  0  0  0  0
  190.9285  157.7267  121.6645 C   0  0  0  0  0  0  0  0  0  0  0  0
  191.6584  157.0411  122.7137 C   0  0  0  0  0  0  0  0  0  0  0  0
  192.7398  156.1780  122.0670 C   0  0  0  0  0  0  0  0  0  0  0  0
  192.9562  156.4257  120.6406 C   0  0  0  0  0  0  0  0  0  0  0  0
  194.0830  156.5956  120.1649 O   0  0  0  0  0  0  0  0  0  0  0  0
  191.7843  156.4663  119.7753 C   0  0  0  0  0  0  0  0  0  0  0  0
  190.7530  157.1301  120.3082 C   0  0  0  0  0  0  0  0  0  0  0  0
  189.4529  157.2716  119.6554 C   0  0  0  0  0  0  0  0  0  0  0  0
  188.7456  158.5707  119.9920 C   0  0  0  0  0  0  0  0  0  0  0  0
  189.6644  159.5392  120.6406 C   0  0  1  0  0  0  0  0  0  0  0  0
  1  2  1  6
  2  3  1  0
  3  4  1  0
  4  5  1  1
  4  6  1  0
  6  7  3  0
  7  8  1  0
  4  9  1  0
  9 10  1  6
  9 11  1  0
 11 12  1  0
 12 13  1  1
 13 14  2  0
 14 15  1  0
 15 16  2  0
 16 17  1  0
 17 18  1  0
 18 19  1  0
 19 20  1  0
 20 21  2  0
 12 22  1  0
 22 23  2  0
 23 24  1  0
 24 25  1  0
 25 26  1  0
 26 27  2  0
 26 28  1  0
 28 29  2  0
 29 30  1  0
 30 31  1  0
 32 31  1  1
  9  1  1  0
 21 13  1  0
 32 22  1  0
 32  1  1  0
 20 16  1  0
 29 23  1  0
M  END
$$$$
