
     RDKit          3D

 32 37  0  0  0  0  0  0  0  0999 V2000
  129.2691  145.4229  136.7823 C   0  0  2  0  0  0  0  0  0  0  0  0
  129.3477  145.9885  138.1938 C   0  0  0  0  0  0  0  0  0  0  0  0
  128.4354  147.2013  138.2157 C   0  0  0  0  0  0  0  0  0  0  0  0
  127.9460  147.3205  136.7617 C   0  0  1  0  0  0  0  0  0  0  0  0
  126.7720  148.0075  136.6536 O   0  0  0  0  0  0  0  0  0  0  0  0
  129.0230  147.8433  135.9243 C   0  0  0  0  0  0  0  0  0  0  0  0
  129.9225  148.2578  135.2319 C   0  0  0  0  0  0  0  0  0  0  0  0
  131.0249  148.7723  134.4090 C   0  0  0  0  0  0  0  0  0  0  0  0
  127.8314  145.8428  136.4416 C   0  0  2  0  0  0  0  0  0  0  0  0
  126.8830  145.2536  137.4312 C   0  0  0  0  0  0  0  0  0  0  0  0
  127.4363  145.5219  135.0541 C   0  0  0  0  0  0  0  0  0  0  0  0
  128.5076  144.6048  134.4179 C   0  0  2  0  0  0  0  0  0  0  0  0
  128.3607  144.5047  132.9950 C   0  0  0  0  0  0  0  0  0  0  0  0
  127.2944  143.8940  132.3923 C   0  0  0  0  0  0  0  0  0  0  0  0
  127.2493  143.7820  131.0256 C   0  0  0  0  0  0  0  0  0  0  0  0
  128.2501  144.2661  130.2102 C   0  0  0  0  0  0  0  0  0  0  0  0
  128.4930  144.3083  128.8430 O   0  0  0  0  0  0  0  0  0  0  0  0
  129.8621  144.5654  128.6226 C   0  0  0  0  0  0  0  0  0  0  0  0
  130.2189  145.2953  129.8001 O   0  0  0  0  0  0  0  0  0  0  0  0
  129.3322  144.8844  130.8007 C   0  0  0  0  0  0  0  0  0  0  0  0
  129.3598  144.9871  132.1655 C   0  0  0  0  0  0  0  0  0  0  0  0
  128.8577  143.5402  135.3002 C   0  0  0  0  0  0  0  0  0  0  0  0
  128.7879  142.2628  135.0527 C   0  0  0  0  0  0  0  0  0  0  0  0
  128.3129  141.7397  133.7860 C   0  0  0  0  0  0  0  0  0  0  0  0
  127.6873  140.3683  134.0322 C   0  0  0  0  0  0  0  0  0  0  0  0
  127.4814  140.0278  135.4409 C   0  0  0  0  0  0  0  0  0  0  0  0
  126.4074  139.5874  135.8622 O   0  0  0  0  0  0  0  0  0  0  0  0
  128.5995  140.2235  136.3549 C   0  0  0  0  0  0  0  0  0  0  0  0
  129.2624  141.3660  136.1467 C   0  0  0  0  0  0  0  0  0  0  0  0
  130.4467  141.7680  136.9031 C   0  0  0  0  0  0  0  0  0  0  0  0
  130.5797  143.2705  137.0648 C   0  0  0  0  0  0  0  0  0  0  0  0
  129.3214  143.9707  136.7048 C   0  0  1  0  0  0  0  0  0  0  0  0
  1  2  1  1
  2  3  1  0
  3  4  1  0
  4  5  1  1
  4  6  1  0
  6  7  3  0
  7  8  1  0
  4  9  1  0
  9 10  1  1
  9 11  1  0
 11 12  1  0
 12 13  1  6
 13 14  2  0
 14 15  1  0
 15 16  2  0
 16 17  1  0
 17 18  1  0
 18 19  1  0
 19 20  1  0
 20 21  2  0
 12 22  1  0
 22 23  2  0
 23 24  1  0
 24 25  1  0
 25 26  1  0
 26 27  2  0
 26 28  1  0
 28 29  2  0
 29 30  1  0
 30 31  1  0
 32 31  1  6
  9  1  1  0
 21 13  1  0
 32 22  1  0
 32  1  1  0
 20 16  1  0
 29 23  1  0
M  END
$$$$
