
     RDKit          3D

 32 37  0  0  0  0  0  0  0  0999 V2000
  120.0861  167.3241  146.7817 C   0  0  2  0  0  0  0  0  0  0  0  0
  120.2600  168.1409  148.0549 C   0  0  0  0  0  0  0  0  0  0  0  0
  118.9481  168.8733  148.2709 C   0  0  0  0  0  0  0  0  0  0  0  0
  118.1102  168.5004  147.0353 C   0  0  1  0  0  0  0  0  0  0  0  0
  116.7686  168.6320  147.2470 O   0  0  0  0  0  0  0  0  0  0  0  0
  118.6052  169.2298  145.8702 C   0  0  0  0  0  0  0  0  0  0  0  0
  119.0023  169.8226  144.8949 C   0  0  0  0  0  0  0  0  0  0  0  0
  119.4938  170.5596  143.7235 C   0  0  0  0  0  0  0  0  0  0  0  0
  118.5746  167.0660  146.8737 C   0  0  2  0  0  0  0  0  0  0  0  0
  118.2577  166.3579  148.1480 C   0  0  0  0  0  0  0  0  0  0  0  0
  118.0264  166.3486  145.7036 C   0  0  0  0  0  0  0  0  0  0  0  0
  119.1937  165.8233  144.8347 C   0  0  2  0  0  0  0  0  0  0  0  0
  118.7552  165.3949  143.5383 C   0  0  0  0  0  0  0  0  0  0  0  0
  119.4756  165.6086  142.3944 C   0  0  0  0  0  0  0  0  0  0  0  0
  118.9661  165.2244  141.1799 C   0  0  0  0  0  0  0  0  0  0  0  0
  117.7339  164.6192  141.0525 C   0  0  0  0  0  0  0  0  0  0  0  0
  116.9640  164.1296  140.0048 O   0  0  0  0  0  0  0  0  0  0  0  0
  115.6280  163.9929  140.4350 C   0  0  0  0  0  0  0  0  0  0  0  0
  115.7905  163.7786  141.8401 O   0  0  0  0  0  0  0  0  0  0  0  0
  116.9943  164.3962  142.1949 C   0  0  0  0  0  0  0  0  0  0  0  0
  117.5188  164.7860  143.3978 C   0  0  0  0  0  0  0  0  0  0  0  0
  120.1802  165.1801  145.6393 C   0  0  0  0  0  0  0  0  0  0  0  0
  120.6142  163.9574  145.5182 C   0  0  0  0  0  0  0  0  0  0  0  0
  120.1151  163.0508  144.5021 C   0  0  0  0  0  0  0  0  0  0  0  0
  120.2325  161.6218  145.0280 C   0  0  0  0  0  0  0  0  0  0  0  0
  120.5542  161.5125  146.4518 C   0  0  0  0  0  0  0  0  0  0  0  0
  119.9221  160.7763  147.2155 O   0  0  0  0  0  0  0  0  0  0  0  0
  121.6641  162.3098  146.9580 C   0  0  0  0  0  0  0  0  0  0  0  0
  121.6881  163.5557  146.4731 C   0  0  0  0  0  0  0  0  0  0  0  0
  122.7262  164.5332  146.7945 C   0  0  0  0  0  0  0  0  0  0  0  0
  122.2273  165.9658  146.7985 C   0  0  0  0  0  0  0  0  0  0  0  0
  120.7443  166.0264  146.7965 C   0  0  1  0  0  0  0  0  0  0  0  0
  1  2  1  1
  2  3  1  0
  3  4  1  0
  4  5  1  1
  4  6  1  0
  6  7  3  0
  7  8  1  0
  4  9  1  0
  9 10  1  1
  9 11  1  0
 11 12  1  0
 12 13  1  6
 13 14  2  0
 14 15  1  0
 15 16  2  0
 16 17  1  0
 17 18  1  0
 18 19  1  0
 19 20  1  0
 20 21  2  0
 12 22  1  0
 22 23  2  0
 23 24  1  0
 24 25  1  0
 25 26  1  0
 26 27  2  0
 26 28  1  0
 28 29  2  0
 29 30  1  0
 30 31  1  0
 32 31  1  6
  9  1  1  0
 21 13  1  0
 32 22  1  0
 32  1  1  0
 20 16  1  0
 29 23  1  0
M  END
$$$$
