
     RDKit          3D

 32 37  0  0  0  0  0  0  0  0999 V2000
  129.3410  144.4879  135.1907 C   0  0  2  0  0  0  0  0  0  0  0  0
  130.5281  143.5351  135.2297 C   0  0  0  0  0  0  0  0  0  0  0  0
  131.6642  144.2442  134.5153 C   0  0  0  0  0  0  0  0  0  0  0  0
  131.0259  145.5522  134.0158 C   0  0  1  0  0  0  0  0  0  0  0  0
  131.9440  146.5360  133.7901 O   0  0  0  0  0  0  0  0  0  0  0  0
  130.1609  145.2691  132.8728 C   0  0  0  0  0  0  0  0  0  0  0  0
  129.4347  145.0511  131.9319 C   0  0  0  0  0  0  0  0  0  0  0  0
  128.5358  144.8003  130.7978 C   0  0  0  0  0  0  0  0  0  0  0  0
  130.1086  145.8184  135.1935 C   0  0  2  0  0  0  0  0  0  0  0  0
  130.9707  145.9041  136.4081 C   0  0  0  0  0  0  0  0  0  0  0  0
  129.2352  147.0035  135.0634 C   0  0  0  0  0  0  0  0  0  0  0  0
  127.7595  146.5703  135.2313 C   0  0  2  0  0  0  0  0  0  0  0  0
  126.8432  147.5913  134.8136 C   0  0  0  0  0  0  0  0  0  0  0  0
  125.7595  147.3453  134.0148 C   0  0  0  0  0  0  0  0  0  0  0  0
  124.9590  148.3813  133.6047 C   0  0  0  0  0  0  0  0  0  0  0  0
  125.1991  149.6898  133.9667 C   0  0  0  0  0  0  0  0  0  0  0  0
  124.5995  150.9198  133.7263 O   0  0  0  0  0  0  0  0  0  0  0  0
  125.5171  151.9491  134.0221 C   0  0  0  0  0  0  0  0  0  0  0  0
  126.3434  151.3324  135.0139 O   0  0  0  0  0  0  0  0  0  0  0  0
  126.2871  149.9560  134.7714 C   0  0  0  0  0  0  0  0  0  0  0  0
  127.0743  148.9097  135.1708 C   0  0  0  0  0  0  0  0  0  0  0  0
  127.6032  145.7180  136.3642 C   0  0  0  0  0  0  0  0  0  0  0  0
  126.8138  145.9071  137.3837 C   0  0  0  0  0  0  0  0  0  0  0  0
  125.9586  147.0727  137.5009 C   0  0  0  0  0  0  0  0  0  0  0  0
  125.7478  147.3715  138.9837 C   0  0  0  0  0  0  0  0  0  0  0  0
  126.6162  146.6230  139.8938 C   0  0  0  0  0  0  0  0  0  0  0  0
  127.2463  147.1713  140.8033 O   0  0  0  0  0  0  0  0  0  0  0  0
  126.7207  145.1826  139.6981 C   0  0  0  0  0  0  0  0  0  0  0  0
  126.8179  144.8267  138.4128 C   0  0  0  0  0  0  0  0  0  0  0  0
  126.8892  143.4399  137.9566 C   0  0  0  0  0  0  0  0  0  0  0  0
  127.7044  143.2613  136.6898 C   0  0  0  0  0  0  0  0  0  0  0  0
  128.5078  144.4712  136.3837 C   0  0  1  0  0  0  0  0  0  0  0  0
  1  2  1  1
  2  3  1  0
  3  4  1  0
  4  5  1  6
  4  6  1  0
  6  7  3  0
  7  8  1  0
  4  9  1  0
  9 10  1  1
  9 11  1  0
 11 12  1  0
 12 13  1  1
 13 14  2  0
 14 15  1  0
 15 16  2  0
 16 17  1  0
 17 18  1  0
 18 19  1  0
 19 20  1  0
 20 21  2  0
 12 22  1  0
 22 23  2  0
 23 24  1  0
 24 25  1  0
 25 26  1  0
 26 27  2  0
 26 28  1  0
 28 29  2  0
 29 30  1  0
 30 31  1  0
 32 31  1  6
  9  1  1  0
 21 13  1  0
 32 22  1  0
 32  1  1  0
 20 16  1  0
 29 23  1  0
M  END
$$$$
