
     RDKit          3D

 32 37  0  0  0  0  0  0  0  0999 V2000
  145.8183  168.2611  130.4968 C   0  0  2  0  0  0  0  0  0  0  0  0
  145.0843  169.4720  129.9372 C   0  0  0  0  0  0  0  0  0  0  0  0
  145.2470  170.5779  130.9640 C   0  0  0  0  0  0  0  0  0  0  0  0
  146.0019  169.8989  132.1203 C   0  0  1  0  0  0  0  0  0  0  0  0
  146.6725  170.7884  132.9084 O   0  0  0  0  0  0  0  0  0  0  0  0
  145.0902  169.0223  132.8517 C   0  0  0  0  0  0  0  0  0  0  0  0
  144.3431  168.3046  133.4739 C   0  0  0  0  0  0  0  0  0  0  0  0
  143.4222  167.4511  134.2358 C   0  0  0  0  0  0  0  0  0  0  0  0
  146.9022  168.9951  131.3006 C   0  0  2  0  0  0  0  0  0  0  0  0
  147.6967  169.8750  130.3949 C   0  0  0  0  0  0  0  0  0  0  0  0
  147.7733  168.0904  132.0795 C   0  0  0  0  0  0  0  0  0  0  0  0
  147.5075  166.6290  131.6469 C   0  0  2  0  0  0  0  0  0  0  0  0
  148.0760  165.6807  132.5601 C   0  0  0  0  0  0  0  0  0  0  0  0
  149.2063  165.9282  133.2912 C   0  0  0  0  0  0  0  0  0  0  0  0
  149.7283  164.9514  134.1009 C   0  0  0  0  0  0  0  0  0  0  0  0
  149.1560  163.7024  134.2167 C   0  0  0  0  0  0  0  0  0  0  0  0
  149.4307  162.5385  134.9237 O   0  0  0  0  0  0  0  0  0  0  0  0
  148.7338  161.4628  134.3354 C   0  0  0  0  0  0  0  0  0  0  0  0
  147.6080  162.1243  133.7511 O   0  0  0  0  0  0  0  0  0  0  0  0
  148.0165  163.4356  133.4871 C   0  0  0  0  0  0  0  0  0  0  0  0
  147.5100  164.4224  132.6848 C   0  0  0  0  0  0  0  0  0  0  0  0
  147.4860  166.5129  130.2255 C   0  0  0  0  0  0  0  0  0  0  0  0
  148.2319  165.7363  129.4917 C   0  0  0  0  0  0  0  0  0  0  0  0
  149.2334  164.8544  130.0600 C   0  0  0  0  0  0  0  0  0  0  0  0
  150.3472  164.6610  129.0331 C   0  0  0  0  0  0  0  0  0  0  0  0
  150.2886  165.5629  127.8816 C   0  0  0  0  0  0  0  0  0  0  0  0
  151.2743  166.1943  127.4884 O   0  0  0  0  0  0  0  0  0  0  0  0
  149.0113  165.7000  127.1936 C   0  0  0  0  0  0  0  0  0  0  0  0
  147.9667  165.7845  128.0242 C   0  0  0  0  0  0  0  0  0  0  0  0
  146.5786  165.8828  127.5770 C   0  0  0  0  0  0  0  0  0  0  0  0
  145.6955  166.6808  128.5175 C   0  0  0  0  0  0  0  0  0  0  0  0
  146.5000  167.4486  129.5004 C   0  0  1  0  0  0  0  0  0  0  0  0
  1  2  1  6
  2  3  1  0
  3  4  1  0
  4  5  1  1
  4  6  1  0
  6  7  3  0
  7  8  1  0
  4  9  1  0
  9 10  1  6
  9 11  1  0
 11 12  1  0
 12 13  1  6
 13 14  2  0
 14 15  1  0
 15 16  2  0
 16 17  1  0
 17 18  1  0
 18 19  1  0
 19 20  1  0
 20 21  2  0
 12 22  1  0
 22 23  2  0
 23 24  1  0
 24 25  1  0
 25 26  1  0
 26 27  2  0
 26 28  1  0
 28 29  2  0
 29 30  1  0
 30 31  1  0
 32 31  1  1
  9  1  1  0
 21 13  1  0
 32 22  1  0
 32  1  1  0
 20 16  1  0
 29 23  1  0
M  END
$$$$
