
     RDKit          3D

 32 37  0  0  0  0  0  0  0  0999 V2000
  165.4647  155.6131  124.9070 C   0  0  2  0  0  0  0  0  0  0  0  0
  164.8015  156.2663  123.7020 C   0  0  0  0  0  0  0  0  0  0  0  0
  163.8686  155.2230  123.1146 C   0  0  0  0  0  0  0  0  0  0  0  0
  164.1223  153.9743  123.9773 C   0  0  1  0  0  0  0  0  0  0  0  0
  163.0777  153.0966  123.9572 O   0  0  0  0  0  0  0  0  0  0  0  0
  165.4073  153.3815  123.6140 C   0  0  0  0  0  0  0  0  0  0  0  0
  166.4612  152.8734  123.3115 C   0  0  0  0  0  0  0  0  0  0  0  0
  167.7458  152.2509  122.9663 C   0  0  0  0  0  0  0  0  0  0  0  0
  164.3285  154.6622  125.3128 C   0  0  2  0  0  0  0  0  0  0  0  0
  163.0901  155.4441  125.5973 C   0  0  0  0  0  0  0  0  0  0  0  0
  164.6785  153.7716  126.4390 C   0  0  0  0  0  0  0  0  0  0  0  0
  166.0123  154.2424  127.0659 C   0  0  2  0  0  0  0  0  0  0  0  0
  166.5729  153.2615  127.9491 C   0  0  0  0  0  0  0  0  0  0  0  0
  167.9038  152.9432  127.9686 C   0  0  0  0  0  0  0  0  0  0  0  0
  168.3608  151.9510  128.7986 C   0  0  0  0  0  0  0  0  0  0  0  0
  167.5243  151.2417  129.6342 C   0  0  0  0  0  0  0  0  0  0  0  0
  167.6707  150.2161  130.5598 O   0  0  0  0  0  0  0  0  0  0  0  0
  166.4119  149.6296  130.8055 C   0  0  0  0  0  0  0  0  0  0  0  0
  165.5220  150.7177  130.5396 O   0  0  0  0  0  0  0  0  0  0  0  0
  166.1800  151.5492  129.6275 C   0  0  0  0  0  0  0  0  0  0  0  0
  165.7424  152.5422  128.7929 C   0  0  0  0  0  0  0  0  0  0  0  0
  166.0079  155.6530  127.2764 C   0  0  0  0  0  0  0  0  0  0  0  0
  166.1978  156.2772  128.4044 C   0  0  0  0  0  0  0  0  0  0  0  0
  166.4415  155.5768  129.6508 C   0  0  0  0  0  0  0  0  0  0  0  0
  165.9206  156.4373  130.8000 C   0  0  0  0  0  0  0  0  0  0  0  0
  165.1047  157.5824  130.3929 C   0  0  0  0  0  0  0  0  0  0  0  0
  164.0122  157.8308  130.9122 O   0  0  0  0  0  0  0  0  0  0  0  0
  165.6245  158.4429  129.3378 C   0  0  0  0  0  0  0  0  0  0  0  0
  166.1836  157.7673  128.3283 C   0  0  0  0  0  0  0  0  0  0  0  0
  166.8149  158.4050  127.1745 C   0  0  0  0  0  0  0  0  0  0  0  0
  166.6976  157.5955  125.8970 C   0  0  0  0  0  0  0  0  0  0  0  0
  165.6982  156.5065  126.0318 C   0  0  1  0  0  0  0  0  0  0  0  0
  1  2  1  6
  2  3  1  0
  3  4  1  0
  4  5  1  1
  4  6  1  0
  6  7  3  0
  7  8  1  0
  4  9  1  0
  9 10  1  1
  9 11  1  0
 11 12  1  0
 12 13  1  1
 13 14  2  0
 14 15  1  0
 15 16  2  0
 16 17  1  0
 17 18  1  0
 18 19  1  0
 19 20  1  0
 20 21  2  0
 12 22  1  0
 22 23  2  0
 23 24  1  0
 24 25  1  0
 25 26  1  0
 26 27  2  0
 26 28  1  0
 28 29  2  0
 29 30  1  0
 30 31  1  0
 32 31  1  6
  9  1  1  0
 21 13  1  0
 32 22  1  0
 32  1  1  0
 20 16  1  0
 29 23  1  0
M  END
$$$$
