
     RDKit          3D

 32 37  0  0  0  0  0  0  0  0999 V2000
  189.1633  162.9622  135.3123 C   0  0  2  0  0  0  0  0  0  0  0  0
  190.5583  163.5617  135.1994 C   0  0  0  0  0  0  0  0  0  0  0  0
  191.3500  163.0169  136.3742 C   0  0  0  0  0  0  0  0  0  0  0  0
  190.3181  162.1917  137.1630 C   0  0  1  0  0  0  0  0  0  0  0  0
  190.8943  161.2391  137.9518 O   0  0  0  0  0  0  0  0  0  0  0  0
  189.4147  163.0914  137.8766 C   0  0  0  0  0  0  0  0  0  0  0  0
  188.6650  163.8460  138.4500 C   0  0  0  0  0  0  0  0  0  0  0  0
  187.7386  164.7456  139.1496 C   0  0  0  0  0  0  0  0  0  0  0  0
  189.5331  161.6348  135.9912 C   0  0  2  0  0  0  0  0  0  0  0  0
  190.4972  160.8804  135.1385 C   0  0  0  0  0  0  0  0  0  0  0  0
  188.3612  160.8077  136.3472 C   0  0  0  0  0  0  0  0  0  0  0  0
  187.0962  161.4041  135.6855 C   0  0  2  0  0  0  0  0  0  0  0  0
  185.8887  160.8521  136.2274 C   0  0  0  0  0  0  0  0  0  0  0  0
  184.8846  161.6180  136.7549 C   0  0  0  0  0  0  0  0  0  0  0  0
  183.7830  161.0184  137.3110 C   0  0  0  0  0  0  0  0  0  0  0  0
  183.6349  159.6488  137.3660 C   0  0  0  0  0  0  0  0  0  0  0  0
  182.6756  158.7654  137.8449 O   0  0  0  0  0  0  0  0  0  0  0  0
  183.2523  157.4863  137.9870 C   0  0  0  0  0  0  0  0  0  0  0  0
  184.2863  157.5170  136.9988 O   0  0  0  0  0  0  0  0  0  0  0  0
  184.6372  158.8615  136.8392 C   0  0  0  0  0  0  0  0  0  0  0  0
  185.7286  159.4774  136.2883 C   0  0  0  0  0  0  0  0  0  0  0  0
  187.3340  161.7109  134.3131 C   0  0  0  0  0  0  0  0  0  0  0  0
  186.6702  161.2646  133.2843 C   0  0  0  0  0  0  0  0  0  0  0  0
  185.5548  160.3468  133.4156 C   0  0  0  0  0  0  0  0  0  0  0  0
  185.4757  159.4964  132.1494 C   0  0  0  0  0  0  0  0  0  0  0  0
  186.6309  159.6084  131.2575 C   0  0  0  0  0  0  0  0  0  0  0  0
  187.2066  158.6176  130.7974 O   0  0  0  0  0  0  0  0  0  0  0  0
  187.0952  160.9470  130.9161 C   0  0  0  0  0  0  0  0  0  0  0  0
  187.1086  161.7863  131.9570 C   0  0  0  0  0  0  0  0  0  0  0  0
  187.4911  163.1938  131.8613 C   0  0  0  0  0  0  0  0  0  0  0  0
  188.1428  163.7303  133.1217 C   0  0  0  0  0  0  0  0  0  0  0  0
  188.5374  162.6334  134.0404 C   0  0  1  0  0  0  0  0  0  0  0  0
  1  2  1  6
  2  3  1  0
  3  4  1  0
  4  5  1  1
  4  6  1  0
  6  7  3  0
  7  8  1  0
  4  9  1  0
  9 10  1  6
  9 11  1  0
 11 12  1  0
 12 13  1  6
 13 14  2  0
 14 15  1  0
 15 16  2  0
 16 17  1  0
 17 18  1  0
 18 19  1  0
 19 20  1  0
 20 21  2  0
 12 22  1  0
 22 23  2  0
 23 24  1  0
 24 25  1  0
 25 26  1  0
 26 27  2  0
 26 28  1  0
 28 29  2  0
 29 30  1  0
 30 31  1  0
 32 31  1  1
  9  1  1  0
 21 13  1  0
 32 22  1  0
 32  1  1  0
 20 16  1  0
 29 23  1  0
M  END
$$$$
