
     RDKit          3D

 32 37  0  0  0  0  0  0  0  0999 V2000
  127.0585  148.1169  135.2848 C   0  0  2  0  0  0  0  0  0  0  0  0
  126.5921  149.5656  135.3306 C   0  0  0  0  0  0  0  0  0  0  0  0
  127.7382  150.3609  135.9288 C   0  0  0  0  0  0  0  0  0  0  0  0
  128.7837  149.2895  136.2851 C   0  0  1  0  0  0  0  0  0  0  0  0
  130.0488  149.7932  136.3709 O   0  0  0  0  0  0  0  0  0  0  0  0
  128.3500  148.5590  137.4738 C   0  0  0  0  0  0  0  0  0  0  0  0
  127.9808  147.9709  138.4628 C   0  0  0  0  0  0  0  0  0  0  0  0
  127.5238  147.2390  139.6512 C   0  0  0  0  0  0  0  0  0  0  0  0
  128.5645  148.3612  135.1063 C   0  0  2  0  0  0  0  0  0  0  0  0
  128.8056  149.1605  133.8699 C   0  0  0  0  0  0  0  0  0  0  0  0
  129.3684  147.1211  135.1160 C   0  0  0  0  0  0  0  0  0  0  0  0
  128.4226  145.8995  135.0357 C   0  0  2  0  0  0  0  0  0  0  0  0
  129.0934  144.6720  135.3514 C   0  0  0  0  0  0  0  0  0  0  0  0
  128.4507  143.5746  135.8571 C   0  0  0  0  0  0  0  0  0  0  0  0
  129.1665  142.4533  136.1927 C   0  0  0  0  0  0  0  0  0  0  0  0
  130.5348  142.3764  136.0419 C   0  0  0  0  0  0  0  0  0  0  0  0
  131.5146  141.4206  136.2795 O   0  0  0  0  0  0  0  0  0  0  0  0
  132.7770  142.0484  136.3120 C   0  0  0  0  0  0  0  0  0  0  0  0
  132.5651  143.1821  135.4656 O   0  0  0  0  0  0  0  0  0  0  0  0
  131.1987  143.4732  135.5338 C   0  0  0  0  0  0  0  0  0  0  0  0
  130.4680  144.5829  135.2044 C   0  0  0  0  0  0  0  0  0  0  0  0
  127.4420  146.0790  134.0157 C   0  0  0  0  0  0  0  0  0  0  0  0
  127.2155  145.2945  133.0001 C   0  0  0  0  0  0  0  0  0  0  0  0
  127.9784  144.0834  132.7661 C   0  0  0  0  0  0  0  0  0  0  0  0
  128.0041  143.8097  131.2638 C   0  0  0  0  0  0  0  0  0  0  0  0
  127.5102  144.9054  130.4283 C   0  0  0  0  0  0  0  0  0  0  0  0
  128.1342  145.3176  129.4456 O   0  0  0  0  0  0  0  0  0  0  0  0
  126.2352  145.5112  130.7906 C   0  0  0  0  0  0  0  0  0  0  0  0
  126.0927  145.7029  132.1063 C   0  0  0  0  0  0  0  0  0  0  0  0
  124.8866  146.2534  132.7216 C   0  0  0  0  0  0  0  0  0  0  0  0
  125.1614  147.0534  133.9808 C   0  0  0  0  0  0  0  0  0  0  0  0
  126.6050  147.3680  134.1224 C   0  0  1  0  0  0  0  0  0  0  0  0
  1  2  1  6
  2  3  1  0
  3  4  1  0
  4  5  1  1
  4  6  1  0
  6  7  3  0
  7  8  1  0
  4  9  1  0
  9 10  1  6
  9 11  1  0
 11 12  1  0
 12 13  1  6
 13 14  2  0
 14 15  1  0
 15 16  2  0
 16 17  1  0
 17 18  1  0
 18 19  1  0
 19 20  1  0
 20 21  2  0
 12 22  1  0
 22 23  2  0
 23 24  1  0
 24 25  1  0
 25 26  1  0
 26 27  2  0
 26 28  1  0
 28 29  2  0
 29 30  1  0
 30 31  1  0
 32 31  1  1
  9  1  1  0
 21 13  1  0
 32 22  1  0
 32  1  1  0
 20 16  1  0
 29 23  1  0
M  END
$$$$
