
     RDKit          3D

 32 37  0  0  0  0  0  0  0  0999 V2000
  190.6774  156.9566  127.2628 C   0  0  2  0  0  0  0  0  0  0  0  0
  190.7287  156.8562  128.7812 C   0  0  0  0  0  0  0  0  0  0  0  0
  191.4451  158.1040  129.2644 C   0  0  0  0  0  0  0  0  0  0  0  0
  191.8545  158.8202  127.9654 C   0  0  1  0  0  0  0  0  0  0  0  0
  192.0615  160.1573  128.1415 O   0  0  0  0  0  0  0  0  0  0  0  0
  192.9796  158.1173  127.3530 C   0  0  0  0  0  0  0  0  0  0  0  0
  193.9047  157.5433  126.8287 C   0  0  0  0  0  0  0  0  0  0  0  0
  195.0422  156.8499  126.2106 C   0  0  0  0  0  0  0  0  0  0  0  0
  190.6334  158.4864  127.1306 C   0  0  2  0  0  0  0  0  0  0  0  0
  189.4469  159.0243  127.8576 C   0  0  0  0  0  0  0  0  0  0  0  0
  190.6721  158.9589  125.7309 C   0  0  0  0  0  0  0  0  0  0  0  0
  190.4751  157.7542  124.7803 C   0  0  2  0  0  0  0  0  0  0  0  0
  190.8078  158.0741  123.4226 C   0  0  0  0  0  0  0  0  0  0  0  0
  190.3094  159.1664  122.7657 C   0  0  0  0  0  0  0  0  0  0  0  0
  190.6238  159.3775  121.4471 C   0  0  0  0  0  0  0  0  0  0  0  0
  191.4369  158.5222  120.7342 C   0  0  0  0  0  0  0  0  0  0  0  0
  191.9265  158.4583  119.4356 O   0  0  0  0  0  0  0  0  0  0  0  0
  192.3774  157.1480  119.1736 C   0  0  0  0  0  0  0  0  0  0  0  0
  192.7376  156.6925  120.4811 O   0  0  0  0  0  0  0  0  0  0  0  0
  191.9479  157.4162  121.3805 C   0  0  0  0  0  0  0  0  0  0  0  0
  191.6235  157.2220  122.6961 C   0  0  0  0  0  0  0  0  0  0  0  0
  189.3825  156.9418  125.2052 C   0  0  0  0  0  0  0  0  0  0  0  0
  188.3279  156.6216  124.5101 C   0  0  0  0  0  0  0  0  0  0  0  0
  188.1213  157.0832  123.1507 C   0  0  0  0  0  0  0  0  0  0  0  0
  186.6187  157.1746  122.8932 C   0  0  0  0  0  0  0  0  0  0  0  0
  185.7790  157.0396  124.0846 C   0  0  0  0  0  0  0  0  0  0  0  0
  184.8652  157.8301  124.3396 O   0  0  0  0  0  0  0  0  0  0  0  0
  186.0517  155.9243  124.9820 C   0  0  0  0  0  0  0  0  0  0  0  0
  187.3561  155.7167  125.1906 C   0  0  0  0  0  0  0  0  0  0  0  0
  187.8849  154.6319  126.0152 C   0  0  0  0  0  0  0  0  0  0  0  0
  189.1868  154.9808  126.7111 C   0  0  0  0  0  0  0  0  0  0  0  0
  189.4585  156.4390  126.6594 C   0  0  1  0  0  0  0  0  0  0  0  0
  1  2  1  1
  2  3  1  0
  3  4  1  0
  4  5  1  1
  4  6  1  0
  6  7  3  0
  7  8  1  0
  4  9  1  0
  9 10  1  1
  9 11  1  0
 11 12  1  0
 12 13  1  6
 13 14  2  0
 14 15  1  0
 15 16  2  0
 16 17  1  0
 17 18  1  0
 18 19  1  0
 19 20  1  0
 20 21  2  0
 12 22  1  0
 22 23  2  0
 23 24  1  0
 24 25  1  0
 25 26  1  0
 26 27  2  0
 26 28  1  0
 28 29  2  0
 29 30  1  0
 30 31  1  0
 32 31  1  6
  9  1  1  0
 21 13  1  0
 32 22  1  0
 32  1  1  0
 20 16  1  0
 29 23  1  0
M  END
$$$$
