
     RDKit          3D

 32 37  0  0  0  0  0  0  0  0999 V2000
  191.5528  163.5291  131.3400 C   0  0  2  0  0  0  0  0  0  0  0  0
  191.7050  165.0058  131.6787 C   0  0  0  0  0  0  0  0  0  0  0  0
  193.1946  165.2540  131.8315 C   0  0  0  0  0  0  0  0  0  0  0  0
  193.8203  163.8587  131.6594 C   0  0  1  0  0  0  0  0  0  0  0  0
  195.1282  163.9097  131.2739 O   0  0  0  0  0  0  0  0  0  0  0  0
  193.5830  163.0645  132.8625 C   0  0  0  0  0  0  0  0  0  0  0  0
  193.3670  162.4088  133.8544 C   0  0  0  0  0  0  0  0  0  0  0  0
  193.1173  161.5945  135.0508 C   0  0  0  0  0  0  0  0  0  0  0  0
  192.8812  163.3211  130.5972 C   0  0  2  0  0  0  0  0  0  0  0  0
  192.9617  164.2497  129.4323 C   0  0  0  0  0  0  0  0  0  0  0  0
  193.1168  161.9197  130.1911 C   0  0  0  0  0  0  0  0  0  0  0  0
  191.8193  161.1033  130.3995 C   0  0  2  0  0  0  0  0  0  0  0  0
  192.0499  159.6899  130.3272 C   0  0  0  0  0  0  0  0  0  0  0  0
  191.3353  158.7753  131.0525 C   0  0  0  0  0  0  0  0  0  0  0  0
  191.6509  157.4422  130.9787 C   0  0  0  0  0  0  0  0  0  0  0  0
  192.6778  156.9675  130.1905 C   0  0  0  0  0  0  0  0  0  0  0  0
  193.2285  155.7237  129.9083 O   0  0  0  0  0  0  0  0  0  0  0  0
  194.5107  155.9003  129.3481 C   0  0  0  0  0  0  0  0  0  0  0  0
  194.3899  157.1862  128.7330 O   0  0  0  0  0  0  0  0  0  0  0  0
  193.4084  157.8752  129.4528 C   0  0  0  0  0  0  0  0  0  0  0  0
  193.0789  159.2011  129.5390 C   0  0  0  0  0  0  0  0  0  0  0  0
  190.6899  161.7953  129.8703 C   0  0  0  0  0  0  0  0  0  0  0  0
  189.8541  161.3581  128.9713 C   0  0  0  0  0  0  0  0  0  0  0  0
  189.9814  160.0485  128.3609 C   0  0  0  0  0  0  0  0  0  0  0  0
  189.3858  160.1090  126.9559 C   0  0  0  0  0  0  0  0  0  0  0  0
  189.0803  161.4564  126.4725 C   0  0  0  0  0  0  0  0  0  0  0  0
  189.4341  161.8524  125.3576 O   0  0  0  0  0  0  0  0  0  0  0  0
  188.3303  162.3390  127.3570 C   0  0  0  0  0  0  0  0  0  0  0  0
  188.7307  162.2793  128.6315 C   0  0  0  0  0  0  0  0  0  0  0  0
  188.1065  163.0351  129.7158 C   0  0  0  0  0  0  0  0  0  0  0  0
  189.0735  163.4193  130.8197 C   0  0  0  0  0  0  0  0  0  0  0  0
  190.4840  163.2274  130.3996 C   0  0  1  0  0  0  0  0  0  0  0  0
  1  2  1  6
  2  3  1  0
  3  4  1  0
  4  5  1  6
  4  6  1  0
  6  7  3  0
  7  8  1  0
  4  9  1  0
  9 10  1  6
  9 11  1  0
 11 12  1  0
 12 13  1  6
 13 14  2  0
 14 15  1  0
 15 16  2  0
 16 17  1  0
 17 18  1  0
 18 19  1  0
 19 20  1  0
 20 21  2  0
 12 22  1  0
 22 23  2  0
 23 24  1  0
 24 25  1  0
 25 26  1  0
 26 27  2  0
 26 28  1  0
 28 29  2  0
 29 30  1  0
 30 31  1  0
 32 31  1  1
  9  1  1  0
 21 13  1  0
 32 22  1  0
 32  1  1  0
 20 16  1  0
 29 23  1  0
M  END
$$$$
