
     RDKit          3D

 32 37  0  0  0  0  0  0  0  0999 V2000
  168.8571  146.9800  124.8712 C   0  0  2  0  0  0  0  0  0  0  0  0
  168.6908  146.5953  123.4074 C   0  0  0  0  0  0  0  0  0  0  0  0
  168.8226  147.8822  122.6135 C   0  0  0  0  0  0  0  0  0  0  0  0
  168.9680  148.9684  123.6938 C   0  0  1  0  0  0  0  0  0  0  0  0
  169.5775  150.0975  123.2296 O   0  0  0  0  0  0  0  0  0  0  0  0
  167.6725  149.2060  124.3261 C   0  0  0  0  0  0  0  0  0  0  0  0
  166.5919  149.3948  124.8331 C   0  0  0  0  0  0  0  0  0  0  0  0
  165.2826  149.6474  125.4484 C   0  0  0  0  0  0  0  0  0  0  0  0
  169.7959  148.1826  124.6920 C   0  0  2  0  0  0  0  0  0  0  0  0
  171.0394  147.7547  123.9876 C   0  0  0  0  0  0  0  0  0  0  0  0
  170.1026  148.8849  125.9557 C   0  0  0  0  0  0  0  0  0  0  0  0
  169.5964  148.0366  127.1464 C   0  0  2  0  0  0  0  0  0  0  0  0
  169.5739  148.7807  128.3721 C   0  0  0  0  0  0  0  0  0  0  0  0
  168.4700  148.8680  129.1763 C   0  0  0  0  0  0  0  0  0  0  0  0
  168.5021  149.6476  130.3048 C   0  0  0  0  0  0  0  0  0  0  0  0
  169.6192  150.3648  130.6770 C   0  0  0  0  0  0  0  0  0  0  0  0
  169.9589  151.2155  131.7215 O   0  0  0  0  0  0  0  0  0  0  0  0
  171.0981  151.9635  131.3590 C   0  0  0  0  0  0  0  0  0  0  0  0
  171.7467  151.0850  130.4348 O   0  0  0  0  0  0  0  0  0  0  0  0
  170.7408  150.2885  129.8781 C   0  0  0  0  0  0  0  0  0  0  0  0
  170.6902  149.5056  128.7563 C   0  0  0  0  0  0  0  0  0  0  0  0
  169.9848  146.6718  127.0028 C   0  0  0  0  0  0  0  0  0  0  0  0
  170.6800  145.9624  127.8463 C   0  0  0  0  0  0  0  0  0  0  0  0
  171.1769  146.5049  129.0963 C   0  0  0  0  0  0  0  0  0  0  0  0
  172.4568  145.7612  129.4724 C   0  0  0  0  0  0  0  0  0  0  0  0
  173.0049  144.9046  128.4196 C   0  0  0  0  0  0  0  0  0  0  0  0
  174.1965  144.9373  128.0972 O   0  0  0  0  0  0  0  0  0  0  0  0
  172.0910  143.9903  127.7466 C   0  0  0  0  0  0  0  0  0  0  0  0
  170.9053  144.5387  127.4610 C   0  0  0  0  0  0  0  0  0  0  0  0
  169.8055  143.8130  126.8283 C   0  0  0  0  0  0  0  0  0  0  0  0
  168.9272  144.6884  125.9544 C   0  0  0  0  0  0  0  0  0  0  0  0
  169.5653  146.0003  125.6813 C   0  0  1  0  0  0  0  0  0  0  0  0
  1  2  1  6
  2  3  1  0
  3  4  1  0
  4  5  1  6
  4  6  1  0
  6  7  3  0
  7  8  1  0
  4  9  1  0
  9 10  1  6
  9 11  1  0
 11 12  1  0
 12 13  1  1
 13 14  2  0
 14 15  1  0
 15 16  2  0
 16 17  1  0
 17 18  1  0
 18 19  1  0
 19 20  1  0
 20 21  2  0
 12 22  1  0
 22 23  2  0
 23 24  1  0
 24 25  1  0
 25 26  1  0
 26 27  2  0
 26 28  1  0
 28 29  2  0
 29 30  1  0
 30 31  1  0
 32 31  1  1
  9  1  1  0
 21 13  1  0
 32 22  1  0
 32  1  1  0
 20 16  1  0
 29 23  1  0
M  END
$$$$
