
     RDKit          3D

 32 37  0  0  0  0  0  0  0  0999 V2000
  118.4385  166.4981  144.9368 C   0  0  2  0  0  0  0  0  0  0  0  0
  119.1884  166.8994  146.1998 C   0  0  0  0  0  0  0  0  0  0  0  0
  119.5289  168.3701  146.0411 C   0  0  0  0  0  0  0  0  0  0  0  0
  119.0264  168.7142  144.6280 C   0  0  1  0  0  0  0  0  0  0  0  0
  118.7816  170.0465  144.4638 O   0  0  0  0  0  0  0  0  0  0  0  0
  119.9348  168.1471  143.6341 C   0  0  0  0  0  0  0  0  0  0  0  0
  120.6924  167.6965  142.8075 C   0  0  0  0  0  0  0  0  0  0  0  0
  121.6268  167.1407  141.8202 C   0  0  0  0  0  0  0  0  0  0  0  0
  117.7812  167.8488  144.6156 C   0  0  2  0  0  0  0  0  0  0  0  0
  116.9338  168.2861  145.7630 C   0  0  0  0  0  0  0  0  0  0  0  0
  117.0205  167.8482  143.3485 C   0  0  0  0  0  0  0  0  0  0  0  0
  116.8826  166.3945  142.8373 C   0  0  2  0  0  0  0  0  0  0  0  0
  116.4371  166.3381  141.4754 C   0  0  0  0  0  0  0  0  0  0  0  0
  117.1293  165.6938  140.4860 C   0  0  0  0  0  0  0  0  0  0  0  0
  116.6739  165.7319  139.1924 C   0  0  0  0  0  0  0  0  0  0  0  0
  115.5254  166.4040  138.8318 C   0  0  0  0  0  0  0  0  0  0  0  0
  114.8243  166.6242  137.6529 O   0  0  0  0  0  0  0  0  0  0  0  0
  113.9504  167.7169  137.8298 C   0  0  0  0  0  0  0  0  0  0  0  0
  113.6973  167.6680  139.2370 O   0  0  0  0  0  0  0  0  0  0  0  0
  114.8153  167.0589  139.8162 C   0  0  0  0  0  0  0  0  0  0  0  0
  115.2848  167.0098  141.1011 C   0  0  0  0  0  0  0  0  0  0  0  0
  116.4753  165.5201  143.8880 C   0  0  0  0  0  0  0  0  0  0  0  0
  115.4231  164.7516  143.9039 C   0  0  0  0  0  0  0  0  0  0  0  0
  114.4836  164.6945  142.8004 C   0  0  0  0  0  0  0  0  0  0  0  0
  113.1068  164.3340  143.3546 C   0  0  0  0  0  0  0  0  0  0  0  0
  112.9959  164.3849  144.8132 C   0  0  0  0  0  0  0  0  0  0  0  0
  112.0702  164.9702  145.3837 O   0  0  0  0  0  0  0  0  0  0  0  0
  114.0260  163.7120  145.5943 C   0  0  0  0  0  0  0  0  0  0  0  0
  115.2617  163.9025  145.1202 C   0  0  0  0  0  0  0  0  0  0  0  0
  116.4579  163.2963  145.7018 C   0  0  0  0  0  0  0  0  0  0  0  0
  117.7022  164.1512  145.5531 C   0  0  0  0  0  0  0  0  0  0  0  0
  117.3651  165.5380  145.1455 C   0  0  1  0  0  0  0  0  0  0  0  0
  1  2  1  1
  2  3  1  0
  3  4  1  0
  4  5  1  1
  4  6  1  0
  6  7  3  0
  7  8  1  0
  4  9  1  0
  9 10  1  1
  9 11  1  0
 11 12  1  0
 12 13  1  6
 13 14  2  0
 14 15  1  0
 15 16  2  0
 16 17  1  0
 17 18  1  0
 18 19  1  0
 19 20  1  0
 20 21  2  0
 12 22  1  0
 22 23  2  0
 23 24  1  0
 24 25  1  0
 25 26  1  0
 26 27  2  0
 26 28  1  0
 28 29  2  0
 29 30  1  0
 30 31  1  0
 32 31  1  6
  9  1  1  0
 21 13  1  0
 32 22  1  0
 32  1  1  0
 20 16  1  0
 29 23  1  0
M  END
$$$$
