
     RDKit          3D

 32 37  0  0  0  0  0  0  0  0999 V2000
  129.1102  141.7910  134.5836 C   0  0  2  0  0  0  0  0  0  0  0  0
  130.2467  140.9522  135.1523 C   0  0  0  0  0  0  0  0  0  0  0  0
  131.4606  141.8620  135.2029 C   0  0  0  0  0  0  0  0  0  0  0  0
  130.9670  143.1710  134.5619 C   0  0  1  0  0  0  0  0  0  0  0  0
  131.7057  144.2550  134.9375 O   0  0  0  0  0  0  0  0  0  0  0  0
  130.8561  142.9960  133.1156 C   0  0  0  0  0  0  0  0  0  0  0  0
  130.7469  142.8608  131.9197 C   0  0  0  0  0  0  0  0  0  0  0  0
  130.6304  142.6797  130.4669 C   0  0  0  0  0  0  0  0  0  0  0  0
  129.5513  143.1670  135.1051 C   0  0  2  0  0  0  0  0  0  0  0  0
  129.6543  143.1362  136.5931 C   0  0  0  0  0  0  0  0  0  0  0  0
  128.6905  144.2763  134.6437 C   0  0  0  0  0  0  0  0  0  0  0  0
  127.4218  143.6939  133.9767 C   0  0  2  0  0  0  0  0  0  0  0  0
  126.6961  144.6832  133.2345 C   0  0  0  0  0  0  0  0  0  0  0  0
  126.5125  144.6191  131.8797 C   0  0  0  0  0  0  0  0  0  0  0  0
  125.8587  145.6330  131.2264 C   0  0  0  0  0  0  0  0  0  0  0  0
  125.3658  146.7401  131.8840 C   0  0  0  0  0  0  0  0  0  0  0  0
  124.6831  147.8951  131.5238 O   0  0  0  0  0  0  0  0  0  0  0  0
  124.8029  148.8465  132.5580 C   0  0  0  0  0  0  0  0  0  0  0  0
  124.9716  148.0129  133.7083 O   0  0  0  0  0  0  0  0  0  0  0  0
  125.5421  146.8211  133.2494 C   0  0  0  0  0  0  0  0  0  0  0  0
  126.1966  145.8001  133.8842 C   0  0  0  0  0  0  0  0  0  0  0  0
  126.8496  142.6637  134.7801 C   0  0  0  0  0  0  0  0  0  0  0  0
  125.6346  142.6199  135.2491 C   0  0  0  0  0  0  0  0  0  0  0  0
  124.6672  143.6727  135.0053 C   0  0  0  0  0  0  0  0  0  0  0  0
  123.6912  143.7150  136.1792 C   0  0  0  0  0  0  0  0  0  0  0  0
  124.0845  142.9121  137.3381 C   0  0  0  0  0  0  0  0  0  0  0  0
  124.0727  143.3639  138.4873 O   0  0  0  0  0  0  0  0  0  0  0  0
  124.4979  141.5352  137.0988 C   0  0  0  0  0  0  0  0  0  0  0  0
  125.2866  141.3958  136.0280 C   0  0  0  0  0  0  0  0  0  0  0  0
  125.7954  140.1096  135.5553 C   0  0  0  0  0  0  0  0  0  0  0  0
  127.1559  140.2049  134.8910 C   0  0  0  0  0  0  0  0  0  0  0  0
  127.8025  141.5138  135.1585 C   0  0  1  0  0  0  0  0  0  0  0  0
  1  2  1  1
  2  3  1  0
  3  4  1  0
  4  5  1  6
  4  6  1  0
  6  7  3  0
  7  8  1  0
  4  9  1  0
  9 10  1  1
  9 11  1  0
 11 12  1  0
 12 13  1  1
 13 14  2  0
 14 15  1  0
 15 16  2  0
 16 17  1  0
 17 18  1  0
 18 19  1  0
 19 20  1  0
 20 21  2  0
 12 22  1  0
 22 23  2  0
 23 24  1  0
 24 25  1  0
 25 26  1  0
 26 27  2  0
 26 28  1  0
 28 29  2  0
 29 30  1  0
 30 31  1  0
 32 31  1  6
  9  1  1  0
 21 13  1  0
 32 22  1  0
 32  1  1  0
 20 16  1  0
 29 23  1  0
M  END
$$$$
