
     RDKit          3D

 32 37  0  0  0  0  0  0  0  0999 V2000
  202.2058  132.7882  134.7105 C   0  0  2  0  0  0  0  0  0  0  0  0
  200.7208  132.6440  134.4066 C   0  0  0  0  0  0  0  0  0  0  0  0
  200.2414  134.0178  133.9746 C   0  0  0  0  0  0  0  0  0  0  0  0
  201.4819  134.9119  134.1465 C   0  0  1  0  0  0  0  0  0  0  0  0
  201.4334  136.0372  133.3764 O   0  0  0  0  0  0  0  0  0  0  0  0
  201.7060  135.1697  135.5671 C   0  0  0  0  0  0  0  0  0  0  0  0
  201.8717  135.3855  136.7445 C   0  0  0  0  0  0  0  0  0  0  0  0
  202.0505  135.6540  138.1773 C   0  0  0  0  0  0  0  0  0  0  0  0
  202.5395  133.9129  133.7189 C   0  0  2  0  0  0  0  0  0  0  0  0
  202.1991  133.4833  132.3314 C   0  0  0  0  0  0  0  0  0  0  0  0
  203.9362  134.3869  133.8128 C   0  0  0  0  0  0  0  0  0  0  0  0
  204.7437  133.4198  134.7108 C   0  0  2  0  0  0  0  0  0  0  0  0
  206.0086  133.9707  135.1018 C   0  0  0  0  0  0  0  0  0  0  0  0
  206.5288  133.8353  136.3604 C   0  0  0  0  0  0  0  0  0  0  0  0
  207.7175  134.4405  136.6813 C   0  0  0  0  0  0  0  0  0  0  0  0
  208.4306  135.1970  135.7757 C   0  0  0  0  0  0  0  0  0  0  0  0
  209.6208  135.9134  135.7894 O   0  0  0  0  0  0  0  0  0  0  0  0
  209.6352  136.8101  134.7009 C   0  0  0  0  0  0  0  0  0  0  0  0
  208.7948  136.1413  133.7560 O   0  0  0  0  0  0  0  0  0  0  0  0
  207.9211  135.3442  134.5026 C   0  0  0  0  0  0  0  0  0  0  0  0
  206.7340  134.7329  134.2007 C   0  0  0  0  0  0  0  0  0  0  0  0
  204.4978  132.0621  134.3496 C   0  0  0  0  0  0  0  0  0  0  0  0
  205.3822  131.1736  133.9940 C   0  0  0  0  0  0  0  0  0  0  0  0
  206.7986  131.4749  133.9100 C   0  0  0  0  0  0  0  0  0  0  0  0
  207.4244  130.5692  132.8514 C   0  0  0  0  0  0  0  0  0  0  0  0
  206.4668  129.8334  132.0243 C   0  0  0  0  0  0  0  0  0  0  0  0
  206.5458  129.8048  130.7922 O   0  0  0  0  0  0  0  0  0  0  0  0
  205.3947  129.1179  132.7042 C   0  0  0  0  0  0  0  0  0  0  0  0
  204.8493  129.8091  133.7106 C   0  0  0  0  0  0  0  0  0  0  0  0
  203.7886  129.2903  134.5722 C   0  0  0  0  0  0  0  0  0  0  0  0
  202.8466  130.3634  135.0844 C   0  0  0  0  0  0  0  0  0  0  0  0
  203.0169  131.6375  134.3423 C   0  0  1  0  0  0  0  0  0  0  0  0
  1  2  1  6
  2  3  1  0
  3  4  1  0
  4  5  1  6
  4  6  1  0
  6  7  3  0
  7  8  1  0
  4  9  1  0
  9 10  1  6
  9 11  1  0
 11 12  1  0
 12 13  1  6
 13 14  2  0
 14 15  1  0
 15 16  2  0
 16 17  1  0
 17 18  1  0
 18 19  1  0
 19 20  1  0
 20 21  2  0
 12 22  1  0
 22 23  2  0
 23 24  1  0
 24 25  1  0
 25 26  1  0
 26 27  2  0
 26 28  1  0
 28 29  2  0
 29 30  1  0
 30 31  1  0
 32 31  1  1
  9  1  1  0
 21 13  1  0
 32 22  1  0
 32  1  1  0
 20 16  1  0
 29 23  1  0
M  END
$$$$
