
     RDKit          3D

 32 37  0  0  0  0  0  0  0  0999 V2000
  211.1576  165.2132  140.5078 C   0  0  2  0  0  0  0  0  0  0  0  0
  210.1089  166.0997  139.8500 C   0  0  0  0  0  0  0  0  0  0  0  0
  209.0518  166.3614  140.9073 C   0  0  0  0  0  0  0  0  0  0  0  0
  209.5153  165.5183  142.1083 C   0  0  1  0  0  0  0  0  0  0  0  0
  209.0145  165.9686  143.2950 O   0  0  0  0  0  0  0  0  0  0  0  0
  209.2501  164.1057  141.8458 C   0  0  0  0  0  0  0  0  0  0  0  0
  209.0406  162.9326  141.6455 C   0  0  0  0  0  0  0  0  0  0  0  0
  208.7630  161.5104  141.4062 C   0  0  0  0  0  0  0  0  0  0  0  0
  211.0114  165.7108  141.9536 C   0  0  2  0  0  0  0  0  0  0  0  0
  211.2715  167.1787  142.0135 C   0  0  0  0  0  0  0  0  0  0  0  0
  211.8504  164.9713  142.9197 C   0  0  0  0  0  0  0  0  0  0  0  0
  212.8460  164.0733  142.1478 C   0  0  2  0  0  0  0  0  0  0  0  0
  213.4733  163.1033  142.9976 C   0  0  0  0  0  0  0  0  0  0  0  0
  213.7871  163.3451  144.3076 C   0  0  0  0  0  0  0  0  0  0  0  0
  214.4416  162.3908  145.0446 C   0  0  0  0  0  0  0  0  0  0  0  0
  214.8075  161.1707  144.5171 C   0  0  0  0  0  0  0  0  0  0  0  0
  215.4554  160.0337  144.9833 O   0  0  0  0  0  0  0  0  0  0  0  0
  215.9015  159.2703  143.8846 C   0  0  0  0  0  0  0  0  0  0  0  0
  214.9564  159.6291  142.8723 O   0  0  0  0  0  0  0  0  0  0  0  0
  214.4991  160.9101  143.1984 C   0  0  0  0  0  0  0  0  0  0  0  0
  213.8458  161.8741  142.4787 C   0  0  0  0  0  0  0  0  0  0  0  0
  213.4799  164.7997  141.0967 C   0  0  0  0  0  0  0  0  0  0  0  0
  214.7601  164.9709  140.9242 C   0  0  0  0  0  0  0  0  0  0  0  0
  215.7487  164.4215  141.8322 C   0  0  0  0  0  0  0  0  0  0  0  0
  216.9801  165.3247  141.8117 C   0  0  0  0  0  0  0  0  0  0  0  0
  216.7953  166.6048  141.1263 C   0  0  0  0  0  0  0  0  0  0  0  0
  217.1366  167.6784  141.6321 O   0  0  0  0  0  0  0  0  0  0  0  0
  216.1869  166.5819  139.8022 C   0  0  0  0  0  0  0  0  0  0  0  0
  215.1505  165.7422  139.7080 C   0  0  0  0  0  0  0  0  0  0  0  0
  214.4034  165.5084  138.4737 C   0  0  0  0  0  0  0  0  0  0  0  0
  212.9410  165.1782  138.7055 C   0  0  0  0  0  0  0  0  0  0  0  0
  212.5274  165.4839  140.0977 C   0  0  1  0  0  0  0  0  0  0  0  0
  1  2  1  6
  2  3  1  0
  3  4  1  0
  4  5  1  1
  4  6  1  0
  6  7  3  0
  7  8  1  0
  4  9  1  0
  9 10  1  6
  9 11  1  0
 11 12  1  0
 12 13  1  1
 13 14  2  0
 14 15  1  0
 15 16  2  0
 16 17  1  0
 17 18  1  0
 18 19  1  0
 19 20  1  0
 20 21  2  0
 12 22  1  0
 22 23  2  0
 23 24  1  0
 24 25  1  0
 25 26  1  0
 26 27  2  0
 26 28  1  0
 28 29  2  0
 29 30  1  0
 30 31  1  0
 32 31  1  6
  9  1  1  0
 21 13  1  0
 32 22  1  0
 32  1  1  0
 20 16  1  0
 29 23  1  0
M  END
$$$$
