
     RDKit          3D

 32 37  0  0  0  0  0  0  0  0999 V2000
  200.9454  131.6671  135.4338 C   0  0  2  0  0  0  0  0  0  0  0  0
  199.6177  130.9263  135.5182 C   0  0  0  0  0  0  0  0  0  0  0  0
  198.5816  131.8409  134.8908 C   0  0  0  0  0  0  0  0  0  0  0  0
  199.3714  133.1190  134.5582 C   0  0  1  0  0  0  0  0  0  0  0  0
  198.7867  133.8604  133.5732 O   0  0  0  0  0  0  0  0  0  0  0  0
  199.6382  133.8629  135.7869 C   0  0  0  0  0  0  0  0  0  0  0  0
  199.8429  134.4698  136.8118 C   0  0  0  0  0  0  0  0  0  0  0  0
  200.0845  135.2269  138.0468 C   0  0  0  0  0  0  0  0  0  0  0  0
  200.6824  132.4736  134.1531 C   0  0  2  0  0  0  0  0  0  0  0  0
  200.3825  131.5471  133.0229 C   0  0  0  0  0  0  0  0  0  0  0  0
  201.7731  133.4106  133.8117 C   0  0  0  0  0  0  0  0  0  0  0  0
  202.9992  133.1140  134.7074 C   0  0  2  0  0  0  0  0  0  0  0  0
  203.9742  134.1644  134.6580 C   0  0  0  0  0  0  0  0  0  0  0  0
  204.7384  134.5296  135.7331 C   0  0  0  0  0  0  0  0  0  0  0  0
  205.6095  135.5845  135.6301 C   0  0  0  0  0  0  0  0  0  0  0  0
  205.7558  136.3124  134.4684 C   0  0  0  0  0  0  0  0  0  0  0  0
  206.5225  137.3955  134.0572 O   0  0  0  0  0  0  0  0  0  0  0  0
  205.9536  137.9513  132.8926 C   0  0  0  0  0  0  0  0  0  0  0  0
  205.2970  136.8190  132.3152 O   0  0  0  0  0  0  0  0  0  0  0  0
  204.9935  135.9583  133.3751 C   0  0  0  0  0  0  0  0  0  0  0  0
  204.1300  134.9030  133.4964 C   0  0  0  0  0  0  0  0  0  0  0  0
  203.2769  131.7155  134.7465 C   0  0  0  0  0  0  0  0  0  0  0  0
  204.3947  131.1295  134.4224 C   0  0  0  0  0  0  0  0  0  0  0  0
  205.5516  131.8658  133.9498 C   0  0  0  0  0  0  0  0  0  0  0  0
  206.3589  130.9576  133.0247 C   0  0  0  0  0  0  0  0  0  0  0  0
  205.6862  129.7168  132.6367 C   0  0  0  0  0  0  0  0  0  0  0  0
  205.6252  129.3397  131.4624 O   0  0  0  0  0  0  0  0  0  0  0  0
  205.0777  128.9179  133.6929 C   0  0  0  0  0  0  0  0  0  0  0  0
  204.4233  129.6486  134.6017 C   0  0  0  0  0  0  0  0  0  0  0  0
  203.7678  129.0837  135.7797 C   0  0  0  0  0  0  0  0  0  0  0  0
  202.5421  129.8612  136.2207 C   0  0  0  0  0  0  0  0  0  0  0  0
  202.1000  130.8194  135.1770 C   0  0  1  0  0  0  0  0  0  0  0  0
  1  2  1  6
  2  3  1  0
  3  4  1  0
  4  5  1  6
  4  6  1  0
  6  7  3  0
  7  8  1  0
  4  9  1  0
  9 10  1  6
  9 11  1  0
 11 12  1  0
 12 13  1  6
 13 14  2  0
 14 15  1  0
 15 16  2  0
 16 17  1  0
 17 18  1  0
 18 19  1  0
 19 20  1  0
 20 21  2  0
 12 22  1  0
 22 23  2  0
 23 24  1  0
 24 25  1  0
 25 26  1  0
 26 27  2  0
 26 28  1  0
 28 29  2  0
 29 30  1  0
 30 31  1  0
 32 31  1  1
  9  1  1  0
 21 13  1  0
 32 22  1  0
 32  1  1  0
 20 16  1  0
 29 23  1  0
M  END
$$$$
