
     RDKit          3D

 32 37  0  0  0  0  0  0  0  0999 V2000
  202.6938  131.3896  137.2193 C   0  0  2  0  0  0  0  0  0  0  0  0
  201.8073  130.6404  138.2049 C   0  0  0  0  0  0  0  0  0  0  0  0
  200.7932  131.6487  138.7137 C   0  0  0  0  0  0  0  0  0  0  0  0
  201.2203  132.9688  138.0484 C   0  0  1  0  0  0  0  0  0  0  0  0
  200.2015  133.8726  137.9649 O   0  0  0  0  0  0  0  0  0  0  0  0
  202.4209  133.4813  138.7045 C   0  0  0  0  0  0  0  0  0  0  0  0
  203.4153  133.8882  139.2577 C   0  0  0  0  0  0  0  0  0  0  0  0
  204.6103  134.3931  139.9461 C   0  0  0  0  0  0  0  0  0  0  0  0
  201.6662  132.4118  136.7104 C   0  0  2  0  0  0  0  0  0  0  0  0
  200.4942  131.7019  136.1202 C   0  0  0  0  0  0  0  0  0  0  0  0
  202.2333  133.3991  135.7682 C   0  0  0  0  0  0  0  0  0  0  0  0
  203.6555  132.9516  135.3552 C   0  0  2  0  0  0  0  0  0  0  0  0
  204.3846  133.9977  134.6990 C   0  0  0  0  0  0  0  0  0  0  0  0
  205.6610  134.3519  135.0430 C   0  0  0  0  0  0  0  0  0  0  0  0
  206.2758  135.4035  134.4118 C   0  0  0  0  0  0  0  0  0  0  0  0
  205.6555  136.1385  133.4240 C   0  0  0  0  0  0  0  0  0  0  0  0
  205.9939  137.2207  132.6214 O   0  0  0  0  0  0  0  0  0  0  0  0
  204.8185  137.7870  132.0860 C   0  0  0  0  0  0  0  0  0  0  0  0
  203.9356  136.6617  132.0558 O   0  0  0  0  0  0  0  0  0  0  0  0
  204.3689  135.7954  133.0647 C   0  0  0  0  0  0  0  0  0  0  0  0
  203.7716  134.7433  133.7054 C   0  0  0  0  0  0  0  0  0  0  0  0
  203.6736  131.5699  135.0017 C   0  0  0  0  0  0  0  0  0  0  0  0
  204.0650  131.0560  133.8700 C   0  0  0  0  0  0  0  0  0  0  0  0
  204.5481  131.8697  132.7707 C   0  0  0  0  0  0  0  0  0  0  0  0
  204.2427  131.1454  131.4613 C   0  0  0  0  0  0  0  0  0  0  0  0
  203.3507  129.9917  131.5875 C   0  0  0  0  0  0  0  0  0  0  0  0
  202.3728  129.8312  130.8508 O   0  0  0  0  0  0  0  0  0  0  0  0
  203.6516  129.0139  132.6254 C   0  0  0  0  0  0  0  0  0  0  0  0
  204.0185  129.5670  133.7863 C   0  0  0  0  0  0  0  0  0  0  0  0
  204.4130  128.7974  134.9646 C   0  0  0  0  0  0  0  0  0  0  0  0
  204.0669  129.4783  136.2753 C   0  0  0  0  0  0  0  0  0  0  0  0
  203.1243  130.6064  136.0709 C   0  0  1  0  0  0  0  0  0  0  0  0
  1  2  1  1
  2  3  1  0
  3  4  1  0
  4  5  1  6
  4  6  1  0
  6  7  3  0
  7  8  1  0
  4  9  1  0
  9 10  1  6
  9 11  1  0
 11 12  1  0
 12 13  1  6
 13 14  2  0
 14 15  1  0
 15 16  2  0
 16 17  1  0
 17 18  1  0
 18 19  1  0
 19 20  1  0
 20 21  2  0
 12 22  1  0
 22 23  2  0
 23 24  1  0
 24 25  1  0
 25 26  1  0
 26 27  2  0
 26 28  1  0
 28 29  2  0
 29 30  1  0
 30 31  1  0
 32 31  1  1
  9  1  1  0
 21 13  1  0
 32 22  1  0
 32  1  1  0
 20 16  1  0
 29 23  1  0
M  END
$$$$
