
     RDKit          3D

 32 37  0  0  0  0  0  0  0  0999 V2000
  188.4562  162.2504  135.2074 C   0  0  2  0  0  0  0  0  0  0  0  0
  189.2727  161.9447  133.9591 C   0  0  0  0  0  0  0  0  0  0  0  0
  190.7207  162.2195  134.3222 C   0  0  0  0  0  0  0  0  0  0  0  0
  190.6430  162.7664  135.7584 C   0  0  1  0  0  0  0  0  0  0  0  0
  191.8127  162.6172  136.4449 O   0  0  0  0  0  0  0  0  0  0  0  0
  190.1359  164.1364  135.7334 C   0  0  0  0  0  0  0  0  0  0  0  0
  189.6979  165.2625  135.7102 C   0  0  0  0  0  0  0  0  0  0  0  0
  189.1634  166.6294  135.6587 C   0  0  0  0  0  0  0  0  0  0  0  0
  189.5096  161.8978  136.2684 C   0  0  2  0  0  0  0  0  0  0  0  0
  189.9391  160.4785  136.1046 C   0  0  0  0  0  0  0  0  0  0  0  0
  189.0693  162.1751  137.6517 C   0  0  0  0  0  0  0  0  0  0  0  0
  187.5558  162.4960  137.6505 C   0  0  2  0  0  0  0  0  0  0  0  0
  187.1227  163.0743  138.8892 C   0  0  0  0  0  0  0  0  0  0  0  0
  186.4330  164.2540  138.9656 C   0  0  0  0  0  0  0  0  0  0  0  0
  186.1028  164.7787  140.1895 C   0  0  0  0  0  0  0  0  0  0  0  0
  186.4404  164.1608  141.3748 C   0  0  0  0  0  0  0  0  0  0  0  0
  186.2600  164.4250  142.7267 O   0  0  0  0  0  0  0  0  0  0  0  0
  187.1692  163.6501  143.4763 C   0  0  0  0  0  0  0  0  0  0  0  0
  187.3724  162.5223  142.6200 O   0  0  0  0  0  0  0  0  0  0  0  0
  187.1357  162.9712  141.3166 C   0  0  0  0  0  0  0  0  0  0  0  0
  187.4562  162.4627  140.0867 C   0  0  0  0  0  0  0  0  0  0  0  0
  186.8325  161.5437  136.8732 C   0  0  0  0  0  0  0  0  0  0  0  0
  185.8446  160.7942  137.2736 C   0  0  0  0  0  0  0  0  0  0  0  0
  185.3385  160.8329  138.6323 C   0  0  0  0  0  0  0  0  0  0  0  0
  184.7627  159.4603  138.9740 C   0  0  0  0  0  0  0  0  0  0  0  0
  185.0709  158.4039  138.0087 C   0  0  0  0  0  0  0  0  0  0  0  0
  185.5075  157.3019  138.3550 O   0  0  0  0  0  0  0  0  0  0  0  0
  184.8438  158.6891  136.5977 C   0  0  0  0  0  0  0  0  0  0  0  0
  185.2392  159.9132  136.2326 C   0  0  0  0  0  0  0  0  0  0  0  0
  185.0774  160.4509  134.8831 C   0  0  0  0  0  0  0  0  0  0  0  0
  186.1689  161.4268  134.4862 C   0  0  0  0  0  0  0  0  0  0  0  0
  187.3193  161.3678  135.4222 C   0  0  1  0  0  0  0  0  0  0  0  0
  1  2  1  6
  2  3  1  0
  3  4  1  0
  4  5  1  1
  4  6  1  0
  6  7  3  0
  7  8  1  0
  4  9  1  0
  9 10  1  1
  9 11  1  0
 11 12  1  0
 12 13  1  1
 13 14  2  0
 14 15  1  0
 15 16  2  0
 16 17  1  0
 17 18  1  0
 18 19  1  0
 19 20  1  0
 20 21  2  0
 12 22  1  0
 22 23  2  0
 23 24  1  0
 24 25  1  0
 25 26  1  0
 26 27  2  0
 26 28  1  0
 28 29  2  0
 29 30  1  0
 30 31  1  0
 32 31  1  6
  9  1  1  0
 21 13  1  0
 32 22  1  0
 32  1  1  0
 20 16  1  0
 29 23  1  0
M  END
$$$$
