
     RDKit          3D

 32 37  0  0  0  0  0  0  0  0999 V2000
  201.7301  140.1146  132.7844 C   0  0  2  0  0  0  0  0  0  0  0  0
  201.4457  140.5973  134.2002 C   0  0  0  0  0  0  0  0  0  0  0  0
  202.4337  141.7169  134.4727 C   0  0  0  0  0  0  0  0  0  0  0  0
  203.3079  141.7529  133.2069 C   0  0  1  0  0  0  0  0  0  0  0  0
  203.9177  142.9592  133.0197 O   0  0  0  0  0  0  0  0  0  0  0  0
  204.2244  140.6151  133.2128 C   0  0  0  0  0  0  0  0  0  0  0  0
  204.9949  139.6843  133.2293 C   0  0  0  0  0  0  0  0  0  0  0  0
  205.9469  138.5664  133.2609 C   0  0  0  0  0  0  0  0  0  0  0  0
  202.2348  141.4352  132.1838 C   0  0  2  0  0  0  0  0  0  0  0  0
  201.1833  142.4857  132.3129 C   0  0  0  0  0  0  0  0  0  0  0  0
  202.7051  141.3071  130.7886 C   0  0  0  0  0  0  0  0  0  0  0  0
  202.3012  139.9181  130.2398 C   0  0  2  0  0  0  0  0  0  0  0  0
  202.9820  139.5979  129.0190 C   0  0  0  0  0  0  0  0  0  0  0  0
  203.7571  138.4808  128.8632 C   0  0  0  0  0  0  0  0  0  0  0  0
  204.4281  138.2690  127.6854 C   0  0  0  0  0  0  0  0  0  0  0  0
  204.3580  139.1481  126.6255 C   0  0  0  0  0  0  0  0  0  0  0  0
  204.8976  139.2180  125.3473 O   0  0  0  0  0  0  0  0  0  0  0  0
  204.7961  140.5421  124.8725 C   0  0  0  0  0  0  0  0  0  0  0  0
  203.6519  141.0240  125.5834 O   0  0  0  0  0  0  0  0  0  0  0  0
  203.5815  140.2793  126.7652 C   0  0  0  0  0  0  0  0  0  0  0  0
  202.9192  140.4737  127.9474 C   0  0  0  0  0  0  0  0  0  0  0  0
  200.9370  139.6279  130.5384 C   0  0  0  0  0  0  0  0  0  0  0  0
  199.9943  139.3351  129.6878 C   0  0  0  0  0  0  0  0  0  0  0  0
  200.2273  139.2732  128.2576 C   0  0  0  0  0  0  0  0  0  0  0  0
  198.9264  139.6252  127.5391 C   0  0  0  0  0  0  0  0  0  0  0  0
  197.8746  140.1705  128.3987 C   0  0  0  0  0  0  0  0  0  0  0  0
  197.2522  141.1967  128.1082 O   0  0  0  0  0  0  0  0  0  0  0  0
  197.5710  139.4568  129.6326 C   0  0  0  0  0  0  0  0  0  0  0  0
  198.6598  139.0314  130.2820 C   0  0  0  0  0  0  0  0  0  0  0  0
  198.6164  138.2538  131.5189 C   0  0  0  0  0  0  0  0  0  0  0  0
  199.7963  138.5116  132.4368 C   0  0  0  0  0  0  0  0  0  0  0  0
  200.5513  139.7219  132.0269 C   0  0  1  0  0  0  0  0  0  0  0  0
  1  2  1  1
  2  3  1  0
  3  4  1  0
  4  5  1  6
  4  6  1  0
  6  7  3  0
  7  8  1  0
  4  9  1  0
  9 10  1  6
  9 11  1  0
 11 12  1  0
 12 13  1  6
 13 14  2  0
 14 15  1  0
 15 16  2  0
 16 17  1  0
 17 18  1  0
 18 19  1  0
 19 20  1  0
 20 21  2  0
 12 22  1  0
 22 23  2  0
 23 24  1  0
 24 25  1  0
 25 26  1  0
 26 27  2  0
 26 28  1  0
 28 29  2  0
 29 30  1  0
 30 31  1  0
 32 31  1  1
  9  1  1  0
 21 13  1  0
 32 22  1  0
 32  1  1  0
 20 16  1  0
 29 23  1  0
M  END
$$$$
