
     RDKit          3D

 32 37  0  0  0  0  0  0  0  0999 V2000
  133.8026  164.8036  151.7890 C   0  0  2  0  0  0  0  0  0  0  0  0
  134.3353  165.9112  150.8901 C   0  0  0  0  0  0  0  0  0  0  0  0
  133.1407  166.7754  150.5296 C   0  0  0  0  0  0  0  0  0  0  0  0
  131.9503  166.0483  151.1794 C   0  0  1  0  0  0  0  0  0  0  0  0
  130.8864  166.8725  151.4045 O   0  0  0  0  0  0  0  0  0  0  0  0
  131.6259  164.8525  150.4053 C   0  0  0  0  0  0  0  0  0  0  0  0
  131.3768  163.8613  149.7604 C   0  0  0  0  0  0  0  0  0  0  0  0
  131.0521  162.6641  148.9741 C   0  0  0  0  0  0  0  0  0  0  0  0
  132.6415  165.5692  152.4411 C   0  0  2  0  0  0  0  0  0  0  0  0
  133.1619  166.7798  153.1408 C   0  0  0  0  0  0  0  0  0  0  0  0
  131.8164  164.7357  153.3402 C   0  0  0  0  0  0  0  0  0  0  0  0
  132.5269  163.3815  153.5750 C   0  0  2  0  0  0  0  0  0  0  0  0
  131.6586  162.4096  154.1733 C   0  0  0  0  0  0  0  0  0  0  0  0
  131.5675  161.1157  153.7367 C   0  0  0  0  0  0  0  0  0  0  0  0
  130.6704  160.2560  154.3184 C   0  0  0  0  0  0  0  0  0  0  0  0
  129.8359  160.6414  155.3460 C   0  0  0  0  0  0  0  0  0  0  0  0
  128.8545  160.0331  156.1185 O   0  0  0  0  0  0  0  0  0  0  0  0
  128.0671  161.0272  156.7355 C   0  0  0  0  0  0  0  0  0  0  0  0
  128.9895  162.1163  156.8332 O   0  0  0  0  0  0  0  0  0  0  0  0
  129.9142  161.9418  155.7984 C   0  0  0  0  0  0  0  0  0  0  0  0
  130.8153  162.7852  155.2061 C   0  0  0  0  0  0  0  0  0  0  0  0
  133.9057  163.5751  153.8844 C   0  0  0  0  0  0  0  0  0  0  0  0
  134.5349  163.1636  154.9487 C   0  0  0  0  0  0  0  0  0  0  0  0
  133.8733  162.4266  156.0084 C   0  0  0  0  0  0  0  0  0  0  0  0
  134.5954  162.7153  157.3229 C   0  0  0  0  0  0  0  0  0  0  0  0
  135.5665  163.8091  157.2664 C   0  0  0  0  0  0  0  0  0  0  0  0
  135.5880  164.7151  158.1051 O   0  0  0  0  0  0  0  0  0  0  0  0
  136.5304  163.8026  156.1733 C   0  0  0  0  0  0  0  0  0  0  0  0
  135.9947  163.4686  154.9945 C   0  0  0  0  0  0  0  0  0  0  0  0
  136.7635  163.3481  153.7572 C   0  0  0  0  0  0  0  0  0  0  0  0
  135.9694  163.7044  152.5148 C   0  0  0  0  0  0  0  0  0  0  0  0
  134.7043  164.4007  152.8578 C   0  0  1  0  0  0  0  0  0  0  0  0
  1  2  1  6
  2  3  1  0
  3  4  1  0
  4  5  1  1
  4  6  1  0
  6  7  3  0
  7  8  1  0
  4  9  1  0
  9 10  1  1
  9 11  1  0
 11 12  1  0
 12 13  1  1
 13 14  2  0
 14 15  1  0
 15 16  2  0
 16 17  1  0
 17 18  1  0
 18 19  1  0
 19 20  1  0
 20 21  2  0
 12 22  1  0
 22 23  2  0
 23 24  1  0
 24 25  1  0
 25 26  1  0
 26 27  2  0
 26 28  1  0
 28 29  2  0
 29 30  1  0
 30 31  1  0
 32 31  1  6
  9  1  1  0
 21 13  1  0
 32 22  1  0
 32  1  1  0
 20 16  1  0
 29 23  1  0
M  END
$$$$
