
     RDKit          3D

 32 37  0  0  0  0  0  0  0  0999 V2000
  192.2848  157.2256  120.6879 C   0  0  2  0  0  0  0  0  0  0  0  0
  193.3597  156.2269  120.2809 C   0  0  0  0  0  0  0  0  0  0  0  0
  194.4454  157.0313  119.5895 C   0  0  0  0  0  0  0  0  0  0  0  0
  193.8793  158.4617  119.5557 C   0  0  1  0  0  0  0  0  0  0  0  0
  194.8510  159.4122  119.4364 O   0  0  0  0  0  0  0  0  0  0  0  0
  192.8309  158.5491  118.5418 C   0  0  0  0  0  0  0  0  0  0  0  0
  191.9520  158.6098  117.7146 C   0  0  0  0  0  0  0  0  0  0  0  0
  190.8680  158.6808  116.7263 C   0  0  0  0  0  0  0  0  0  0  0  0
  193.1778  158.4574  120.9000 C   0  0  2  0  0  0  0  0  0  0  0  0
  194.2135  158.1611  121.9322 C   0  0  0  0  0  0  0  0  0  0  0  0
  192.4221  159.6847  121.2264 C   0  0  0  0  0  0  0  0  0  0  0  0
  190.9504  159.3130  121.5256 C   0  0  2  0  0  0  0  0  0  0  0  0
  190.0932  160.4625  121.5435 C   0  0  0  0  0  0  0  0  0  0  0  0
  190.5083  161.7013  121.9513 C   0  0  0  0  0  0  0  0  0  0  0  0
  189.6169  162.7431  121.9994 C   0  0  0  0  0  0  0  0  0  0  0  0
  188.2912  162.5993  121.6488 C   0  0  0  0  0  0  0  0  0  0  0  0
  187.1770  163.4270  121.5909 O   0  0  0  0  0  0  0  0  0  0  0  0
  186.0116  162.6341  121.5470 C   0  0  0  0  0  0  0  0  0  0  0  0
  186.4926  161.4356  120.9315 O   0  0  0  0  0  0  0  0  0  0  0  0
  187.8557  161.3578  121.2356 C   0  0  0  0  0  0  0  0  0  0  0  0
  188.7593  160.3304  121.1937 C   0  0  0  0  0  0  0  0  0  0  0  0
  190.8752  158.1990  122.4130 C   0  0  0  0  0  0  0  0  0  0  0  0
  190.2684  158.1551  123.5653 C   0  0  0  0  0  0  0  0  0  0  0  0
  189.5650  159.2963  124.1192 C   0  0  0  0  0  0  0  0  0  0  0  0
  189.6067  159.1983  125.6427 C   0  0  0  0  0  0  0  0  0  0  0  0
  190.5175  158.1815  126.1711 C   0  0  0  0  0  0  0  0  0  0  0  0
  191.3279  158.4260  127.0701 O   0  0  0  0  0  0  0  0  0  0  0  0
  190.4425  156.8429  125.5995 C   0  0  0  0  0  0  0  0  0  0  0  0
  190.3121  156.8400  124.2687 C   0  0  0  0  0  0  0  0  0  0  0  0
  190.1717  155.6249  123.4685 C   0  0  0  0  0  0  0  0  0  0  0  0
  190.7686  155.7437  122.0790 C   0  0  0  0  0  0  0  0  0  0  0  0
  191.6390  156.9401  121.9603 C   0  0  1  0  0  0  0  0  0  0  0  0
  1  2  1  1
  2  3  1  0
  3  4  1  0
  4  5  1  1
  4  6  1  0
  6  7  3  0
  7  8  1  0
  4  9  1  0
  9 10  1  1
  9 11  1  0
 11 12  1  0
 12 13  1  1
 13 14  2  0
 14 15  1  0
 15 16  2  0
 16 17  1  0
 17 18  1  0
 18 19  1  0
 19 20  1  0
 20 21  2  0
 12 22  1  0
 22 23  2  0
 23 24  1  0
 24 25  1  0
 25 26  1  0
 26 27  2  0
 26 28  1  0
 28 29  2  0
 29 30  1  0
 30 31  1  0
 32 31  1  6
  9  1  1  0
 21 13  1  0
 32 22  1  0
 32  1  1  0
 20 16  1  0
 29 23  1  0
M  END
$$$$
