
     RDKit          3D

 32 37  0  0  0  0  0  0  0  0999 V2000
  129.0302  142.4705  135.3477 C   0  0  2  0  0  0  0  0  0  0  0  0
  128.9867  141.0213  135.8129 C   0  0  0  0  0  0  0  0  0  0  0  0
  128.2009  141.0166  137.1115 C   0  0  0  0  0  0  0  0  0  0  0  0
  127.9106  142.5052  137.3719 C   0  0  1  0  0  0  0  0  0  0  0  0
  126.8317  142.6991  138.1844 O   0  0  0  0  0  0  0  0  0  0  0  0
  129.1294  143.1685  137.8293 C   0  0  0  0  0  0  0  0  0  0  0  0
  130.1478  143.7005  138.2038 C   0  0  0  0  0  0  0  0  0  0  0  0
  131.3757  144.3680  138.6550 C   0  0  0  0  0  0  0  0  0  0  0  0
  127.6938  142.9459  135.9374 C   0  0  2  0  0  0  0  0  0  0  0  0
  126.5766  142.1216  135.3912 C   0  0  0  0  0  0  0  0  0  0  0  0
  127.4455  144.3903  135.7470 C   0  0  0  0  0  0  0  0  0  0  0  0
  128.4936  144.9625  134.7633 C   0  0  2  0  0  0  0  0  0  0  0  0
  128.5163  146.3964  134.7680 C   0  0  0  0  0  0  0  0  0  0  0  0
  129.6676  147.1286  134.6612 C   0  0  0  0  0  0  0  0  0  0  0  0
  129.6201  148.4978  134.7337 C   0  0  0  0  0  0  0  0  0  0  0  0
  128.4405  149.1887  134.9133 C   0  0  0  0  0  0  0  0  0  0  0  0
  128.0705  150.5232  135.0242 O   0  0  0  0  0  0  0  0  0  0  0  0
  126.7847  150.6020  135.5981 C   0  0  0  0  0  0  0  0  0  0  0  0
  126.2058  149.3564  135.1983 O   0  0  0  0  0  0  0  0  0  0  0  0
  127.2707  148.4667  135.0230 C   0  0  0  0  0  0  0  0  0  0  0  0
  127.3375  147.1015  134.9482 C   0  0  0  0  0  0  0  0  0  0  0  0
  128.6258  144.1271  133.6149 C   0  0  0  0  0  0  0  0  0  0  0  0
  128.4635  144.4757  132.3698 C   0  0  0  0  0  0  0  0  0  0  0  0
  128.1017  145.8250  131.9796 C   0  0  0  0  0  0  0  0  0  0  0  0
  127.3199  145.7571  130.6694 C   0  0  0  0  0  0  0  0  0  0  0  0
  126.9078  144.4119  130.2655 C   0  0  0  0  0  0  0  0  0  0  0  0
  125.7520  144.1541  129.9155 O   0  0  0  0  0  0  0  0  0  0  0  0
  127.9169  143.3605  130.2848 C   0  0  0  0  0  0  0  0  0  0  0  0
  128.7085  143.4034  131.3617 C   0  0  0  0  0  0  0  0  0  0  0  0
  129.8226  142.4850  131.5885 C   0  0  0  0  0  0  0  0  0  0  0  0
  130.0797  142.1971  133.0556 C   0  0  0  0  0  0  0  0  0  0  0  0
  128.9503  142.6495  133.9057 C   0  0  1  0  0  0  0  0  0  0  0  0
  1  2  1  6
  2  3  1  0
  3  4  1  0
  4  5  1  1
  4  6  1  0
  6  7  3  0
  7  8  1  0
  4  9  1  0
  9 10  1  6
  9 11  1  0
 11 12  1  0
 12 13  1  6
 13 14  2  0
 14 15  1  0
 15 16  2  0
 16 17  1  0
 17 18  1  0
 18 19  1  0
 19 20  1  0
 20 21  2  0
 12 22  1  0
 22 23  2  0
 23 24  1  0
 24 25  1  0
 25 26  1  0
 26 27  2  0
 26 28  1  0
 28 29  2  0
 29 30  1  0
 30 31  1  0
 32 31  1  6
  9  1  1  0
 21 13  1  0
 32 22  1  0
 32  1  1  0
 20 16  1  0
 29 23  1  0
M  END
$$$$
