
     RDKit          3D

 32 37  0  0  0  0  0  0  0  0999 V2000
  130.2874  147.8024  137.3597 C   0  0  2  0  0  0  0  0  0  0  0  0
  131.4833  148.2127  138.2081 C   0  0  0  0  0  0  0  0  0  0  0  0
  131.6338  149.7126  138.0310 C   0  0  0  0  0  0  0  0  0  0  0  0
  130.5513  150.0721  136.9981 C   0  0  1  0  0  0  0  0  0  0  0  0
  130.1808  151.3841  137.0554 O   0  0  0  0  0  0  0  0  0  0  0  0
  130.9742  149.6285  135.6718 C   0  0  0  0  0  0  0  0  0  0  0  0
  131.3364  149.2486  134.5833 C   0  0  0  0  0  0  0  0  0  0  0  0
  131.7596  148.7708  133.2606 C   0  0  0  0  0  0  0  0  0  0  0  0
  129.4767  149.1038  137.4529 C   0  0  2  0  0  0  0  0  0  0  0  0
  129.1827  149.4170  138.8816 C   0  0  0  0  0  0  0  0  0  0  0  0
  128.2453  149.0916  136.6357 C   0  0  0  0  0  0  0  0  0  0  0  0
  127.9872  147.6545  136.1239 C   0  0  2  0  0  0  0  0  0  0  0  0
  127.0021  147.6181  135.0825 C   0  0  0  0  0  0  0  0  0  0  0  0
  126.8018  146.5296  134.2773 C   0  0  0  0  0  0  0  0  0  0  0  0
  125.8821  146.5869  133.2609 C   0  0  0  0  0  0  0  0  0  0  0  0
  125.1318  147.7149  133.0048 C   0  0  0  0  0  0  0  0  0  0  0  0
  124.1553  148.0787  132.0861 O   0  0  0  0  0  0  0  0  0  0  0  0
  124.0478  149.4845  132.0553 C   0  0  0  0  0  0  0  0  0  0  0  0
  124.4669  149.8418  133.3756 O   0  0  0  0  0  0  0  0  0  0  0  0
  125.3206  148.8211  133.8064 C   0  0  0  0  0  0  0  0  0  0  0  0
  126.2424  148.7453  134.8156 C   0  0  0  0  0  0  0  0  0  0  0  0
  128.1259  146.7042  137.1784 C   0  0  0  0  0  0  0  0  0  0  0  0
  127.2313  145.8478  137.5837 C   0  0  0  0  0  0  0  0  0  0  0  0
  125.9130  145.7569  136.9860 C   0  0  0  0  0  0  0  0  0  0  0  0
  124.9341  145.2556  138.0457 C   0  0  0  0  0  0  0  0  0  0  0  0
  125.4605  145.2345  139.4114 C   0  0  0  0  0  0  0  0  0  0  0  0
  124.8383  145.7128  140.3648 O   0  0  0  0  0  0  0  0  0  0  0  0
  126.7648  144.6202  139.6247 C   0  0  0  0  0  0  0  0  0  0  0  0
  127.6613  144.9368  138.6844 C   0  0  0  0  0  0  0  0  0  0  0  0
  129.0251  144.4119  138.6521 C   0  0  0  0  0  0  0  0  0  0  0  0
  130.0302  145.3765  138.0517 C   0  0  0  0  0  0  0  0  0  0  0  0
  129.4683  146.7451  137.9332 C   0  0  1  0  0  0  0  0  0  0  0  0
  1  2  1  1
  2  3  1  0
  3  4  1  0
  4  5  1  6
  4  6  1  0
  6  7  3  0
  7  8  1  0
  4  9  1  0
  9 10  1  1
  9 11  1  0
 11 12  1  0
 12 13  1  1
 13 14  2  0
 14 15  1  0
 15 16  2  0
 16 17  1  0
 17 18  1  0
 18 19  1  0
 19 20  1  0
 20 21  2  0
 12 22  1  0
 22 23  2  0
 23 24  1  0
 24 25  1  0
 25 26  1  0
 26 27  2  0
 26 28  1  0
 28 29  2  0
 29 30  1  0
 30 31  1  0
 32 31  1  6
  9  1  1  0
 21 13  1  0
 32 22  1  0
 32  1  1  0
 20 16  1  0
 29 23  1  0
M  END
$$$$
