
     RDKit          3D

 59 67  0  0  0  0  0  0  0  0999 V2000
  151.2104  164.2699  129.4453 C   0  0  0  0  0  0  0  0  0  0  0  0
  150.3564  165.4795  129.7980 C   0  0  0  0  0  0  0  0  0  0  0  0
  149.3926  165.7799  128.6313 C   0  0  1  0  0  0  0  0  0  0  0  0
  149.3196  164.5029  127.8851 C   0  0  0  0  0  0  0  0  0  0  0  0
  148.2591  163.7455  127.9081 C   0  0  0  0  0  0  0  0  0  0  0  0
  147.0683  164.1368  128.6916 C   0  0  0  0  0  0  0  0  0  0  0  0
  146.9989  165.4427  129.1179 N   0  0  0  0  0  0  0  0  0  0  0  0
  145.7892  166.1605  129.1255 C   0  0  0  0  0  0  0  0  0  0  0  0
  146.0744  167.3896  128.3195 C   0  0  0  0  0  0  0  0  0  0  0  0
  147.5674  167.5558  128.4786 C   0  0  1  0  0  0  0  0  0  0  0  0
  148.1018  166.3194  129.0929 C   0  0  2  0  0  0  0  0  0  0  0  0
  148.1252  168.0482  127.1952 C   0  0  1  0  0  0  0  0  0  0  0  0
  148.4488  169.4218  127.3730 N   0  0  0  0  0  0  0  0  0  0  0  0
  148.8260  170.4154  126.3960 C   0  0  0  0  0  0  0  0  0  0  0  0
  148.3328  169.7777  128.7659 C   0  0  0  0  0  0  0  0  0  0  0  0
  148.6167  170.8984  129.4938 C   0  0  0  0  0  0  0  0  0  0  0  0
  148.3732  170.9622  130.8713 C   0  0  0  0  0  0  0  0  0  0  0  0
  148.6989  172.1422  131.5182 O   0  0  0  0  0  0  0  0  0  0  0  0
  149.0031  173.2941  130.7705 C   0  0  0  0  0  0  0  0  0  0  0  0
  147.8255  169.8664  131.5447 C   0  0  0  0  0  0  0  0  0  0  0  0
  147.5597  168.7761  130.7861 C   0  0  0  0  0  0  0  0  0  0  0  0
  147.8064  168.7151  129.4041 C   0  0  0  0  0  0  0  0  0  0  0  0
  147.5034  169.9439  132.9771 C   0  0  1  0  0  0  0  0  0  0  0  0
  147.1286  171.3034  133.4783 C   0  0  0  0  0  0  0  0  0  0  0  0
  145.7663  171.8363  133.3427 C   0  0  2  0  0  0  0  0  0  0  0  0
  145.2242  172.5206  134.5910 C   0  0  0  0  0  0  0  0  0  0  0  0
  144.3906  171.6661  135.4258 C   0  0  2  0  0  0  0  0  0  0  0  0
  144.3239  170.2967  134.8542 C   0  0  0  0  0  0  0  0  0  0  0  0
  143.6899  170.3728  133.4483 N   0  0  0  0  0  0  0  0  0  0  0  0
  144.8111  171.0764  132.6252 C   0  0  0  0  0  0  0  0  0  0  0  0
  144.0471  168.8978  133.0115 C   0  0  0  0  0  0  0  0  0  0  0  0
  145.3295  168.4778  133.4551 C   0  0  0  0  0  0  0  0  0  0  0  0
  146.6748  168.8221  133.4829 C   0  0  0  0  0  0  0  0  0  0  0  0
  147.3259  167.8495  134.1587 N   0  0  0  0  0  0  0  0  0  0  0  0
  146.5157  166.8803  134.5831 C   0  0  0  0  0  0  0  0  0  0  0  0
  146.7369  165.7207  135.2915 C   0  0  0  0  0  0  0  0  0  0  0  0
  145.6891  164.8876  135.5943 C   0  0  0  0  0  0  0  0  0  0  0  0
  144.4322  165.2180  135.1887 C   0  0  0  0  0  0  0  0  0  0  0  0
  144.2294  166.3868  134.4783 C   0  0  0  0  0  0  0  0  0  0  0  0
  145.2623  167.2625  134.1483 C   0  0  0  0  0  0  0  0  0  0  0  0
  142.9571  172.1018  135.6165 C   0  0  0  0  0  0  0  0  0  0  0  0
  142.9035  173.2660  136.5755 C   0  0  0  0  0  0  0  0  0  0  0  0
  142.2463  171.0727  136.2104 F   0  0  0  0  0  0  0  0  0  0  0  0
  142.4184  172.4825  134.4158 F   0  0  0  0  0  0  0  0  0  0  0  0
  148.8818  169.8082  133.6413 C   0  0  0  0  0  0  0  0  0  0  0  0
  149.2113  168.8641  134.3529 O   0  0  0  0  0  0  0  0  0  0  0  0
  149.8444  170.8181  133.4320 O   0  0  0  0  0  0  0  0  0  0  0  0
  151.0756  170.7674  134.1046 C   0  0  0  0  0  0  0  0  0  0  0  0
  149.1886  167.1465  126.6604 C   0  0  2  0  0  0  0  0  0  0  0  0
  148.4663  165.9603  126.3083 O   0  0  0  0  0  0  0  0  0  0  0  0
  150.1013  166.8538  127.8331 C   0  0  2  0  0  0  0  0  0  0  0  0
  151.4018  166.5260  127.4397 O   0  0  0  0  0  0  0  0  0  0  0  0
  151.6419  165.7693  126.3029 C   0  0  0  0  0  0  0  0  0  0  0  0
  150.5690  165.1071  125.5263 C   0  0  0  0  0  0  0  0  0  0  0  0
  152.8279  165.6340  125.9042 O   0  0  0  0  0  0  0  0  0  0  0  0
  149.8847  167.5586  125.4649 C   0  0  0  0  0  0  0  0  0  0  0  0
  151.1315  167.6460  125.4446 O   0  0  0  0  0  0  0  0  0  0  0  0
  149.2033  167.8735  124.3067 O   0  0  0  0  0  0  0  0  0  0  0  0
  148.2701  168.9400  124.2263 C   0  0  0  0  0  0  0  0  0  0  0  0
  1  2  1  0
  3  2  1  1
  3  4  1  0
  4  5  2  0
  5  6  1  0
  6  7  1  0
  7  8  1  0
  8  9  1  0
 10  9  1  6
 10 11  1  0
 10 12  1  0
 12 13  1  1
 13 14  1  0
 13 15  1  0
 15 16  2  0
 16 17  1  0
 17 18  1  0
 18 19  1  0
 17 20  2  0
 20 21  1  0
 21 22  2  0
 20 23  1  0
 23 24  1  0
 25 24  1  1
 25 26  1  0
 26 27  1  0
 27 28  1  0
 29 28  1  1
 29 30  1  0
 29 31  1  0
 31 32  1  0
 32 33  2  0
 33 34  1  0
 34 35  1  0
 35 36  2  0
 36 37  1  0
 37 38  2  0
 38 39  1  0
 39 40  2  0
 27 41  1  6
 41 42  1  0
 41 43  1  0
 41 44  1  0
 23 45  1  1
 45 46  2  0
 45 47  1  0
 47 48  1  0
 12 49  1  0
 49 50  1  6
 49 51  1  0
 51 52  1  6
 52 53  1  0
 53 54  1  0
 53 55  2  0
 49 56  1  0
 56 57  2  0
 56 58  1  0
 58 59  1  0
 11  3  1  0
 22 15  1  0
 33 23  1  0
 40 35  1  0
 51  3  1  0
 11  7  1  6
 30 25  1  0
 40 32  1  0
 22 10  1  0
M  END
$$$$
