
     RDKit          3D

 59 67  0  0  0  0  0  0  0  0999 V2000
  178.0567  162.1825  113.4215 C   0  0  0  0  0  0  0  0  0  0  0  0
  177.6351  162.4815  111.9898 C   0  0  0  0  0  0  0  0  0  0  0  0
  176.6554  161.3908  111.5092 C   0  0  1  0  0  0  0  0  0  0  0  0
  176.6275  160.4144  112.6222 C   0  0  0  0  0  0  0  0  0  0  0  0
  175.5967  160.2893  113.4099 C   0  0  0  0  0  0  0  0  0  0  0  0
  174.3954  161.1298  113.2210 C   0  0  0  0  0  0  0  0  0  0  0  0
  174.2784  161.7973  112.0240 N   0  0  0  0  0  0  0  0  0  0  0  0
  173.0423  161.9383  111.3675 C   0  0  0  0  0  0  0  0  0  0  0  0
  173.2771  161.3826  109.9973 C   0  0  0  0  0  0  0  0  0  0  0  0
  174.7634  161.5746  109.8076 C   0  0  1  0  0  0  0  0  0  0  0  0
  175.3471  161.9433  111.1174 C   0  0  2  0  0  0  0  0  0  0  0  0
  175.2964  160.4105  109.0585 C   0  0  1  0  0  0  0  0  0  0  0  0
  175.5684  160.8481  107.7328 N   0  0  0  0  0  0  0  0  0  0  0  0
  175.9032  160.0798  106.5574 C   0  0  0  0  0  0  0  0  0  0  0  0
  175.4453  162.2829  107.6538 C   0  0  0  0  0  0  0  0  0  0  0  0
  175.6897  163.2122  106.6827 C   0  0  0  0  0  0  0  0  0  0  0  0
  175.4501  164.5759  106.8922 C   0  0  0  0  0  0  0  0  0  0  0  0
  175.7337  165.4370  105.8459 O   0  0  0  0  0  0  0  0  0  0  0  0
  176.3033  164.9399  104.6597 C   0  0  0  0  0  0  0  0  0  0  0  0
  174.9474  165.0261  108.1165 C   0  0  0  0  0  0  0  0  0  0  0  0
  174.7198  164.0727  109.0513 C   0  0  0  0  0  0  0  0  0  0  0  0
  174.9624  162.7051  108.8380 C   0  0  0  0  0  0  0  0  0  0  0  0
  174.6290  166.4461  108.3261 C   0  0  1  0  0  0  0  0  0  0  0  0
  173.1706  166.7822  108.3384 C   0  0  0  0  0  0  0  0  0  0  0  0
  172.3432  166.6203  109.5414 C   0  0  2  0  0  0  0  0  0  0  0  0
  171.4084  167.7875  109.8317 C   0  0  0  0  0  0  0  0  0  0  0  0
  171.9331  168.7478  110.7931 C   0  0  2  0  0  0  0  0  0  0  0  0
  173.3023  168.3562  111.2155 C   0  0  0  0  0  0  0  0  0  0  0  0
  173.2381  166.9712  111.8952 N   0  0  0  0  0  0  0  0  0  0  0  0
  172.9270  166.0331  110.6899 C   0  0  0  0  0  0  0  0  0  0  0  0
  174.7961  166.7141  111.9236 C   0  0  0  0  0  0  0  0  0  0  0  0
  175.4598  167.1694  110.7531 C   0  0  0  0  0  0  0  0  0  0  0  0
  175.4506  167.1139  109.3653 C   0  0  0  0  0  0  0  0  0  0  0  0
  176.4670  167.8878  108.9242 N   0  0  0  0  0  0  0  0  0  0  0  0
  177.1553  168.4550  109.9142 C   0  0  0  0  0  0  0  0  0  0  0  0
  178.2440  169.2976  109.9323 C   0  0  0  0  0  0  0  0  0  0  0  0
  178.7579  169.7340  111.1278 C   0  0  0  0  0  0  0  0  0  0  0  0
  178.1822  169.3270  112.2925 C   0  0  0  0  0  0  0  0  0  0  0  0
  177.0894  168.4808  112.2544 C   0  0  0  0  0  0  0  0  0  0  0  0
  176.5341  168.0125  111.0650 C   0  0  0  0  0  0  0  0  0  0  0  0
  171.1443  168.9240  112.0690 C   0  0  0  0  0  0  0  0  0  0  0  0
  170.5065  170.2918  112.0869 C   0  0  0  0  0  0  0  0  0  0  0  0
  172.0120  168.8828  113.1471 F   0  0  0  0  0  0  0  0  0  0  0  0
  170.1650  167.9695  112.1512 F   0  0  0  0  0  0  0  0  0  0  0  0
  175.0166  167.0813  106.9823 C   0  0  0  0  0  0  0  0  0  0  0  0
  175.1996  166.4447  105.9491 O   0  0  0  0  0  0  0  0  0  0  0  0
  175.1749  168.4813  106.9077 O   0  0  0  0  0  0  0  0  0  0  0  0
  174.5444  169.2076  105.8853 C   0  0  0  0  0  0  0  0  0  0  0  0
  176.3909  159.7164  109.8004 C   0  0  2  0  0  0  0  0  0  0  0  0
  175.7125  159.1423  110.9243 O   0  0  0  0  0  0  0  0  0  0  0  0
  177.3193  160.8143  110.2765 C   0  0  2  0  0  0  0  0  0  0  0  0
  178.6295  160.3692  110.4734 O   0  0  0  0  0  0  0  0  0  0  0  0
  178.9049  159.2692  111.2711 C   0  0  0  0  0  0  0  0  0  0  0  0
  178.3010  157.9350  111.0518 C   0  0  0  0  0  0  0  0  0  0  0  0
  179.7075  159.4025  112.2314 O   0  0  0  0  0  0  0  0  0  0  0  0
  177.0654  158.6236  109.1415 C   0  0  0  0  0  0  0  0  0  0  0  0
  176.9116  157.4453  109.5296 O   0  0  0  0  0  0  0  0  0  0  0  0
  177.9037  158.8376  108.0662 O   0  0  0  0  0  0  0  0  0  0  0  0
  179.2969  158.5695  108.1087 C   0  0  0  0  0  0  0  0  0  0  0  0
  1  2  1  0
  3  2  1  1
  3  4  1  0
  4  5  2  0
  5  6  1  0
  6  7  1  0
  7  8  1  0
  8  9  1  0
 10  9  1  1
 10 11  1  0
 10 12  1  0
 12 13  1  6
 13 14  1  0
 13 15  1  0
 15 16  2  0
 16 17  1  0
 17 18  1  0
 18 19  1  0
 17 20  2  0
 20 21  1  0
 21 22  2  0
 20 23  1  0
 23 24  1  0
 25 24  1  6
 25 26  1  0
 26 27  1  0
 27 28  1  0
 29 28  1  6
 29 30  1  0
 29 31  1  0
 31 32  1  0
 32 33  2  0
 33 34  1  0
 34 35  1  0
 35 36  2  0
 36 37  1  0
 37 38  2  0
 38 39  1  0
 39 40  2  0
 27 41  1  1
 41 42  1  0
 41 43  1  0
 41 44  1  0
 23 45  1  6
 45 46  2  0
 45 47  1  0
 47 48  1  0
 12 49  1  0
 49 50  1  1
 49 51  1  0
 51 52  1  1
 52 53  1  0
 53 54  1  0
 53 55  2  0
 49 56  1  0
 56 57  2  0
 56 58  1  0
 58 59  1  0
 11  3  1  0
 22 15  1  0
 33 23  1  0
 40 35  1  0
 51  3  1  0
 11  7  1  1
 30 25  1  0
 40 32  1  0
 22 10  1  0
M  END
$$$$
