
     RDKit          3D

 59 67  0  0  0  0  0  0  0  0999 V2000
  179.7355  158.1825  139.2819 C   0  0  0  0  0  0  0  0  0  0  0  0
  181.0277  158.9548  139.5071 C   0  0  0  0  0  0  0  0  0  0  0  0
  182.0527  158.0389  140.2076 C   0  0  1  0  0  0  0  0  0  0  0  0
  181.3918  156.7141  140.2383 C   0  0  0  0  0  0  0  0  0  0  0  0
  181.7785  155.7279  139.4789 C   0  0  0  0  0  0  0  0  0  0  0  0
  182.9101  155.8946  138.5424 C   0  0  0  0  0  0  0  0  0  0  0  0
  183.7229  156.9884  138.7287 N   0  0  0  0  0  0  0  0  0  0  0  0
  185.1172  156.9182  138.5562 C   0  0  0  0  0  0  0  0  0  0  0  0
  185.6831  157.4124  139.8513 C   0  0  0  0  0  0  0  0  0  0  0  0
  184.5843  158.3050  140.3785 C   0  0  1  0  0  0  0  0  0  0  0  0
  183.3742  158.0733  139.5575 C   0  0  2  0  0  0  0  0  0  0  0  0
  184.5215  158.1530  141.8527 C   0  0  1  0  0  0  0  0  0  0  0  0
  185.0788  159.3302  142.4243 N   0  0  0  0  0  0  0  0  0  0  0  0
  185.4410  159.6094  143.7935 C   0  0  0  0  0  0  0  0  0  0  0  0
  185.2931  160.3208  141.3981 C   0  0  0  0  0  0  0  0  0  0  0  0
  185.6934  161.6269  141.3979 C   0  0  0  0  0  0  0  0  0  0  0  0
  185.8345  162.3530  140.2089 C   0  0  0  0  0  0  0  0  0  0  0  0
  186.2425  163.6716  140.3164 O   0  0  0  0  0  0  0  0  0  0  0  0
  185.7947  164.4616  141.3906 C   0  0  0  0  0  0  0  0  0  0  0  0
  185.5665  161.7509  138.9760 C   0  0  0  0  0  0  0  0  0  0  0  0
  185.1721  160.4559  139.0212 C   0  0  0  0  0  0  0  0  0  0  0  0
  185.0305  159.7305  140.2164 C   0  0  0  0  0  0  0  0  0  0  0  0
  185.7748  162.4817  137.7173 C   0  0  1  0  0  0  0  0  0  0  0  0
  185.3354  163.9124  137.7251 C   0  0  0  0  0  0  0  0  0  0  0  0
  186.1831  164.9856  138.2615 C   0  0  2  0  0  0  0  0  0  0  0  0
  186.2447  166.2388  137.3977 C   0  0  0  0  0  0  0  0  0  0  0  0
  187.3997  166.2973  136.5121 C   0  0  2  0  0  0  0  0  0  0  0  0
  188.2144  165.0627  136.6479 C   0  0  0  0  0  0  0  0  0  0  0  0
  188.7205  164.9561  138.1029 N   0  0  0  0  0  0  0  0  0  0  0  0
  187.4078  164.6351  138.8796 C   0  0  0  0  0  0  0  0  0  0  0  0
  189.2373  163.4671  138.0033 C   0  0  0  0  0  0  0  0  0  0  0  0
  188.3903  162.6315  137.2272 C   0  0  0  0  0  0  0  0  0  0  0  0
  187.0766  162.2134  137.0584 C   0  0  0  0  0  0  0  0  0  0  0  0
  187.0577  161.3552  136.0145 N   0  0  0  0  0  0  0  0  0  0  0  0
  188.2614  161.1679  135.4743 C   0  0  0  0  0  0  0  0  0  0  0  0
  188.7040  160.3979  134.4223 C   0  0  0  0  0  0  0  0  0  0  0  0
  190.0331  160.3970  134.0803 C   0  0  0  0  0  0  0  0  0  0  0  0
  190.9074  161.1629  134.7893 C   0  0  0  0  0  0  0  0  0  0  0  0
  190.4445  161.9298  135.8425 C   0  0  0  0  0  0  0  0  0  0  0  0
  189.1047  161.9620  136.2254 C   0  0  0  0  0  0  0  0  0  0  0  0
  188.3562  167.4463  136.7267 C   0  0  0  0  0  0  0  0  0  0  0  0
  189.4537  167.3934  135.6920 C   0  0  0  0  0  0  0  0  0  0  0  0
  188.9718  167.2989  137.9580 F   0  0  0  0  0  0  0  0  0  0  0  0
  187.6903  168.6384  136.6161 F   0  0  0  0  0  0  0  0  0  0  0  0
  184.6888  161.8957  136.8026 C   0  0  0  0  0  0  0  0  0  0  0  0
  184.9099  161.0930  135.9009 O   0  0  0  0  0  0  0  0  0  0  0  0
  183.3474  162.2888  136.9945 O   0  0  0  0  0  0  0  0  0  0  0  0
  182.3019  161.4252  136.6313 C   0  0  0  0  0  0  0  0  0  0  0  0
  183.1678  157.7273  142.3179 C   0  0  2  0  0  0  0  0  0  0  0  0
  183.0522  156.3917  141.8123 O   0  0  0  0  0  0  0  0  0  0  0  0
  182.1877  158.6283  141.5958 C   0  0  2  0  0  0  0  0  0  0  0  0
  180.9813  158.7803  142.2851 O   0  0  0  0  0  0  0  0  0  0  0  0
  180.5609  157.8440  143.2173 C   0  0  0  0  0  0  0  0  0  0  0  0
  180.2234  156.4450  142.8681 C   0  0  0  0  0  0  0  0  0  0  0  0
  180.4586  158.1920  144.4224 O   0  0  0  0  0  0  0  0  0  0  0  0
  182.9408  157.6358  143.7405 C   0  0  0  0  0  0  0  0  0  0  0  0
  182.5995  156.5556  144.2690 O   0  0  0  0  0  0  0  0  0  0  0  0
  183.0879  158.7322  144.5657 O   0  0  0  0  0  0  0  0  0  0  0  0
  181.9874  159.4867  145.0497 C   0  0  0  0  0  0  0  0  0  0  0  0
  1  2  1  0
  3  2  1  6
  3  4  1  0
  4  5  2  0
  5  6  1  0
  6  7  1  0
  7  8  1  0
  8  9  1  0
 10  9  1  6
 10 11  1  0
 10 12  1  0
 12 13  1  1
 13 14  1  0
 13 15  1  0
 15 16  2  0
 16 17  1  0
 17 18  1  0
 18 19  1  0
 17 20  2  0
 20 21  1  0
 21 22  2  0
 20 23  1  0
 23 24  1  0
 25 24  1  6
 25 26  1  0
 26 27  1  0
 27 28  1  0
 29 28  1  6
 29 30  1  0
 29 31  1  0
 31 32  1  0
 32 33  2  0
 33 34  1  0
 34 35  1  0
 35 36  2  0
 36 37  1  0
 37 38  2  0
 38 39  1  0
 39 40  2  0
 27 41  1  1
 41 42  1  0
 41 43  1  0
 41 44  1  0
 23 45  1  6
 45 46  2  0
 45 47  1  0
 47 48  1  0
 12 49  1  0
 49 50  1  6
 49 51  1  0
 51 52  1  1
 52 53  1  0
 53 54  1  0
 53 55  2  0
 49 56  1  0
 56 57  2  0
 56 58  1  0
 58 59  1  0
 11  3  1  0
 22 15  1  0
 33 23  1  0
 40 35  1  0
 51  3  1  0
 11  7  1  1
 30 25  1  0
 40 32  1  0
 22 10  1  0
M  END
$$$$
