
     RDKit          3D

 59 67  0  0  0  0  0  0  0  0999 V2000
  171.0458  147.3973  130.2041 C   0  0  0  0  0  0  0  0  0  0  0  0
  169.5394  147.4641  129.9961 C   0  0  0  0  0  0  0  0  0  0  0  0
  168.9137  148.3556  131.0888 C   0  0  1  0  0  0  0  0  0  0  0  0
  170.0781  148.8760  131.8412 C   0  0  0  0  0  0  0  0  0  0  0  0
  170.4635  150.1178  131.7514 C   0  0  0  0  0  0  0  0  0  0  0  0
  169.7427  151.0714  130.8819 C   0  0  0  0  0  0  0  0  0  0  0  0
  168.4957  150.6970  130.4382 N   0  0  0  0  0  0  0  0  0  0  0  0
  167.4343  151.6147  130.3379 C   0  0  0  0  0  0  0  0  0  0  0  0
  166.3323  151.0073  131.1491 C   0  0  0  0  0  0  0  0  0  0  0  0
  166.6495  149.5314  131.0940 C   0  0  1  0  0  0  0  0  0  0  0  0
  168.0105  149.3774  130.5317 C   0  0  2  0  0  0  0  0  0  0  0  0
  166.3168  148.9293  132.4083 C   0  0  1  0  0  0  0  0  0  0  0  0
  165.1213  148.1774  132.2395 N   0  0  0  0  0  0  0  0  0  0  0  0
  164.2661  147.5683  133.2303 C   0  0  0  0  0  0  0  0  0  0  0  0
  164.7919  148.0860  130.8383 C   0  0  0  0  0  0  0  0  0  0  0  0
  163.8416  147.4166  130.1206 C   0  0  0  0  0  0  0  0  0  0  0  0
  163.7486  147.5393  128.7287 C   0  0  0  0  0  0  0  0  0  0  0  0
  162.7527  146.8167  128.0941 O   0  0  0  0  0  0  0  0  0  0  0  0
  161.7580  146.1731  128.8525 C   0  0  0  0  0  0  0  0  0  0  0  0
  164.6374  148.3614  128.0298 C   0  0  0  0  0  0  0  0  0  0  0  0
  165.5637  149.0060  128.7791 C   0  0  0  0  0  0  0  0  0  0  0  0
  165.6548  148.8798  130.1756 C   0  0  0  0  0  0  0  0  0  0  0  0
  164.5086  148.5507  126.5776 C   0  0  1  0  0  0  0  0  0  0  0  0
  163.1210  148.8203  126.0858 C   0  0  0  0  0  0  0  0  0  0  0  0
  162.5302  150.1650  126.1167 C   0  0  2  0  0  0  0  0  0  0  0  0
  161.7901  150.5635  124.8462 C   0  0  0  0  0  0  0  0  0  0  0  0
  162.5840  151.3552  123.9164 C   0  0  2  0  0  0  0  0  0  0  0  0
  163.9631  151.5317  124.4390 C   0  0  0  0  0  0  0  0  0  0  0  0
  163.8943  152.2848  125.7852 N   0  0  0  0  0  0  0  0  0  0  0  0
  163.2640  151.2123  126.7244 C   0  0  0  0  0  0  0  0  0  0  0  0
  165.3949  152.0320  126.2079 C   0  0  0  0  0  0  0  0  0  0  0  0
  165.8613  150.7344  125.8667 C   0  0  0  0  0  0  0  0  0  0  0  0
  165.5781  149.3784  125.9677 C   0  0  0  0  0  0  0  0  0  0  0  0
  166.5617  148.7121  125.3234 N   0  0  0  0  0  0  0  0  0  0  0  0
  167.4817  149.5222  124.8008 C   0  0  0  0  0  0  0  0  0  0  0  0
  168.6316  149.2888  124.0805 C   0  0  0  0  0  0  0  0  0  0  0  0
  169.4080  150.3403  123.6620 C   0  0  0  0  0  0  0  0  0  0  0  0
  169.0312  151.6130  123.9650 C   0  0  0  0  0  0  0  0  0  0  0  0
  167.8730  151.8278  124.6891 C   0  0  0  0  0  0  0  0  0  0  0  0
  167.0541  150.7917  125.1346 C   0  0  0  0  0  0  0  0  0  0  0  0
  162.0786  152.7459  123.6131 C   0  0  0  0  0  0  0  0  0  0  0  0
  162.6665  153.7260  124.5990 C   0  0  0  0  0  0  0  0  0  0  0  0
  160.7070  152.7796  123.7984 F   0  0  0  0  0  0  0  0  0  0  0  0
  162.4425  153.1112  122.3439 F   0  0  0  0  0  0  0  0  0  0  0  0
  164.6899  147.1257  126.0336 C   0  0  0  0  0  0  0  0  0  0  0  0
  163.9851  146.6291  125.1601 O   0  0  0  0  0  0  0  0  0  0  0  0
  165.7255  146.3213  126.5542 O   0  0  0  0  0  0  0  0  0  0  0  0
  165.8641  144.9903  126.1299 C   0  0  0  0  0  0  0  0  0  0  0  0
  167.4897  148.2419  133.0261 C   0  0  2  0  0  0  0  0  0  0  0  0
  168.3763  149.3231  133.3387 O   0  0  0  0  0  0  0  0  0  0  0  0
  168.0923  147.3959  131.9237 C   0  0  2  0  0  0  0  0  0  0  0  0
  168.8000  146.2936  132.4113 O   0  0  0  0  0  0  0  0  0  0  0  0
  169.4075  146.3207  133.6573 C   0  0  0  0  0  0  0  0  0  0  0  0
  168.7092  146.7445  134.8925 C   0  0  0  0  0  0  0  0  0  0  0  0
  170.6121  145.9688  133.7521 O   0  0  0  0  0  0  0  0  0  0  0  0
  167.2794  147.5287  134.2633 C   0  0  0  0  0  0  0  0  0  0  0  0
  168.1932  146.8469  134.7758 O   0  0  0  0  0  0  0  0  0  0  0  0
  166.0670  147.5698  134.9216 O   0  0  0  0  0  0  0  0  0  0  0  0
  165.6473  146.5623  135.8290 C   0  0  0  0  0  0  0  0  0  0  0  0
  1  2  1  0
  3  2  1  6
  3  4  1  0
  4  5  2  0
  5  6  1  0
  6  7  1  0
  7  8  1  0
  8  9  1  0
 10  9  1  1
 10 11  1  0
 10 12  1  0
 12 13  1  6
 13 14  1  0
 13 15  1  0
 15 16  2  0
 16 17  1  0
 17 18  1  0
 18 19  1  0
 17 20  2  0
 20 21  1  0
 21 22  2  0
 20 23  1  0
 23 24  1  0
 25 24  1  6
 25 26  1  0
 26 27  1  0
 27 28  1  0
 29 28  1  6
 29 30  1  0
 29 31  1  0
 31 32  1  0
 32 33  2  0
 33 34  1  0
 34 35  1  0
 35 36  2  0
 36 37  1  0
 37 38  2  0
 38 39  1  0
 39 40  2  0
 27 41  1  1
 41 42  1  0
 41 43  1  0
 41 44  1  0
 23 45  1  6
 45 46  2  0
 45 47  1  0
 47 48  1  0
 12 49  1  0
 49 50  1  1
 49 51  1  0
 51 52  1  1
 52 53  1  0
 53 54  1  0
 53 55  2  0
 49 56  1  0
 56 57  2  0
 56 58  1  0
 58 59  1  0
 11  3  1  0
 22 15  1  0
 33 23  1  0
 40 35  1  0
 51  3  1  0
 11  7  1  1
 30 25  1  0
 40 32  1  0
 22 10  1  0
M  END
$$$$
