
     RDKit          3D

 59 67  0  0  0  0  0  0  0  0999 V2000
  200.9476  127.2653  136.0760 C   0  0  0  0  0  0  0  0  0  0  0  0
  201.8745  128.4296  135.7562 C   0  0  0  0  0  0  0  0  0  0  0  0
  201.4416  129.0733  134.4225 C   0  0  1  0  0  0  0  0  0  0  0  0
  199.9767  128.8619  134.3779 C   0  0  0  0  0  0  0  0  0  0  0  0
  199.1293  129.8375  134.5481 C   0  0  0  0  0  0  0  0  0  0  0  0
  199.6039  131.2155  134.7959 C   0  0  0  0  0  0  0  0  0  0  0  0
  200.9256  131.4823  134.5244 N   0  0  0  0  0  0  0  0  0  0  0  0
  201.3369  132.6980  133.9485 C   0  0  0  0  0  0  0  0  0  0  0  0
  202.1070  132.2963  132.7290 C   0  0  0  0  0  0  0  0  0  0  0  0
  202.5964  130.9116  133.0824 C   0  0  1  0  0  0  0  0  0  0  0  0
  201.8842  130.4734  134.3042 C   0  0  2  0  0  0  0  0  0  0  0  0
  202.5580  130.0727  131.8595 C   0  0  1  0  0  0  0  0  0  0  0  0
  203.9001  129.9010  131.4211 N   0  0  0  0  0  0  0  0  0  0  0  0
  204.4044  129.3501  130.1857 C   0  0  0  0  0  0  0  0  0  0  0  0
  204.8115  130.4006  132.4210 C   0  0  0  0  0  0  0  0  0  0  0  0
  206.1699  130.3936  132.5663 C   0  0  0  0  0  0  0  0  0  0  0  0
  206.7952  130.9921  133.6671 C   0  0  0  0  0  0  0  0  0  0  0  0
  208.1771  130.9277  133.7231 O   0  0  0  0  0  0  0  0  0  0  0  0
  208.9223  130.7596  132.5420 C   0  0  0  0  0  0  0  0  0  0  0  0
  206.0348  131.6210  134.6574 C   0  0  0  0  0  0  0  0  0  0  0  0
  204.6928  131.6047  134.4749 C   0  0  0  0  0  0  0  0  0  0  0  0
  204.0685  131.0020  133.3696 C   0  0  0  0  0  0  0  0  0  0  0  0
  206.6822  132.3105  135.7830 C   0  0  1  0  0  0  0  0  0  0  0  0
  207.6708  133.3687  135.4049 C   0  0  0  0  0  0  0  0  0  0  0  0
  207.2566  134.7353  135.0598 C   0  0  2  0  0  0  0  0  0  0  0  0
  208.1013  135.8342  135.6916 C   0  0  0  0  0  0  0  0  0  0  0  0
  207.5408  136.3884  136.9165 C   0  0  2  0  0  0  0  0  0  0  0  0
  206.2810  135.6849  137.2694 C   0  0  0  0  0  0  0  0  0  0  0  0
  205.2593  135.8888  136.1298 N   0  0  0  0  0  0  0  0  0  0  0  0
  205.8724  135.0244  134.9868 C   0  0  0  0  0  0  0  0  0  0  0  0
  204.2181  134.8112  136.6290 C   0  0  0  0  0  0  0  0  0  0  0  0
  204.8308  133.6448  137.1598 C   0  0  0  0  0  0  0  0  0  0  0  0
  205.7695  132.6544  136.9008 C   0  0  0  0  0  0  0  0  0  0  0  0
  205.8087  131.8438  137.9815 N   0  0  0  0  0  0  0  0  0  0  0  0
  204.9650  132.2182  138.9425 C   0  0  0  0  0  0  0  0  0  0  0  0
  204.6746  131.7008  140.1849 C   0  0  0  0  0  0  0  0  0  0  0  0
  203.7356  132.3070  140.9815 C   0  0  0  0  0  0  0  0  0  0  0  0
  203.0958  133.4218  140.5327 C   0  0  0  0  0  0  0  0  0  0  0  0
  203.4009  133.9270  139.2823 C   0  0  0  0  0  0  0  0  0  0  0  0
  204.3464  133.3454  138.4395 C   0  0  0  0  0  0  0  0  0  0  0  0
  207.1978  137.8592  136.8957 C   0  0  0  0  0  0  0  0  0  0  0  0
  206.7715  138.3007  138.2746 C   0  0  0  0  0  0  0  0  0  0  0  0
  206.1071  138.0581  136.0665 F   0  0  0  0  0  0  0  0  0  0  0  0
  208.2891  138.5903  136.5063 F   0  0  0  0  0  0  0  0  0  0  0  0
  207.6528  131.2469  136.3178 C   0  0  0  0  0  0  0  0  0  0  0  0
  207.3479  130.3923  137.1442 O   0  0  0  0  0  0  0  0  0  0  0  0
  208.9808  131.2313  135.8416 O   0  0  0  0  0  0  0  0  0  0  0  0
  209.9192  130.3500  136.4015 C   0  0  0  0  0  0  0  0  0  0  0  0
  201.7237  128.8478  132.0428 C   0  0  2  0  0  0  0  0  0  0  0  0
  200.3953  129.3707  132.1634 O   0  0  0  0  0  0  0  0  0  0  0  0
  202.1566  128.2554  133.3678 C   0  0  2  0  0  0  0  0  0  0  0  0
  201.9316  126.8781  133.4454 O   0  0  0  0  0  0  0  0  0  0  0  0
  200.7657  126.3094  132.9561 C   0  0  0  0  0  0  0  0  0  0  0  0
  199.4668  127.0199  132.9237 C   0  0  0  0  0  0  0  0  0  0  0  0
  200.8045  125.1313  132.5152 O   0  0  0  0  0  0  0  0  0  0  0  0
  201.6794  127.8933  130.9608 C   0  0  0  0  0  0  0  0  0  0  0  0
  200.9235  128.0672  129.9805 O   0  0  0  0  0  0  0  0  0  0  0  0
  202.4631  126.7573  130.9696 O   0  0  0  0  0  0  0  0  0  0  0  0
  203.2325  126.3422  129.8515 C   0  0  0  0  0  0  0  0  0  0  0  0
  1  2  1  0
  3  2  1  1
  3  4  1  0
  4  5  2  0
  5  6  1  0
  6  7  1  0
  7  8  1  0
  8  9  1  0
 10  9  1  6
 10 11  1  0
 10 12  1  0
 12 13  1  1
 13 14  1  0
 13 15  1  0
 15 16  2  0
 16 17  1  0
 17 18  1  0
 18 19  1  0
 17 20  2  0
 20 21  1  0
 21 22  2  0
 20 23  1  0
 23 24  1  0
 25 24  1  1
 25 26  1  0
 26 27  1  0
 27 28  1  0
 29 28  1  1
 29 30  1  0
 29 31  1  0
 31 32  1  0
 32 33  2  0
 33 34  1  0
 34 35  1  0
 35 36  2  0
 36 37  1  0
 37 38  2  0
 38 39  1  0
 39 40  2  0
 27 41  1  6
 41 42  1  0
 41 43  1  0
 41 44  1  0
 23 45  1  1
 45 46  2  0
 45 47  1  0
 47 48  1  0
 12 49  1  0
 49 50  1  1
 49 51  1  0
 51 52  1  6
 52 53  1  0
 53 54  1  0
 53 55  2  0
 49 56  1  0
 56 57  2  0
 56 58  1  0
 58 59  1  0
 11  3  1  0
 22 15  1  0
 33 23  1  0
 40 35  1  0
 51  3  1  0
 11  7  1  6
 30 25  1  0
 40 32  1  0
 22 10  1  0
M  END
$$$$
