
     RDKit          3D

 59 67  0  0  0  0  0  0  0  0999 V2000
  162.6805  143.8524  124.8749 C   0  0  0  0  0  0  0  0  0  0  0  0
  163.9648  143.9120  125.6898 C   0  0  0  0  0  0  0  0  0  0  0  0
  165.1741  143.9469  124.7324 C   0  0  1  0  0  0  0  0  0  0  0  0
  164.7711  143.0701  123.6092 C   0  0  0  0  0  0  0  0  0  0  0  0
  164.4626  143.5442  122.4349 C   0  0  0  0  0  0  0  0  0  0  0  0
  164.5035  144.9985  122.1730 C   0  0  0  0  0  0  0  0  0  0  0  0
  165.1715  145.7819  123.0852 N   0  0  0  0  0  0  0  0  0  0  0  0
  165.9618  146.8763  122.6897 C   0  0  0  0  0  0  0  0  0  0  0  0
  167.3048  146.6106  123.2958 C   0  0  0  0  0  0  0  0  0  0  0  0
  166.9700  145.7421  124.4856 C   0  0  1  0  0  0  0  0  0  0  0  0
  165.5565  145.3199  124.3595 C   0  0  2  0  0  0  0  0  0  0  0  0
  168.0379  144.7243  124.6404 C   0  0  1  0  0  0  0  0  0  0  0  0
  168.8263  145.1045  125.7615 N   0  0  0  0  0  0  0  0  0  0  0  0
  170.0924  144.5833  126.2191 C   0  0  0  0  0  0  0  0  0  0  0  0
  168.1889  146.1902  126.4651 C   0  0  0  0  0  0  0  0  0  0  0  0
  168.4431  146.8544  127.6315 C   0  0  0  0  0  0  0  0  0  0  0  0
  167.6369  147.9140  128.0656 C   0  0  0  0  0  0  0  0  0  0  0  0
  167.9771  148.5195  129.2632 O   0  0  0  0  0  0  0  0  0  0  0  0
  169.3282  148.6252  129.6397 C   0  0  0  0  0  0  0  0  0  0  0  0
  166.5379  148.3245  127.3053 C   0  0  0  0  0  0  0  0  0  0  0  0
  166.3214  147.6394  126.1571 C   0  0  0  0  0  0  0  0  0  0  0  0
  167.1318  146.5757  125.7251 C   0  0  0  0  0  0  0  0  0  0  0  0
  165.7236  149.4777  127.7160 C   0  0  1  0  0  0  0  0  0  0  0  0
  166.4865  150.6310  128.2888 C   0  0  0  0  0  0  0  0  0  0  0  0
  167.1329  151.6384  127.4371 C   0  0  2  0  0  0  0  0  0  0  0  0
  166.9240  153.0790  127.8862 C   0  0  0  0  0  0  0  0  0  0  0  0
  165.8344  153.7646  127.2047 C   0  0  2  0  0  0  0  0  0  0  0  0
  165.1582  152.8410  126.2580 C   0  0  0  0  0  0  0  0  0  0  0  0
  166.1804  152.3761  125.1982 N   0  0  0  0  0  0  0  0  0  0  0  0
  167.1150  151.4500  126.0339 C   0  0  0  0  0  0  0  0  0  0  0  0
  165.2903  151.2245  124.5851 C   0  0  0  0  0  0  0  0  0  0  0  0
  164.5437  150.5138  125.5625 C   0  0  0  0  0  0  0  0  0  0  0  0
  164.6381  149.8327  126.7693 C   0  0  0  0  0  0  0  0  0  0  0  0
  163.3925  149.4270  127.1017 N   0  0  0  0  0  0  0  0  0  0  0  0
  162.4733  149.7853  126.2059 C   0  0  0  0  0  0  0  0  0  0  0  0
  161.1122  149.5901  126.1343 C   0  0  0  0  0  0  0  0  0  0  0  0
  160.4009  150.0805  125.0679 C   0  0  0  0  0  0  0  0  0  0  0  0
  161.0521  150.7600  124.0842 C   0  0  0  0  0  0  0  0  0  0  0  0
  162.4193  150.9463  124.1734 C   0  0  0  0  0  0  0  0  0  0  0  0
  163.1821  150.4667  125.2367 C   0  0  0  0  0  0  0  0  0  0  0  0
  166.2072  154.9832  126.3939 C   0  0  0  0  0  0  0  0  0  0  0  0
  166.8772  156.0005  127.2850 C   0  0  0  0  0  0  0  0  0  0  0  0
  165.0527  155.5805  125.9173 F   0  0  0  0  0  0  0  0  0  0  0  0
  167.0666  154.6319  125.3864 F   0  0  0  0  0  0  0  0  0  0  0  0
  165.0434  148.9721  128.9971 C   0  0  0  0  0  0  0  0  0  0  0  0
  163.8795  148.5865  129.0503 O   0  0  0  0  0  0  0  0  0  0  0  0
  165.7841  148.9381  130.1973 O   0  0  0  0  0  0  0  0  0  0  0  0
  165.2827  148.2523  131.3149 C   0  0  0  0  0  0  0  0  0  0  0  0
  167.4980  143.3323  124.6094 C   0  0  2  0  0  0  0  0  0  0  0  0
  167.0516  143.1837  123.2561 O   0  0  0  0  0  0  0  0  0  0  0  0
  166.3022  143.3390  125.5389 C   0  0  2  0  0  0  0  0  0  0  0  0
  166.0238  142.0780  126.0736 O   0  0  0  0  0  0  0  0  0  0  0  0
  166.2700  140.9192  125.3533 C   0  0  0  0  0  0  0  0  0  0  0  0
  167.5493  140.1766  125.4217 C   0  0  0  0  0  0  0  0  0  0  0  0
  165.3663  140.4690  124.6019 O   0  0  0  0  0  0  0  0  0  0  0  0
  168.4185  142.2459  124.8468 C   0  0  0  0  0  0  0  0  0  0  0  0
  168.9851  141.6640  123.8966 O   0  0  0  0  0  0  0  0  0  0  0  0
  168.7032  141.8090  126.1246 O   0  0  0  0  0  0  0  0  0  0  0  0
  169.2891  142.6429  127.1125 C   0  0  0  0  0  0  0  0  0  0  0  0
  1  2  1  0
  3  2  1  1
  3  4  1  0
  4  5  2  0
  5  6  1  0
  6  7  1  0
  7  8  1  0
  8  9  1  0
 10  9  1  6
 10 11  1  0
 10 12  1  0
 12 13  1  1
 13 14  1  0
 13 15  1  0
 15 16  2  0
 16 17  1  0
 17 18  1  0
 18 19  1  0
 17 20  2  0
 20 21  1  0
 21 22  2  0
 20 23  1  0
 23 24  1  0
 25 24  1  1
 25 26  1  0
 26 27  1  0
 27 28  1  0
 29 28  1  1
 29 30  1  0
 29 31  1  0
 31 32  1  0
 32 33  2  0
 33 34  1  0
 34 35  1  0
 35 36  2  0
 36 37  1  0
 37 38  2  0
 38 39  1  0
 39 40  2  0
 27 41  1  6
 41 42  1  0
 41 43  1  0
 41 44  1  0
 23 45  1  1
 45 46  2  0
 45 47  1  0
 47 48  1  0
 12 49  1  0
 49 50  1  6
 49 51  1  0
 51 52  1  6
 52 53  1  0
 53 54  1  0
 53 55  2  0
 49 56  1  0
 56 57  2  0
 56 58  1  0
 58 59  1  0
 11  3  1  0
 22 15  1  0
 33 23  1  0
 40 35  1  0
 51  3  1  0
 11  7  1  6
 30 25  1  0
 40 32  1  0
 22 10  1  0
M  END
$$$$
