
     RDKit          3D

 59 67  0  0  0  0  0  0  0  0999 V2000
  131.3662  171.4278  145.6634 C   0  0  0  0  0  0  0  0  0  0  0  0
  130.6182  170.7170  144.5444 C   0  0  0  0  0  0  0  0  0  0  0  0
  131.5106  169.5996  143.9653 C   0  0  1  0  0  0  0  0  0  0  0  0
  132.8572  170.2117  143.8966 C   0  0  0  0  0  0  0  0  0  0  0  0
  133.8171  169.8699  144.7094 C   0  0  0  0  0  0  0  0  0  0  0  0
  133.5968  168.8415  145.7482 C   0  0  0  0  0  0  0  0  0  0  0  0
  132.4795  168.0497  145.6203 N   0  0  0  0  0  0  0  0  0  0  0  0
  132.4998  166.6774  145.9291 C   0  0  0  0  0  0  0  0  0  0  0  0
  132.0083  166.0035  144.6858 C   0  0  0  0  0  0  0  0  0  0  0  0
  131.1622  167.0733  144.0365 C   0  0  1  0  0  0  0  0  0  0  0  0
  131.4208  168.3499  144.7402 C   0  0  2  0  0  0  0  0  0  0  0  0
  131.3406  166.9865  142.5665 C   0  0  1  0  0  0  0  0  0  0  0  0
  130.1549  166.4137  142.0287 N   0  0  0  0  0  0  0  0  0  0  0  0
  129.8865  165.9281  140.6960 C   0  0  0  0  0  0  0  0  0  0  0  0
  129.1408  166.3327  143.0511 C   0  0  0  0  0  0  0  0  0  0  0  0
  127.8221  165.9763  143.0644 C   0  0  0  0  0  0  0  0  0  0  0  0
  127.0720  165.9756  144.2469 C   0  0  0  0  0  0  0  0  0  0  0  0
  125.7424  165.6013  144.1536 O   0  0  0  0  0  0  0  0  0  0  0  0
  125.1033  165.5807  142.9007 C   0  0  0  0  0  0  0  0  0  0  0  0
  127.6623  166.3437  145.4596 C   0  0  0  0  0  0  0  0  0  0  0  0
  128.9705  166.6902  145.4017 C   0  0  0  0  0  0  0  0  0  0  0  0
  129.7199  166.6908  144.2130 C   0  0  0  0  0  0  0  0  0  0  0  0
  126.9042  166.2832  146.7178 C   0  0  1  0  0  0  0  0  0  0  0  0
  127.5905  165.5819  147.8479 C   0  0  0  0  0  0  0  0  0  0  0  0
  128.5764  166.2583  148.7016 C   0  0  2  0  0  0  0  0  0  0  0  0
  128.4137  165.9938  150.1929 C   0  0  0  0  0  0  0  0  0  0  0  0
  127.6672  167.0230  150.9037 C   0  0  2  0  0  0  0  0  0  0  0  0
  127.2020  168.0677  149.9557 C   0  0  0  0  0  0  0  0  0  0  0  0
  128.4327  168.7263  149.2953 N   0  0  0  0  0  0  0  0  0  0  0  0
  128.9579  167.5824  148.3759 C   0  0  0  0  0  0  0  0  0  0  0  0
  127.6381  169.5051  148.1744 C   0  0  0  0  0  0  0  0  0  0  0  0
  126.5546  168.7605  147.6366 C   0  0  0  0  0  0  0  0  0  0  0  0
  126.2020  167.5405  147.0740 C   0  0  0  0  0  0  0  0  0  0  0  0
  124.8754  167.5824  146.8195 N   0  0  0  0  0  0  0  0  0  0  0  0
  124.3158  168.7402  147.1688 C   0  0  0  0  0  0  0  0  0  0  0  0
  123.0257  169.2152  147.0929 C   0  0  0  0  0  0  0  0  0  0  0  0
  122.7297  170.4796  147.5370 C   0  0  0  0  0  0  0  0  0  0  0  0
  123.7212  171.2576  148.0520 C   0  0  0  0  0  0  0  0  0  0  0  0
  125.0107  170.7634  148.1204 C   0  0  0  0  0  0  0  0  0  0  0  0
  125.3577  169.4868  147.6819 C   0  0  0  0  0  0  0  0  0  0  0  0
  128.4067  167.7593  151.9956 C   0  0  0  0  0  0  0  0  0  0  0  0
  128.8885  169.0911  151.4738 C   0  0  0  0  0  0  0  0  0  0  0  0
  129.5392  167.0409  152.3393 F   0  0  0  0  0  0  0  0  0  0  0  0
  127.5772  167.9685  153.0657 F   0  0  0  0  0  0  0  0  0  0  0  0
  125.8166  165.2437  146.4074 C   0  0  0  0  0  0  0  0  0  0  0  0
  125.9370  164.3521  145.5727 O   0  0  0  0  0  0  0  0  0  0  0  0
  124.5973  165.2971  147.1153 O   0  0  0  0  0  0  0  0  0  0  0  0
  124.2859  164.3037  148.0570 C   0  0  0  0  0  0  0  0  0  0  0  0
  131.8193  168.2738  141.9802 C   0  0  2  0  0  0  0  0  0  0  0  0
  133.1495  168.3956  142.4985 O   0  0  0  0  0  0  0  0  0  0  0  0
  130.9400  169.3482  142.5855 C   0  0  2  0  0  0  0  0  0  0  0  0
  130.8403  170.4854  141.7790 O   0  0  0  0  0  0  0  0  0  0  0  0
  131.9684  171.1777  141.3665 C   0  0  0  0  0  0  0  0  0  0  0  0
  132.8845  170.6839  140.3130 C   0  0  0  0  0  0  0  0  0  0  0  0
  132.2342  172.2819  141.9088 O   0  0  0  0  0  0  0  0  0  0  0  0
  131.9421  168.3572  140.5444 C   0  0  0  0  0  0  0  0  0  0  0  0
  133.0640  168.4309  139.9981 O   0  0  0  0  0  0  0  0  0  0  0  0
  130.8312  168.3623  139.7253 O   0  0  0  0  0  0  0  0  0  0  0  0
  129.8882  169.4230  139.7108 C   0  0  0  0  0  0  0  0  0  0  0  0
  1  2  1  0
  3  2  1  1
  3  4  1  0
  4  5  2  0
  5  6  1  0
  6  7  1  0
  7  8  1  0
  8  9  1  0
 10  9  1  1
 10 11  1  0
 10 12  1  0
 12 13  1  6
 13 14  1  0
 13 15  1  0
 15 16  2  0
 16 17  1  0
 17 18  1  0
 18 19  1  0
 17 20  2  0
 20 21  1  0
 21 22  2  0
 20 23  1  0
 23 24  1  0
 25 24  1  6
 25 26  1  0
 26 27  1  0
 27 28  1  0
 29 28  1  1
 29 30  1  0
 29 31  1  0
 31 32  1  0
 32 33  2  0
 33 34  1  0
 34 35  1  0
 35 36  2  0
 36 37  1  0
 37 38  2  0
 38 39  1  0
 39 40  2  0
 27 41  1  1
 41 42  1  0
 41 43  1  0
 41 44  1  0
 23 45  1  6
 45 46  2  0
 45 47  1  0
 47 48  1  0
 12 49  1  0
 49 50  1  1
 49 51  1  0
 51 52  1  6
 52 53  1  0
 53 54  1  0
 53 55  2  0
 49 56  1  0
 56 57  2  0
 56 58  1  0
 58 59  1  0
 11  3  1  0
 22 15  1  0
 33 23  1  0
 40 35  1  0
 51  3  1  0
 11  7  1  6
 30 25  1  0
 40 32  1  0
 22 10  1  0
M  END
$$$$
