
     RDKit          3D

 59 67  0  0  0  0  0  0  0  0999 V2000
  116.3106  163.5508  145.6301 C   0  0  0  0  0  0  0  0  0  0  0  0
  116.2166  164.8870  144.9072 C   0  0  0  0  0  0  0  0  0  0  0  0
  115.7537  165.9722  145.9013 C   0  0  1  0  0  0  0  0  0  0  0  0
  116.1904  165.4628  147.2214 C   0  0  0  0  0  0  0  0  0  0  0  0
  117.1841  165.9944  147.8762 C   0  0  0  0  0  0  0  0  0  0  0  0
  117.9264  167.1450  147.3190 C   0  0  0  0  0  0  0  0  0  0  0  0
  117.3434  167.8202  146.2720 N   0  0  0  0  0  0  0  0  0  0  0  0
  117.4141  169.2204  146.1572 C   0  0  0  0  0  0  0  0  0  0  0  0
  115.9878  169.6629  146.0507 C   0  0  0  0  0  0  0  0  0  0  0  0
  115.3015  168.4466  145.4751 C   0  0  1  0  0  0  0  0  0  0  0  0
  116.2502  167.3120  145.5426 C   0  0  2  0  0  0  0  0  0  0  0  0
  113.9577  168.3285  146.0923 C   0  0  1  0  0  0  0  0  0  0  0  0
  113.0050  168.7217  145.1121 N   0  0  0  0  0  0  0  0  0  0  0  0
  111.5919  168.9825  145.2506 C   0  0  0  0  0  0  0  0  0  0  0  0
  113.6515  168.8743  143.8319 C   0  0  0  0  0  0  0  0  0  0  0  0
  113.2131  169.1255  142.5627 C   0  0  0  0  0  0  0  0  0  0  0  0
  114.1019  169.2430  141.4869 C   0  0  0  0  0  0  0  0  0  0  0  0
  113.5570  169.4952  140.2395 O   0  0  0  0  0  0  0  0  0  0  0  0
  112.3804  170.2577  140.1264 C   0  0  0  0  0  0  0  0  0  0  0  0
  115.4785  169.1052  141.6881 C   0  0  0  0  0  0  0  0  0  0  0  0
  115.8703  168.8564  142.9606 C   0  0  0  0  0  0  0  0  0  0  0  0
  114.9754  168.7380  144.0376 C   0  0  0  0  0  0  0  0  0  0  0  0
  116.4263  169.2923  140.5798 C   0  0  1  0  0  0  0  0  0  0  0  0
  117.6633  170.0647  140.9163 C   0  0  0  0  0  0  0  0  0  0  0  0
  118.8291  169.4331  141.5489 C   0  0  2  0  0  0  0  0  0  0  0  0
  120.1709  169.8253  140.9437 C   0  0  0  0  0  0  0  0  0  0  0  0
  120.6802  168.8810  139.9584 C   0  0  2  0  0  0  0  0  0  0  0  0
  119.7093  167.7753  139.7565 C   0  0  0  0  0  0  0  0  0  0  0  0
  119.5179  167.0283  141.0943 N   0  0  0  0  0  0  0  0  0  0  0  0
  118.7335  168.0759  141.9408 C   0  0  0  0  0  0  0  0  0  0  0  0
  118.2610  166.1826  140.6482 C   0  0  0  0  0  0  0  0  0  0  0  0
  117.3586  166.9113  139.8282 C   0  0  0  0  0  0  0  0  0  0  0  0
  116.6299  168.0900  139.7349 C   0  0  0  0  0  0  0  0  0  0  0  0
  115.9738  168.0660  138.5536 N   0  0  0  0  0  0  0  0  0  0  0  0
  116.2089  166.9581  137.8514 C   0  0  0  0  0  0  0  0  0  0  0  0
  115.7636  166.5164  136.6258 C   0  0  0  0  0  0  0  0  0  0  0  0
  116.1789  165.3025  136.1383 C   0  0  0  0  0  0  0  0  0  0  0  0
  117.0331  164.5413  136.8763 C   0  0  0  0  0  0  0  0  0  0  0  0
  117.4697  165.0015  138.1048 C   0  0  0  0  0  0  0  0  0  0  0  0
  117.0750  166.2266  138.6395 C   0  0  0  0  0  0  0  0  0  0  0  0
  121.9981  168.2168  140.2797 C   0  0  0  0  0  0  0  0  0  0  0  0
  123.0878  169.2587  140.3513 C   0  0  0  0  0  0  0  0  0  0  0  0
  122.3397  167.3640  139.2439 F   0  0  0  0  0  0  0  0  0  0  0  0
  121.9157  167.5681  141.4836 F   0  0  0  0  0  0  0  0  0  0  0  0
  115.7173  170.3337  139.7010 C   0  0  0  0  0  0  0  0  0  0  0  0
  115.4909  170.1827  138.5043 O   0  0  0  0  0  0  0  0  0  0  0  0
  115.2895  171.5446  140.2852 O   0  0  0  0  0  0  0  0  0  0  0  0
  114.6917  172.5365  139.4918 C   0  0  0  0  0  0  0  0  0  0  0  0
  113.7606  167.0096  146.7645 C   0  0  2  0  0  0  0  0  0  0  0  0
  114.6638  167.0692  147.8751 O   0  0  0  0  0  0  0  0  0  0  0  0
  114.2449  165.9717  145.7734 C   0  0  2  0  0  0  0  0  0  0  0  0
  113.6439  164.7234  145.9582 O   0  0  0  0  0  0  0  0  0  0  0  0
  113.1267  164.3473  147.1884 C   0  0  0  0  0  0  0  0  0  0  0  0
  113.9122  164.3775  148.4434 C   0  0  0  0  0  0  0  0  0  0  0  0
  111.9308  163.9602  147.2504 O   0  0  0  0  0  0  0  0  0  0  0  0
  112.4605  166.7244  147.3231 C   0  0  0  0  0  0  0  0  0  0  0  0
  111.5092  167.5223  147.1781 O   0  0  0  0  0  0  0  0  0  0  0  0
  112.2211  165.5681  148.0375 O   0  0  0  0  0  0  0  0  0  0  0  0
  113.2444  164.6445  148.3759 C   0  0  0  0  0  0  0  0  0  0  0  0
  1  2  1  0
  3  2  1  6
  3  4  1  0
  4  5  2  0
  5  6  1  0
  6  7  1  0
  7  8  1  0
  8  9  1  0
 10  9  1  1
 10 11  1  0
 10 12  1  0
 12 13  1  6
 13 14  1  0
 13 15  1  0
 15 16  2  0
 16 17  1  0
 17 18  1  0
 18 19  1  0
 17 20  2  0
 20 21  1  0
 21 22  2  0
 20 23  1  0
 23 24  1  0
 25 24  1  6
 25 26  1  0
 26 27  1  0
 27 28  1  0
 29 28  1  6
 29 30  1  0
 29 31  1  0
 31 32  1  0
 32 33  2  0
 33 34  1  0
 34 35  1  0
 35 36  2  0
 36 37  1  0
 37 38  2  0
 38 39  1  0
 39 40  2  0
 27 41  1  1
 41 42  1  0
 41 43  1  0
 41 44  1  0
 23 45  1  6
 45 46  2  0
 45 47  1  0
 47 48  1  0
 12 49  1  0
 49 50  1  1
 49 51  1  0
 51 52  1  1
 52 53  1  0
 53 54  1  0
 53 55  2  0
 49 56  1  0
 56 57  2  0
 56 58  1  0
 58 59  1  0
 11  3  1  0
 22 15  1  0
 33 23  1  0
 40 35  1  0
 51  3  1  0
 11  7  1  1
 30 25  1  0
 40 32  1  0
 22 10  1  0
M  END
$$$$
