
     RDKit          3D

 59 67  0  0  0  0  0  0  0  0999 V2000
  203.4314  128.7458  131.7186 C   0  0  0  0  0  0  0  0  0  0  0  0
  203.1467  130.2053  132.0437 C   0  0  0  0  0  0  0  0  0  0  0  0
  202.6420  130.3139  133.4976 C   0  0  1  0  0  0  0  0  0  0  0  0
  202.2337  128.9329  133.8424 C   0  0  0  0  0  0  0  0  0  0  0  0
  202.9210  128.1909  134.6645 C   0  0  0  0  0  0  0  0  0  0  0  0
  204.1545  128.7060  135.2956 C   0  0  0  0  0  0  0  0  0  0  0  0
  204.3671  130.0638  135.2417 N   0  0  0  0  0  0  0  0  0  0  0  0
  204.9171  130.7752  136.3235 C   0  0  0  0  0  0  0  0  0  0  0  0
  203.9220  131.8568  136.6089 C   0  0  0  0  0  0  0  0  0  0  0  0
  203.2387  132.0444  135.2748 C   0  0  1  0  0  0  0  0  0  0  0  0
  203.6391  130.9231  134.3948 C   0  0  2  0  0  0  0  0  0  0  0  0
  201.8016  132.3212  135.5171 C   0  0  1  0  0  0  0  0  0  0  0  0
  201.5884  133.7049  135.2664 N   0  0  0  0  0  0  0  0  0  0  0  0
  200.4341  134.5263  135.5436 C   0  0  0  0  0  0  0  0  0  0  0  0
  202.7650  134.2823  134.6643 C   0  0  0  0  0  0  0  0  0  0  0  0
  203.0676  135.5057  134.1371 C   0  0  0  0  0  0  0  0  0  0  0  0
  204.3396  135.7926  133.6263 C   0  0  0  0  0  0  0  0  0  0  0  0
  204.5441  137.0613  133.1112 O   0  0  0  0  0  0  0  0  0  0  0  0
  203.7033  138.1212  133.4962 C   0  0  0  0  0  0  0  0  0  0  0  0
  205.3449  134.8213  133.6441 C   0  0  0  0  0  0  0  0  0  0  0  0
  205.0028  133.6228  134.1746 C   0  0  0  0  0  0  0  0  0  0  0  0
  203.7250  133.3381  134.6853 C   0  0  0  0  0  0  0  0  0  0  0  0
  206.7025  135.1306  133.1723 C   0  0  1  0  0  0  0  0  0  0  0  0
  207.2560  136.4452  133.6257 C   0  0  0  0  0  0  0  0  0  0  0  0
  207.8857  136.6137  134.9423 C   0  0  2  0  0  0  0  0  0  0  0  0
  209.1843  137.4098  134.9286 C   0  0  0  0  0  0  0  0  0  0  0  0
  210.3871  136.5893  134.8889 C   0  0  2  0  0  0  0  0  0  0  0  0
  210.0256  135.1503  134.8197 C   0  0  0  0  0  0  0  0  0  0  0  0
  209.2216  134.7761  136.0838 N   0  0  0  0  0  0  0  0  0  0  0  0
  207.8738  135.5209  135.8426 C   0  0  0  0  0  0  0  0  0  0  0  0
  208.7372  133.3617  135.5749 C   0  0  0  0  0  0  0  0  0  0  0  0
  208.4003  133.3487  134.1950 C   0  0  0  0  0  0  0  0  0  0  0  0
  207.6456  133.9864  133.2188 C   0  0  0  0  0  0  0  0  0  0  0  0
  207.8853  133.3555  132.0479 N   0  0  0  0  0  0  0  0  0  0  0  0
  208.7430  132.3429  132.1696 C   0  0  0  0  0  0  0  0  0  0  0  0
  209.2622  131.4441  131.2650 C   0  0  0  0  0  0  0  0  0  0  0  0
  210.1468  130.4808  131.6811 C   0  0  0  0  0  0  0  0  0  0  0  0
  210.5052  130.4227  132.9932 C   0  0  0  0  0  0  0  0  0  0  0  0
  209.9735  131.3339  133.8870 C   0  0  0  0  0  0  0  0  0  0  0  0
  209.0727  132.3284  133.5101 C   0  0  0  0  0  0  0  0  0  0  0  0
  211.3310  136.7197  136.0609 C   0  0  0  0  0  0  0  0  0  0  0  0
  212.7010  136.2235  135.6670 C   0  0  0  0  0  0  0  0  0  0  0  0
  210.8966  135.8966  137.0859 F   0  0  0  0  0  0  0  0  0  0  0  0
  211.4211  138.0309  136.4475 F   0  0  0  0  0  0  0  0  0  0  0  0
  206.4783  135.4569  131.6881 C   0  0  0  0  0  0  0  0  0  0  0  0
  207.1949  136.2087  131.0343 O   0  0  0  0  0  0  0  0  0  0  0  0
  205.3890  134.8651  131.0145 O   0  0  0  0  0  0  0  0  0  0  0  0
  205.0247  135.3135  129.7351 C   0  0  0  0  0  0  0  0  0  0  0  0
  200.9142  131.3430  134.8202 C   0  0  2  0  0  0  0  0  0  0  0  0
  201.1677  130.1165  135.5161 O   0  0  0  0  0  0  0  0  0  0  0  0
  201.4499  131.2430  133.4070 C   0  0  2  0  0  0  0  0  0  0  0  0
  200.4754  130.8538  132.4839 O   0  0  0  0  0  0  0  0  0  0  0  0
  199.8072  129.6452  132.6074 C   0  0  0  0  0  0  0  0  0  0  0  0
  200.3117  128.3759  132.0352 C   0  0  0  0  0  0  0  0  0  0  0  0
  198.7173  129.6165  133.2360 O   0  0  0  0  0  0  0  0  0  0  0  0
  199.4882  131.5547  134.8925 C   0  0  0  0  0  0  0  0  0  0  0  0
  198.7021  130.8843  134.1888 O   0  0  0  0  0  0  0  0  0  0  0  0
  198.9422  132.5025  135.7343 O   0  0  0  0  0  0  0  0  0  0  0  0
  197.5707  132.5112  136.0999 C   0  0  0  0  0  0  0  0  0  0  0  0
  1  2  1  0
  3  2  1  6
  3  4  1  0
  4  5  2  0
  5  6  1  0
  6  7  1  0
  7  8  1  0
  8  9  1  0
 10  9  1  1
 10 11  1  0
 10 12  1  0
 12 13  1  6
 13 14  1  0
 13 15  1  0
 15 16  2  0
 16 17  1  0
 17 18  1  0
 18 19  1  0
 17 20  2  0
 20 21  1  0
 21 22  2  0
 20 23  1  0
 23 24  1  0
 25 24  1  6
 25 26  1  0
 26 27  1  0
 27 28  1  0
 29 28  1  6
 29 30  1  0
 29 31  1  0
 31 32  1  0
 32 33  2  0
 33 34  1  0
 34 35  1  0
 35 36  2  0
 36 37  1  0
 37 38  2  0
 38 39  1  0
 39 40  2  0
 27 41  1  1
 41 42  1  0
 41 43  1  0
 41 44  1  0
 23 45  1  6
 45 46  2  0
 45 47  1  0
 47 48  1  0
 12 49  1  0
 49 50  1  1
 49 51  1  0
 51 52  1  6
 52 53  1  0
 53 54  1  0
 53 55  2  0
 49 56  1  0
 56 57  2  0
 56 58  1  0
 58 59  1  0
 11  3  1  0
 22 15  1  0
 33 23  1  0
 40 35  1  0
 51  3  1  0
 11  7  1  1
 30 25  1  0
 40 32  1  0
 22 10  1  0
M  END
$$$$
