
     RDKit          3D

 59 67  0  0  0  0  0  0  0  0999 V2000
  132.6839  170.7755  141.9065 C   0  0  0  0  0  0  0  0  0  0  0  0
  131.6519  171.5008  142.7585 C   0  0  0  0  0  0  0  0  0  0  0  0
  131.3850  170.6841  144.0399 C   0  0  1  0  0  0  0  0  0  0  0  0
  132.5768  169.8147  144.1691 C   0  0  0  0  0  0  0  0  0  0  0  0
  133.4843  170.0127  145.0834 C   0  0  0  0  0  0  0  0  0  0  0  0
  133.3583  171.1299  146.0432 C   0  0  0  0  0  0  0  0  0  0  0  0
  132.1274  171.7356  146.1431 N   0  0  0  0  0  0  0  0  0  0  0  0
  131.6053  172.1624  147.3776 C   0  0  0  0  0  0  0  0  0  0  0  0
  130.2725  171.4877  147.4773 C   0  0  0  0  0  0  0  0  0  0  0  0
  129.8992  171.2671  146.0302 C   0  0  1  0  0  0  0  0  0  0  0  0
  131.0961  171.5410  145.2029 C   0  0  2  0  0  0  0  0  0  0  0  0
  129.2017  169.9627  145.9179 C   0  0  1  0  0  0  0  0  0  0  0  0
  127.8199  170.2366  145.7215 N   0  0  0  0  0  0  0  0  0  0  0  0
  126.6876  169.3417  145.7540 C   0  0  0  0  0  0  0  0  0  0  0  0
  127.6274  171.6458  145.4819 C   0  0  0  0  0  0  0  0  0  0  0  0
  126.5556  172.4202  145.1387 C   0  0  0  0  0  0  0  0  0  0  0  0
  126.6681  173.8082  144.9906 C   0  0  0  0  0  0  0  0  0  0  0  0
  125.5235  174.5024  144.6373 O   0  0  0  0  0  0  0  0  0  0  0  0
  124.3841  173.8042  144.1982 C   0  0  0  0  0  0  0  0  0  0  0  0
  127.8962  174.4443  145.1939 C   0  0  0  0  0  0  0  0  0  0  0  0
  128.9323  173.6400  145.5321 C   0  0  0  0  0  0  0  0  0  0  0  0
  128.8161  172.2473  145.6788 C   0  0  0  0  0  0  0  0  0  0  0  0
  128.0126  175.9073  145.1069 C   0  0  1  0  0  0  0  0  0  0  0  0
  127.0362  176.6798  145.9375 C   0  0  0  0  0  0  0  0  0  0  0  0
  127.2628  176.9420  147.3651 C   0  0  2  0  0  0  0  0  0  0  0  0
  126.9644  178.3697  147.8043 C   0  0  0  0  0  0  0  0  0  0  0  0
  128.1348  179.2353  147.8566 C   0  0  2  0  0  0  0  0  0  0  0  0
  129.3418  178.4950  147.4078 C   0  0  0  0  0  0  0  0  0  0  0  0
  129.5763  177.3000  148.3571 N   0  0  0  0  0  0  0  0  0  0  0  0
  128.3909  176.3569  147.9895 C   0  0  0  0  0  0  0  0  0  0  0  0
  130.6623  176.5761  147.4677 C   0  0  0  0  0  0  0  0  0  0  0  0
  130.3829  176.6453  146.0767 C   0  0  0  0  0  0  0  0  0  0  0  0
  129.4065  176.4151  145.1161 C   0  0  0  0  0  0  0  0  0  0  0  0
  129.9264  176.7693  143.9199 N   0  0  0  0  0  0  0  0  0  0  0  0
  131.1781  177.2176  144.0099 C   0  0  0  0  0  0  0  0  0  0  0  0
  132.0770  177.6738  143.0721 C   0  0  0  0  0  0  0  0  0  0  0  0
  133.3296  178.0801  143.4587 C   0  0  0  0  0  0  0  0  0  0  0  0
  133.6738  178.0281  144.7749 C   0  0  0  0  0  0  0  0  0  0  0  0
  132.7576  177.5673  145.7023 C   0  0  0  0  0  0  0  0  0  0  0  0
  131.4755  177.1446  145.3561 C   0  0  0  0  0  0  0  0  0  0  0  0
  128.4860  179.8131  149.2072 C   0  0  0  0  0  0  0  0  0  0  0  0
  129.4628  180.9507  149.0343 C   0  0  0  0  0  0  0  0  0  0  0  0
  129.1376  178.8485  149.9568 F   0  0  0  0  0  0  0  0  0  0  0  0
  127.3566  180.2797  149.8263 F   0  0  0  0  0  0  0  0  0  0  0  0
  127.4428  176.2094  143.7128 C   0  0  0  0  0  0  0  0  0  0  0  0
  126.4811  176.9439  143.5083 O   0  0  0  0  0  0  0  0  0  0  0  0
  128.0480  175.6185  142.5836 O   0  0  0  0  0  0  0  0  0  0  0  0
  127.6572  176.0055  141.2919 C   0  0  0  0  0  0  0  0  0  0  0  0
  129.8739  169.0461  144.9495 C   0  0  2  0  0  0  0  0  0  0  0  0
  131.1142  168.7373  145.5968 O   0  0  0  0  0  0  0  0  0  0  0  0
  130.1416  169.8831  143.7159 C   0  0  2  0  0  0  0  0  0  0  0  0
  130.2277  169.1179  142.5495 O   0  0  0  0  0  0  0  0  0  0  0  0
  130.5166  167.7627  142.5960 C   0  0  0  0  0  0  0  0  0  0  0  0
  131.8905  167.2295  142.7417 C   0  0  0  0  0  0  0  0  0  0  0  0
  129.5699  166.9378  142.5115 O   0  0  0  0  0  0  0  0  0  0  0  0
  129.2432  167.7778  144.6713 C   0  0  0  0  0  0  0  0  0  0  0  0
  129.8078  166.7013  144.9628 O   0  0  0  0  0  0  0  0  0  0  0  0
  128.0014  167.7064  144.0732 O   0  0  0  0  0  0  0  0  0  0  0  0
  127.0048  166.7782  144.4729 C   0  0  0  0  0  0  0  0  0  0  0  0
  1  2  1  0
  3  2  1  6
  3  4  1  0
  4  5  2  0
  5  6  1  0
  6  7  1  0
  7  8  1  0
  8  9  1  0
 10  9  1  1
 10 11  1  0
 10 12  1  0
 12 13  1  6
 13 14  1  0
 13 15  1  0
 15 16  2  0
 16 17  1  0
 17 18  1  0
 18 19  1  0
 17 20  2  0
 20 21  1  0
 21 22  2  0
 20 23  1  0
 23 24  1  0
 25 24  1  6
 25 26  1  0
 26 27  1  0
 27 28  1  0
 29 28  1  6
 29 30  1  0
 29 31  1  0
 31 32  1  0
 32 33  2  0
 33 34  1  0
 34 35  1  0
 35 36  2  0
 36 37  1  0
 37 38  2  0
 38 39  1  0
 39 40  2  0
 27 41  1  1
 41 42  1  0
 41 43  1  0
 41 44  1  0
 23 45  1  6
 45 46  2  0
 45 47  1  0
 47 48  1  0
 12 49  1  0
 49 50  1  1
 49 51  1  0
 51 52  1  6
 52 53  1  0
 53 54  1  0
 53 55  2  0
 49 56  1  0
 56 57  2  0
 56 58  1  0
 58 59  1  0
 11  3  1  0
 22 15  1  0
 33 23  1  0
 40 35  1  0
 51  3  1  0
 11  7  1  1
 30 25  1  0
 40 32  1  0
 22 10  1  0
M  END
$$$$
