
     RDKit          3D

 59 67  0  0  0  0  0  0  0  0999 V2000
  128.4612  136.3204  136.4763 C   0  0  0  0  0  0  0  0  0  0  0  0
  129.1485  137.6301  136.1166 C   0  0  0  0  0  0  0  0  0  0  0  0
  128.0808  138.6803  135.7462 C   0  0  1  0  0  0  0  0  0  0  0  0
  127.5471  139.1292  137.0525 C   0  0  0  0  0  0  0  0  0  0  0  0
  127.8151  140.3062  137.5441 C   0  0  0  0  0  0  0  0  0  0  0  0
  128.6756  141.2549  136.8061 C   0  0  0  0  0  0  0  0  0  0  0  0
  128.9090  140.9872  135.4773 N   0  0  0  0  0  0  0  0  0  0  0  0
  128.9624  142.0074  134.5102 C   0  0  0  0  0  0  0  0  0  0  0  0
  127.9539  141.6037  133.4798 C   0  0  0  0  0  0  0  0  0  0  0  0
  127.8975  140.1023  133.6359 C   0  0  1  0  0  0  0  0  0  0  0  0
  128.6161  139.7451  134.8801 C   0  0  2  0  0  0  0  0  0  0  0  0
  126.4955  139.6608  133.4354 C   0  0  1  0  0  0  0  0  0  0  0  0
  126.4258  139.0381  132.1586 N   0  0  0  0  0  0  0  0  0  0  0  0
  125.2728  138.6206  131.3968 C   0  0  0  0  0  0  0  0  0  0  0  0
  127.7540  138.8610  131.6249 C   0  0  0  0  0  0  0  0  0  0  0  0
  128.2663  138.2434  130.5194 C   0  0  0  0  0  0  0  0  0  0  0  0
  129.6388  138.2520  130.2414 C   0  0  0  0  0  0  0  0  0  0  0  0
  130.0577  137.5943  129.0974 O   0  0  0  0  0  0  0  0  0  0  0  0
  129.1190  136.9455  128.2749 C   0  0  0  0  0  0  0  0  0  0  0  0
  130.5305  138.9024  131.0994 C   0  0  0  0  0  0  0  0  0  0  0  0
  129.9813  139.5011  132.1832 C   0  0  0  0  0  0  0  0  0  0  0  0
  128.6036  139.4895  132.4597 C   0  0  0  0  0  0  0  0  0  0  0  0
  131.9647  138.9758  130.7841 C   0  0  1  0  0  0  0  0  0  0  0  0
  132.8611  139.2903  131.9406 C   0  0  0  0  0  0  0  0  0  0  0  0
  133.3191  138.2546  132.8765 C   0  0  2  0  0  0  0  0  0  0  0  0
  134.7988  138.3274  133.2307 C   0  0  0  0  0  0  0  0  0  0  0  0
  135.6456  137.4422  132.4426 C   0  0  2  0  0  0  0  0  0  0  0  0
  134.8315  136.7144  131.4356 C   0  0  0  0  0  0  0  0  0  0  0  0
  133.7793  135.8558  132.1705 N   0  0  0  0  0  0  0  0  0  0  0  0
  132.8114  136.9407  132.7326 C   0  0  0  0  0  0  0  0  0  0  0  0
  132.9209  135.4951  130.8948 C   0  0  0  0  0  0  0  0  0  0  0  0
  132.7970  136.5749  129.9801 C   0  0  0  0  0  0  0  0  0  0  0  0
  132.4479  137.9145  129.8671 C   0  0  0  0  0  0  0  0  0  0  0  0
  132.6218  138.2686  128.5745 N   0  0  0  0  0  0  0  0  0  0  0  0
  133.0596  137.2648  127.8153 C   0  0  0  0  0  0  0  0  0  0  0  0
  133.3653  137.1703  126.4762 C   0  0  0  0  0  0  0  0  0  0  0  0
  133.8036  135.9802  125.9517 C   0  0  0  0  0  0  0  0  0  0  0  0
  133.9330  134.8968  126.7660 C   0  0  0  0  0  0  0  0  0  0  0  0
  133.6214  135.0108  128.1083 C   0  0  0  0  0  0  0  0  0  0  0  0
  133.1732  136.1982  128.6844 C   0  0  0  0  0  0  0  0  0  0  0  0
  136.4032  136.3801  133.2036 C   0  0  0  0  0  0  0  0  0  0  0  0
  137.3972  137.0330  134.1330 C   0  0  0  0  0  0  0  0  0  0  0  0
  137.1418  135.6230  132.3102 F   0  0  0  0  0  0  0  0  0  0  0  0
  135.5332  135.6182  133.9381 F   0  0  0  0  0  0  0  0  0  0  0  0
  132.0751  140.3031  130.0191 C   0  0  0  0  0  0  0  0  0  0  0  0
  132.5666  140.4119  128.8998 O   0  0  0  0  0  0  0  0  0  0  0  0
  131.5856  141.4820  130.6202 O   0  0  0  0  0  0  0  0  0  0  0  0
  131.5326  142.6771  129.8856 C   0  0  0  0  0  0  0  0  0  0  0  0
  125.9707  138.9017  134.6094 C   0  0  2  0  0  0  0  0  0  0  0  0
  125.8918  139.8982  135.6358 O   0  0  0  0  0  0  0  0  0  0  0  0
  127.0496  137.8983  134.9602 C   0  0  2  0  0  0  0  0  0  0  0  0
  126.5486  136.7701  135.6157 O   0  0  0  0  0  0  0  0  0  0  0  0
  125.5751  136.8794  136.5969 C   0  0  0  0  0  0  0  0  0  0  0  0
  125.3575  138.1097  137.3917 C   0  0  0  0  0  0  0  0  0  0  0  0
  124.8351  135.8884  136.8296 O   0  0  0  0  0  0  0  0  0  0  0  0
  124.6494  138.3296  134.5073 C   0  0  0  0  0  0  0  0  0  0  0  0
  123.7824  138.5538  135.3795 O   0  0  0  0  0  0  0  0  0  0  0  0
  124.2966  137.5150  133.4505 O   0  0  0  0  0  0  0  0  0  0  0  0
  124.8935  136.2480  133.2203 C   0  0  0  0  0  0  0  0  0  0  0  0
  1  2  1  0
  3  2  1  1
  3  4  1  0
  4  5  2  0
  5  6  1  0
  6  7  1  0
  7  8  1  0
  8  9  1  0
 10  9  1  6
 10 11  1  0
 10 12  1  0
 12 13  1  6
 13 14  1  0
 13 15  1  0
 15 16  2  0
 16 17  1  0
 17 18  1  0
 18 19  1  0
 17 20  2  0
 20 21  1  0
 21 22  2  0
 20 23  1  0
 23 24  1  0
 25 24  1  6
 25 26  1  0
 26 27  1  0
 27 28  1  0
 29 28  1  6
 29 30  1  0
 29 31  1  0
 31 32  1  0
 32 33  2  0
 33 34  1  0
 34 35  1  0
 35 36  2  0
 36 37  1  0
 37 38  2  0
 38 39  1  0
 39 40  2  0
 27 41  1  1
 41 42  1  0
 41 43  1  0
 41 44  1  0
 23 45  1  6
 45 46  2  0
 45 47  1  0
 47 48  1  0
 12 49  1  0
 49 50  1  1
 49 51  1  0
 51 52  1  1
 52 53  1  0
 53 54  1  0
 53 55  2  0
 49 56  1  0
 56 57  2  0
 56 58  1  0
 58 59  1  0
 11  3  1  0
 22 15  1  0
 33 23  1  0
 40 35  1  0
 51  3  1  0
 11  7  1  1
 30 25  1  0
 40 32  1  0
 22 10  1  0
M  END
$$$$
