
     RDKit          3D

 59 67  0  0  0  0  0  0  0  0999 V2000
  125.7856  140.5935  136.5176 C   0  0  0  0  0  0  0  0  0  0  0  0
  126.4317  140.9117  135.1767 C   0  0  0  0  0  0  0  0  0  0  0  0
  127.2190  142.2335  135.2918 C   0  0  1  0  0  0  0  0  0  0  0  0
  126.6819  142.8684  136.5171 C   0  0  0  0  0  0  0  0  0  0  0  0
  127.3723  142.9420  137.6202 C   0  0  0  0  0  0  0  0  0  0  0  0
  128.7402  142.3865  137.6936 C   0  0  0  0  0  0  0  0  0  0  0  0
  129.3622  142.0908  136.5029 N   0  0  0  0  0  0  0  0  0  0  0  0
  130.7332  142.3304  136.2992 C   0  0  0  0  0  0  0  0  0  0  0  0
  130.7886  143.1869  135.0725 C   0  0  0  0  0  0  0  0  0  0  0  0
  129.5161  142.8168  134.3474 C   0  0  1  0  0  0  0  0  0  0  0  0
  128.6770  142.0231  135.2735 C   0  0  2  0  0  0  0  0  0  0  0  0
  128.9664  144.0378  133.7090 C   0  0  1  0  0  0  0  0  0  0  0  0
  129.2118  143.9326  132.3119 N   0  0  0  0  0  0  0  0  0  0  0  0
  129.0660  144.9231  131.2718 C   0  0  0  0  0  0  0  0  0  0  0  0
  129.6922  142.6100  131.9955 C   0  0  0  0  0  0  0  0  0  0  0  0
  129.9757  141.9474  130.8349 C   0  0  0  0  0  0  0  0  0  0  0  0
  130.4615  140.6340  130.8374 C   0  0  0  0  0  0  0  0  0  0  0  0
  130.7148  140.0499  129.6080 O   0  0  0  0  0  0  0  0  0  0  0  0
  131.0591  140.8521  128.5051 C   0  0  0  0  0  0  0  0  0  0  0  0
  130.6720  139.9596  132.0438 C   0  0  0  0  0  0  0  0  0  0  0  0
  130.3778  140.6523  133.1700 C   0  0  0  0  0  0  0  0  0  0  0  0
  129.8894  141.9699  133.1638 C   0  0  0  0  0  0  0  0  0  0  0  0
  131.2441  138.6054  132.0623 C   0  0  1  0  0  0  0  0  0  0  0  0
  132.1980  138.2961  130.9513 C   0  0  0  0  0  0  0  0  0  0  0  0
  133.6138  138.6840  131.0085 C   0  0  2  0  0  0  0  0  0  0  0  0
  134.5881  137.6009  130.5633 C   0  0  0  0  0  0  0  0  0  0  0  0
  135.1573  136.8240  131.6561 C   0  0  2  0  0  0  0  0  0  0  0  0
  134.5867  137.2678  132.9537 C   0  0  0  0  0  0  0  0  0  0  0  0
  134.9442  138.7537  133.1741 N   0  0  0  0  0  0  0  0  0  0  0  0
  134.0582  139.4619  132.1049 C   0  0  0  0  0  0  0  0  0  0  0  0
  133.9725  138.9914  134.3963 C   0  0  0  0  0  0  0  0  0  0  0  0
  132.7267  138.3230  134.2591 C   0  0  0  0  0  0  0  0  0  0  0  0
  131.6475  138.1263  133.4071 C   0  0  0  0  0  0  0  0  0  0  0  0
  130.7993  137.2722  134.0217 N   0  0  0  0  0  0  0  0  0  0  0  0
  131.2311  136.8849  135.2214 C   0  0  0  0  0  0  0  0  0  0  0  0
  130.7052  136.0453  136.1776 C   0  0  0  0  0  0  0  0  0  0  0  0
  131.3836  135.8261  137.3504 C   0  0  0  0  0  0  0  0  0  0  0  0
  132.5783  136.4449  137.5586 C   0  0  0  0  0  0  0  0  0  0  0  0
  133.0907  137.2844  136.5867 C   0  0  0  0  0  0  0  0  0  0  0  0
  132.4376  137.5366  135.3815 C   0  0  0  0  0  0  0  0  0  0  0  0
  136.6570  136.8922  131.8220 C   0  0  0  0  0  0  0  0  0  0  0  0
  137.0304  136.4981  133.2303 C   0  0  0  0  0  0  0  0  0  0  0  0
  137.0713  138.2032  131.6596 F   0  0  0  0  0  0  0  0  0  0  0  0
  137.2662  136.0396  130.9395 F   0  0  0  0  0  0  0  0  0  0  0  0
  130.0601  137.7322  131.6202 C   0  0  0  0  0  0  0  0  0  0  0  0
  128.8890  138.0982  131.6474 O   0  0  0  0  0  0  0  0  0  0  0  0
  130.3116  136.4266  131.1483 O   0  0  0  0  0  0  0  0  0  0  0  0
  129.3018  135.7107  130.4863 C   0  0  0  0  0  0  0  0  0  0  0  0
  127.5687  144.3236  134.1503 C   0  0  2  0  0  0  0  0  0  0  0  0
  127.7262  144.6775  135.5297 O   0  0  0  0  0  0  0  0  0  0  0  0
  126.8319  143.0043  134.0473 C   0  0  2  0  0  0  0  0  0  0  0  0
  125.4555  143.1646  133.8647 O   0  0  0  0  0  0  0  0  0  0  0  0
  124.7333  144.0899  134.6027 C   0  0  0  0  0  0  0  0  0  0  0  0
  124.4473  145.4630  134.1275 C   0  0  0  0  0  0  0  0  0  0  0  0
  124.2950  143.7541  135.7337 O   0  0  0  0  0  0  0  0  0  0  0  0
  126.8784  145.4300  133.5315 C   0  0  0  0  0  0  0  0  0  0  0  0
  126.7188  146.5100  134.1405 O   0  0  0  0  0  0  0  0  0  0  0  0
  126.3682  145.3364  132.2525 O   0  0  0  0  0  0  0  0  0  0  0  0
  125.7719  146.4334  131.5775 C   0  0  0  0  0  0  0  0  0  0  0  0
  1  2  1  0
  3  2  1  6
  3  4  1  0
  4  5  2  0
  5  6  1  0
  6  7  1  0
  7  8  1  0
  8  9  1  0
 10  9  1  1
 10 11  1  0
 10 12  1  0
 12 13  1  6
 13 14  1  0
 13 15  1  0
 15 16  2  0
 16 17  1  0
 17 18  1  0
 18 19  1  0
 17 20  2  0
 20 21  1  0
 21 22  2  0
 20 23  1  0
 23 24  1  0
 25 24  1  1
 25 26  1  0
 26 27  1  0
 27 28  1  0
 29 28  1  6
 29 30  1  0
 29 31  1  0
 31 32  1  0
 32 33  2  0
 33 34  1  0
 34 35  1  0
 35 36  2  0
 36 37  1  0
 37 38  2  0
 38 39  1  0
 39 40  2  0
 27 41  1  1
 41 42  1  0
 41 43  1  0
 41 44  1  0
 23 45  1  6
 45 46  2  0
 45 47  1  0
 47 48  1  0
 12 49  1  0
 49 50  1  1
 49 51  1  0
 51 52  1  1
 52 53  1  0
 53 54  1  0
 53 55  2  0
 49 56  1  0
 56 57  2  0
 56 58  1  0
 58 59  1  0
 11  3  1  0
 22 15  1  0
 33 23  1  0
 40 35  1  0
 51  3  1  0
 11  7  1  1
 30 25  1  0
 40 32  1  0
 22 10  1  0
M  END
$$$$
