
     RDKit          3D

 59 67  0  0  0  0  0  0  0  0999 V2000
  102.1923  166.5534  160.7842 C   0  0  0  0  0  0  0  0  0  0  0  0
  102.9356  166.4819  159.4578 C   0  0  0  0  0  0  0  0  0  0  0  0
  104.1233  167.4662  159.4862 C   0  0  1  0  0  0  0  0  0  0  0  0
  104.1100  168.0089  160.8639 C   0  0  0  0  0  0  0  0  0  0  0  0
  105.0087  167.6790  161.7484 C   0  0  0  0  0  0  0  0  0  0  0  0
  106.0942  166.7356  161.4065 C   0  0  0  0  0  0  0  0  0  0  0  0
  106.3060  166.4797  160.0718 N   0  0  0  0  0  0  0  0  0  0  0  0
  107.5988  166.3296  159.5382 C   0  0  0  0  0  0  0  0  0  0  0  0
  107.6670  167.3304  158.4268 C   0  0  0  0  0  0  0  0  0  0  0  0
  106.2182  167.4905  158.0303 C   0  0  1  0  0  0  0  0  0  0  0  0
  105.3864  166.8355  159.0652 C   0  0  2  0  0  0  0  0  0  0  0  0
  105.9814  168.9117  157.6773 C   0  0  1  0  0  0  0  0  0  0  0  0
  105.8662  168.9832  156.2614 N   0  0  0  0  0  0  0  0  0  0  0  0
  105.8354  170.1373  155.3947 C   0  0  0  0  0  0  0  0  0  0  0  0
  105.7969  167.6538  155.7062 C   0  0  0  0  0  0  0  0  0  0  0  0
  105.5826  167.1496  154.4548 C   0  0  0  0  0  0  0  0  0  0  0  0
  105.5910  165.7717  154.2052 C   0  0  0  0  0  0  0  0  0  0  0  0
  105.3601  165.3622  152.9031 O   0  0  0  0  0  0  0  0  0  0  0  0
  104.9989  166.3040  151.9226 C   0  0  0  0  0  0  0  0  0  0  0  0
  105.8229  164.8658  155.2444 C   0  0  0  0  0  0  0  0  0  0  0  0
  106.0300  165.4073  156.4686 C   0  0  0  0  0  0  0  0  0  0  0  0
  106.0197  166.7906  156.7156 C   0  0  0  0  0  0  0  0  0  0  0  0
  105.9003  163.4209  154.9837 C   0  0  1  0  0  0  0  0  0  0  0  0
  106.5558  163.0352  153.6947 C   0  0  0  0  0  0  0  0  0  0  0  0
  108.0156  162.9400  153.5602 C   0  0  2  0  0  0  0  0  0  0  0  0
  108.5060  161.7057  152.8142 C   0  0  0  0  0  0  0  0  0  0  0  0
  108.9023  160.6033  153.6797 C   0  0  2  0  0  0  0  0  0  0  0  0
  108.6722  160.9593  155.1034 C   0  0  0  0  0  0  0  0  0  0  0  0
  109.5351  162.1903  155.4559 N   0  0  0  0  0  0  0  0  0  0  0  0
  108.8226  163.3243  154.6583 C   0  0  0  0  0  0  0  0  0  0  0  0
  108.8519  162.4946  156.8469 C   0  0  0  0  0  0  0  0  0  0  0  0
  107.4463  162.2896  156.8368 C   0  0  0  0  0  0  0  0  0  0  0  0
  106.2723  162.6021  156.1635 C   0  0  0  0  0  0  0  0  0  0  0  0
  105.2632  161.9615  156.7944 N   0  0  0  0  0  0  0  0  0  0  0  0
  105.6757  161.2456  157.8399 C   0  0  0  0  0  0  0  0  0  0  0  0
  105.0126  160.4548  158.7512 C   0  0  0  0  0  0  0  0  0  0  0  0
  105.7090  159.8227  159.7506 C   0  0  0  0  0  0  0  0  0  0  0  0
  107.0584  159.9845  159.8322 C   0  0  0  0  0  0  0  0  0  0  0  0
  107.7071  160.7825  158.9079 C   0  0  0  0  0  0  0  0  0  0  0  0
  107.0416  161.4432  157.8769 C   0  0  0  0  0  0  0  0  0  0  0  0
  110.3448  160.1640  153.5943 C   0  0  0  0  0  0  0  0  0  0  0  0
  111.2107  161.3372  153.2046 C   0  0  0  0  0  0  0  0  0  0  0  0
  110.4741  159.2289  152.5814 F   0  0  0  0  0  0  0  0  0  0  0  0
  110.7609  159.6803  154.8066 F   0  0  0  0  0  0  0  0  0  0  0  0
  104.4474  163.0615  154.6382 C   0  0  0  0  0  0  0  0  0  0  0  0
  104.1228  162.3427  153.6979 O   0  0  0  0  0  0  0  0  0  0  0  0
  103.4062  163.5765  155.4389 O   0  0  0  0  0  0  0  0  0  0  0  0
  102.0681  163.2999  155.1173 C   0  0  0  0  0  0  0  0  0  0  0  0
  104.8911  169.5212  158.4957 C   0  0  2  0  0  0  0  0  0  0  0  0
  105.4549  169.5656  159.8121 O   0  0  0  0  0  0  0  0  0  0  0  0
  103.7532  168.5221  158.4660 C   0  0  2  0  0  0  0  0  0  0  0  0
  102.5043  169.1163  158.6678 O   0  0  0  0  0  0  0  0  0  0  0  0
  102.3080  170.0611  159.6634 C   0  0  0  0  0  0  0  0  0  0  0  0
  103.3395  171.0450  160.0645 C   0  0  0  0  0  0  0  0  0  0  0  0
  101.2006  170.0911  160.2608 O   0  0  0  0  0  0  0  0  0  0  0  0
  104.4915  170.8736  158.1877 C   0  0  0  0  0  0  0  0  0  0  0  0
  105.0078  171.8470  158.7782 O   0  0  0  0  0  0  0  0  0  0  0  0
  103.5271  171.1413  157.2374 O   0  0  0  0  0  0  0  0  0  0  0  0
  102.7622  170.1253  156.6069 C   0  0  0  0  0  0  0  0  0  0  0  0
  1  2  1  0
  3  2  1  1
  3  4  1  0
  4  5  2  0
  5  6  1  0
  6  7  1  0
  7  8  1  0
  8  9  1  0
 10  9  1  1
 10 11  1  0
 10 12  1  0
 12 13  1  6
 13 14  1  0
 13 15  1  0
 15 16  2  0
 16 17  1  0
 17 18  1  0
 18 19  1  0
 17 20  2  0
 20 21  1  0
 21 22  2  0
 20 23  1  0
 23 24  1  0
 25 24  1  1
 25 26  1  0
 26 27  1  0
 27 28  1  0
 29 28  1  6
 29 30  1  0
 29 31  1  0
 31 32  1  0
 32 33  2  0
 33 34  1  0
 34 35  1  0
 35 36  2  0
 36 37  1  0
 37 38  2  0
 38 39  1  0
 39 40  2  0
 27 41  1  1
 41 42  1  0
 41 43  1  0
 41 44  1  0
 23 45  1  6
 45 46  2  0
 45 47  1  0
 47 48  1  0
 12 49  1  0
 49 50  1  1
 49 51  1  0
 51 52  1  1
 52 53  1  0
 53 54  1  0
 53 55  2  0
 49 56  1  0
 56 57  2  0
 56 58  1  0
 58 59  1  0
 11  3  1  0
 22 15  1  0
 33 23  1  0
 40 35  1  0
 51  3  1  0
 11  7  1  1
 30 25  1  0
 40 32  1  0
 22 10  1  0
M  END
$$$$
