
     RDKit          3D

 59 67  0  0  0  0  0  0  0  0999 V2000
  179.7703  160.5723  137.4870 C   0  0  0  0  0  0  0  0  0  0  0  0
  181.1743  160.7228  138.0555 C   0  0  0  0  0  0  0  0  0  0  0  0
  181.7338  159.3284  138.4058 C   0  0  1  0  0  0  0  0  0  0  0  0
  180.8523  158.3909  137.6732 C   0  0  0  0  0  0  0  0  0  0  0  0
  181.2565  157.7378  136.6201 C   0  0  0  0  0  0  0  0  0  0  0  0
  182.6322  157.9092  136.1071 C   0  0  0  0  0  0  0  0  0  0  0  0
  183.5431  158.5121  136.9429 N   0  0  0  0  0  0  0  0  0  0  0  0
  184.8808  158.0838  137.0198 C   0  0  0  0  0  0  0  0  0  0  0  0
  185.1020  157.7956  138.4722 C   0  0  0  0  0  0  0  0  0  0  0  0
  184.0889  158.6884  139.1493 C   0  0  1  0  0  0  0  0  0  0  0  0
  183.1720  159.2090  138.1100 C   0  0  2  0  0  0  0  0  0  0  0  0
  183.5441  157.9718  140.3284 C   0  0  1  0  0  0  0  0  0  0  0  0
  184.1139  158.5681  141.4872 N   0  0  0  0  0  0  0  0  0  0  0  0
  184.0809  158.1296  142.8622 C   0  0  0  0  0  0  0  0  0  0  0  0
  184.8233  159.7699  141.1232 C   0  0  0  0  0  0  0  0  0  0  0  0
  185.4491  160.7611  141.8247 C   0  0  0  0  0  0  0  0  0  0  0  0
  186.0896  161.8268  141.1805 C   0  0  0  0  0  0  0  0  0  0  0  0
  186.6916  162.7819  141.9818 O   0  0  0  0  0  0  0  0  0  0  0  0
  187.5458  162.3868  143.0272 C   0  0  0  0  0  0  0  0  0  0  0  0
  186.1055  161.9033  139.7847 C   0  0  0  0  0  0  0  0  0  0  0  0
  185.4734  160.9012  139.1282 C   0  0  0  0  0  0  0  0  0  0  0  0
  184.8307  159.8338  139.7780 C   0  0  0  0  0  0  0  0  0  0  0  0
  186.8310  162.9804  139.0954 C   0  0  1  0  0  0  0  0  0  0  0  0
  188.1735  163.3171  139.6649 C   0  0  0  0  0  0  0  0  0  0  0  0
  189.3798  162.5513  139.3235 C   0  0  2  0  0  0  0  0  0  0  0  0
  190.6067  163.4009  139.0179 C   0  0  0  0  0  0  0  0  0  0  0  0
  190.8276  163.6416  137.5984 C   0  0  2  0  0  0  0  0  0  0  0  0
  189.7417  163.0215  136.7968 C   0  0  0  0  0  0  0  0  0  0  0  0
  189.7502  161.4966  137.0399 N   0  0  0  0  0  0  0  0  0  0  0  0
  189.2426  161.4003  138.5105 C   0  0  0  0  0  0  0  0  0  0  0  0
  188.3603  161.1985  136.3517 C   0  0  0  0  0  0  0  0  0  0  0  0
  187.3832  162.1972  136.6084 C   0  0  0  0  0  0  0  0  0  0  0  0
  186.7579  162.9219  137.6149 C   0  0  0  0  0  0  0  0  0  0  0  0
  185.8839  163.7647  137.0212 N   0  0  0  0  0  0  0  0  0  0  0  0
  185.8779  163.6558  135.6931 C   0  0  0  0  0  0  0  0  0  0  0  0
  185.1641  164.2975  134.7061 C   0  0  0  0  0  0  0  0  0  0  0  0
  185.3666  163.9737  133.3878 C   0  0  0  0  0  0  0  0  0  0  0  0
  186.2776  163.0144  133.0663 C   0  0  0  0  0  0  0  0  0  0  0  0
  186.9852  162.3809  134.0713 C   0  0  0  0  0  0  0  0  0  0  0  0
  186.8130  162.6768  135.4223 C   0  0  0  0  0  0  0  0  0  0  0  0
  192.1187  163.1145  137.0182 C   0  0  0  0  0  0  0  0  0  0  0  0
  192.0651  163.1868  135.5115 C   0  0  0  0  0  0  0  0  0  0  0  0
  192.2463  161.7743  137.3413 F   0  0  0  0  0  0  0  0  0  0  0  0
  193.1751  163.8622  137.4674 F   0  0  0  0  0  0  0  0  0  0  0  0
  186.0591  164.2368  139.5255 C   0  0  0  0  0  0  0  0  0  0  0  0
  186.5477  165.3618  139.5688 O   0  0  0  0  0  0  0  0  0  0  0  0
  184.7032  164.1136  139.8954 O   0  0  0  0  0  0  0  0  0  0  0  0
  183.9993  165.2305  140.3726 C   0  0  0  0  0  0  0  0  0  0  0  0
  182.0574  157.8427  140.2718 C   0  0  2  0  0  0  0  0  0  0  0  0
  181.8477  156.9447  139.1753 O   0  0  0  0  0  0  0  0  0  0  0  0
  181.5435  159.2192  139.9040 C   0  0  2  0  0  0  0  0  0  0  0  0
  180.2365  159.4456  140.3444 O   0  0  0  0  0  0  0  0  0  0  0  0
  179.3219  158.4089  140.4510 C   0  0  0  0  0  0  0  0  0  0  0  0
  179.1436  157.3725  139.4085 C   0  0  0  0  0  0  0  0  0  0  0  0
  178.6039  158.3377  141.4822 O   0  0  0  0  0  0  0  0  0  0  0  0
  181.3877  157.2508  141.4052 C   0  0  0  0  0  0  0  0  0  0  0  0
  181.2944  156.0096  141.5208 O   0  0  0  0  0  0  0  0  0  0  0  0
  180.8250  158.0288  142.3967 O   0  0  0  0  0  0  0  0  0  0  0  0
  179.9120  159.0814  142.1265 C   0  0  0  0  0  0  0  0  0  0  0  0
  1  2  1  0
  3  2  1  6
  3  4  1  0
  4  5  2  0
  5  6  1  0
  6  7  1  0
  7  8  1  0
  8  9  1  0
 10  9  1  6
 10 11  1  0
 10 12  1  0
 12 13  1  1
 13 14  1  0
 13 15  1  0
 15 16  2  0
 16 17  1  0
 17 18  1  0
 18 19  1  0
 17 20  2  0
 20 21  1  0
 21 22  2  0
 20 23  1  0
 23 24  1  0
 25 24  1  6
 25 26  1  0
 26 27  1  0
 27 28  1  0
 29 28  1  6
 29 30  1  0
 29 31  1  0
 31 32  1  0
 32 33  2  0
 33 34  1  0
 34 35  1  0
 35 36  2  0
 36 37  1  0
 37 38  2  0
 38 39  1  0
 39 40  2  0
 27 41  1  6
 41 42  1  0
 41 43  1  0
 41 44  1  0
 23 45  1  1
 45 46  2  0
 45 47  1  0
 47 48  1  0
 12 49  1  0
 49 50  1  6
 49 51  1  0
 51 52  1  6
 52 53  1  0
 53 54  1  0
 53 55  2  0
 49 56  1  0
 56 57  2  0
 56 58  1  0
 58 59  1  0
 11  3  1  0
 22 15  1  0
 33 23  1  0
 40 35  1  0
 51  3  1  0
 11  7  1  6
 30 25  1  0
 40 32  1  0
 22 10  1  0
M  END
$$$$
