
     RDKit          3D

 59 67  0  0  0  0  0  0  0  0999 V2000
  124.6151  139.6659  134.9944 C   0  0  0  0  0  0  0  0  0  0  0  0
  125.8380  140.0239  134.1616 C   0  0  0  0  0  0  0  0  0  0  0  0
  126.5866  141.1937  134.8334 C   0  0  1  0  0  0  0  0  0  0  0  0
  125.7624  141.5159  136.0206 C   0  0  0  0  0  0  0  0  0  0  0  0
  126.1486  141.2295  137.2320 C   0  0  0  0  0  0  0  0  0  0  0  0
  127.4450  140.5614  137.4732 C   0  0  0  0  0  0  0  0  0  0  0  0
  128.3468  140.5479  136.4348 N   0  0  0  0  0  0  0  0  0  0  0  0
  129.7274  140.7170  136.6450 C   0  0  0  0  0  0  0  0  0  0  0  0
  130.1055  141.8660  135.7627 C   0  0  0  0  0  0  0  0  0  0  0  0
  129.0561  141.8149  134.6773 C   0  0  1  0  0  0  0  0  0  0  0  0
  127.9979  140.8737  135.1091 C   0  0  2  0  0  0  0  0  0  0  0  0
  128.7037  143.2050  134.2980 C   0  0  1  0  0  0  0  0  0  0  0  0
  129.2967  143.4619  133.0310 N   0  0  0  0  0  0  0  0  0  0  0  0
  129.4345  144.7057  132.3113 C   0  0  0  0  0  0  0  0  0  0  0  0
  129.8250  142.2388  132.4786 C   0  0  0  0  0  0  0  0  0  0  0  0
  130.3873  141.8938  131.2823 C   0  0  0  0  0  0  0  0  0  0  0  0
  130.8393  140.5927  131.0297 C   0  0  0  0  0  0  0  0  0  0  0  0
  131.3909  140.3441  129.7845 O   0  0  0  0  0  0  0  0  0  0  0  0
  131.5448  141.3936  128.8606 C   0  0  0  0  0  0  0  0  0  0  0  0
  130.7256  139.6015  132.0090 C   0  0  0  0  0  0  0  0  0  0  0  0
  130.1622  139.9854  133.1794 C   0  0  0  0  0  0  0  0  0  0  0  0
  129.7087  141.2918  133.4291 C   0  0  0  0  0  0  0  0  0  0  0  0
  131.2564  138.2496  131.7806 C   0  0  1  0  0  0  0  0  0  0  0  0
  132.4468  138.1713  130.8769 C   0  0  0  0  0  0  0  0  0  0  0  0
  133.8119  138.4139  131.3626 C   0  0  2  0  0  0  0  0  0  0  0  0
  134.8493  137.4135  130.8692 C   0  0  0  0  0  0  0  0  0  0  0  0
  135.1250  136.3300  131.8029 C   0  0  2  0  0  0  0  0  0  0  0  0
  134.2632  136.4565  133.0060 C   0  0  0  0  0  0  0  0  0  0  0  0
  134.5779  137.7959  133.7069 N   0  0  0  0  0  0  0  0  0  0  0  0
  133.9882  138.8329  132.7036 C   0  0  0  0  0  0  0  0  0  0  0  0
  133.3423  137.7772  134.6905 C   0  0  0  0  0  0  0  0  0  0  0  0
  132.1575  137.2728  134.0909 C   0  0  0  0  0  0  0  0  0  0  0  0
  131.3145  137.3983  132.9942 C   0  0  0  0  0  0  0  0  0  0  0  0
  130.3303  136.4829  133.1355 N   0  0  0  0  0  0  0  0  0  0  0  0
  130.4524  135.7561  134.2457 C   0  0  0  0  0  0  0  0  0  0  0  0
  129.6981  134.7376  134.7836 C   0  0  0  0  0  0  0  0  0  0  0  0
  130.0684  134.1595  135.9720 C   0  0  0  0  0  0  0  0  0  0  0  0
  131.1857  134.6015  136.6122 C   0  0  0  0  0  0  0  0  0  0  0  0
  131.9307  135.6253  136.0566 C   0  0  0  0  0  0  0  0  0  0  0  0
  131.5933  136.2417  134.8529 C   0  0  0  0  0  0  0  0  0  0  0  0
  136.5404  136.2297  132.3203 C   0  0  0  0  0  0  0  0  0  0  0  0
  136.6028  135.2142  133.4352 C   0  0  0  0  0  0  0  0  0  0  0  0
  136.9064  137.4438  132.8761 F   0  0  0  0  0  0  0  0  0  0  0  0
  137.3828  135.8429  131.3115 F   0  0  0  0  0  0  0  0  0  0  0  0
  130.2026  137.6247  130.8540 C   0  0  0  0  0  0  0  0  0  0  0  0
  130.1597  137.8073  129.6412 O   0  0  0  0  0  0  0  0  0  0  0  0
  129.2152  136.7841  131.4098 O   0  0  0  0  0  0  0  0  0  0  0  0
  128.1956  136.2631  130.5976 C   0  0  0  0  0  0  0  0  0  0  0  0
  127.2434  143.4776  134.4509 C   0  0  2  0  0  0  0  0  0  0  0  0
  127.0476  143.4300  135.8694 O   0  0  0  0  0  0  0  0  0  0  0  0
  126.5405  142.3026  133.8033 C   0  0  2  0  0  0  0  0  0  0  0  0
  125.2587  142.6220  133.3466 O   0  0  0  0  0  0  0  0  0  0  0  0
  124.1384  141.9546  133.8177 C   0  0  0  0  0  0  0  0  0  0  0  0
  123.0243  142.6324  134.5192 C   0  0  0  0  0  0  0  0  0  0  0  0
  124.0562  140.7108  133.6442 O   0  0  0  0  0  0  0  0  0  0  0  0
  126.7486  144.7644  134.0233 C   0  0  0  0  0  0  0  0  0  0  0  0
  127.3519  145.8173  134.3232 O   0  0  0  0  0  0  0  0  0  0  0  0
  125.5951  144.8803  133.2744 O   0  0  0  0  0  0  0  0  0  0  0  0
  125.2197  146.0807  132.6166 C   0  0  0  0  0  0  0  0  0  0  0  0
  1  2  1  0
  3  2  1  6
  3  4  1  0
  4  5  2  0
  5  6  1  0
  6  7  1  0
  7  8  1  0
  8  9  1  0
 10  9  1  1
 10 11  1  0
 10 12  1  0
 12 13  1  6
 13 14  1  0
 13 15  1  0
 15 16  2  0
 16 17  1  0
 17 18  1  0
 18 19  1  0
 17 20  2  0
 20 21  1  0
 21 22  2  0
 20 23  1  0
 23 24  1  0
 25 24  1  1
 25 26  1  0
 26 27  1  0
 27 28  1  0
 29 28  1  6
 29 30  1  0
 29 31  1  0
 31 32  1  0
 32 33  2  0
 33 34  1  0
 34 35  1  0
 35 36  2  0
 36 37  1  0
 37 38  2  0
 38 39  1  0
 39 40  2  0
 27 41  1  1
 41 42  1  0
 41 43  1  0
 41 44  1  0
 23 45  1  6
 45 46  2  0
 45 47  1  0
 47 48  1  0
 12 49  1  0
 49 50  1  1
 49 51  1  0
 51 52  1  1
 52 53  1  0
 53 54  1  0
 53 55  2  0
 49 56  1  0
 56 57  2  0
 56 58  1  0
 58 59  1  0
 11  3  1  0
 22 15  1  0
 33 23  1  0
 40 35  1  0
 51  3  1  0
 11  7  1  1
 30 25  1  0
 40 32  1  0
 22 10  1  0
M  END
$$$$
