
     RDKit          3D

 59 67  0  0  0  0  0  0  0  0999 V2000
  149.4756  170.2087  136.0004 C   0  0  0  0  0  0  0  0  0  0  0  0
  148.6298  170.0724  134.7421 C   0  0  0  0  0  0  0  0  0  0  0  0
  148.1671  168.6079  134.5959 C   0  0  1  0  0  0  0  0  0  0  0  0
  148.1936  168.0808  135.9795 C   0  0  0  0  0  0  0  0  0  0  0  0
  147.1030  167.8342  136.6491 C   0  0  0  0  0  0  0  0  0  0  0  0
  145.7753  168.0743  136.0451 C   0  0  0  0  0  0  0  0  0  0  0  0
  145.7288  168.2512  134.6819 N   0  0  0  0  0  0  0  0  0  0  0  0
  144.6888  167.7209  133.8971 C   0  0  0  0  0  0  0  0  0  0  0  0
  145.3831  166.8990  132.8559 C   0  0  0  0  0  0  0  0  0  0  0  0
  146.7407  167.5546  132.7616 C   0  0  1  0  0  0  0  0  0  0  0  0
  146.8745  168.4936  133.8984 C   0  0  2  0  0  0  0  0  0  0  0  0
  147.7595  166.4978  132.5477 C   0  0  1  0  0  0  0  0  0  0  0  0
  148.1723  166.5759  131.1888 N   0  0  0  0  0  0  0  0  0  0  0  0
  148.9811  165.6637  130.4157 C   0  0  0  0  0  0  0  0  0  0  0  0
  147.6340  167.7671  130.5793 C   0  0  0  0  0  0  0  0  0  0  0  0
  147.7906  168.3756  129.3663 C   0  0  0  0  0  0  0  0  0  0  0  0
  147.1022  169.5500  129.0378 C   0  0  0  0  0  0  0  0  0  0  0  0
  147.3328  170.0901  127.7841 O   0  0  0  0  0  0  0  0  0  0  0  0
  148.4813  169.7227  127.0598 C   0  0  0  0  0  0  0  0  0  0  0  0
  146.2252  170.1362  129.9552 C   0  0  0  0  0  0  0  0  0  0  0  0
  146.0997  169.5015  131.1452 C   0  0  0  0  0  0  0  0  0  0  0  0
  146.7930  168.3237  131.4718 C   0  0  0  0  0  0  0  0  0  0  0  0
  145.4465  171.3312  129.5983 C   0  0  1  0  0  0  0  0  0  0  0  0
  145.5887  171.7906  128.1810 C   0  0  0  0  0  0  0  0  0  0  0  0
  144.8101  171.1954  127.0865 C   0  0  2  0  0  0  0  0  0  0  0  0
  144.2122  172.2016  126.1115 C   0  0  0  0  0  0  0  0  0  0  0  0
  142.8258  172.5511  126.3897 C   0  0  2  0  0  0  0  0  0  0  0  0
  142.3563  171.8551  127.6151 C   0  0  0  0  0  0  0  0  0  0  0  0
  142.4380  170.3304  127.3855 N   0  0  0  0  0  0  0  0  0  0  0  0
  143.9775  170.0867  127.3738 C   0  0  0  0  0  0  0  0  0  0  0  0
  142.2028  169.9107  128.8898 C   0  0  0  0  0  0  0  0  0  0  0  0
  142.8505  170.7690  129.8181 C   0  0  0  0  0  0  0  0  0  0  0  0
  144.0676  171.3528  130.1451 C   0  0  0  0  0  0  0  0  0  0  0  0
  143.8657  172.1196  131.2395 N   0  0  0  0  0  0  0  0  0  0  0  0
  142.6045  172.0902  131.6687 C   0  0  0  0  0  0  0  0  0  0  0  0
  141.9614  172.7003  132.7223 C   0  0  0  0  0  0  0  0  0  0  0  0
  140.6228  172.4820  132.9321 C   0  0  0  0  0  0  0  0  0  0  0  0
  139.9386  171.6588  132.0908 C   0  0  0  0  0  0  0  0  0  0  0  0
  140.6013  171.0551  131.0381 C   0  0  0  0  0  0  0  0  0  0  0  0
  141.9586  171.2473  130.7865 C   0  0  0  0  0  0  0  0  0  0  0  0
  141.8178  172.2168  125.3157 C   0  0  0  0  0  0  0  0  0  0  0  0
  140.9888  173.4378  124.9997 C   0  0  0  0  0  0  0  0  0  0  0  0
  140.9397  171.2624  125.8003 F   0  0  0  0  0  0  0  0  0  0  0  0
  142.4620  171.8036  124.1795 F   0  0  0  0  0  0  0  0  0  0  0  0
  146.2170  172.4590  130.3010 C   0  0  0  0  0  0  0  0  0  0  0  0
  145.8772  172.9620  131.3676 O   0  0  0  0  0  0  0  0  0  0  0  0
  147.3918  172.9611  129.7024 O   0  0  0  0  0  0  0  0  0  0  0  0
  148.2403  173.8150  130.4246 C   0  0  0  0  0  0  0  0  0  0  0  0
  148.8199  166.5165  133.5990 C   0  0  2  0  0  0  0  0  0  0  0  0
  148.1184  166.1077  134.7796 O   0  0  0  0  0  0  0  0  0  0  0  0
  149.2339  167.9672  133.7333 C   0  0  2  0  0  0  0  0  0  0  0  0
  150.5387  168.1168  134.2113 O   0  0  0  0  0  0  0  0  0  0  0  0
  151.0822  167.2184  135.1167 C   0  0  0  0  0  0  0  0  0  0  0  0
  150.9806  165.7490  134.9635 C   0  0  0  0  0  0  0  0  0  0  0  0
  151.6944  167.6655  136.1213 O   0  0  0  0  0  0  0  0  0  0  0  0
  149.9275  165.6019  133.4570 C   0  0  0  0  0  0  0  0  0  0  0  0
  151.0004  165.9682  132.9304 O   0  0  0  0  0  0  0  0  0  0  0  0
  149.8428  164.2947  133.8916 O   0  0  0  0  0  0  0  0  0  0  0  0
  149.3495  163.2416  133.0779 C   0  0  0  0  0  0  0  0  0  0  0  0
  1  2  1  0
  3  2  1  1
  3  4  1  0
  4  5  2  0
  5  6  1  0
  6  7  1  0
  7  8  1  0
  8  9  1  0
 10  9  1  1
 10 11  1  0
 10 12  1  0
 12 13  1  6
 13 14  1  0
 13 15  1  0
 15 16  2  0
 16 17  1  0
 17 18  1  0
 18 19  1  0
 17 20  2  0
 20 21  1  0
 21 22  2  0
 20 23  1  0
 23 24  1  0
 25 24  1  1
 25 26  1  0
 26 27  1  0
 27 28  1  0
 29 28  1  1
 29 30  1  0
 29 31  1  0
 31 32  1  0
 32 33  2  0
 33 34  1  0
 34 35  1  0
 35 36  2  0
 36 37  1  0
 37 38  2  0
 38 39  1  0
 39 40  2  0
 27 41  1  6
 41 42  1  0
 41 43  1  0
 41 44  1  0
 23 45  1  1
 45 46  2  0
 45 47  1  0
 47 48  1  0
 12 49  1  0
 49 50  1  1
 49 51  1  0
 51 52  1  1
 52 53  1  0
 53 54  1  0
 53 55  2  0
 49 56  1  0
 56 57  2  0
 56 58  1  0
 58 59  1  0
 11  3  1  0
 22 15  1  0
 33 23  1  0
 40 35  1  0
 51  3  1  0
 11  7  1  1
 30 25  1  0
 40 32  1  0
 22 10  1  0
M  END
$$$$
