
     RDKit          3D

 59 67  0  0  0  0  0  0  0  0999 V2000
  166.5702  144.4739  132.6822 C   0  0  0  0  0  0  0  0  0  0  0  0
  165.9673  145.3811  131.6189 C   0  0  0  0  0  0  0  0  0  0  0  0
  164.4733  145.6077  131.9307 C   0  0  1  0  0  0  0  0  0  0  0  0
  164.2738  144.9486  133.2416 C   0  0  0  0  0  0  0  0  0  0  0  0
  164.0919  145.6276  134.3392 C   0  0  0  0  0  0  0  0  0  0  0  0
  164.0768  147.1057  134.3191 C   0  0  0  0  0  0  0  0  0  0  0  0
  163.9392  147.7152  133.0938 N   0  0  0  0  0  0  0  0  0  0  0  0
  163.1601  148.8738  132.9216 C   0  0  0  0  0  0  0  0  0  0  0  0
  162.1880  148.5175  131.8402 C   0  0  0  0  0  0  0  0  0  0  0  0
  162.9186  147.4400  131.0740 C   0  0  1  0  0  0  0  0  0  0  0  0
  164.0963  147.0306  131.8723 C   0  0  2  0  0  0  0  0  0  0  0  0
  161.9312  146.4246  130.6330 C   0  0  1  0  0  0  0  0  0  0  0  0
  161.7376  146.6009  129.2350 N   0  0  0  0  0  0  0  0  0  0  0  0
  160.7474  146.0202  128.3596 C   0  0  0  0  0  0  0  0  0  0  0  0
  162.7119  147.5298  128.7172 C   0  0  0  0  0  0  0  0  0  0  0  0
  163.0442  147.9702  127.4674 C   0  0  0  0  0  0  0  0  0  0  0  0
  164.0523  148.9210  127.2661 C   0  0  0  0  0  0  0  0  0  0  0  0
  164.3152  149.2989  125.9605 O   0  0  0  0  0  0  0  0  0  0  0  0
  163.3046  149.2135  124.9859 C   0  0  0  0  0  0  0  0  0  0  0  0
  164.7525  149.4510  128.3539 C   0  0  0  0  0  0  0  0  0  0  0  0
  164.3922  148.9873  129.5745 C   0  0  0  0  0  0  0  0  0  0  0  0
  163.3807  148.0321  129.7727 C   0  0  0  0  0  0  0  0  0  0  0  0
  165.7665  150.4981  128.1618 C   0  0  1  0  0  0  0  0  0  0  0  0
  166.8589  150.1644  127.1947 C   0  0  0  0  0  0  0  0  0  0  0  0
  166.6942  150.3307  125.7444 C   0  0  2  0  0  0  0  0  0  0  0  0
  167.8792  150.9791  125.0403 C   0  0  0  0  0  0  0  0  0  0  0  0
  167.7369  152.4134  124.8300 C   0  0  2  0  0  0  0  0  0  0  0  0
  166.4603  152.8947  125.4172 C   0  0  0  0  0  0  0  0  0  0  0  0
  165.2862  152.1799  124.7136 N   0  0  0  0  0  0  0  0  0  0  0  0
  165.4273  150.7225  125.2481 C   0  0  0  0  0  0  0  0  0  0  0  0
  164.1659  152.6346  125.7297 C   0  0  0  0  0  0  0  0  0  0  0  0
  164.6043  152.6393  127.0808 C   0  0  0  0  0  0  0  0  0  0  0  0
  165.2194  151.8735  128.0629 C   0  0  0  0  0  0  0  0  0  0  0  0
  165.3119  152.6397  129.1724 N   0  0  0  0  0  0  0  0  0  0  0  0
  164.8030  153.8598  129.0049 C   0  0  0  0  0  0  0  0  0  0  0  0
  164.6828  154.9454  129.8432 C   0  0  0  0  0  0  0  0  0  0  0  0
  164.0990  156.1028  129.3924 C   0  0  0  0  0  0  0  0  0  0  0  0
  163.6414  156.1672  128.1118 C   0  0  0  0  0  0  0  0  0  0  0  0
  163.7710  155.0669  127.2845 C   0  0  0  0  0  0  0  0  0  0  0  0
  164.3564  153.8718  127.6986 C   0  0  0  0  0  0  0  0  0  0  0  0
  167.7338  152.8874  123.3959 C   0  0  0  0  0  0  0  0  0  0  0  0
  169.1366  152.8365  122.8413 C   0  0  0  0  0  0  0  0  0  0  0  0
  167.3465  154.2161  123.3591 F   0  0  0  0  0  0  0  0  0  0  0  0
  166.9208  152.0862  122.6384 F   0  0  0  0  0  0  0  0  0  0  0  0
  166.5687  150.4359  129.4702 C   0  0  0  0  0  0  0  0  0  0  0  0
  166.7460  151.3963  130.2135 O   0  0  0  0  0  0  0  0  0  0  0  0
  167.1440  149.2088  129.8623 O   0  0  0  0  0  0  0  0  0  0  0  0
  167.8251  149.1095  131.0858 C   0  0  0  0  0  0  0  0  0  0  0  0
  162.2750  145.0557  131.1206 C   0  0  2  0  0  0  0  0  0  0  0  0
  162.0830  145.1542  132.5370 O   0  0  0  0  0  0  0  0  0  0  0  0
  163.7487  144.8754  130.8210 C   0  0  2  0  0  0  0  0  0  0  0  0
  164.1118  143.5339  130.6727 O   0  0  0  0  0  0  0  0  0  0  0  0
  163.7369  142.5783  131.6046 C   0  0  0  0  0  0  0  0  0  0  0  0
  162.4346  141.8744  131.5674 C   0  0  0  0  0  0  0  0  0  0  0  0
  164.5376  142.2883  132.5313 O   0  0  0  0  0  0  0  0  0  0  0  0
  161.4492  143.9558  130.6822 C   0  0  0  0  0  0  0  0  0  0  0  0
  160.3950  143.6626  131.2865 O   0  0  0  0  0  0  0  0  0  0  0  0
  161.7926  143.1887  129.5874 O   0  0  0  0  0  0  0  0  0  0  0  0
  160.8870  142.8997  128.5334 C   0  0  0  0  0  0  0  0  0  0  0  0
  1  2  1  0
  3  2  1  6
  3  4  1  0
  4  5  2  0
  5  6  1  0
  6  7  1  0
  7  8  1  0
  8  9  1  0
 10  9  1  1
 10 11  1  0
 10 12  1  0
 12 13  1  6
 13 14  1  0
 13 15  1  0
 15 16  2  0
 16 17  1  0
 17 18  1  0
 18 19  1  0
 17 20  2  0
 20 21  1  0
 21 22  2  0
 20 23  1  0
 23 24  1  0
 25 24  1  1
 25 26  1  0
 26 27  1  0
 27 28  1  0
 29 28  1  1
 29 30  1  0
 29 31  1  0
 31 32  1  0
 32 33  2  0
 33 34  1  0
 34 35  1  0
 35 36  2  0
 36 37  1  0
 37 38  2  0
 38 39  1  0
 39 40  2  0
 27 41  1  6
 41 42  1  0
 41 43  1  0
 41 44  1  0
 23 45  1  1
 45 46  2  0
 45 47  1  0
 47 48  1  0
 12 49  1  0
 49 50  1  1
 49 51  1  0
 51 52  1  1
 52 53  1  0
 53 54  1  0
 53 55  2  0
 49 56  1  0
 56 57  2  0
 56 58  1  0
 58 59  1  0
 11  3  1  0
 22 15  1  0
 33 23  1  0
 40 35  1  0
 51  3  1  0
 11  7  1  1
 30 25  1  0
 40 32  1  0
 22 10  1  0
M  END
$$$$
