
     RDKit          3D

 59 67  0  0  0  0  0  0  0  0999 V2000
  149.6882  179.2332  152.9565 C   0  0  0  0  0  0  0  0  0  0  0  0
  150.1471  179.1384  154.4047 C   0  0  0  0  0  0  0  0  0  0  0  0
  149.1244  178.3095  155.2095 C   0  0  1  0  0  0  0  0  0  0  0  0
  147.9685  179.2207  155.3717 C   0  0  0  0  0  0  0  0  0  0  0  0
  146.8506  179.0455  154.7248 C   0  0  0  0  0  0  0  0  0  0  0  0
  146.6891  177.9126  153.7890 C   0  0  0  0  0  0  0  0  0  0  0  0
  147.6127  176.8965  153.8686 N   0  0  0  0  0  0  0  0  0  0  0  0
  147.2486  175.5458  153.7205 C   0  0  0  0  0  0  0  0  0  0  0  0
  147.7540  174.8803  154.9628 C   0  0  0  0  0  0  0  0  0  0  0  0
  148.8979  175.7742  155.3805 C   0  0  1  0  0  0  0  0  0  0  0  0
  148.8265  177.0140  154.5745 C   0  0  2  0  0  0  0  0  0  0  0  0
  148.9176  175.8517  156.8618 C   0  0  1  0  0  0  0  0  0  0  0  0
  150.0139  175.0656  157.3127 N   0  0  0  0  0  0  0  0  0  0  0  0
  150.3581  174.6417  158.6490 C   0  0  0  0  0  0  0  0  0  0  0  0
  150.8282  174.6683  156.1905 C   0  0  0  0  0  0  0  0  0  0  0  0
  152.0211  174.0159  156.0575 C   0  0  0  0  0  0  0  0  0  0  0  0
  152.5752  173.7446  154.8004 C   0  0  0  0  0  0  0  0  0  0  0  0
  153.7900  173.0812  154.7733 O   0  0  0  0  0  0  0  0  0  0  0  0
  154.4564  172.7834  155.9757 C   0  0  0  0  0  0  0  0  0  0  0  0
  151.9120  174.1391  153.6346 C   0  0  0  0  0  0  0  0  0  0  0  0
  150.7335  174.7830  153.8114 C   0  0  0  0  0  0  0  0  0  0  0  0
  150.1809  175.0546  155.0745 C   0  0  0  0  0  0  0  0  0  0  0  0
  152.4498  173.8017  152.3086 C   0  0  1  0  0  0  0  0  0  0  0  0
  153.2104  172.5150  152.2325 C   0  0  0  0  0  0  0  0  0  0  0  0
  152.5368  171.2191  152.0735 C   0  0  2  0  0  0  0  0  0  0  0  0
  153.1774  170.2912  151.0493 C   0  0  0  0  0  0  0  0  0  0  0  0
  152.5576  170.3375  149.7319 C   0  0  2  0  0  0  0  0  0  0  0  0
  151.4633  171.3418  149.7138 C   0  0  0  0  0  0  0  0  0  0  0  0
  150.3895  170.9287  150.7435 N   0  0  0  0  0  0  0  0  0  0  0  0
  151.1215  171.1854  152.0955 C   0  0  0  0  0  0  0  0  0  0  0  0
  149.5843  172.2871  150.7162 C   0  0  0  0  0  0  0  0  0  0  0  0
  150.4204  173.4314  150.6210 C   0  0  0  0  0  0  0  0  0  0  0  0
  151.5209  174.0661  151.1825 C   0  0  0  0  0  0  0  0  0  0  0  0
  151.7428  175.1933  150.4707 N   0  0  0  0  0  0  0  0  0  0  0  0
  150.8714  175.3596  149.4764 C   0  0  0  0  0  0  0  0  0  0  0  0
  150.7190  176.3397  148.5214 C   0  0  0  0  0  0  0  0  0  0  0  0
  149.7058  176.2522  147.5998 C   0  0  0  0  0  0  0  0  0  0  0  0
  148.8552  175.1899  147.6387 C   0  0  0  0  0  0  0  0  0  0  0  0
  149.0240  174.2153  148.6049 C   0  0  0  0  0  0  0  0  0  0  0  0
  150.0377  174.2623  149.5602 C   0  0  0  0  0  0  0  0  0  0  0  0
  151.9436  169.0520  149.2302 C   0  0  0  0  0  0  0  0  0  0  0  0
  153.0291  168.1366  148.7186 C   0  0  0  0  0  0  0  0  0  0  0  0
  151.1264  169.3326  148.1484 F   0  0  0  0  0  0  0  0  0  0  0  0
  151.2687  168.4267  150.2452 F   0  0  0  0  0  0  0  0  0  0  0  0
  153.6181  174.7874  152.1570 C   0  0  0  0  0  0  0  0  0  0  0  0
  154.6355  174.5527  151.5119 O   0  0  0  0  0  0  0  0  0  0  0  0
  153.5368  176.0468  152.7876 O   0  0  0  0  0  0  0  0  0  0  0  0
  154.7084  176.7514  153.1065 C   0  0  0  0  0  0  0  0  0  0  0  0
  148.8214  177.2584  157.3535 C   0  0  2  0  0  0  0  0  0  0  0  0
  147.4898  177.6425  156.9899 O   0  0  0  0  0  0  0  0  0  0  0  0
  149.8182  178.0464  156.5294 C   0  0  2  0  0  0  0  0  0  0  0  0
  150.2790  179.1916  157.1850 O   0  0  0  0  0  0  0  0  0  0  0  0
  149.4017  180.0757  157.7942 C   0  0  0  0  0  0  0  0  0  0  0  0
  148.2767  180.7240  157.0821 C   0  0  0  0  0  0  0  0  0  0  0  0
  149.5621  180.3457  159.0129 O   0  0  0  0  0  0  0  0  0  0  0  0
  148.9272  177.4852  158.7751 C   0  0  0  0  0  0  0  0  0  0  0  0
  147.9070  177.6580  159.4765 O   0  0  0  0  0  0  0  0  0  0  0  0
  150.1524  177.5231  159.4095 O   0  0  0  0  0  0  0  0  0  0  0  0
  151.0739  176.4441  159.3728 C   0  0  0  0  0  0  0  0  0  0  0  0
  1  2  1  0
  3  2  1  6
  3  4  1  0
  4  5  2  0
  5  6  1  0
  6  7  1  0
  7  8  1  0
  8  9  1  0
 10  9  1  1
 10 11  1  0
 10 12  1  0
 12 13  1  6
 13 14  1  0
 13 15  1  0
 15 16  2  0
 16 17  1  0
 17 18  1  0
 18 19  1  0
 17 20  2  0
 20 21  1  0
 21 22  2  0
 20 23  1  0
 23 24  1  0
 25 24  1  6
 25 26  1  0
 26 27  1  0
 27 28  1  0
 29 28  1  6
 29 30  1  0
 29 31  1  0
 31 32  1  0
 32 33  2  0
 33 34  1  0
 34 35  1  0
 35 36  2  0
 36 37  1  0
 37 38  2  0
 38 39  1  0
 39 40  2  0
 27 41  1  1
 41 42  1  0
 41 43  1  0
 41 44  1  0
 23 45  1  6
 45 46  2  0
 45 47  1  0
 47 48  1  0
 12 49  1  0
 49 50  1  6
 49 51  1  0
 51 52  1  1
 52 53  1  0
 53 54  1  0
 53 55  2  0
 49 56  1  0
 56 57  2  0
 56 58  1  0
 58 59  1  0
 11  3  1  0
 22 15  1  0
 33 23  1  0
 40 35  1  0
 51  3  1  0
 11  7  1  1
 30 25  1  0
 40 32  1  0
 22 10  1  0
M  END
$$$$
