
     RDKit          3D

 59 67  0  0  0  0  0  0  0  0999 V2000
  128.0024  141.0371  136.8764 C   0  0  0  0  0  0  0  0  0  0  0  0
  128.1646  140.6711  135.4078 C   0  0  0  0  0  0  0  0  0  0  0  0
  128.8468  141.8384  134.6647 C   0  0  1  0  0  0  0  0  0  0  0  0
  129.0604  142.8599  135.7152 C   0  0  0  0  0  0  0  0  0  0  0  0
  130.2437  143.1291  136.1909 C   0  0  0  0  0  0  0  0  0  0  0  0
  131.4383  142.4148  135.6931 C   0  0  0  0  0  0  0  0  0  0  0  0
  131.3050  141.7120  134.5183 N   0  0  0  0  0  0  0  0  0  0  0  0
  132.3267  141.6757  133.5520 C   0  0  0  0  0  0  0  0  0  0  0  0
  131.6697  142.1426  132.2903 C   0  0  0  0  0  0  0  0  0  0  0  0
  130.2195  141.7842  132.5149 C   0  0  1  0  0  0  0  0  0  0  0  0
  130.0560  141.4128  133.9387 C   0  0  2  0  0  0  0  0  0  0  0  0
  129.3745  142.8507  131.9241 C   0  0  1  0  0  0  0  0  0  0  0  0
  128.8081  142.3289  130.7282 N   0  0  0  0  0  0  0  0  0  0  0  0
  128.0835  143.0047  129.6784 C   0  0  0  0  0  0  0  0  0  0  0  0
  129.0697  140.9134  130.6374 C   0  0  0  0  0  0  0  0  0  0  0  0
  128.6817  139.9218  129.7816 C   0  0  0  0  0  0  0  0  0  0  0  0
  129.1239  138.6021  129.9357 C   0  0  0  0  0  0  0  0  0  0  0  0
  128.6704  137.6705  129.0174 O   0  0  0  0  0  0  0  0  0  0  0  0
  127.2892  137.4805  128.8311 C   0  0  0  0  0  0  0  0  0  0  0  0
  129.9858  138.2623  130.9827 C   0  0  0  0  0  0  0  0  0  0  0  0
  130.3452  139.2746  131.8078 C   0  0  0  0  0  0  0  0  0  0  0  0
  129.8985  140.5976  131.6508 C   0  0  0  0  0  0  0  0  0  0  0  0
  130.5099  136.8951  131.1161 C   0  0  1  0  0  0  0  0  0  0  0  0
  131.9886  136.7917  131.3230 C   0  0  0  0  0  0  0  0  0  0  0  0
  132.6035  136.9478  132.6481 C   0  0  2  0  0  0  0  0  0  0  0  0
  133.6749  135.9162  132.9771 C   0  0  0  0  0  0  0  0  0  0  0  0
  133.1949  134.7860  133.7608 C   0  0  2  0  0  0  0  0  0  0  0  0
  131.7342  134.9102  134.0003 C   0  0  0  0  0  0  0  0  0  0  0  0
  131.4674  136.2051  134.7980 N   0  0  0  0  0  0  0  0  0  0  0  0
  131.7761  137.3069  133.7395 C   0  0  0  0  0  0  0  0  0  0  0  0
  129.8994  136.2110  134.6091 C   0  0  0  0  0  0  0  0  0  0  0  0
  129.4899  135.7890  133.3160 C   0  0  0  0  0  0  0  0  0  0  0  0
  129.6797  135.9973  131.9560 C   0  0  0  0  0  0  0  0  0  0  0  0
  128.8804  135.1272  131.2996 N   0  0  0  0  0  0  0  0  0  0  0  0
  128.1698  134.3543  132.1201 C   0  0  0  0  0  0  0  0  0  0  0  0
  127.2487  133.3551  131.8988 C   0  0  0  0  0  0  0  0  0  0  0  0
  126.6579  132.7152  132.9595 C   0  0  0  0  0  0  0  0  0  0  0  0
  126.9905  133.0769  134.2292 C   0  0  0  0  0  0  0  0  0  0  0  0
  127.9177  134.0824  134.4319 C   0  0  0  0  0  0  0  0  0  0  0  0
  128.5427  134.7594  133.3861 C   0  0  0  0  0  0  0  0  0  0  0  0
  133.8197  134.5962  135.1228 C   0  0  0  0  0  0  0  0  0  0  0  0
  133.1893  133.4092  135.8096 C   0  0  0  0  0  0  0  0  0  0  0  0
  133.5353  135.6997  135.9091 F   0  0  0  0  0  0  0  0  0  0  0  0
  135.1664  134.3797  134.9954 F   0  0  0  0  0  0  0  0  0  0  0  0
  130.4243  136.3586  129.6794 C   0  0  0  0  0  0  0  0  0  0  0  0
  130.5513  137.0556  128.6773 O   0  0  0  0  0  0  0  0  0  0  0  0
  130.1882  134.9826  129.4759 O   0  0  0  0  0  0  0  0  0  0  0  0
  130.4185  134.4075  128.2161 C   0  0  0  0  0  0  0  0  0  0  0  0
  128.4476  143.4552  132.9267 C   0  0  2  0  0  0  0  0  0  0  0  0
  129.3325  144.1473  133.8160 O   0  0  0  0  0  0  0  0  0  0  0  0
  127.8141  142.2860  133.6518 C   0  0  2  0  0  0  0  0  0  0  0  0
  126.5630  142.5963  134.1920 O   0  0  0  0  0  0  0  0  0  0  0  0
  126.2703  143.8734  134.6457 C   0  0  0  0  0  0  0  0  0  0  0  0
  125.2323  144.1559  135.6633 C   0  0  0  0  0  0  0  0  0  0  0  0
  126.9145  144.8465  134.1746 O   0  0  0  0  0  0  0  0  0  0  0  0
  127.4996  144.4396  132.4621 C   0  0  0  0  0  0  0  0  0  0  0  0
  127.5266  145.6124  132.8941 O   0  0  0  0  0  0  0  0  0  0  0  0
  126.5308  144.1239  131.5312 O   0  0  0  0  0  0  0  0  0  0  0  0
  125.5287  145.0408  131.1193 C   0  0  0  0  0  0  0  0  0  0  0  0
  1  2  1  0
  3  2  1  1
  3  4  1  0
  4  5  2  0
  5  6  1  0
  6  7  1  0
  7  8  1  0
  8  9  1  0
 10  9  1  1
 10 11  1  0
 10 12  1  0
 12 13  1  6
 13 14  1  0
 13 15  1  0
 15 16  2  0
 16 17  1  0
 17 18  1  0
 18 19  1  0
 17 20  2  0
 20 21  1  0
 21 22  2  0
 20 23  1  0
 23 24  1  0
 25 24  1  6
 25 26  1  0
 26 27  1  0
 27 28  1  0
 29 28  1  6
 29 30  1  0
 29 31  1  0
 31 32  1  0
 32 33  2  0
 33 34  1  0
 34 35  1  0
 35 36  2  0
 36 37  1  0
 37 38  2  0
 38 39  1  0
 39 40  2  0
 27 41  1  1
 41 42  1  0
 41 43  1  0
 41 44  1  0
 23 45  1  6
 45 46  2  0
 45 47  1  0
 47 48  1  0
 12 49  1  0
 49 50  1  1
 49 51  1  0
 51 52  1  1
 52 53  1  0
 53 54  1  0
 53 55  2  0
 49 56  1  0
 56 57  2  0
 56 58  1  0
 58 59  1  0
 11  3  1  0
 22 15  1  0
 33 23  1  0
 40 35  1  0
 51  3  1  0
 11  7  1  1
 30 25  1  0
 40 32  1  0
 22 10  1  0
M  END
$$$$
