
     RDKit          3D

 59 67  0  0  0  0  0  0  0  0999 V2000
  160.1616  149.4737  125.9534 C   0  0  0  0  0  0  0  0  0  0  0  0
  160.6527  148.4176  126.9335 C   0  0  0  0  0  0  0  0  0  0  0  0
  161.2202  147.2178  126.1469 C   0  0  1  0  0  0  0  0  0  0  0  0
  160.3399  147.1146  124.9606 C   0  0  0  0  0  0  0  0  0  0  0  0
  160.7426  147.4478  123.7666 C   0  0  0  0  0  0  0  0  0  0  0  0
  162.1153  147.9496  123.5452 C   0  0  0  0  0  0  0  0  0  0  0  0
  163.0269  147.7502  124.5556 N   0  0  0  0  0  0  0  0  0  0  0  0
  164.3669  147.4115  124.2937 C   0  0  0  0  0  0  0  0  0  0  0  0
  164.5956  146.1503  125.0674 C   0  0  0  0  0  0  0  0  0  0  0  0
  163.5813  146.2521  126.1821 C   0  0  1  0  0  0  0  0  0  0  0  0
  162.6576  147.3632  125.8592 C   0  0  2  0  0  0  0  0  0  0  0  0
  163.0449  144.8963  126.4552 C   0  0  1  0  0  0  0  0  0  0  0  0
  163.6169  144.4530  127.6797 N   0  0  0  0  0  0  0  0  0  0  0  0
  163.5918  143.1451  128.2903 C   0  0  0  0  0  0  0  0  0  0  0  0
  164.3192  145.5401  128.3161 C   0  0  0  0  0  0  0  0  0  0  0  0
  164.9434  145.7010  129.5206 C   0  0  0  0  0  0  0  0  0  0  0  0
  165.5763  146.9013  129.8668 C   0  0  0  0  0  0  0  0  0  0  0  0
  166.1773  146.9642  131.1124 O   0  0  0  0  0  0  0  0  0  0  0  0
  166.3886  145.7867  131.8523 C   0  0  0  0  0  0  0  0  0  0  0  0
  165.5859  147.9788  128.9762 C   0  0  0  0  0  0  0  0  0  0  0  0
  164.9556  147.7773  127.7943 C   0  0  0  0  0  0  0  0  0  0  0  0
  164.3205  146.5719  127.4505 C   0  0  0  0  0  0  0  0  0  0  0  0
  166.3035  149.2204  129.3003 C   0  0  1  0  0  0  0  0  0  0  0  0
  167.3846  149.0879  130.3268 C   0  0  0  0  0  0  0  0  0  0  0  0
  168.7360  148.6272  129.9809 C   0  0  2  0  0  0  0  0  0  0  0  0
  169.8635  149.4346  130.6113 C   0  0  0  0  0  0  0  0  0  0  0  0
  170.4138  150.4686  129.7453 C   0  0  2  0  0  0  0  0  0  0  0  0
  169.6796  150.5023  128.4546 C   0  0  0  0  0  0  0  0  0  0  0  0
  169.8447  149.1380  127.7505 N   0  0  0  0  0  0  0  0  0  0  0  0
  168.9866  148.2015  128.6540 C   0  0  0  0  0  0  0  0  0  0  0  0
  168.7440  149.3745  126.6429 C   0  0  0  0  0  0  0  0  0  0  0  0
  167.5997  150.0619  127.1289 C   0  0  0  0  0  0  0  0  0  0  0  0
  166.6329  150.0650  128.1260 C   0  0  0  0  0  0  0  0  0  0  0  0
  165.8339  151.1333  127.9094 N   0  0  0  0  0  0  0  0  0  0  0  0
  166.1943  151.8432  126.8409 C   0  0  0  0  0  0  0  0  0  0  0  0
  165.6810  152.9798  126.2574 C   0  0  0  0  0  0  0  0  0  0  0  0
  166.2689  153.5028  125.1329 C   0  0  0  0  0  0  0  0  0  0  0  0
  167.3615  152.8887  124.6013 C   0  0  0  0  0  0  0  0  0  0  0  0
  167.8629  151.7483  125.2012 C   0  0  0  0  0  0  0  0  0  0  0  0
  167.2994  151.1819  126.3432 C   0  0  0  0  0  0  0  0  0  0  0  0
  171.8745  150.3380  129.3837 C   0  0  0  0  0  0  0  0  0  0  0  0
  172.1310  151.0096  128.0567 C   0  0  0  0  0  0  0  0  0  0  0  0
  172.1799  148.9988  129.2099 F   0  0  0  0  0  0  0  0  0  0  0  0
  172.6509  150.9294  130.3451 F   0  0  0  0  0  0  0  0  0  0  0  0
  165.2718  150.0005  130.1288 C   0  0  0  0  0  0  0  0  0  0  0  0
  164.7235  151.0308  129.7493 O   0  0  0  0  0  0  0  0  0  0  0  0
  164.9160  149.5199  131.4067 O   0  0  0  0  0  0  0  0  0  0  0  0
  163.9289  150.1785  132.1568 C   0  0  0  0  0  0  0  0  0  0  0  0
  161.5586  144.8411  126.3213 C   0  0  2  0  0  0  0  0  0  0  0  0
  161.3483  145.0362  124.9176 O   0  0  0  0  0  0  0  0  0  0  0  0
  161.0368  146.0418  127.0829 C   0  0  2  0  0  0  0  0  0  0  0  0
  159.7306  145.8636  127.5473 O   0  0  0  0  0  0  0  0  0  0  0  0
  158.7142  145.4501  126.6998 C   0  0  0  0  0  0  0  0  0  0  0  0
  158.4699  144.0304  126.3567 C   0  0  0  0  0  0  0  0  0  0  0  0
  157.9568  146.3180  126.1929 O   0  0  0  0  0  0  0  0  0  0  0  0
  160.8964  143.6026  126.6550 C   0  0  0  0  0  0  0  0  0  0  0  0
  159.9628  143.1624  125.9498 O   0  0  0  0  0  0  0  0  0  0  0  0
  161.2647  142.8638  127.7611 O   0  0  0  0  0  0  0  0  0  0  0  0
  161.5811  141.4818  127.6952 C   0  0  0  0  0  0  0  0  0  0  0  0
  1  2  1  0
  3  2  1  1
  3  4  1  0
  4  5  2  0
  5  6  1  0
  6  7  1  0
  7  8  1  0
  8  9  1  0
 10  9  1  6
 10 11  1  0
 10 12  1  0
 12 13  1  1
 13 14  1  0
 13 15  1  0
 15 16  2  0
 16 17  1  0
 17 18  1  0
 18 19  1  0
 17 20  2  0
 20 21  1  0
 21 22  2  0
 20 23  1  0
 23 24  1  0
 25 24  1  6
 25 26  1  0
 26 27  1  0
 27 28  1  0
 29 28  1  1
 29 30  1  0
 29 31  1  0
 31 32  1  0
 32 33  2  0
 33 34  1  0
 34 35  1  0
 35 36  2  0
 36 37  1  0
 37 38  2  0
 38 39  1  0
 39 40  2  0
 27 41  1  6
 41 42  1  0
 41 43  1  0
 41 44  1  0
 23 45  1  1
 45 46  2  0
 45 47  1  0
 47 48  1  0
 12 49  1  0
 49 50  1  6
 49 51  1  0
 51 52  1  6
 52 53  1  0
 53 54  1  0
 53 55  2  0
 49 56  1  0
 56 57  2  0
 56 58  1  0
 58 59  1  0
 11  3  1  0
 22 15  1  0
 33 23  1  0
 40 35  1  0
 51  3  1  0
 11  7  1  6
 30 25  1  0
 40 32  1  0
 22 10  1  0
M  END
$$$$
