
     RDKit          3D

 59 67  0  0  0  0  0  0  0  0999 V2000
  188.4730  160.4557  130.0117 C   0  0  0  0  0  0  0  0  0  0  0  0
  188.2972  160.5597  131.5201 C   0  0  0  0  0  0  0  0  0  0  0  0
  188.9242  161.8793  132.0159 C   0  0  1  0  0  0  0  0  0  0  0  0
  189.3430  162.5692  130.7744 C   0  0  0  0  0  0  0  0  0  0  0  0
  188.7185  163.6187  130.3192 C   0  0  0  0  0  0  0  0  0  0  0  0
  187.5492  164.1713  131.0352 C   0  0  0  0  0  0  0  0  0  0  0  0
  187.3497  163.7508  132.3296 N   0  0  0  0  0  0  0  0  0  0  0  0
  186.9021  164.6255  133.3362 C   0  0  0  0  0  0  0  0  0  0  0  0
  187.9311  164.5141  134.4180 C   0  0  0  0  0  0  0  0  0  0  0  0
  188.5015  163.1329  134.1973 C   0  0  1  0  0  0  0  0  0  0  0  0
  188.0142  162.6412  132.8886 C   0  0  2  0  0  0  0  0  0  0  0  0
  189.9572  163.1745  134.4795 C   0  0  1  0  0  0  0  0  0  0  0  0
  190.1657  162.5256  135.7279 N   0  0  0  0  0  0  0  0  0  0  0  0
  191.3495  162.4680  136.5521 C   0  0  0  0  0  0  0  0  0  0  0  0
  188.9497  161.8775  136.1539 C   0  0  0  0  0  0  0  0  0  0  0  0
  188.6188  161.0499  137.1893 C   0  0  0  0  0  0  0  0  0  0  0  0
  187.3120  160.5788  137.3660 C   0  0  0  0  0  0  0  0  0  0  0  0
  187.0804  159.7424  138.4446 O   0  0  0  0  0  0  0  0  0  0  0  0
  188.1467  159.3542  139.2759 C   0  0  0  0  0  0  0  0  0  0  0  0
  186.2997  160.9495  136.4758 C   0  0  0  0  0  0  0  0  0  0  0  0
  186.6705  161.7701  135.4640 C   0  0  0  0  0  0  0  0  0  0  0  0
  187.9832  162.2400  135.2890 C   0  0  0  0  0  0  0  0  0  0  0  0
  184.9110  160.5160  136.6882 C   0  0  1  0  0  0  0  0  0  0  0  0
  184.2864  159.7792  135.5450 C   0  0  0  0  0  0  0  0  0  0  0  0
  184.4978  158.3405  135.3359 C   0  0  2  0  0  0  0  0  0  0  0  0
  183.2382  157.5565  134.9906 C   0  0  0  0  0  0  0  0  0  0  0  0
  182.6095  156.9043  136.1313 C   0  0  2  0  0  0  0  0  0  0  0  0
  183.3514  157.2223  137.3783 C   0  0  0  0  0  0  0  0  0  0  0  0
  184.7959  156.6922  137.2487 N   0  0  0  0  0  0  0  0  0  0  0  0
  185.4016  157.6590  136.1865 C   0  0  0  0  0  0  0  0  0  0  0  0
  185.3733  157.4363  138.5165 C   0  0  0  0  0  0  0  0  0  0  0  0
  184.8524  158.7475  138.6813 C   0  0  0  0  0  0  0  0  0  0  0  0
  184.6397  159.9590  138.0361 C   0  0  0  0  0  0  0  0  0  0  0  0
  184.0256  160.7815  138.9153 N   0  0  0  0  0  0  0  0  0  0  0  0
  183.8137  160.2100  140.1003 C   0  0  0  0  0  0  0  0  0  0  0  0
  183.2362  160.6616  141.2657 C   0  0  0  0  0  0  0  0  0  0  0  0
  183.1523  159.8354  142.3584 C   0  0  0  0  0  0  0  0  0  0  0  0
  183.6441  158.5684  142.2791 C   0  0  0  0  0  0  0  0  0  0  0  0
  184.2205  158.1324  141.1003 C   0  0  0  0  0  0  0  0  0  0  0  0
  184.3274  158.9355  139.9662 C   0  0  0  0  0  0  0  0  0  0  0  0
  182.5185  155.3975  136.0805 C   0  0  0  0  0  0  0  0  0  0  0  0
  181.6292  154.9809  134.9344 C   0  0  0  0  0  0  0  0  0  0  0  0
  181.9071  154.9416  137.2359 F   0  0  0  0  0  0  0  0  0  0  0  0
  183.7650  154.8577  135.9023 F   0  0  0  0  0  0  0  0  0  0  0  0
  184.1270  161.8332  136.5896 C   0  0  0  0  0  0  0  0  0  0  0  0
  183.1274  161.9872  135.8943 O   0  0  0  0  0  0  0  0  0  0  0  0
  184.5636  162.9469  137.3377 O   0  0  0  0  0  0  0  0  0  0  0  0
  183.9524  164.1980  137.1597 C   0  0  0  0  0  0  0  0  0  0  0  0
  190.7703  162.7173  133.3133 C   0  0  2  0  0  0  0  0  0  0  0  0
  190.5613  163.7501  132.3426 O   0  0  0  0  0  0  0  0  0  0  0  0
  190.1159  161.4366  132.8384 C   0  0  2  0  0  0  0  0  0  0  0  0
  191.0040  160.5892  132.1700 O   0  0  0  0  0  0  0  0  0  0  0  0
  191.8763  161.0737  131.2074 C   0  0  0  0  0  0  0  0  0  0  0  0
  191.5619  162.2265  130.3327 C   0  0  0  0  0  0  0  0  0  0  0  0
  192.9932  160.5117  131.0636 O   0  0  0  0  0  0  0  0  0  0  0  0
  192.1999  162.6158  133.4855 C   0  0  0  0  0  0  0  0  0  0  0  0
  192.9783  162.8085  132.5266 O   0  0  0  0  0  0  0  0  0  0  0  0
  192.7578  162.3003  134.7079 O   0  0  0  0  0  0  0  0  0  0  0  0
  193.0922  163.2798  135.6791 C   0  0  0  0  0  0  0  0  0  0  0  0
  1  2  1  0
  3  2  1  6
  3  4  1  0
  4  5  2  0
  5  6  1  0
  6  7  1  0
  7  8  1  0
  8  9  1  0
 10  9  1  1
 10 11  1  0
 10 12  1  0
 12 13  1  1
 13 14  1  0
 13 15  1  0
 15 16  2  0
 16 17  1  0
 17 18  1  0
 18 19  1  0
 17 20  2  0
 20 21  1  0
 21 22  2  0
 20 23  1  0
 23 24  1  0
 25 24  1  1
 25 26  1  0
 26 27  1  0
 27 28  1  0
 29 28  1  1
 29 30  1  0
 29 31  1  0
 31 32  1  0
 32 33  2  0
 33 34  1  0
 34 35  1  0
 35 36  2  0
 36 37  1  0
 37 38  2  0
 38 39  1  0
 39 40  2  0
 27 41  1  6
 41 42  1  0
 41 43  1  0
 41 44  1  0
 23 45  1  1
 45 46  2  0
 45 47  1  0
 47 48  1  0
 12 49  1  0
 49 50  1  6
 49 51  1  0
 51 52  1  6
 52 53  1  0
 53 54  1  0
 53 55  2  0
 49 56  1  0
 56 57  2  0
 56 58  1  0
 58 59  1  0
 11  3  1  0
 22 15  1  0
 33 23  1  0
 40 35  1  0
 51  3  1  0
 11  7  1  6
 30 25  1  0
 40 32  1  0
 22 10  1  0
M  END
$$$$
