
     RDKit          3D

 59 67  0  0  0  0  0  0  0  0999 V2000
  112.8583  169.6041  143.0216 C   0  0  0  0  0  0  0  0  0  0  0  0
  113.9333  168.9447  143.8739 C   0  0  0  0  0  0  0  0  0  0  0  0
  113.8677  167.4152  143.6825 C   0  0  1  0  0  0  0  0  0  0  0  0
  112.4307  167.1412  143.4529 C   0  0  0  0  0  0  0  0  0  0  0  0
  111.9667  166.8056  142.2821 C   0  0  0  0  0  0  0  0  0  0  0  0
  112.8702  166.6829  141.1185 C   0  0  0  0  0  0  0  0  0  0  0  0
  114.2198  166.6177  141.3760 N   0  0  0  0  0  0  0  0  0  0  0  0
  115.0774  165.7748  140.6462 C   0  0  0  0  0  0  0  0  0  0  0  0
  115.7590  164.9392  141.6848 C   0  0  0  0  0  0  0  0  0  0  0  0
  115.7016  165.8174  142.9126 C   0  0  1  0  0  0  0  0  0  0  0  0
  114.7802  166.9409  142.6278 C   0  0  2  0  0  0  0  0  0  0  0  0
  115.4761  164.9547  144.0980 C   0  0  1  0  0  0  0  0  0  0  0  0
  116.7055  164.8826  144.8097 N   0  0  0  0  0  0  0  0  0  0  0  0
  117.0883  164.0262  145.9069 C   0  0  0  0  0  0  0  0  0  0  0  0
  117.6458  165.8301  144.2635 C   0  0  0  0  0  0  0  0  0  0  0  0
  118.8984  166.2464  144.6156 C   0  0  0  0  0  0  0  0  0  0  0  0
  119.5978  167.1957  143.8603 C   0  0  0  0  0  0  0  0  0  0  0  0
  120.8598  167.5531  144.3033 O   0  0  0  0  0  0  0  0  0  0  0  0
  121.4020  166.9441  145.4495 C   0  0  0  0  0  0  0  0  0  0  0  0
  119.0241  167.7478  142.7111 C   0  0  0  0  0  0  0  0  0  0  0  0
  117.7817  167.3083  142.3983 C   0  0  0  0  0  0  0  0  0  0  0  0
  117.0823  166.3563  143.1593 C   0  0  0  0  0  0  0  0  0  0  0  0
  119.7737  168.6950  141.8730 C   0  0  1  0  0  0  0  0  0  0  0  0
  121.2030  168.9063  142.2637 C   0  0  0  0  0  0  0  0  0  0  0  0
  122.2705  167.9895  141.8415 C   0  0  2  0  0  0  0  0  0  0  0  0
  123.5363  168.6746  141.3428 C   0  0  0  0  0  0  0  0  0  0  0  0
  123.6108  168.8100  139.8944 C   0  0  2  0  0  0  0  0  0  0  0  0
  122.3766  168.2753  139.2642 C   0  0  0  0  0  0  0  0  0  0  0  0
  122.2501  166.7753  139.6078 N   0  0  0  0  0  0  0  0  0  0  0  0
  121.9142  166.8188  141.1293 C   0  0  0  0  0  0  0  0  0  0  0  0
  120.7640  166.6013  139.1023 C   0  0  0  0  0  0  0  0  0  0  0  0
  119.9376  167.7180  139.3987 C   0  0  0  0  0  0  0  0  0  0  0  0
  119.5185  168.5639  140.4175 C   0  0  0  0  0  0  0  0  0  0  0  0
  118.6757  169.4675  139.8700 N   0  0  0  0  0  0  0  0  0  0  0  0
  118.4995  169.2871  138.5616 C   0  0  0  0  0  0  0  0  0  0  0  0
  117.7462  169.9513  137.6197 C   0  0  0  0  0  0  0  0  0  0  0  0
  117.7538  169.5343  136.3122 C   0  0  0  0  0  0  0  0  0  0  0  0
  118.5115  168.4606  135.9562 C   0  0  0  0  0  0  0  0  0  0  0  0
  119.2617  167.8064  136.9159 C   0  0  0  0  0  0  0  0  0  0  0  0
  119.2848  168.1939  138.2544 C   0  0  0  0  0  0  0  0  0  0  0  0
  124.7591  168.1071  139.2099 C   0  0  0  0  0  0  0  0  0  0  0  0
  126.0080  168.9472  139.3217 C   0  0  0  0  0  0  0  0  0  0  0  0
  124.4814  167.9971  137.8580 F   0  0  0  0  0  0  0  0  0  0  0  0
  124.9815  166.8895  139.7973 F   0  0  0  0  0  0  0  0  0  0  0  0
  119.1984  170.0535  142.3008 C   0  0  0  0  0  0  0  0  0  0  0  0
  118.4454  170.7297  141.6066 O   0  0  0  0  0  0  0  0  0  0  0  0
  119.5415  170.5739  143.5665 O   0  0  0  0  0  0  0  0  0  0  0  0
  119.0615  171.8317  143.9642 C   0  0  0  0  0  0  0  0  0  0  0  0
  114.2539  165.3511  144.8590 C   0  0  2  0  0  0  0  0  0  0  0  0
  113.1870  165.0183  143.9625 O   0  0  0  0  0  0  0  0  0  0  0  0
  114.3383  166.8559  145.0086 C   0  0  2  0  0  0  0  0  0  0  0  0
  113.6403  167.3302  146.1228 O   0  0  0  0  0  0  0  0  0  0  0  0
  112.4707  166.7224  146.5531 C   0  0  0  0  0  0  0  0  0  0  0  0
  111.5420  166.0128  145.6438 C   0  0  0  0  0  0  0  0  0  0  0  0
  112.1765  166.7713  147.7758 O   0  0  0  0  0  0  0  0  0  0  0  0
  113.9706  164.6548  146.0913 C   0  0  0  0  0  0  0  0  0  0  0  0
  113.1027  163.7564  146.1373 O   0  0  0  0  0  0  0  0  0  0  0  0
  114.6412  164.9556  147.2594 O   0  0  0  0  0  0  0  0  0  0  0  0
  115.9681  164.5243  147.5203 C   0  0  0  0  0  0  0  0  0  0  0  0
  1  2  1  0
  3  2  1  1
  3  4  1  0
  4  5  2  0
  5  6  1  0
  6  7  1  0
  7  8  1  0
  8  9  1  0
 10  9  1  6
 10 11  1  0
 10 12  1  0
 12 13  1  1
 13 14  1  0
 13 15  1  0
 15 16  2  0
 16 17  1  0
 17 18  1  0
 18 19  1  0
 17 20  2  0
 20 21  1  0
 21 22  2  0
 20 23  1  0
 23 24  1  0
 25 24  1  6
 25 26  1  0
 26 27  1  0
 27 28  1  0
 29 28  1  6
 29 30  1  0
 29 31  1  0
 31 32  1  0
 32 33  2  0
 33 34  1  0
 34 35  1  0
 35 36  2  0
 36 37  1  0
 37 38  2  0
 38 39  1  0
 39 40  2  0
 27 41  1  6
 41 42  1  0
 41 43  1  0
 41 44  1  0
 23 45  1  1
 45 46  2  0
 45 47  1  0
 47 48  1  0
 12 49  1  0
 49 50  1  6
 49 51  1  0
 51 52  1  1
 52 53  1  0
 53 54  1  0
 53 55  2  0
 49 56  1  0
 56 57  2  0
 56 58  1  0
 58 59  1  0
 11  3  1  0
 22 15  1  0
 33 23  1  0
 40 35  1  0
 51  3  1  0
 11  7  1  6
 30 25  1  0
 40 32  1  0
 22 10  1  0
M  END
$$$$
