
     RDKit          3D

 59 67  0  0  0  0  0  0  0  0999 V2000
  169.2728  143.1053  126.5404 C   0  0  0  0  0  0  0  0  0  0  0  0
  169.7227  144.1768  127.5234 C   0  0  0  0  0  0  0  0  0  0  0  0
  170.7430  145.1053  126.8326 C   0  0  1  0  0  0  0  0  0  0  0  0
  171.5795  144.1868  126.0267 C   0  0  0  0  0  0  0  0  0  0  0  0
  171.4990  144.1352  124.7269 C   0  0  0  0  0  0  0  0  0  0  0  0
  170.5551  145.0049  123.9935 C   0  0  0  0  0  0  0  0  0  0  0  0
  170.0166  146.0673  124.6815 N   0  0  0  0  0  0  0  0  0  0  0  0
  169.8116  147.3201  124.0755 C   0  0  0  0  0  0  0  0  0  0  0  0
  170.5399  148.2884  124.9550 C   0  0  0  0  0  0  0  0  0  0  0  0
  170.5387  147.5909  126.2949 C   0  0  1  0  0  0  0  0  0  0  0  0
  170.0941  146.1947  126.0826 C   0  0  2  0  0  0  0  0  0  0  0  0
  171.8318  147.8639  126.9685 C   0  0  1  0  0  0  0  0  0  0  0  0
  171.5786  148.8009  128.0082 N   0  0  0  0  0  0  0  0  0  0  0  0
  172.5062  149.5468  128.8250 C   0  0  0  0  0  0  0  0  0  0  0  0
  170.1568  148.9746  128.1777 C   0  0  0  0  0  0  0  0  0  0  0  0
  169.3754  149.6511  129.0710 C   0  0  0  0  0  0  0  0  0  0  0  0
  167.9786  149.6546  128.9717 C   0  0  0  0  0  0  0  0  0  0  0  0
  167.2772  150.3680  129.9287 O   0  0  0  0  0  0  0  0  0  0  0  0
  167.8069  151.5655  130.4425 C   0  0  0  0  0  0  0  0  0  0  0  0
  167.3406  148.9572  127.9417 C   0  0  0  0  0  0  0  0  0  0  0  0
  168.1519  148.3000  127.0788 C   0  0  0  0  0  0  0  0  0  0  0  0
  169.5533  148.2977  127.1820 C   0  0  0  0  0  0  0  0  0  0  0  0
  165.8794  149.0075  127.7874 C   0  0  1  0  0  0  0  0  0  0  0  0
  165.2068  150.1843  128.4221 C   0  0  0  0  0  0  0  0  0  0  0  0
  165.1269  151.4905  127.7543 C   0  0  2  0  0  0  0  0  0  0  0  0
  163.7621  152.1625  127.8338 C   0  0  0  0  0  0  0  0  0  0  0  0
  162.9215  151.9469  126.6639 C   0  0  2  0  0  0  0  0  0  0  0  0
  163.6119  151.0621  125.6910 C   0  0  0  0  0  0  0  0  0  0  0  0
  164.9182  151.7465  125.2334 N   0  0  0  0  0  0  0  0  0  0  0  0
  165.7963  151.6604  126.5183 C   0  0  0  0  0  0  0  0  0  0  0  0
  165.5363  150.4857  124.5104 C   0  0  0  0  0  0  0  0  0  0  0  0
  165.2915  149.2687  125.2009 C   0  0  0  0  0  0  0  0  0  0  0  0
  165.3905  148.6405  126.4357 C   0  0  0  0  0  0  0  0  0  0  0  0
  164.8951  147.3911  126.2931 N   0  0  0  0  0  0  0  0  0  0  0  0
  164.4740  147.1377  125.0545 C   0  0  0  0  0  0  0  0  0  0  0  0
  163.9134  146.0256  124.4673 C   0  0  0  0  0  0  0  0  0  0  0  0
  163.5709  146.0469  123.1384 C   0  0  0  0  0  0  0  0  0  0  0  0
  163.7899  147.1750  122.4084 C   0  0  0  0  0  0  0  0  0  0  0  0
  164.3537  148.2820  123.0155 C   0  0  0  0  0  0  0  0  0  0  0  0
  164.7172  148.3063  124.3608 C   0  0  0  0  0  0  0  0  0  0  0  0
  162.5200  153.1780  125.8864 C   0  0  0  0  0  0  0  0  0  0  0  0
  162.0400  152.7768  124.5128 C   0  0  0  0  0  0  0  0  0  0  0  0
  163.6352  153.9755  125.6936 F   0  0  0  0  0  0  0  0  0  0  0  0
  161.5132  153.8385  126.5399 F   0  0  0  0  0  0  0  0  0  0  0  0
  165.4003  147.9051  128.7437 C   0  0  0  0  0  0  0  0  0  0  0  0
  165.0017  146.8037  128.3775 O   0  0  0  0  0  0  0  0  0  0  0  0
  165.4130  148.1514  130.1329 O   0  0  0  0  0  0  0  0  0  0  0  0
  164.8786  147.2044  131.0207 C   0  0  0  0  0  0  0  0  0  0  0  0
  172.5574  146.6084  127.3250 C   0  0  2  0  0  0  0  0  0  0  0  0
  172.9223  146.0670  126.0497 O   0  0  0  0  0  0  0  0  0  0  0  0
  171.5247  145.7133  127.9780 C   0  0  2  0  0  0  0  0  0  0  0  0
  172.0897  144.7848  128.8568 O   0  0  0  0  0  0  0  0  0  0  0  0
  171.3204  144.1308  129.8069 C   0  0  0  0  0  0  0  0  0  0  0  0
  171.8293  143.7550  131.1458 C   0  0  0  0  0  0  0  0  0  0  0  0
  170.1289  143.8386  129.5256 O   0  0  0  0  0  0  0  0  0  0  0  0
  173.7860  146.7280  128.0732 C   0  0  0  0  0  0  0  0  0  0  0  0
  174.8956  146.6775  127.4998 O   0  0  0  0  0  0  0  0  0  0  0  0
  173.7819  146.8983  129.4429 O   0  0  0  0  0  0  0  0  0  0  0  0
  174.0954  145.8535  130.3511 C   0  0  0  0  0  0  0  0  0  0  0  0
  1  2  1  0
  3  2  1  1
  3  4  1  0
  4  5  2  0
  5  6  1  0
  6  7  1  0
  7  8  1  0
  8  9  1  0
 10  9  1  6
 10 11  1  0
 10 12  1  0
 12 13  1  1
 13 14  1  0
 13 15  1  0
 15 16  2  0
 16 17  1  0
 17 18  1  0
 18 19  1  0
 17 20  2  0
 20 21  1  0
 21 22  2  0
 20 23  1  0
 23 24  1  0
 25 24  1  6
 25 26  1  0
 26 27  1  0
 27 28  1  0
 29 28  1  1
 29 30  1  0
 29 31  1  0
 31 32  1  0
 32 33  2  0
 33 34  1  0
 34 35  1  0
 35 36  2  0
 36 37  1  0
 37 38  2  0
 38 39  1  0
 39 40  2  0
 27 41  1  6
 41 42  1  0
 41 43  1  0
 41 44  1  0
 23 45  1  1
 45 46  2  0
 45 47  1  0
 47 48  1  0
 12 49  1  0
 49 50  1  6
 49 51  1  0
 51 52  1  6
 52 53  1  0
 53 54  1  0
 53 55  2  0
 49 56  1  0
 56 57  2  0
 56 58  1  0
 58 59  1  0
 11  3  1  0
 22 15  1  0
 33 23  1  0
 40 35  1  0
 51  3  1  0
 11  7  1  6
 30 25  1  0
 40 32  1  0
 22 10  1  0
M  END
$$$$
