
     RDKit          3D

 59 67  0  0  0  0  0  0  0  0999 V2000
  187.1796  163.2983  131.7913 C   0  0  0  0  0  0  0  0  0  0  0  0
  188.2662  162.4537  131.1409 C   0  0  0  0  0  0  0  0  0  0  0  0
  188.5822  163.0206  129.7412 C   0  0  1  0  0  0  0  0  0  0  0  0
  187.4869  163.9839  129.4858 C   0  0  0  0  0  0  0  0  0  0  0  0
  187.6785  165.2730  129.5027 C   0  0  0  0  0  0  0  0  0  0  0  0
  189.0175  165.8339  129.7814 C   0  0  0  0  0  0  0  0  0  0  0  0
  190.0875  164.9733  129.7016 N   0  0  0  0  0  0  0  0  0  0  0  0
  191.3239  165.3702  129.1608 C   0  0  0  0  0  0  0  0  0  0  0  0
  191.6010  164.3719  128.0800 C   0  0  0  0  0  0  0  0  0  0  0  0
  190.8280  163.1578  128.5386 C   0  0  1  0  0  0  0  0  0  0  0  0
  189.9454  163.5723  129.6526 C   0  0  2  0  0  0  0  0  0  0  0  0
  190.2537  162.4877  127.3462 C   0  0  1  0  0  0  0  0  0  0  0  0
  191.0137  161.3077  127.1160 N   0  0  0  0  0  0  0  0  0  0  0  0
  191.0078  160.4119  125.9840 C   0  0  0  0  0  0  0  0  0  0  0  0
  191.9036  161.0719  128.2263 C   0  0  0  0  0  0  0  0  0  0  0  0
  192.7561  160.0617  128.5714 C   0  0  0  0  0  0  0  0  0  0  0  0
  193.5311  160.1185  129.7363 C   0  0  0  0  0  0  0  0  0  0  0  0
  194.3614  159.0420  129.9980 O   0  0  0  0  0  0  0  0  0  0  0  0
  195.2348  158.5683  129.0023 C   0  0  0  0  0  0  0  0  0  0  0  0
  193.4513  161.2258  130.5860 C   0  0  0  0  0  0  0  0  0  0  0  0
  192.5942  162.2039  130.2073 C   0  0  0  0  0  0  0  0  0  0  0  0
  191.8171  162.1430  129.0381 C   0  0  0  0  0  0  0  0  0  0  0  0
  194.3082  161.3277  131.7764 C   0  0  1  0  0  0  0  0  0  0  0  0
  195.7176  160.8580  131.5952 C   0  0  0  0  0  0  0  0  0  0  0  0
  196.7572  161.7175  131.0132 C   0  0  2  0  0  0  0  0  0  0  0  0
  198.0907  161.6895  131.7492 C   0  0  0  0  0  0  0  0  0  0  0  0
  198.2699  162.7770  132.7014 C   0  0  2  0  0  0  0  0  0  0  0  0
  197.0524  163.6268  132.7461 C   0  0  0  0  0  0  0  0  0  0  0  0
  196.8180  164.2372  131.3472 N   0  0  0  0  0  0  0  0  0  0  0  0
  196.3837  162.9905  130.5186 C   0  0  0  0  0  0  0  0  0  0  0  0
  195.3618  164.7788  131.6307 C   0  0  0  0  0  0  0  0  0  0  0  0
  194.5822  163.8978  132.4269 C   0  0  0  0  0  0  0  0  0  0  0  0
  194.1443  162.5852  132.5464 C   0  0  0  0  0  0  0  0  0  0  0  0
  193.3929  162.5114  133.6673 N   0  0  0  0  0  0  0  0  0  0  0  0
  193.2951  163.6776  134.3046 C   0  0  0  0  0  0  0  0  0  0  0  0
  192.6456  164.0615  135.4564 C   0  0  0  0  0  0  0  0  0  0  0  0
  192.7175  165.3627  135.8869 C   0  0  0  0  0  0  0  0  0  0  0  0
  193.4351  166.2678  135.1662 C   0  0  0  0  0  0  0  0  0  0  0  0
  194.0807  165.8636  134.0122 C   0  0  0  0  0  0  0  0  0  0  0  0
  194.0358  164.5541  133.5372 C   0  0  0  0  0  0  0  0  0  0  0  0
  199.4198  163.7204  132.4387 C   0  0  0  0  0  0  0  0  0  0  0  0
  200.7113  162.9418  132.3767 C   0  0  0  0  0  0  0  0  0  0  0  0
  199.5409  164.5948  133.5053 F   0  0  0  0  0  0  0  0  0  0  0  0
  199.2296  164.3725  131.2489 F   0  0  0  0  0  0  0  0  0  0  0  0
  193.7834  160.1929  132.6687 C   0  0  0  0  0  0  0  0  0  0  0  0
  194.2277  159.9342  133.7832 O   0  0  0  0  0  0  0  0  0  0  0  0
  192.7245  159.3874  132.1993 O   0  0  0  0  0  0  0  0  0  0  0  0
  191.4841  159.4020  132.8565 C   0  0  0  0  0  0  0  0  0  0  0  0
  188.7693  162.3527  127.4363 C   0  0  2  0  0  0  0  0  0  0  0  0
  188.3106  163.7070  127.3450 O   0  0  0  0  0  0  0  0  0  0  0  0
  188.4932  161.8176  128.8261 C   0  0  2  0  0  0  0  0  0  0  0  0
  187.2898  161.1112  128.9061 O   0  0  0  0  0  0  0  0  0  0  0  0
  186.1591  161.5337  128.2238 C   0  0  0  0  0  0  0  0  0  0  0  0
  186.1751  162.6234  127.2213 C   0  0  0  0  0  0  0  0  0  0  0  0
  185.0605  160.9679  128.4622 O   0  0  0  0  0  0  0  0  0  0  0  0
  188.0921  161.6311  126.3855 C   0  0  0  0  0  0  0  0  0  0  0  0
  187.8173  162.1848  125.2990 O   0  0  0  0  0  0  0  0  0  0  0  0
  187.7215  160.3107  126.5412 O   0  0  0  0  0  0  0  0  0  0  0  0
  188.5174  159.3628  127.2360 C   0  0  0  0  0  0  0  0  0  0  0  0
  1  2  1  0
  3  2  1  1
  3  4  1  0
  4  5  2  0
  5  6  1  0
  6  7  1  0
  7  8  1  0
  8  9  1  0
 10  9  1  6
 10 11  1  0
 10 12  1  0
 12 13  1  1
 13 14  1  0
 13 15  1  0
 15 16  2  0
 16 17  1  0
 17 18  1  0
 18 19  1  0
 17 20  2  0
 20 21  1  0
 21 22  2  0
 20 23  1  0
 23 24  1  0
 25 24  1  1
 25 26  1  0
 26 27  1  0
 27 28  1  0
 29 28  1  1
 29 30  1  0
 29 31  1  0
 31 32  1  0
 32 33  2  0
 33 34  1  0
 34 35  1  0
 35 36  2  0
 36 37  1  0
 37 38  2  0
 38 39  1  0
 39 40  2  0
 27 41  1  6
 41 42  1  0
 41 43  1  0
 41 44  1  0
 23 45  1  1
 45 46  2  0
 45 47  1  0
 47 48  1  0
 12 49  1  0
 49 50  1  1
 49 51  1  0
 51 52  1  6
 52 53  1  0
 53 54  1  0
 53 55  2  0
 49 56  1  0
 56 57  2  0
 56 58  1  0
 58 59  1  0
 11  3  1  0
 22 15  1  0
 33 23  1  0
 40 35  1  0
 51  3  1  0
 11  7  1  6
 30 25  1  0
 40 32  1  0
 22 10  1  0
M  END
$$$$
