
     RDKit          3D

 41 45  0  0  0  0  0  0  0  0999 V2000
  180.0251  160.9428  138.9566 C   0  0  1  0  0  0  0  0  0  0  0  0
  180.8285  159.7814  139.3942 C   0  0  0  0  0  0  0  0  0  0  0  0
  182.2247  160.0871  139.8711 C   0  0  0  0  0  0  0  0  0  0  0  0
  182.9778  161.0171  138.9416 C   0  0  1  0  0  0  0  0  0  0  0  0
  183.1650  160.2720  137.6562 C   0  0  0  0  0  0  0  0  0  0  0  0
  182.1651  162.2761  138.7919 C   0  0  1  0  0  0  0  0  0  0  0  0
  182.8650  163.1805  137.8364 C   0  0  0  0  0  0  0  0  0  0  0  0
  184.2665  163.5433  138.1914 C   0  0  0  0  0  0  0  0  0  0  0  0
  185.0512  162.4770  138.8756 C   0  0  2  0  0  0  0  0  0  0  0  0
  185.8849  161.7226  137.8387 C   0  0  0  0  0  0  0  0  0  0  0  0
  184.2486  161.4436  139.5968 C   0  0  2  0  0  0  0  0  0  0  0  0
  185.1804  160.3778  139.9709 C   0  0  0  0  0  0  0  0  0  0  0  0
  185.0659  159.1519  139.8164 O   0  0  0  0  0  0  0  0  0  0  0  0
  186.4118  160.8445  140.6150 C   0  0  0  0  0  0  0  0  0  0  0  0
  186.7957  162.1071  140.5631 C   0  0  0  0  0  0  0  0  0  0  0  0
  188.0610  162.5437  141.2338 C   0  0  2  0  0  0  0  0  0  0  0  0
  187.8429  163.5987  142.2549 C   0  0  0  0  0  0  0  0  0  0  0  0
  189.1422  164.0762  142.8549 C   0  0  2  0  0  0  0  0  0  0  0  0
  188.8150  165.3908  143.5869 C   0  0  0  0  0  0  0  0  0  0  0  0
  190.1588  164.4364  141.8174 C   0  0  0  0  0  0  0  0  0  0  0  0
  190.2610  163.4736  140.7010 C   0  0  0  0  0  0  0  0  0  0  0  0
  188.9523  162.9918  140.1241 C   0  0  1  0  0  0  0  0  0  0  0  0
  189.3473  161.7813  139.2646 C   0  0  0  0  0  0  0  0  0  0  0  0
  188.3270  164.0783  139.3474 C   0  0  0  0  0  0  0  0  0  0  0  0
  186.8917  164.0699  139.0574 C   0  0  0  0  0  0  0  0  0  0  0  0
  186.0130  163.1371  139.8460 C   0  0  1  0  0  0  0  0  0  0  0  0
  185.1503  163.9103  140.8501 C   0  0  0  0  0  0  0  0  0  0  0  0
  189.6435  163.1453  143.8579 C   0  0  0  0  0  0  0  0  0  0  0  0
  190.1039  163.5888  145.0808 O   0  0  0  0  0  0  0  0  0  0  0  0
  189.6879  161.8868  143.6771 O   0  0  0  0  0  0  0  0  0  0  0  0
  180.7454  162.1111  138.4041 C   0  0  0  0  0  0  0  0  0  0  0  0
  180.5138  162.2583  136.8931 C   0  0  0  0  0  0  0  0  0  0  0  0
  179.9935  163.3434  138.9609 C   0  0  0  0  0  0  0  0  0  0  0  0
  179.1453  160.4619  137.9239 O   0  0  0  0  0  0  0  0  0  0  0  0
  177.7854  160.6653  137.9317 C   0  0  0  0  0  0  0  0  0  0  0  0
  177.2993  161.3098  136.9661 O   0  0  0  0  0  0  0  0  0  0  0  0
  176.9699  160.1277  139.0566 C   0  0  0  0  0  0  0  0  0  0  0  0
  176.7713  158.6390  138.9311 C   0  0  0  0  0  0  0  0  0  0  0  0
  177.7051  157.9474  139.8430 C   0  0  0  0  0  0  0  0  0  0  0  0
  177.6658  156.5679  139.9194 O   0  0  0  0  0  0  0  0  0  0  0  0
  178.5222  158.6230  140.5345 O   0  0  0  0  0  0  0  0  0  0  0  0
  1  2  1  0
  2  3  1  0
  3  4  1  0
  4  5  1  6
  4  6  1  0
  6  7  1  6
  7  8  1  0
  8  9  1  0
  9 10  1  6
  9 11  1  0
 11 12  1  6
 12 13  2  0
 12 14  1  0
 14 15  2  0
 15 16  1  0
 16 17  1  1
 17 18  1  0
 18 19  1  1
 18 20  1  0
 20 21  1  0
 21 22  1  0
 22 23  1  6
 22 24  1  0
 24 25  1  0
 25 26  1  0
 26 27  1  1
 18 28  1  0
 28 29  1  0
 28 30  2  0
  6 31  1  0
 31 32  1  0
 31 33  1  0
  1 34  1  6
 34 35  1  0
 35 36  2  0
 35 37  1  0
 37 38  1  0
 38 39  1  0
 39 40  1  0
 39 41  2  0
 31  1  1  0
 11  4  1  0
 26 15  1  0
 26  9  1  0
 22 16  1  0
M  END
$$$$
