
     RDKit          3D

 41 45  0  0  0  0  0  0  0  0999 V2000
  168.2425  162.3220  108.6707 C   0  0  1  0  0  0  0  0  0  0  0  0
  168.2505  163.7937  108.5301 C   0  0  0  0  0  0  0  0  0  0  0  0
  169.5648  164.4758  108.8084 C   0  0  0  0  0  0  0  0  0  0  0  0
  170.2229  163.9951  110.0858 C   0  0  1  0  0  0  0  0  0  0  0  0
  169.3261  164.4151  111.2091 C   0  0  0  0  0  0  0  0  0  0  0  0
  170.3948  162.5026  109.9820 C   0  0  1  0  0  0  0  0  0  0  0  0
  170.9907  162.0051  111.2540 C   0  0  0  0  0  0  0  0  0  0  0  0
  172.2901  162.6199  111.6481 C   0  0  0  0  0  0  0  0  0  0  0  0
  172.4522  164.0585  111.2945 C   0  0  2  0  0  0  0  0  0  0  0  0
  172.0836  164.9182  112.5046 C   0  0  0  0  0  0  0  0  0  0  0  0
  171.6069  164.5470  110.1635 C   0  0  2  0  0  0  0  0  0  0  0  0
  171.7301  166.0060  110.1503 C   0  0  0  0  0  0  0  0  0  0  0  0
  170.8356  166.8637  110.0864 O   0  0  0  0  0  0  0  0  0  0  0  0
  173.1080  166.5009  110.2239 C   0  0  0  0  0  0  0  0  0  0  0  0
  174.1117  165.7292  110.5996 C   0  0  0  0  0  0  0  0  0  0  0  0
  175.5051  166.2731  110.6623 C   0  0  2  0  0  0  0  0  0  0  0  0
  176.4557  165.5369  109.7921 C   0  0  0  0  0  0  0  0  0  0  0  0
  177.8656  166.0540  109.9373 C   0  0  2  0  0  0  0  0  0  0  0  0
  178.7770  164.9897  109.2988 C   0  0  0  0  0  0  0  0  0  0  0  0
  178.3003  166.1502  111.3661 C   0  0  0  0  0  0  0  0  0  0  0  0
  177.2882  166.7263  112.2760 C   0  0  0  0  0  0  0  0  0  0  0  0
  175.8797  166.2119  112.1054 C   0  0  1  0  0  0  0  0  0  0  0  0
  175.0209  167.2077  112.8996 C   0  0  0  0  0  0  0  0  0  0  0  0
  175.7943  164.8315  112.6174 C   0  0  0  0  0  0  0  0  0  0  0  0
  174.7184  163.9337  112.1926 C   0  0  0  0  0  0  0  0  0  0  0  0
  173.9143  164.3130  110.9786 C   0  0  1  0  0  0  0  0  0  0  0  0
  174.2609  163.4147  109.7856 C   0  0  0  0  0  0  0  0  0  0  0  0
  178.0639  167.2878  109.1875 C   0  0  0  0  0  0  0  0  0  0  0  0
  177.1577  167.6991  108.2316 O   0  0  0  0  0  0  0  0  0  0  0  0
  179.0649  168.0533  109.3617 O   0  0  0  0  0  0  0  0  0  0  0  0
  169.1903  161.7155  109.6313 C   0  0  0  0  0  0  0  0  0  0  0  0
  168.4662  161.1449  110.8596 C   0  0  0  0  0  0  0  0  0  0  0  0
  169.6952  160.4290  108.9358 C   0  0  0  0  0  0  0  0  0  0  0  0
  166.9168  161.9624  109.1009 O   0  0  0  0  0  0  0  0  0  0  0  0
  165.8460  162.8238  109.0562 C   0  0  0  0  0  0  0  0  0  0  0  0
  165.1965  162.9825  110.1225 O   0  0  0  0  0  0  0  0  0  0  0  0
  165.5111  163.5118  107.7780 C   0  0  0  0  0  0  0  0  0  0  0  0
  165.5338  165.0104  107.9363 C   0  0  0  0  0  0  0  0  0  0  0  0
  165.3170  165.3505  109.3573 C   0  0  0  0  0  0  0  0  0  0  0  0
  164.0477  165.7064  109.7731 O   0  0  0  0  0  0  0  0  0  0  0  0
  166.2888  165.3098  110.1672 O   0  0  0  0  0  0  0  0  0  0  0  0
  1  2  1  0
  2  3  1  0
  3  4  1  0
  4  5  1  1
  4  6  1  0
  6  7  1  1
  7  8  1  0
  8  9  1  0
  9 10  1  1
  9 11  1  0
 11 12  1  1
 12 13  2  0
 12 14  1  0
 14 15  2  0
 15 16  1  0
 16 17  1  6
 17 18  1  0
 18 19  1  6
 18 20  1  0
 20 21  1  0
 21 22  1  0
 22 23  1  1
 22 24  1  0
 24 25  1  0
 25 26  1  0
 26 27  1  6
 18 28  1  0
 28 29  1  0
 28 30  2  0
  6 31  1  0
 31 32  1  0
 31 33  1  0
  1 34  1  1
 34 35  1  0
 35 36  2  0
 35 37  1  0
 37 38  1  0
 38 39  1  0
 39 40  1  0
 39 41  2  0
 31  1  1  0
 11  4  1  0
 26 15  1  0
 26  9  1  0
 22 16  1  0
M  END
$$$$
