
     RDKit          3D

 41 45  0  0  0  0  0  0  0  0999 V2000
  176.1008  167.3271  108.9998 C   0  0  1  0  0  0  0  0  0  0  0  0
  176.0113  166.1097  108.1658 C   0  0  0  0  0  0  0  0  0  0  0  0
  174.9728  165.1002  108.5815 C   0  0  0  0  0  0  0  0  0  0  0  0
  174.9953  164.8049  110.0675 C   0  0  1  0  0  0  0  0  0  0  0  0
  176.3090  164.1434  110.3488 C   0  0  0  0  0  0  0  0  0  0  0  0
  174.8117  166.1083  110.7991 C   0  0  1  0  0  0  0  0  0  0  0  0
  174.8867  165.8438  112.2637 C   0  0  0  0  0  0  0  0  0  0  0  0
  173.9165  164.8448  112.7951 C   0  0  0  0  0  0  0  0  0  0  0  0
  173.5914  163.7160  111.8781 C   0  0  2  0  0  0  0  0  0  0  0  0
  174.4742  162.5162  112.2252 C   0  0  0  0  0  0  0  0  0  0  0  0
  173.8028  163.9817  110.4232 C   0  0  2  0  0  0  0  0  0  0  0  0
  173.6714  162.6931  109.7402 C   0  0  0  0  0  0  0  0  0  0  0  0
  174.4219  162.1767  108.8977 O   0  0  0  0  0  0  0  0  0  0  0  0
  172.4829  161.9226  110.1184 C   0  0  0  0  0  0  0  0  0  0  0  0
  171.7810  162.2018  111.2017 C   0  0  0  0  0  0  0  0  0  0  0  0
  170.5733  161.3900  111.5535 C   0  0  2  0  0  0  0  0  0  0  0  0
  169.3342  162.2020  111.6447 C   0  0  0  0  0  0  0  0  0  0  0  0
  168.1509  161.3733  112.0799 C   0  0  2  0  0  0  0  0  0  0  0  0
  167.0587  162.3763  112.4949 C   0  0  0  0  0  0  0  0  0  0  0  0
  168.4350  160.5600  113.3036 C   0  0  0  0  0  0  0  0  0  0  0  0
  169.7489  159.8833  113.2968 C   0  0  0  0  0  0  0  0  0  0  0  0
  170.9192  160.7206  112.8415 C   0  0  1  0  0  0  0  0  0  0  0  0
  172.0386  159.6963  112.6012 C   0  0  0  0  0  0  0  0  0  0  0  0
  171.2500  161.7115  113.8823 C   0  0  0  0  0  0  0  0  0  0  0  0
  172.0116  162.9198  113.5597 C   0  0  0  0  0  0  0  0  0  0  0  0
  172.1489  163.3078  112.1124 C   0  0  1  0  0  0  0  0  0  0  0  0
  171.2940  164.5385  111.7885 C   0  0  0  0  0  0  0  0  0  0  0  0
  167.6105  160.5896  110.9765 C   0  0  0  0  0  0  0  0  0  0  0  0
  167.0378  159.3523  111.1891 O   0  0  0  0  0  0  0  0  0  0  0  0
  167.6291  160.9866  109.7679 O   0  0  0  0  0  0  0  0  0  0  0  0
  175.7204  167.2164  110.4253 C   0  0  0  0  0  0  0  0  0  0  0  0
  176.9419  167.3300  111.3493 C   0  0  0  0  0  0  0  0  0  0  0  0
  174.9631  168.5285  110.7395 C   0  0  0  0  0  0  0  0  0  0  0  0
  177.4776  167.7455  108.9613 O   0  0  0  0  0  0  0  0  0  0  0  0
  178.1575  168.0071  107.7951 C   0  0  0  0  0  0  0  0  0  0  0  0
  179.2858  168.5542  107.9030 O   0  0  0  0  0  0  0  0  0  0  0  0
  177.5415  167.6411  106.4890 C   0  0  0  0  0  0  0  0  0  0  0  0
  176.4496  168.6064  106.1048 C   0  0  0  0  0  0  0  0  0  0  0  0
  176.7803  169.2173  104.8012 C   0  0  0  0  0  0  0  0  0  0  0  0
  175.8950  170.1199  104.2425 O   0  0  0  0  0  0  0  0  0  0  0  0
  177.8616  168.9088  104.2202 O   0  0  0  0  0  0  0  0  0  0  0  0
  1  2  1  0
  2  3  1  0
  3  4  1  0
  4  5  1  1
  4  6  1  0
  6  7  1  1
  7  8  1  0
  8  9  1  0
  9 10  1  1
  9 11  1  0
 11 12  1  6
 12 13  2  0
 12 14  1  0
 14 15  2  0
 15 16  1  0
 16 17  1  1
 17 18  1  0
 18 19  1  1
 18 20  1  0
 20 21  1  0
 21 22  1  0
 22 23  1  6
 22 24  1  0
 24 25  1  0
 25 26  1  0
 26 27  1  6
 18 28  1  0
 28 29  1  0
 28 30  2  0
  6 31  1  0
 31 32  1  0
 31 33  1  0
  1 34  1  1
 34 35  1  0
 35 36  2  0
 35 37  1  0
 37 38  1  0
 38 39  1  0
 39 40  1  0
 39 41  2  0
 31  1  1  0
 11  4  1  0
 26 15  1  0
 26  9  1  0
 22 16  1  0
M  END
$$$$
