
     RDKit          3D

 41 45  0  0  0  0  0  0  0  0999 V2000
  151.0687  166.8401  124.8122 C   0  0  1  0  0  0  0  0  0  0  0  0
  151.3889  167.9699  125.7105 C   0  0  0  0  0  0  0  0  0  0  0  0
  152.2542  167.6422  126.8998 C   0  0  0  0  0  0  0  0  0  0  0  0
  151.7976  166.4019  127.6407 C   0  0  1  0  0  0  0  0  0  0  0  0
  150.4545  166.7237  128.2193 C   0  0  0  0  0  0  0  0  0  0  0  0
  151.7691  165.2620  126.6571 C   0  0  1  0  0  0  0  0  0  0  0  0
  151.2687  164.0452  127.3569 C   0  0  0  0  0  0  0  0  0  0  0  0
  152.0350  163.6281  128.5654 C   0  0  0  0  0  0  0  0  0  0  0  0
  152.6054  164.7395  129.3782 C   0  0  2  0  0  0  0  0  0  0  0  0
  151.6515  165.0610  130.5297 C   0  0  0  0  0  0  0  0  0  0  0  0
  152.8290  166.0253  128.6510 C   0  0  2  0  0  0  0  0  0  0  0  0
  153.1449  167.0303  129.6679 C   0  0  0  0  0  0  0  0  0  0  0  0
  152.6689  168.1668  129.8158 O   0  0  0  0  0  0  0  0  0  0  0  0
  154.1662  166.6172  130.6351 C   0  0  0  0  0  0  0  0  0  0  0  0
  154.5239  165.3543  130.7815 C   0  0  0  0  0  0  0  0  0  0  0  0
  155.5709  164.9732  131.7813 C   0  0  2  0  0  0  0  0  0  0  0  0
  156.7354  164.2856  131.1694 C   0  0  0  0  0  0  0  0  0  0  0  0
  157.7347  163.8413  132.2087 C   0  0  2  0  0  0  0  0  0  0  0  0
  158.6655  162.8383  131.5025 C   0  0  0  0  0  0  0  0  0  0  0  0
  157.1007  163.0799  133.3302 C   0  0  0  0  0  0  0  0  0  0  0  0
  155.8412  163.6672  133.8331 C   0  0  0  0  0  0  0  0  0  0  0  0
  154.8602  164.1232  132.7808 C   0  0  1  0  0  0  0  0  0  0  0  0
  153.8523  164.9827  133.5588 C   0  0  0  0  0  0  0  0  0  0  0  0
  154.2473  162.9468  132.1364 C   0  0  0  0  0  0  0  0  0  0  0  0
  153.6212  163.0493  130.8167 C   0  0  0  0  0  0  0  0  0  0  0  0
  153.9142  164.2679  129.9840 C   0  0  1  0  0  0  0  0  0  0  0  0
  154.8349  163.9228  128.8077 C   0  0  0  0  0  0  0  0  0  0  0  0
  158.5678  164.9490  132.6591 C   0  0  0  0  0  0  0  0  0  0  0  0
  158.4648  166.2013  132.0887 O   0  0  0  0  0  0  0  0  0  0  0  0
  159.4273  164.8379  133.5904 O   0  0  0  0  0  0  0  0  0  0  0  0
  151.0164  165.4838  125.4011 C   0  0  0  0  0  0  0  0  0  0  0  0
  149.5795  164.9447  125.4579 C   0  0  0  0  0  0  0  0  0  0  0  0
  151.6584  164.5618  124.3373 C   0  0  0  0  0  0  0  0  0  0  0  0
  149.7659  167.1134  124.2647 O   0  0  0  0  0  0  0  0  0  0  0  0
  149.2633  168.3830  124.1024 C   0  0  0  0  0  0  0  0  0  0  0  0
  149.9198  169.1671  123.3688 O   0  0  0  0  0  0  0  0  0  0  0  0
  147.9962  168.7632  124.7874 C   0  0  0  0  0  0  0  0  0  0  0  0
  148.2462  169.7433  125.9047 C   0  0  0  0  0  0  0  0  0  0  0  0
  148.3666  171.1024  125.3387 C   0  0  0  0  0  0  0  0  0  0  0  0
  147.8948  171.3384  124.0611 O   0  0  0  0  0  0  0  0  0  0  0  0
  148.8945  172.0240  126.0272 O   0  0  0  0  0  0  0  0  0  0  0  0
  1  2  1  0
  2  3  1  0
  3  4  1  0
  4  5  1  1
  4  6  1  0
  6  7  1  1
  7  8  1  0
  8  9  1  0
  9 10  1  1
  9 11  1  0
 11 12  1  1
 12 13  2  0
 12 14  1  0
 14 15  2  0
 15 16  1  0
 16 17  1  6
 17 18  1  0
 18 19  1  6
 18 20  1  0
 20 21  1  0
 21 22  1  0
 22 23  1  1
 22 24  1  0
 24 25  1  0
 25 26  1  0
 26 27  1  6
 18 28  1  0
 28 29  1  0
 28 30  2  0
  6 31  1  0
 31 32  1  0
 31 33  1  0
  1 34  1  1
 34 35  1  0
 35 36  2  0
 35 37  1  0
 37 38  1  0
 38 39  1  0
 39 40  1  0
 39 41  2  0
 31  1  1  0
 11  4  1  0
 26 15  1  0
 26  9  1  0
 22 16  1  0
M  END
$$$$
