
     RDKit          3D

 41 45  0  0  0  0  0  0  0  0999 V2000
  118.3064  145.1850  157.4858 C   0  0  1  0  0  0  0  0  0  0  0  0
  118.8891  146.5410  157.5731 C   0  0  0  0  0  0  0  0  0  0  0  0
  118.8397  147.1940  158.9301 C   0  0  0  0  0  0  0  0  0  0  0  0
  117.4804  147.0852  159.5907 C   0  0  1  0  0  0  0  0  0  0  0  0
  116.5335  147.8807  158.7463 C   0  0  0  0  0  0  0  0  0  0  0  0
  117.1251  145.6243  159.6758 C   0  0  1  0  0  0  0  0  0  0  0  0
  115.7655  145.5017  160.2734 C   0  0  0  0  0  0  0  0  0  0  0  0
  115.5853  146.1270  161.6144 C   0  0  0  0  0  0  0  0  0  0  0  0
  116.3616  147.3773  161.8485 C   0  0  2  0  0  0  0  0  0  0  0  0
  115.4691  148.5850  161.5582 C   0  0  0  0  0  0  0  0  0  0  0  0
  117.5827  147.5493  161.0051 C   0  0  2  0  0  0  0  0  0  0  0  0
  118.0409  148.9249  161.2097 C   0  0  0  0  0  0  0  0  0  0  0  0
  118.3581  149.7754  160.3636 O   0  0  0  0  0  0  0  0  0  0  0  0
  118.1298  149.3339  162.6146 C   0  0  0  0  0  0  0  0  0  0  0  0
  117.5425  148.6533  163.5821 C   0  0  0  0  0  0  0  0  0  0  0  0
  117.6568  149.1047  165.0049 C   0  0  2  0  0  0  0  0  0  0  0  0
  118.2667  148.0823  165.8914 C   0  0  0  0  0  0  0  0  0  0  0  0
  118.2942  148.5322  167.3312 C   0  0  2  0  0  0  0  0  0  0  0  0
  118.5831  147.2707  168.1657 C   0  0  0  0  0  0  0  0  0  0  0  0
  116.9654  149.0315  167.8050 C   0  0  0  0  0  0  0  0  0  0  0  0
  116.2686  149.9174  166.8492 C   0  0  0  0  0  0  0  0  0  0  0  0
  116.2659  149.4623  165.4102 C   0  0  1  0  0  0  0  0  0  0  0  0
  115.8082  150.7028  164.6281 C   0  0  0  0  0  0  0  0  0  0  0  0
  115.3569  148.3109  165.2597 C   0  0  0  0  0  0  0  0  0  0  0  0
  115.4816  147.3937  164.1251 C   0  0  0  0  0  0  0  0  0  0  0  0
  116.7487  147.4342  163.3146 C   0  0  1  0  0  0  0  0  0  0  0  0
  117.6129  146.1964  163.5813 C   0  0  0  0  0  0  0  0  0  0  0  0
  119.3857  149.4651  167.5804 C   0  0  0  0  0  0  0  0  0  0  0  0
  120.6763  149.0207  167.7826 O   0  0  0  0  0  0  0  0  0  0  0  0
  119.2249  150.7263  167.6260 O   0  0  0  0  0  0  0  0  0  0  0  0
  117.2121  144.8427  158.4209 C   0  0  0  0  0  0  0  0  0  0  0  0
  115.8641  144.7177  157.6958 C   0  0  0  0  0  0  0  0  0  0  0  0
  117.4852  143.3774  158.8357 C   0  0  0  0  0  0  0  0  0  0  0  0
  117.7793  145.0546  156.1528 O   0  0  0  0  0  0  0  0  0  0  0  0
  118.1985  145.8247  155.0936 C   0  0  0  0  0  0  0  0  0  0  0  0
  118.6161  145.2149  154.0748 O   0  0  0  0  0  0  0  0  0  0  0  0
  118.1418  147.3096  155.1987 C   0  0  0  0  0  0  0  0  0  0  0  0
  116.8389  147.7703  155.8001 C   0  0  0  0  0  0  0  0  0  0  0  0
  115.7610  147.6068  154.8035 C   0  0  0  0  0  0  0  0  0  0  0  0
  115.5774  148.5907  153.8502 O   0  0  0  0  0  0  0  0  0  0  0  0
  115.0280  146.5754  154.8360 O   0  0  0  0  0  0  0  0  0  0  0  0
  1  2  1  0
  2  3  1  0
  3  4  1  0
  4  5  1  6
  4  6  1  0
  6  7  1  6
  7  8  1  0
  8  9  1  0
  9 10  1  6
  9 11  1  0
 11 12  1  6
 12 13  2  0
 12 14  1  0
 14 15  2  0
 15 16  1  0
 16 17  1  1
 17 18  1  0
 18 19  1  1
 18 20  1  0
 20 21  1  0
 21 22  1  0
 22 23  1  6
 22 24  1  0
 24 25  1  0
 25 26  1  0
 26 27  1  1
 18 28  1  0
 28 29  1  0
 28 30  2  0
  6 31  1  0
 31 32  1  0
 31 33  1  0
  1 34  1  6
 34 35  1  0
 35 36  2  0
 35 37  1  0
 37 38  1  0
 38 39  1  0
 39 40  1  0
 39 41  2  0
 31  1  1  0
 11  4  1  0
 26 15  1  0
 26  9  1  0
 22 16  1  0
M  END
$$$$
