
     RDKit          3D

 41 45  0  0  0  0  0  0  0  0999 V2000
  128.3168  161.7287  156.1600 C   0  0  1  0  0  0  0  0  0  0  0  0
  129.2457  160.5806  156.2317 C   0  0  0  0  0  0  0  0  0  0  0  0
  130.7129  160.9208  156.2733 C   0  0  0  0  0  0  0  0  0  0  0  0
  131.1127  161.9475  155.2331 C   0  0  1  0  0  0  0  0  0  0  0  0
  130.9053  161.3017  153.8981 C   0  0  0  0  0  0  0  0  0  0  0  0
  130.2630  163.1727  155.4448 C   0  0  1  0  0  0  0  0  0  0  0  0
  130.6047  164.1730  154.3944 C   0  0  0  0  0  0  0  0  0  0  0  0
  132.0373  164.5786  154.3235 C   0  0  0  0  0  0  0  0  0  0  0  0
  133.0235  163.5077  154.6421 C   0  0  2  0  0  0  0  0  0  0  0  0
  133.5080  162.8671  153.3405 C   0  0  0  0  0  0  0  0  0  0  0  0
  132.5139  162.3898  155.4922 C   0  0  2  0  0  0  0  0  0  0  0  0
  133.5423  161.3476  155.4713 C   0  0  0  0  0  0  0  0  0  0  0  0
  133.4156  160.1309  155.2627 O   0  0  0  0  0  0  0  0  0  0  0  0
  134.9016  161.8288  155.7354 C   0  0  0  0  0  0  0  0  0  0  0  0
  135.2183  163.1091  155.6678 C   0  0  0  0  0  0  0  0  0  0  0  0
  136.6188  163.5602  155.9441 C   0  0  2  0  0  0  0  0  0  0  0  0
  136.7061  164.5313  157.0632 C   0  0  0  0  0  0  0  0  0  0  0  0
  138.1158  165.0296  157.2653 C   0  0  2  0  0  0  0  0  0  0  0  0
  138.0022  166.2738  158.1653 C   0  0  0  0  0  0  0  0  0  0  0  0
  138.7459  165.5087  155.9953 C   0  0  0  0  0  0  0  0  0  0  0  0
  138.5164  164.6302  154.8292 C   0  0  0  0  0  0  0  0  0  0  0  0
  137.1051  164.1256  154.6517 C   0  0  1  0  0  0  0  0  0  0  0  0
  137.2404  162.9972  153.6181 C   0  0  0  0  0  0  0  0  0  0  0  0
  136.2407  165.2308  154.1975 C   0  0  0  0  0  0  0  0  0  0  0  0
  134.7877  165.1722  154.3688 C   0  0  0  0  0  0  0  0  0  0  0  0
  134.2245  164.1463  155.3145 C   0  0  1  0  0  0  0  0  0  0  0  0
  133.7017  164.8064  156.5956 C   0  0  0  0  0  0  0  0  0  0  0  0
  138.9296  164.0581  157.9847 C   0  0  0  0  0  0  0  0  0  0  0  0
  138.3617  162.9563  158.5912 O   0  0  0  0  0  0  0  0  0  0  0  0
  140.1927  164.1581  158.0983 O   0  0  0  0  0  0  0  0  0  0  0  0
  128.7979  162.9656  155.5061 C   0  0  0  0  0  0  0  0  0  0  0  0
  128.1000  163.2038  154.1590 C   0  0  0  0  0  0  0  0  0  0  0  0
  128.2283  164.1190  156.3658 C   0  0  0  0  0  0  0  0  0  0  0  0
  127.1695  161.2769  155.4174 O   0  0  0  0  0  0  0  0  0  0  0  0
  127.1944  160.1961  154.5678 C   0  0  0  0  0  0  0  0  0  0  0  0
  126.2566  160.1044  153.7335 O   0  0  0  0  0  0  0  0  0  0  0  0
  128.3029  159.2063  154.6726 C   0  0  0  0  0  0  0  0  0  0  0  0
  127.8605  157.9574  155.3909 C   0  0  0  0  0  0  0  0  0  0  0  0
  127.9947  156.8020  154.4804 C   0  0  0  0  0  0  0  0  0  0  0  0
  128.2525  157.0322  153.1421 O   0  0  0  0  0  0  0  0  0  0  0  0
  127.8740  155.6272  154.9359 O   0  0  0  0  0  0  0  0  0  0  0  0
  1  2  1  0
  2  3  1  0
  3  4  1  0
  4  5  1  6
  4  6  1  0
  6  7  1  6
  7  8  1  0
  8  9  1  0
  9 10  1  6
  9 11  1  0
 11 12  1  6
 12 13  2  0
 12 14  1  0
 14 15  2  0
 15 16  1  0
 16 17  1  1
 17 18  1  0
 18 19  1  1
 18 20  1  0
 20 21  1  0
 21 22  1  0
 22 23  1  6
 22 24  1  0
 24 25  1  0
 25 26  1  0
 26 27  1  1
 18 28  1  0
 28 29  1  0
 28 30  2  0
  6 31  1  0
 31 32  1  0
 31 33  1  0
  1 34  1  6
 34 35  1  0
 35 36  2  0
 35 37  1  0
 37 38  1  0
 38 39  1  0
 39 40  1  0
 39 41  2  0
 31  1  1  0
 11  4  1  0
 26 15  1  0
 26  9  1  0
 22 16  1  0
M  END
$$$$
