
     RDKit          3D

 41 45  0  0  0  0  0  0  0  0999 V2000
  187.0392  162.2610  142.6317 C   0  0  1  0  0  0  0  0  0  0  0  0
  185.7100  161.9591  142.0591 C   0  0  0  0  0  0  0  0  0  0  0  0
  185.6734  161.7065  140.5741 C   0  0  0  0  0  0  0  0  0  0  0  0
  186.4452  162.7395  139.7783 C   0  0  1  0  0  0  0  0  0  0  0  0
  185.7283  164.0409  139.9648 C   0  0  0  0  0  0  0  0  0  0  0  0
  187.8601  162.7552  140.2937 C   0  0  1  0  0  0  0  0  0  0  0  0
  188.6199  163.8057  139.5589 C   0  0  0  0  0  0  0  0  0  0  0  0
  188.6425  163.6741  138.0743 C   0  0  0  0  0  0  0  0  0  0  0  0
  187.4004  163.1254  137.4602 C   0  0  2  0  0  0  0  0  0  0  0  0
  186.5186  164.2831  136.9895 C   0  0  0  0  0  0  0  0  0  0  0  0
  186.5474  162.2907  138.3590 C   0  0  2  0  0  0  0  0  0  0  0  0
  185.2848  162.0714  137.6507 C   0  0  0  0  0  0  0  0  0  0  0  0
  184.1235  162.2103  138.0653 O   0  0  0  0  0  0  0  0  0  0  0  0
  185.4355  161.6272  136.2617 C   0  0  0  0  0  0  0  0  0  0  0  0
  186.5798  161.7343  135.6111 C   0  0  0  0  0  0  0  0  0  0  0  0
  186.6925  161.2693  134.1925 C   0  0  2  0  0  0  0  0  0  0  0  0
  187.7284  160.2230  134.0049 C   0  0  0  0  0  0  0  0  0  0  0  0
  187.8761  159.8329  132.5549 C   0  0  2  0  0  0  0  0  0  0  0  0
  189.2007  159.0540  132.4567 C   0  0  0  0  0  0  0  0  0  0  0  0
  188.0380  161.0160  131.6529 C   0  0  0  0  0  0  0  0  0  0  0  0
  187.1217  162.1380  131.9453 C   0  0  0  0  0  0  0  0  0  0  0  0
  186.9711  162.5037  133.4018 C   0  0  1  0  0  0  0  0  0  0  0  0
  185.7375  163.4189  133.4303 C   0  0  0  0  0  0  0  0  0  0  0  0
  188.2005  163.1687  133.8720 C   0  0  0  0  0  0  0  0  0  0  0  0
  188.5279  163.2296  135.2979 C   0  0  0  0  0  0  0  0  0  0  0  0
  187.7874  162.3159  136.2366 C   0  0  1  0  0  0  0  0  0  0  0  0
  188.6954  161.1860  136.7359 C   0  0  0  0  0  0  0  0  0  0  0  0
  186.8172  158.9244  132.1338 C   0  0  0  0  0  0  0  0  0  0  0  0
  186.8927  157.5698  132.3861 O   0  0  0  0  0  0  0  0  0  0  0  0
  185.7730  159.3120  131.5191 O   0  0  0  0  0  0  0  0  0  0  0  0
  188.0355  162.9156  141.7554 C   0  0  0  0  0  0  0  0  0  0  0  0
  188.2906  164.3710  142.1743 C   0  0  0  0  0  0  0  0  0  0  0  0
  189.3829  162.2433  142.1111 C   0  0  0  0  0  0  0  0  0  0  0  0
  186.8106  163.1442  143.7450 O   0  0  0  0  0  0  0  0  0  0  0  0
  185.5726  163.6443  144.0737 C   0  0  0  0  0  0  0  0  0  0  0  0
  184.9765  164.3168  143.1925 O   0  0  0  0  0  0  0  0  0  0  0  0
  185.0082  163.3747  145.4258 C   0  0  0  0  0  0  0  0  0  0  0  0
  184.4440  161.9803  145.5196 C   0  0  0  0  0  0  0  0  0  0  0  0
  183.9696  161.7417  146.8980 C   0  0  0  0  0  0  0  0  0  0  0  0
  183.5408  160.4750  147.2473 O   0  0  0  0  0  0  0  0  0  0  0  0
  183.9641  162.6931  147.7328 O   0  0  0  0  0  0  0  0  0  0  0  0
  1  2  1  0
  2  3  1  0
  3  4  1  0
  4  5  1  6
  4  6  1  0
  6  7  1  6
  7  8  1  0
  8  9  1  0
  9 10  1  6
  9 11  1  0
 11 12  1  6
 12 13  2  0
 12 14  1  0
 14 15  2  0
 15 16  1  0
 16 17  1  1
 17 18  1  0
 18 19  1  1
 18 20  1  0
 20 21  1  0
 21 22  1  0
 22 23  1  6
 22 24  1  0
 24 25  1  0
 25 26  1  0
 26 27  1  1
 18 28  1  0
 28 29  1  0
 28 30  2  0
  6 31  1  0
 31 32  1  0
 31 33  1  0
  1 34  1  1
 34 35  1  0
 35 36  2  0
 35 37  1  0
 37 38  1  0
 38 39  1  0
 39 40  1  0
 39 41  2  0
 31  1  1  0
 11  4  1  0
 26 15  1  0
 26  9  1  0
 22 16  1  0
M  END
$$$$
