
     RDKit          3D

 41 45  0  0  0  0  0  0  0  0999 V2000
  171.7771  165.1574  112.7777 C   0  0  1  0  0  0  0  0  0  0  0  0
  172.7807  166.2114  112.5176 C   0  0  0  0  0  0  0  0  0  0  0  0
  173.6427  166.0149  111.2975 C   0  0  0  0  0  0  0  0  0  0  0  0
  174.2085  164.6133  111.1914 C   0  0  1  0  0  0  0  0  0  0  0  0
  175.1397  164.4428  112.3517 C   0  0  0  0  0  0  0  0  0  0  0  0
  173.0528  163.6478  111.2034 C   0  0  1  0  0  0  0  0  0  0  0  0
  173.5945  162.2604  111.1556 C   0  0  0  0  0  0  0  0  0  0  0  0
  174.4803  161.9472  109.9984 C   0  0  0  0  0  0  0  0  0  0  0  0
  175.3399  163.0695  109.5267 C   0  0  2  0  0  0  0  0  0  0  0  0
  176.7242  162.9450  110.1651 C   0  0  0  0  0  0  0  0  0  0  0  0
  174.8512  164.4424  109.8558 C   0  0  2  0  0  0  0  0  0  0  0  0
  175.9440  165.3625  109.5343 C   0  0  0  0  0  0  0  0  0  0  0  0
  176.4229  166.2761  110.2241 O   0  0  0  0  0  0  0  0  0  0  0  0
  176.5408  165.1594  108.2108 C   0  0  0  0  0  0  0  0  0  0  0  0
  176.3445  164.0544  107.5146 C   0  0  0  0  0  0  0  0  0  0  0  0
  176.9728  163.8853  106.1663 C   0  0  2  0  0  0  0  0  0  0  0  0
  175.9793  163.6602  105.0868 C   0  0  0  0  0  0  0  0  0  0  0  0
  176.6438  163.4122  103.7551 C   0  0  2  0  0  0  0  0  0  0  0  0
  175.5531  162.8302  102.8372 C   0  0  0  0  0  0  0  0  0  0  0  0
  177.7088  162.3633  103.8284 C   0  0  0  0  0  0  0  0  0  0  0  0
  178.6010  162.4783  105.0009 C   0  0  0  0  0  0  0  0  0  0  0  0
  177.9221  162.7446  106.3223 C   0  0  1  0  0  0  0  0  0  0  0  0
  179.0708  163.1588  107.2543 C   0  0  0  0  0  0  0  0  0  0  0  0
  177.2197  161.5273  106.7690 C   0  0  0  0  0  0  0  0  0  0  0  0
  176.1325  161.5988  107.7472 C   0  0  0  0  0  0  0  0  0  0  0  0
  175.5137  162.9420  108.0248 C   0  0  1  0  0  0  0  0  0  0  0  0
  174.1090  163.0372  107.4180 C   0  0  0  0  0  0  0  0  0  0  0  0
  177.0961  164.6546  103.1422 C   0  0  0  0  0  0  0  0  0  0  0  0
  177.0133  165.8569  103.8143 O   0  0  0  0  0  0  0  0  0  0  0  0
  177.5887  164.7122  101.9707 O   0  0  0  0  0  0  0  0  0  0  0  0
  172.0797  163.7863  112.3112 C   0  0  0  0  0  0  0  0  0  0  0  0
  172.3655  162.8377  113.4847 C   0  0  0  0  0  0  0  0  0  0  0  0
  170.7330  163.2383  111.7822 C   0  0  0  0  0  0  0  0  0  0  0  0
  171.6179  165.0920  114.2067 O   0  0  0  0  0  0  0  0  0  0  0  0
  171.1141  163.9940  114.8635 C   0  0  0  0  0  0  0  0  0  0  0  0
  171.6332  163.7048  115.9729 O   0  0  0  0  0  0  0  0  0  0  0  0
  170.0045  163.2152  114.2456 C   0  0  0  0  0  0  0  0  0  0  0  0
  170.2315  161.7312  114.3797 C   0  0  0  0  0  0  0  0  0  0  0  0
  170.1999  161.3640  115.8101 C   0  0  0  0  0  0  0  0  0  0  0  0
  169.1068  161.7336  116.5710 O   0  0  0  0  0  0  0  0  0  0  0  0
  171.1663  160.7199  116.3137 O   0  0  0  0  0  0  0  0  0  0  0  0
  1  2  1  0
  2  3  1  0
  3  4  1  0
  4  5  1  1
  4  6  1  0
  6  7  1  1
  7  8  1  0
  8  9  1  0
  9 10  1  1
  9 11  1  0
 11 12  1  1
 12 13  2  0
 12 14  1  0
 14 15  2  0
 15 16  1  0
 16 17  1  6
 17 18  1  0
 18 19  1  6
 18 20  1  0
 20 21  1  0
 21 22  1  0
 22 23  1  1
 22 24  1  0
 24 25  1  0
 25 26  1  0
 26 27  1  6
 18 28  1  0
 28 29  1  0
 28 30  2  0
  6 31  1  0
 31 32  1  0
 31 33  1  0
  1 34  1  1
 34 35  1  0
 35 36  2  0
 35 37  1  0
 37 38  1  0
 38 39  1  0
 39 40  1  0
 39 41  2  0
 31  1  1  0
 11  4  1  0
 26 15  1  0
 26  9  1  0
 22 16  1  0
M  END
$$$$
