
     RDKit          3D

 41 45  0  0  0  0  0  0  0  0999 V2000
  168.2511  149.8720  131.2375 C   0  0  1  0  0  0  0  0  0  0  0  0
  166.8668  149.5439  131.6399 C   0  0  0  0  0  0  0  0  0  0  0  0
  165.9512  149.0812  130.5363 C   0  0  0  0  0  0  0  0  0  0  0  0
  166.0219  149.9568  129.3017 C   0  0  1  0  0  0  0  0  0  0  0  0
  165.4930  151.2991  129.7028 C   0  0  0  0  0  0  0  0  0  0  0  0
  167.4556  149.9903  128.8422 C   0  0  1  0  0  0  0  0  0  0  0  0
  167.5529  150.8925  127.6601 C   0  0  0  0  0  0  0  0  0  0  0  0
  166.6776  150.5471  126.5041 C   0  0  0  0  0  0  0  0  0  0  0  0
  165.3512  149.9655  126.8554 C   0  0  2  0  0  0  0  0  0  0  0  0
  164.3009  151.0774  126.8630 C   0  0  0  0  0  0  0  0  0  0  0  0
  165.2673  149.3041  128.1924 C   0  0  2  0  0  0  0  0  0  0  0  0
  163.8488  149.0355  128.4368 C   0  0  0  0  0  0  0  0  0  0  0  0
  163.1717  149.2790  129.4477 O   0  0  0  0  0  0  0  0  0  0  0  0
  163.1508  148.3897  127.3210 C   0  0  0  0  0  0  0  0  0  0  0  0
  163.6573  148.3559  126.1018 C   0  0  0  0  0  0  0  0  0  0  0  0
  162.9124  147.6869  124.9888 C   0  0  2  0  0  0  0  0  0  0  0  0
  163.6791  146.5839  124.3575 C   0  0  0  0  0  0  0  0  0  0  0  0
  162.9386  145.9829  123.1883 C   0  0  2  0  0  0  0  0  0  0  0  0
  163.9734  145.1457  122.4142 C   0  0  0  0  0  0  0  0  0  0  0  0
  162.4528  147.0159  122.2207 C   0  0  0  0  0  0  0  0  0  0  0  0
  161.8402  148.2041  122.8507 C   0  0  0  0  0  0  0  0  0  0  0  0
  162.5837  148.7820  124.0301 C   0  0  1  0  0  0  0  0  0  0  0  0
  161.5711  149.7402  124.6755 C   0  0  0  0  0  0  0  0  0  0  0  0
  163.8062  149.4583  123.5579 C   0  0  0  0  0  0  0  0  0  0  0  0
  164.9275  149.7113  124.4651 C   0  0  0  0  0  0  0  0  0  0  0  0
  164.9615  148.9731  125.7758 C   0  0  1  0  0  0  0  0  0  0  0  0
  166.0482  147.8917  125.7708 C   0  0  0  0  0  0  0  0  0  0  0  0
  161.8950  145.0662  123.6290 C   0  0  0  0  0  0  0  0  0  0  0  0
  161.0063  144.5079  122.7330 O   0  0  0  0  0  0  0  0  0  0  0  0
  161.7375  144.7253  124.8445 O   0  0  0  0  0  0  0  0  0  0  0  0
  168.4724  150.3530  129.8560 C   0  0  0  0  0  0  0  0  0  0  0  0
  168.8465  151.8422  129.8264 C   0  0  0  0  0  0  0  0  0  0  0  0
  169.7946  149.6858  129.4081 C   0  0  0  0  0  0  0  0  0  0  0  0
  168.6953  150.9152  132.1243 O   0  0  0  0  0  0  0  0  0  0  0  0
  167.8634  151.8880  132.6264 C   0  0  0  0  0  0  0  0  0  0  0  0
  167.5314  152.8152  131.8426 O   0  0  0  0  0  0  0  0  0  0  0  0
  167.4056  151.8027  134.0415 C   0  0  0  0  0  0  0  0  0  0  0  0
  166.8472  150.4393  134.3589 C   0  0  0  0  0  0  0  0  0  0  0  0
  165.3720  150.5129  134.3788 C   0  0  0  0  0  0  0  0  0  0  0  0
  164.6429  149.3447  134.2599 O   0  0  0  0  0  0  0  0  0  0  0  0
  164.8018  151.6359  134.5050 O   0  0  0  0  0  0  0  0  0  0  0  0
  1  2  1  0
  2  3  1  0
  3  4  1  0
  4  5  1  1
  4  6  1  0
  6  7  1  6
  7  8  1  0
  8  9  1  0
  9 10  1  1
  9 11  1  0
 11 12  1  1
 12 13  2  0
 12 14  1  0
 14 15  2  0
 15 16  1  0
 16 17  1  6
 17 18  1  0
 18 19  1  6
 18 20  1  0
 20 21  1  0
 21 22  1  0
 22 23  1  1
 22 24  1  0
 24 25  1  0
 25 26  1  0
 26 27  1  6
 18 28  1  0
 28 29  1  0
 28 30  2  0
  6 31  1  0
 31 32  1  0
 31 33  1  0
  1 34  1  1
 34 35  1  0
 35 36  2  0
 35 37  1  0
 37 38  1  0
 38 39  1  0
 39 40  1  0
 39 41  2  0
 31  1  1  0
 11  4  1  0
 26 15  1  0
 26  9  1  0
 22 16  1  0
M  END
$$$$
