
     RDKit          3D

 41 45  0  0  0  0  0  0  0  0999 V2000
  150.2361  164.5792  128.1481 C   0  0  1  0  0  0  0  0  0  0  0  0
  150.8537  165.9168  128.2720 C   0  0  0  0  0  0  0  0  0  0  0  0
  150.3097  166.7956  129.3684 C   0  0  0  0  0  0  0  0  0  0  0  0
  148.7953  166.8326  129.4014 C   0  0  1  0  0  0  0  0  0  0  0  0
  148.3591  167.4906  128.1289 C   0  0  0  0  0  0  0  0  0  0  0  0
  148.3029  165.4165  129.5433 C   0  0  1  0  0  0  0  0  0  0  0  0
  146.8129  165.4289  129.5219 C   0  0  0  0  0  0  0  0  0  0  0  0
  146.1543  166.2805  130.5528 C   0  0  0  0  0  0  0  0  0  0  0  0
  146.8771  167.5352  130.9053 C   0  0  2  0  0  0  0  0  0  0  0  0
  146.3000  168.6937  130.0905 C   0  0  0  0  0  0  0  0  0  0  0  0
  148.3476  167.5318  130.6410 C   0  0  2  0  0  0  0  0  0  0  0  0
  148.8058  168.9117  130.8143 C   0  0  0  0  0  0  0  0  0  0  0  0
  149.5211  169.5959  130.0659 O   0  0  0  0  0  0  0  0  0  0  0  0
  148.3448  169.5555  132.0481 C   0  0  0  0  0  0  0  0  0  0  0  0
  147.3504  169.0655  132.7659 C   0  0  0  0  0  0  0  0  0  0  0  0
  146.9089  169.7536  134.0201 C   0  0  2  0  0  0  0  0  0  0  0  0
  147.0013  168.8868  135.2214 C   0  0  0  0  0  0  0  0  0  0  0  0
  146.4740  169.5782  136.4544 C   0  0  2  0  0  0  0  0  0  0  0  0
  146.2747  168.4740  137.5090 C   0  0  0  0  0  0  0  0  0  0  0  0
  145.1206  170.1810  136.2434 C   0  0  0  0  0  0  0  0  0  0  0  0
  144.9655  170.9033  134.9634 C   0  0  0  0  0  0  0  0  0  0  0  0
  145.5144  170.2064  133.7425 C   0  0  1  0  0  0  0  0  0  0  0  0
  145.5371  171.3026  132.6666 C   0  0  0  0  0  0  0  0  0  0  0  0
  144.6460  169.0665  133.3942 C   0  0  0  0  0  0  0  0  0  0  0  0
  145.1420  167.9643  132.5675 C   0  0  0  0  0  0  0  0  0  0  0  0
  146.6284  167.8363  132.3716 C   0  0  1  0  0  0  0  0  0  0  0  0
  147.1869  166.6445  133.1578 C   0  0  0  0  0  0  0  0  0  0  0  0
  147.4467  170.5160  137.0003 C   0  0  0  0  0  0  0  0  0  0  0  0
  147.0545  171.7288  137.5291 O   0  0  0  0  0  0  0  0  0  0  0  0
  148.6972  170.2834  137.0265 O   0  0  0  0  0  0  0  0  0  0  0  0
  148.8269  164.4280  128.5730 C   0  0  0  0  0  0  0  0  0  0  0  0
  147.8928  164.2090  127.3738 C   0  0  0  0  0  0  0  0  0  0  0  0
  148.7675  163.0508  129.2758 C   0  0  0  0  0  0  0  0  0  0  0  0
  150.2961  164.2319  126.7526 O   0  0  0  0  0  0  0  0  0  0  0  0
  150.4246  162.9405  126.2981 C   0  0  0  0  0  0  0  0  0  0  0  0
  149.3665  162.3432  125.9698 O   0  0  0  0  0  0  0  0  0  0  0  0
  151.7777  162.3222  126.2186 C   0  0  0  0  0  0  0  0  0  0  0  0
  152.8568  163.3692  126.1139 C   0  0  0  0  0  0  0  0  0  0  0  0
  152.7354  164.0613  124.8147 C   0  0  0  0  0  0  0  0  0  0  0  0
  153.7264  164.9464  124.4339 O   0  0  0  0  0  0  0  0  0  0  0  0
  151.7343  163.8342  124.0743 O   0  0  0  0  0  0  0  0  0  0  0  0
  1  2  1  0
  2  3  1  0
  3  4  1  0
  4  5  1  6
  4  6  1  0
  6  7  1  6
  7  8  1  0
  8  9  1  0
  9 10  1  6
  9 11  1  0
 11 12  1  6
 12 13  2  0
 12 14  1  0
 14 15  2  0
 15 16  1  0
 16 17  1  1
 17 18  1  0
 18 19  1  1
 18 20  1  0
 20 21  1  0
 21 22  1  0
 22 23  1  6
 22 24  1  0
 24 25  1  0
 25 26  1  0
 26 27  1  1
 18 28  1  0
 28 29  1  0
 28 30  2  0
  6 31  1  0
 31 32  1  0
 31 33  1  0
  1 34  1  6
 34 35  1  0
 35 36  2  0
 35 37  1  0
 37 38  1  0
 38 39  1  0
 39 40  1  0
 39 41  2  0
 31  1  1  0
 11  4  1  0
 26 15  1  0
 26  9  1  0
 22 16  1  0
M  END
$$$$
