
     RDKit          3D

 41 45  0  0  0  0  0  0  0  0999 V2000
  147.0323  166.4296  128.2236 C   0  0  1  0  0  0  0  0  0  0  0  0
  147.9159  167.6051  128.3757 C   0  0  0  0  0  0  0  0  0  0  0  0
  149.0215  167.7351  127.3602 C   0  0  0  0  0  0  0  0  0  0  0  0
  149.7811  166.4422  127.1428 C   0  0  1  0  0  0  0  0  0  0  0  0
  150.4776  166.1372  128.4328 C   0  0  0  0  0  0  0  0  0  0  0  0
  148.7872  165.3871  126.7341 C   0  0  1  0  0  0  0  0  0  0  0  0
  149.5098  164.0943  126.5696 C   0  0  0  0  0  0  0  0  0  0  0  0
  150.6419  164.1004  125.6000 C   0  0  0  0  0  0  0  0  0  0  0  0
  151.4184  165.3703  125.5288 C   0  0  2  0  0  0  0  0  0  0  0  0
  152.6522  165.2560  126.4255 C   0  0  0  0  0  0  0  0  0  0  0  0
  150.6933  166.5989  125.9726 C   0  0  2  0  0  0  0  0  0  0  0  0
  151.6937  167.6644  126.0623 C   0  0  0  0  0  0  0  0  0  0  0  0
  151.8983  168.4664  126.9868 O   0  0  0  0  0  0  0  0  0  0  0  0
  152.5634  167.7828  124.8881 C   0  0  0  0  0  0  0  0  0  0  0  0
  152.6603  166.8223  123.9869 C   0  0  0  0  0  0  0  0  0  0  0  0
  153.5608  166.9818  122.8016 C   0  0  2  0  0  0  0  0  0  0  0  0
  152.8412  166.8790  121.5075 C   0  0  0  0  0  0  0  0  0  0  0  0
  153.7842  166.9617  120.3327 C   0  0  2  0  0  0  0  0  0  0  0  0
  152.9863  166.4696  119.1112 C   0  0  0  0  0  0  0  0  0  0  0  0
  154.9450  166.0255  120.4578 C   0  0  0  0  0  0  0  0  0  0  0  0
  155.5628  165.9930  121.8000 C   0  0  0  0  0  0  0  0  0  0  0  0
  154.6053  165.9288  122.9649 C   0  0  1  0  0  0  0  0  0  0  0  0
  155.4794  166.2599  124.1840 C   0  0  0  0  0  0  0  0  0  0  0  0
  153.9992  164.5860  123.0304 C   0  0  0  0  0  0  0  0  0  0  0  0
  152.7399  164.3600  123.7425 C   0  0  0  0  0  0  0  0  0  0  0  0
  151.9026  165.5572  124.1030 C   0  0  1  0  0  0  0  0  0  0  0  0
  150.6467  165.6348  123.2272 C   0  0  0  0  0  0  0  0  0  0  0  0
  154.1772  168.3376  120.0568 C   0  0  0  0  0  0  0  0  0  0  0  0
  155.3747  168.6303  119.4366 O   0  0  0  0  0  0  0  0  0  0  0  0
  153.4565  169.3405  120.3619 O   0  0  0  0  0  0  0  0  0  0  0  0
  147.6039  165.2120  127.6073 C   0  0  0  0  0  0  0  0  0  0  0  0
  147.7763  164.0833  128.6344 C   0  0  0  0  0  0  0  0  0  0  0  0
  146.4757  164.6522  126.7086 C   0  0  0  0  0  0  0  0  0  0  0  0
  146.6028  166.0702  129.5495 O   0  0  0  0  0  0  0  0  0  0  0  0
  146.9476  166.7794  130.6759 C   0  0  0  0  0  0  0  0  0  0  0  0
  147.2478  166.1127  131.7003 O   0  0  0  0  0  0  0  0  0  0  0  0
  146.9485  168.2685  130.6333 C   0  0  0  0  0  0  0  0  0  0  0  0
  148.3240  168.8266  130.8943 C   0  0  0  0  0  0  0  0  0  0  0  0
  148.3475  170.2538  130.5145 C   0  0  0  0  0  0  0  0  0  0  0  0
  147.1922  170.8344  130.0259 O   0  0  0  0  0  0  0  0  0  0  0  0
  149.4165  170.9193  130.6423 O   0  0  0  0  0  0  0  0  0  0  0  0
  1  2  1  0
  2  3  1  0
  3  4  1  0
  4  5  1  1
  4  6  1  0
  6  7  1  1
  7  8  1  0
  8  9  1  0
  9 10  1  1
  9 11  1  0
 11 12  1  1
 12 13  2  0
 12 14  1  0
 14 15  2  0
 15 16  1  0
 16 17  1  6
 17 18  1  0
 18 19  1  6
 18 20  1  0
 20 21  1  0
 21 22  1  0
 22 23  1  1
 22 24  1  0
 24 25  1  0
 25 26  1  0
 26 27  1  6
 18 28  1  0
 28 29  1  0
 28 30  2  0
  6 31  1  0
 31 32  1  0
 31 33  1  0
  1 34  1  1
 34 35  1  0
 35 36  2  0
 35 37  1  0
 37 38  1  0
 38 39  1  0
 39 40  1  0
 39 41  2  0
 31  1  1  0
 11  4  1  0
 26 15  1  0
 26  9  1  0
 22 16  1  0
M  END
$$$$
