
     RDKit          3D

 41 45  0  0  0  0  0  0  0  0999 V2000
  169.1702  165.2469  108.1408 C   0  0  1  0  0  0  0  0  0  0  0  0
  170.1756  166.3137  107.9483 C   0  0  0  0  0  0  0  0  0  0  0  0
  171.5822  165.9788  108.3722 C   0  0  0  0  0  0  0  0  0  0  0  0
  171.6506  165.3349  109.7421 C   0  0  1  0  0  0  0  0  0  0  0  0
  171.1901  166.3704  110.7210 C   0  0  0  0  0  0  0  0  0  0  0  0
  170.7816  164.1052  109.7170 C   0  0  1  0  0  0  0  0  0  0  0  0
  170.7934  163.4895  111.0740 C   0  0  0  0  0  0  0  0  0  0  0  0
  172.1353  163.1282  111.6131 C   0  0  0  0  0  0  0  0  0  0  0  0
  173.2475  164.0437  111.2311 C   0  0  2  0  0  0  0  0  0  0  0  0
  173.4653  165.0640  112.3495 C   0  0  0  0  0  0  0  0  0  0  0  0
  173.0356  164.8343  109.9813 C   0  0  2  0  0  0  0  0  0  0  0  0
  174.1079  165.8301  109.9306 C   0  0  0  0  0  0  0  0  0  0  0  0
  174.0301  167.0501  109.7176 O   0  0  0  0  0  0  0  0  0  0  0  0
  175.4506  165.2909  110.1669 C   0  0  0  0  0  0  0  0  0  0  0  0
  175.6439  164.0982  110.7000 C   0  0  0  0  0  0  0  0  0  0  0  0
  177.0316  163.5838  110.9258 C   0  0  2  0  0  0  0  0  0  0  0  0
  177.3008  162.3082  110.2163 C   0  0  0  0  0  0  0  0  0  0  0  0
  178.6766  161.7725  110.5271 C   0  0  2  0  0  0  0  0  0  0  0  0
  178.6794  160.3071  110.0541 C   0  0  0  0  0  0  0  0  0  0  0  0
  178.9572  161.7209  111.9962 C   0  0  0  0  0  0  0  0  0  0  0  0
  178.5321  162.9234  112.7427 C   0  0  0  0  0  0  0  0  0  0  0  0
  177.1610  163.4573  112.4070 C   0  0  1  0  0  0  0  0  0  0  0  0
  177.1395  164.8552  113.0436 C   0  0  0  0  0  0  0  0  0  0  0  0
  176.1329  162.5524  112.9539 C   0  0  0  0  0  0  0  0  0  0  0  0
  174.7678  162.5527  112.4242 C   0  0  0  0  0  0  0  0  0  0  0  0
  174.5189  163.2258  111.1016 C   0  0  1  0  0  0  0  0  0  0  0  0
  174.2577  162.1933  109.9988 C   0  0  0  0  0  0  0  0  0  0  0  0
  179.7067  162.4665  109.7649 C   0  0  0  0  0  0  0  0  0  0  0  0
  179.8627  163.8349  109.8514 O   0  0  0  0  0  0  0  0  0  0  0  0
  180.5155  161.8690  108.9857 O   0  0  0  0  0  0  0  0  0  0  0  0
  169.3907  164.2813  109.2399 C   0  0  0  0  0  0  0  0  0  0  0  0
  168.3840  164.4817  110.3822 C   0  0  0  0  0  0  0  0  0  0  0  0
  168.9489  162.9145  108.6650 C   0  0  0  0  0  0  0  0  0  0  0  0
  167.9203  165.9099  108.4054 O   0  0  0  0  0  0  0  0  0  0  0  0
  167.6426  166.5608  109.5843 C   0  0  0  0  0  0  0  0  0  0  0  0
  166.7078  166.0952  110.2868 O   0  0  0  0  0  0  0  0  0  0  0  0
  168.4408  167.7594  109.9659 C   0  0  0  0  0  0  0  0  0  0  0  0
  167.8478  169.0215  109.3941 C   0  0  0  0  0  0  0  0  0  0  0  0
  166.4013  169.0547  109.6917 C   0  0  0  0  0  0  0  0  0  0  0  0
  165.5475  169.6627  108.7906 O   0  0  0  0  0  0  0  0  0  0  0  0
  165.9682  168.5289  110.7584 O   0  0  0  0  0  0  0  0  0  0  0  0
  1  2  1  0
  2  3  1  0
  3  4  1  0
  4  5  1  1
  4  6  1  0
  6  7  1  1
  7  8  1  0
  8  9  1  0
  9 10  1  1
  9 11  1  0
 11 12  1  1
 12 13  2  0
 12 14  1  0
 14 15  2  0
 15 16  1  0
 16 17  1  6
 17 18  1  0
 18 19  1  6
 18 20  1  0
 20 21  1  0
 21 22  1  0
 22 23  1  1
 22 24  1  0
 24 25  1  0
 25 26  1  0
 26 27  1  6
 18 28  1  0
 28 29  1  0
 28 30  2  0
  6 31  1  0
 31 32  1  0
 31 33  1  0
  1 34  1  1
 34 35  1  0
 35 36  2  0
 35 37  1  0
 37 38  1  0
 38 39  1  0
 39 40  1  0
 39 41  2  0
 31  1  1  0
 11  4  1  0
 26 15  1  0
 26  9  1  0
 22 16  1  0
M  END
$$$$
