
     RDKit          3D

 41 45  0  0  0  0  0  0  0  0999 V2000
  173.7927  165.4697  112.8099 C   0  0  1  0  0  0  0  0  0  0  0  0
  174.8425  164.4580  112.5645 C   0  0  0  0  0  0  0  0  0  0  0  0
  175.2146  164.2299  111.1223 C   0  0  0  0  0  0  0  0  0  0  0  0
  174.0094  164.0706  110.2178 C   0  0  1  0  0  0  0  0  0  0  0  0
  173.3242  162.8086  110.6424 C   0  0  0  0  0  0  0  0  0  0  0  0
  173.1523  165.2991  110.3716 C   0  0  1  0  0  0  0  0  0  0  0  0
  171.9336  165.1345  109.5299 C   0  0  0  0  0  0  0  0  0  0  0  0
  172.1729  164.8846  108.0801 C   0  0  0  0  0  0  0  0  0  0  0  0
  173.3807  164.0722  107.7602 C   0  0  2  0  0  0  0  0  0  0  0  0
  172.9699  162.6098  107.5813 C   0  0  0  0  0  0  0  0  0  0  0  0
  174.4584  164.0786  108.7949 C   0  0  2  0  0  0  0  0  0  0  0  0
  175.4161  163.0414  108.4063 C   0  0  0  0  0  0  0  0  0  0  0  0
  175.9137  162.1401  109.0991 O   0  0  0  0  0  0  0  0  0  0  0  0
  175.8312  163.0922  107.0012 C   0  0  0  0  0  0  0  0  0  0  0  0
  175.1638  163.7860  106.0970 C   0  0  0  0  0  0  0  0  0  0  0  0
  175.6202  163.8117  104.6714 C   0  0  2  0  0  0  0  0  0  0  0  0
  175.9168  165.1809  104.1812 C   0  0  0  0  0  0  0  0  0  0  0  0
  176.2950  165.1845  102.7206 C   0  0  2  0  0  0  0  0  0  0  0  0
  176.2010  166.6510  102.2605 C   0  0  0  0  0  0  0  0  0  0  0  0
  175.3192  164.4334  101.8702 C   0  0  0  0  0  0  0  0  0  0  0  0
  174.8832  163.1399  102.4367 C   0  0  0  0  0  0  0  0  0  0  0  0
  174.5260  163.1494  103.9030 C   0  0  1  0  0  0  0  0  0  0  0  0
  174.4636  161.6616  104.2806 C   0  0  0  0  0  0  0  0  0  0  0  0
  173.2437  163.8526  104.0928 C   0  0  0  0  0  0  0  0  0  0  0  0
  172.8716  164.4058  105.3965 C   0  0  0  0  0  0  0  0  0  0  0  0
  173.9473  164.5551  106.4381 C   0  0  1  0  0  0  0  0  0  0  0  0
  174.3178  166.0290  106.6398 C   0  0  0  0  0  0  0  0  0  0  0  0
  177.6769  164.7656  102.5238 C   0  0  0  0  0  0  0  0  0  0  0  0
  178.6774  165.1680  103.3849 O   0  0  0  0  0  0  0  0  0  0  0  0
  178.0455  164.0150  101.5651 O   0  0  0  0  0  0  0  0  0  0  0  0
  172.7803  165.6839  111.7525 C   0  0  0  0  0  0  0  0  0  0  0  0
  171.4003  165.1567  112.1726 C   0  0  0  0  0  0  0  0  0  0  0  0
  172.5419  167.2126  111.7318 C   0  0  0  0  0  0  0  0  0  0  0  0
  173.0872  165.0448  113.9904 O   0  0  0  0  0  0  0  0  0  0  0  0
  172.2350  163.9659  114.0165 C   0  0  0  0  0  0  0  0  0  0  0  0
  171.3720  163.9425  114.9324 O   0  0  0  0  0  0  0  0  0  0  0  0
  172.3703  162.8994  112.9853 C   0  0  0  0  0  0  0  0  0  0  0  0
  173.3082  161.8102  113.4386 C   0  0  0  0  0  0  0  0  0  0  0  0
  173.4630  161.8842  114.9057 C   0  0  0  0  0  0  0  0  0  0  0  0
  174.0008  163.0285  115.4640 O   0  0  0  0  0  0  0  0  0  0  0  0
  173.1024  160.9067  115.6244 O   0  0  0  0  0  0  0  0  0  0  0  0
  1  2  1  0
  2  3  1  0
  3  4  1  0
  4  5  1  1
  4  6  1  0
  6  7  1  6
  7  8  1  0
  8  9  1  0
  9 10  1  6
  9 11  1  0
 11 12  1  6
 12 13  2  0
 12 14  1  0
 14 15  2  0
 15 16  1  0
 16 17  1  6
 17 18  1  0
 18 19  1  6
 18 20  1  0
 20 21  1  0
 21 22  1  0
 22 23  1  1
 22 24  1  0
 24 25  1  0
 25 26  1  0
 26 27  1  1
 18 28  1  0
 28 29  1  0
 28 30  2  0
  6 31  1  0
 31 32  1  0
 31 33  1  0
  1 34  1  1
 34 35  1  0
 35 36  2  0
 35 37  1  0
 37 38  1  0
 38 39  1  0
 39 40  1  0
 39 41  2  0
 31  1  1  0
 11  4  1  0
 26 15  1  0
 26  9  1  0
 22 16  1  0
M  END
$$$$
