
     RDKit          3D

 41 45  0  0  0  0  0  0  0  0999 V2000
  146.3459  170.8402  132.4794 C   0  0  1  0  0  0  0  0  0  0  0  0
  147.5649  170.2828  133.1033 C   0  0  0  0  0  0  0  0  0  0  0  0
  148.3484  169.3071  132.2639 C   0  0  0  0  0  0  0  0  0  0  0  0
  147.4766  168.2531  131.6120 C   0  0  1  0  0  0  0  0  0  0  0  0
  146.9030  167.4300  132.7238 C   0  0  0  0  0  0  0  0  0  0  0  0
  146.4323  168.9624  130.7910 C   0  0  1  0  0  0  0  0  0  0  0  0
  145.5311  167.9410  130.1864 C   0  0  0  0  0  0  0  0  0  0  0  0
  146.1941  166.9053  129.3440 C   0  0  0  0  0  0  0  0  0  0  0  0
  147.5529  166.4880  129.7917 C   0  0  2  0  0  0  0  0  0  0  0  0
  147.4361  165.2181  130.6361 C   0  0  0  0  0  0  0  0  0  0  0  0
  148.2916  167.4795  130.6305 C   0  0  2  0  0  0  0  0  0  0  0  0
  149.4663  166.7845  131.1606 C   0  0  0  0  0  0  0  0  0  0  0  0
  149.8870  166.7422  132.3273 O   0  0  0  0  0  0  0  0  0  0  0  0
  150.2377  166.0424  130.1590 C   0  0  0  0  0  0  0  0  0  0  0  0
  149.7456  165.7517  128.9684 C   0  0  0  0  0  0  0  0  0  0  0  0
  150.5656  164.9911  127.9734 C   0  0  2  0  0  0  0  0  0  0  0  0
  150.7717  165.7314  126.7035 C   0  0  0  0  0  0  0  0  0  0  0  0
  151.5306  164.9092  125.6913 C   0  0  2  0  0  0  0  0  0  0  0  0
  151.3427  165.6206  124.3386 C   0  0  0  0  0  0  0  0  0  0  0  0
  150.9523  163.5410  125.5093 C   0  0  0  0  0  0  0  0  0  0  0  0
  150.5813  162.8613  126.7680 C   0  0  0  0  0  0  0  0  0  0  0  0
  149.8389  163.7027  127.7773 C   0  0  1  0  0  0  0  0  0  0  0  0
  149.9042  162.8765  129.0708 C   0  0  0  0  0  0  0  0  0  0  0  0
  148.4616  163.9370  127.3050 C   0  0  0  0  0  0  0  0  0  0  0  0
  147.6663  165.0533  127.8203 C   0  0  0  0  0  0  0  0  0  0  0  0
  148.3792  166.1494  128.5650 C   0  0  1  0  0  0  0  0  0  0  0  0
  148.4498  167.4301  127.7251 C   0  0  0  0  0  0  0  0  0  0  0  0
  152.9607  164.9008  125.9714 C   0  0  0  0  0  0  0  0  0  0  0  0
  153.5029  165.7016  126.9557 O   0  0  0  0  0  0  0  0  0  0  0  0
  153.7878  164.1683  125.3408 O   0  0  0  0  0  0  0  0  0  0  0  0
  145.6417  170.0093  131.4781 C   0  0  0  0  0  0  0  0  0  0  0  0
  144.2972  169.4940  132.0124 C   0  0  0  0  0  0  0  0  0  0  0  0
  145.1868  171.0036  130.3833 C   0  0  0  0  0  0  0  0  0  0  0  0
  145.4177  171.0871  133.5515 O   0  0  0  0  0  0  0  0  0  0  0  0
  145.7978  171.5348  134.7948 C   0  0  0  0  0  0  0  0  0  0  0  0
  145.6212  172.7567  135.0398 O   0  0  0  0  0  0  0  0  0  0  0  0
  146.3883  170.5764  135.7705 C   0  0  0  0  0  0  0  0  0  0  0  0
  145.3211  169.7742  136.4699 C   0  0  0  0  0  0  0  0  0  0  0  0
  144.1652  170.6492  136.7529 C   0  0  0  0  0  0  0  0  0  0  0  0
  142.9199  170.0755  136.9279 O   0  0  0  0  0  0  0  0  0  0  0  0
  144.3310  171.9015  136.8316 O   0  0  0  0  0  0  0  0  0  0  0  0
  1  2  1  0
  2  3  1  0
  3  4  1  0
  4  5  1  1
  4  6  1  0
  6  7  1  1
  7  8  1  0
  8  9  1  0
  9 10  1  1
  9 11  1  0
 11 12  1  1
 12 13  2  0
 12 14  1  0
 14 15  2  0
 15 16  1  0
 16 17  1  6
 17 18  1  0
 18 19  1  6
 18 20  1  0
 20 21  1  0
 21 22  1  0
 22 23  1  1
 22 24  1  0
 24 25  1  0
 25 26  1  0
 26 27  1  6
 18 28  1  0
 28 29  1  0
 28 30  2  0
  6 31  1  0
 31 32  1  0
 31 33  1  0
  1 34  1  1
 34 35  1  0
 35 36  2  0
 35 37  1  0
 37 38  1  0
 38 39  1  0
 39 40  1  0
 39 41  2  0
 31  1  1  0
 11  4  1  0
 26 15  1  0
 26  9  1  0
 22 16  1  0
M  END
$$$$
