
     RDKit          3D

 41 45  0  0  0  0  0  0  0  0999 V2000
  170.8389  165.6921  110.5868 C   0  0  1  0  0  0  0  0  0  0  0  0
  171.9551  166.3664  109.8901 C   0  0  0  0  0  0  0  0  0  0  0  0
  173.1940  165.5370  109.6721 C   0  0  0  0  0  0  0  0  0  0  0  0
  173.6318  164.7883  110.9147 C   0  0  1  0  0  0  0  0  0  0  0  0
  174.0352  165.8266  111.9155 C   0  0  0  0  0  0  0  0  0  0  0  0
  172.4773  163.9346  111.3688 C   0  0  1  0  0  0  0  0  0  0  0  0
  172.8721  163.2327  112.6227 C   0  0  0  0  0  0  0  0  0  0  0  0
  174.0988  162.3902  112.5383 C   0  0  0  0  0  0  0  0  0  0  0  0
  175.1684  162.9035  111.6364 C   0  0  2  0  0  0  0  0  0  0  0  0
  176.1910  163.6847  112.4631 C   0  0  0  0  0  0  0  0  0  0  0  0
  174.7147  163.8276  110.5536 C   0  0  2  0  0  0  0  0  0  0  0  0
  175.9244  164.4000  109.9594 C   0  0  0  0  0  0  0  0  0  0  0  0
  176.1850  165.5877  109.7119 O   0  0  0  0  0  0  0  0  0  0  0  0
  176.9576  163.4178  109.6175 C   0  0  0  0  0  0  0  0  0  0  0  0
  176.9430  162.1878  110.0980 C   0  0  0  0  0  0  0  0  0  0  0  0
  178.0175  161.2145  109.7249 C   0  0  2  0  0  0  0  0  0  0  0  0
  177.4912  159.9922  109.0675 C   0  0  0  0  0  0  0  0  0  0  0  0
  178.5860  158.9953  108.7772 C   0  0  2  0  0  0  0  0  0  0  0  0
  177.8774  157.6647  108.4632 C   0  0  0  0  0  0  0  0  0  0  0  0
  179.4467  158.7202  109.9700 C   0  0  0  0  0  0  0  0  0  0  0  0
  179.8348  159.9237  110.7349 C   0  0  0  0  0  0  0  0  0  0  0  0
  178.7324  160.9195  111.0010 C   0  0  1  0  0  0  0  0  0  0  0  0
  179.4742  162.1786  111.4747 C   0  0  0  0  0  0  0  0  0  0  0  0
  177.8087  160.3728  112.0123 C   0  0  0  0  0  0  0  0  0  0  0  0
  176.4429  160.8843  112.1425 C   0  0  0  0  0  0  0  0  0  0  0  0
  175.8862  161.7173  111.0199 C   0  0  1  0  0  0  0  0  0  0  0  0
  174.8303  160.9382  110.2272 C   0  0  0  0  0  0  0  0  0  0  0  0
  179.3444  159.3632  107.5884 C   0  0  0  0  0  0  0  0  0  0  0  0
  178.9553  160.4178  106.7879 O   0  0  0  0  0  0  0  0  0  0  0  0
  180.3954  158.7499  107.2175 O   0  0  0  0  0  0  0  0  0  0  0  0
  171.1735  164.6147  111.5441 C   0  0  0  0  0  0  0  0  0  0  0  0
  170.9086  165.0423  112.9951 C   0  0  0  0  0  0  0  0  0  0  0  0
  170.0849  163.5367  111.3282 C   0  0  0  0  0  0  0  0  0  0  0  0
  170.1453  166.7138  111.3262 O   0  0  0  0  0  0  0  0  0  0  0  0
  169.1712  167.5155  110.7793 C   0  0  0  0  0  0  0  0  0  0  0  0
  168.5738  168.3011  111.5604 O   0  0  0  0  0  0  0  0  0  0  0  0
  168.8737  167.4185  109.3228 C   0  0  0  0  0  0  0  0  0  0  0  0
  169.7930  168.2964  108.5129 C   0  0  0  0  0  0  0  0  0  0  0  0
  168.9853  169.2719  107.7527 C   0  0  0  0  0  0  0  0  0  0  0  0
  169.0524  169.2635  106.3721 O   0  0  0  0  0  0  0  0  0  0  0  0
  168.2482  170.0938  108.3718 O   0  0  0  0  0  0  0  0  0  0  0  0
  1  2  1  0
  2  3  1  0
  3  4  1  0
  4  5  1  1
  4  6  1  0
  6  7  1  1
  7  8  1  0
  8  9  1  0
  9 10  1  1
  9 11  1  0
 11 12  1  1
 12 13  2  0
 12 14  1  0
 14 15  2  0
 15 16  1  0
 16 17  1  1
 17 18  1  0
 18 19  1  6
 18 20  1  0
 20 21  1  0
 21 22  1  0
 22 23  1  1
 22 24  1  0
 24 25  1  0
 25 26  1  0
 26 27  1  6
 18 28  1  0
 28 29  1  0
 28 30  2  0
  6 31  1  0
 31 32  1  0
 31 33  1  0
  1 34  1  1
 34 35  1  0
 35 36  2  0
 35 37  1  0
 37 38  1  0
 38 39  1  0
 39 40  1  0
 39 41  2  0
 31  1  1  0
 11  4  1  0
 26 15  1  0
 26  9  1  0
 22 16  1  0
M  END
$$$$
