
     RDKit          3D

 41 45  0  0  0  0  0  0  0  0999 V2000
  150.5805  166.0016  127.9406 C   0  0  1  0  0  0  0  0  0  0  0  0
  149.2501  166.1622  127.3162 C   0  0  0  0  0  0  0  0  0  0  0  0
  148.2983  167.0931  128.0217 C   0  0  0  0  0  0  0  0  0  0  0  0
  148.2305  166.8503  129.5158 C   0  0  1  0  0  0  0  0  0  0  0  0
  147.6399  165.4862  129.6975 C   0  0  0  0  0  0  0  0  0  0  0  0
  149.6262  166.9775  130.0670 C   0  0  1  0  0  0  0  0  0  0  0  0
  149.5865  166.6869  131.5280 C   0  0  0  0  0  0  0  0  0  0  0  0
  148.6636  167.5344  132.3353 C   0  0  0  0  0  0  0  0  0  0  0  0
  147.4044  167.9430  131.6508 C   0  0  2  0  0  0  0  0  0  0  0  0
  146.2849  166.9758  132.0385 C   0  0  0  0  0  0  0  0  0  0  0  0
  147.4514  167.9490  130.1575 C   0  0  2  0  0  0  0  0  0  0  0  0
  146.0727  168.1271  129.6975 C   0  0  0  0  0  0  0  0  0  0  0  0
  145.4474  167.4841  128.8399 O   0  0  0  0  0  0  0  0  0  0  0  0
  145.3491  169.2207  130.3529 C   0  0  0  0  0  0  0  0  0  0  0  0
  145.7771  169.7728  131.4737 C   0  0  0  0  0  0  0  0  0  0  0  0
  145.0084  170.8875  132.1123 C   0  0  2  0  0  0  0  0  0  0  0  0
  145.8050  172.1310  132.2621 C   0  0  0  0  0  0  0  0  0  0  0  0
  145.0325  173.2092  132.9811 C   0  0  2  0  0  0  0  0  0  0  0  0
  146.0690  174.2688  133.3983 C   0  0  0  0  0  0  0  0  0  0  0  0
  144.4174  172.7251  134.2566 C   0  0  0  0  0  0  0  0  0  0  0  0
  143.7685  171.4009  134.1587 C   0  0  0  0  0  0  0  0  0  0  0  0
  144.5461  170.3387  133.4206 C   0  0  1  0  0  0  0  0  0  0  0  0
  143.5154  169.2268  133.1735 C   0  0  0  0  0  0  0  0  0  0  0  0
  145.6877  169.9017  134.2457 C   0  0  0  0  0  0  0  0  0  0  0  0
  146.8456  169.2390  133.6422 C   0  0  0  0  0  0  0  0  0  0  0  0
  147.0133  169.3218  132.1492 C   0  0  1  0  0  0  0  0  0  0  0  0
  148.1674  170.2593  131.7757 C   0  0  0  0  0  0  0  0  0  0  0  0
  144.0831  173.8701  132.0948 C   0  0  0  0  0  0  0  0  0  0  0  0
  142.9854  174.5417  132.5930 O   0  0  0  0  0  0  0  0  0  0  0  0
  144.2013  173.8730  130.8281 O   0  0  0  0  0  0  0  0  0  0  0  0
  150.6797  166.1727  129.4069 C   0  0  0  0  0  0  0  0  0  0  0  0
  150.9506  164.8383  130.1171 C   0  0  0  0  0  0  0  0  0  0  0  0
  152.0119  166.9268  129.6315 C   0  0  0  0  0  0  0  0  0  0  0  0
  151.0101  164.6607  127.6418 O   0  0  0  0  0  0  0  0  0  0  0  0
  151.1680  164.1831  126.3621 C   0  0  0  0  0  0  0  0  0  0  0  0
  152.1618  163.4408  126.1486 O   0  0  0  0  0  0  0  0  0  0  0  0
  150.1801  164.5586  125.3121 C   0  0  0  0  0  0  0  0  0  0  0  0
  149.1142  163.5045  125.1560 C   0  0  0  0  0  0  0  0  0  0  0  0
  149.7398  162.2477  124.6966 C   0  0  0  0  0  0  0  0  0  0  0  0
  151.1186  162.1501  124.6925 O   0  0  0  0  0  0  0  0  0  0  0  0
  149.0097  161.2857  124.3178 O   0  0  0  0  0  0  0  0  0  0  0  0
  1  2  1  0
  2  3  1  0
  3  4  1  0
  4  5  1  6
  4  6  1  0
  6  7  1  1
  7  8  1  0
  8  9  1  0
  9 10  1  6
  9 11  1  0
 11 12  1  6
 12 13  2  0
 12 14  1  0
 14 15  2  0
 15 16  1  0
 16 17  1  1
 17 18  1  0
 18 19  1  1
 18 20  1  0
 20 21  1  0
 21 22  1  0
 22 23  1  6
 22 24  1  0
 24 25  1  0
 25 26  1  0
 26 27  1  1
 18 28  1  0
 28 29  1  0
 28 30  2  0
  6 31  1  0
 31 32  1  0
 31 33  1  0
  1 34  1  1
 34 35  1  0
 35 36  2  0
 35 37  1  0
 37 38  1  0
 38 39  1  0
 39 40  1  0
 39 41  2  0
 31  1  1  0
 11  4  1  0
 26 15  1  0
 26  9  1  0
 22 16  1  0
M  END
$$$$
