
     RDKit          3D

 41 45  0  0  0  0  0  0  0  0999 V2000
  170.0214  166.5151  108.8332 C   0  0  1  0  0  0  0  0  0  0  0  0
  171.2999  167.2500  108.9388 C   0  0  0  0  0  0  0  0  0  0  0  0
  172.5114  166.4208  109.2780 C   0  0  0  0  0  0  0  0  0  0  0  0
  172.2733  165.4690  110.4327 C   0  0  1  0  0  0  0  0  0  0  0  0
  172.0387  166.3199  111.6424 C   0  0  0  0  0  0  0  0  0  0  0  0
  171.0984  164.5969  110.0762 C   0  0  1  0  0  0  0  0  0  0  0  0
  170.8154  163.6911  111.2251 C   0  0  0  0  0  0  0  0  0  0  0  0
  171.9473  162.8282  111.6678 C   0  0  0  0  0  0  0  0  0  0  0  0
  173.3020  163.4385  111.5524 C   0  0  2  0  0  0  0  0  0  0  0  0
  173.6987  164.0407  112.9012 C   0  0  0  0  0  0  0  0  0  0  0  0
  173.4338  164.5386  110.5501 C   0  0  2  0  0  0  0  0  0  0  0  0
  174.7436  165.1532  110.7749 C   0  0  0  0  0  0  0  0  0  0  0  0
  175.0325  166.3548  110.8872 O   0  0  0  0  0  0  0  0  0  0  0  0
  175.8530  164.2005  110.8789 C   0  0  0  0  0  0  0  0  0  0  0  0
  175.6537  162.9111  111.0840 C   0  0  0  0  0  0  0  0  0  0  0  0
  176.8140  161.9706  111.1849 C   0  0  2  0  0  0  0  0  0  0  0  0
  176.7742  160.8882  110.1701 C   0  0  0  0  0  0  0  0  0  0  0  0
  177.9096  159.9105  110.3473 C   0  0  2  0  0  0  0  0  0  0  0  0
  177.5407  158.6735  109.5078 C   0  0  0  0  0  0  0  0  0  0  0  0
  178.0325  159.4183  111.7552 C   0  0  0  0  0  0  0  0  0  0  0  0
  177.8996  160.4702  112.7847 C   0  0  0  0  0  0  0  0  0  0  0  0
  176.7703  161.4510  112.5830 C   0  0  1  0  0  0  0  0  0  0  0  0
  177.0878  162.5909  113.5626 C   0  0  0  0  0  0  0  0  0  0  0  0
  175.4843  160.7850  112.8615 C   0  0  0  0  0  0  0  0  0  0  0  0
  174.2274  161.3192  112.3332 C   0  0  0  0  0  0  0  0  0  0  0  0
  174.2972  162.3396  111.2295 C   0  0  1  0  0  0  0  0  0  0  0  0
  173.8543  161.7353  109.8920 C   0  0  0  0  0  0  0  0  0  0  0  0
  179.1572  160.4342  109.8060 C   0  0  0  0  0  0  0  0  0  0  0  0
  179.1786  161.5743  109.0288 O   0  0  0  0  0  0  0  0  0  0  0  0
  180.2872  159.8870  110.0108 O   0  0  0  0  0  0  0  0  0  0  0  0
  169.8619  165.2880  109.6443 C   0  0  0  0  0  0  0  0  0  0  0  0
  168.8553  165.4895  110.7865 C   0  0  0  0  0  0  0  0  0  0  0  0
  169.1051  164.2986  108.7266 C   0  0  0  0  0  0  0  0  0  0  0  0
  168.9910  167.4314  109.2462 O   0  0  0  0  0  0  0  0  0  0  0  0
  169.1657  168.7943  109.2989 C   0  0  0  0  0  0  0  0  0  0  0  0
  168.5957  169.4067  110.2392 O   0  0  0  0  0  0  0  0  0  0  0  0
  170.0002  169.4672  108.2644 C   0  0  0  0  0  0  0  0  0  0  0  0
  170.9631  168.5032  107.6202 C   0  0  0  0  0  0  0  0  0  0  0  0
  171.9896  168.1118  108.6076 C   0  0  0  0  0  0  0  0  0  0  0  0
  172.8805  167.1062  108.2826 O   0  0  0  0  0  0  0  0  0  0  0  0
  172.0389  168.6996  109.7276 O   0  0  0  0  0  0  0  0  0  0  0  0
  1  2  1  0
  2  3  1  0
  3  4  1  0
  4  5  1  1
  4  6  1  0
  6  7  1  1
  7  8  1  0
  8  9  1  0
  9 10  1  1
  9 11  1  0
 11 12  1  1
 12 13  2  0
 12 14  1  0
 14 15  2  0
 15 16  1  0
 16 17  1  6
 17 18  1  0
 18 19  1  6
 18 20  1  0
 20 21  1  0
 21 22  1  0
 22 23  1  1
 22 24  1  0
 24 25  1  0
 25 26  1  0
 26 27  1  6
 18 28  1  0
 28 29  1  0
 28 30  2  0
  6 31  1  0
 31 32  1  0
 31 33  1  0
  1 34  1  1
 34 35  1  0
 35 36  2  0
 35 37  1  0
 37 38  1  0
 38 39  1  0
 39 40  1  0
 39 41  2  0
 31  1  1  0
 11  4  1  0
 26 15  1  0
 26  9  1  0
 22 16  1  0
M  END
$$$$
