
     RDKit          3D

 41 45  0  0  0  0  0  0  0  0999 V2000
  135.0456  164.7675  153.1347 C   0  0  1  0  0  0  0  0  0  0  0  0
  135.4391  163.7172  154.0980 C   0  0  0  0  0  0  0  0  0  0  0  0
  134.4311  162.6208  154.3267 C   0  0  0  0  0  0  0  0  0  0  0  0
  133.0277  163.1446  154.5554 C   0  0  1  0  0  0  0  0  0  0  0  0
  133.0645  163.9080  155.8432 C   0  0  0  0  0  0  0  0  0  0  0  0
  132.6525  163.9907  153.3675 C   0  0  1  0  0  0  0  0  0  0  0  0
  131.2952  164.5596  153.6013 C   0  0  0  0  0  0  0  0  0  0  0  0
  130.2103  163.5702  153.8582 C   0  0  0  0  0  0  0  0  0  0  0  0
  130.6184  162.3535  154.6159 C   0  0  2  0  0  0  0  0  0  0  0  0
  130.3009  162.5545  156.0985 C   0  0  0  0  0  0  0  0  0  0  0  0
  132.0686  162.0018  154.5444 C   0  0  2  0  0  0  0  0  0  0  0  0
  132.2928  160.9512  155.5394 C   0  0  0  0  0  0  0  0  0  0  0  0
  133.1770  160.8742  156.4067 O   0  0  0  0  0  0  0  0  0  0  0  0
  131.3289  159.8479  155.4870 C   0  0  0  0  0  0  0  0  0  0  0  0
  130.1831  159.9474  154.8379 C   0  0  0  0  0  0  0  0  0  0  0  0
  129.2250  158.7974  154.8088 C   0  0  2  0  0  0  0  0  0  0  0  0
  128.9205  158.3298  153.4334 C   0  0  0  0  0  0  0  0  0  0  0  0
  127.8918  157.2261  153.4307 C   0  0  2  0  0  0  0  0  0  0  0  0
  127.3995  157.1070  151.9766 C   0  0  0  0  0  0  0  0  0  0  0  0
  126.6789  157.5661  154.2388 C   0  0  0  0  0  0  0  0  0  0  0  0
  126.9701  158.1947  155.5442 C   0  0  0  0  0  0  0  0  0  0  0  0
  128.0144  159.2842  155.5328 C   0  0  1  0  0  0  0  0  0  0  0  0
  128.3541  159.4899  157.0168 C   0  0  0  0  0  0  0  0  0  0  0  0
  127.4608  160.4902  154.8895 C   0  0  0  0  0  0  0  0  0  0  0  0
  128.3401  161.5229  154.3379 C   0  0  0  0  0  0  0  0  0  0  0  0
  129.7898  161.1815  154.1236 C   0  0  1  0  0  0  0  0  0  0  0  0
  130.1045  161.0271  152.6311 C   0  0  0  0  0  0  0  0  0  0  0  0
  128.4825  155.9420  153.7854 C   0  0  0  0  0  0  0  0  0  0  0  0
  129.8303  155.7012  153.6134 O   0  0  0  0  0  0  0  0  0  0  0  0
  127.8088  154.9772  154.2688 O   0  0  0  0  0  0  0  0  0  0  0  0
  133.6031  165.0593  152.9830 C   0  0  0  0  0  0  0  0  0  0  0  0
  133.2365  166.4301  153.5703 C   0  0  0  0  0  0  0  0  0  0  0  0
  133.4016  165.3001  151.4680 C   0  0  0  0  0  0  0  0  0  0  0  0
  135.6781  165.9822  153.5776 O   0  0  0  0  0  0  0  0  0  0  0  0
  136.8712  166.0098  154.2604 C   0  0  0  0  0  0  0  0  0  0  0  0
  137.5392  167.0748  154.1993 O   0  0  0  0  0  0  0  0  0  0  0  0
  137.3086  164.8062  155.0216 C   0  0  0  0  0  0  0  0  0  0  0  0
  138.0161  165.1874  156.2967 C   0  0  0  0  0  0  0  0  0  0  0  0
  137.0199  165.6561  157.2815 C   0  0  0  0  0  0  0  0  0  0  0  0
  137.3291  165.5917  158.6271 O   0  0  0  0  0  0  0  0  0  0  0  0
  135.9071  166.1076  156.8816 O   0  0  0  0  0  0  0  0  0  0  0  0
  1  2  1  0
  2  3  1  0
  3  4  1  0
  4  5  1  1
  4  6  1  0
  6  7  1  1
  7  8  1  0
  8  9  1  0
  9 10  1  1
  9 11  1  0
 11 12  1  1
 12 13  2  0
 12 14  1  0
 14 15  2  0
 15 16  1  0
 16 17  1  6
 17 18  1  0
 18 19  1  6
 18 20  1  0
 20 21  1  0
 21 22  1  0
 22 23  1  1
 22 24  1  0
 24 25  1  0
 25 26  1  0
 26 27  1  6
 18 28  1  0
 28 29  1  0
 28 30  2  0
  6 31  1  0
 31 32  1  0
 31 33  1  0
  1 34  1  1
 34 35  1  0
 35 36  2  0
 35 37  1  0
 37 38  1  0
 38 39  1  0
 39 40  1  0
 39 41  2  0
 31  1  1  0
 11  4  1  0
 26 15  1  0
 26  9  1  0
 22 16  1  0
M  END
$$$$
