
     RDKit          3D

 41 45  0  0  0  0  0  0  0  0999 V2000
  173.9886  166.8985  107.6432 C   0  0  1  0  0  0  0  0  0  0  0  0
  174.0851  165.4928  107.1955 C   0  0  0  0  0  0  0  0  0  0  0  0
  173.8279  164.4460  108.2483 C   0  0  0  0  0  0  0  0  0  0  0  0
  174.5703  164.7122  109.5421 C   0  0  1  0  0  0  0  0  0  0  0  0
  176.0292  164.5904  109.2270 C   0  0  0  0  0  0  0  0  0  0  0  0
  174.1740  166.0817  110.0272 C   0  0  1  0  0  0  0  0  0  0  0  0
  174.9377  166.3827  111.2710 C   0  0  0  0  0  0  0  0  0  0  0  0
  174.7784  165.4053  112.3849 C   0  0  0  0  0  0  0  0  0  0  0  0
  174.6128  163.9831  111.9714 C   0  0  2  0  0  0  0  0  0  0  0  0
  175.9715  163.2828  112.0238 C   0  0  0  0  0  0  0  0  0  0  0  0
  174.0858  163.7672  110.5902 C   0  0  2  0  0  0  0  0  0  0  0  0
  174.2390  162.3395  110.3036 C   0  0  0  0  0  0  0  0  0  0  0  0
  174.7243  161.7929  109.3008 O   0  0  0  0  0  0  0  0  0  0  0  0
  173.7450  161.4505  111.3595 C   0  0  0  0  0  0  0  0  0  0  0  0
  173.4953  161.8839  112.5817 C   0  0  0  0  0  0  0  0  0  0  0  0
  172.9922  160.9435  113.6323 C   0  0  2  0  0  0  0  0  0  0  0  0
  171.6820  161.3517  114.1979 C   0  0  0  0  0  0  0  0  0  0  0  0
  171.2395  160.4324  115.3094 C   0  0  2  0  0  0  0  0  0  0  0  0
  170.1004  161.1666  116.0405 C   0  0  0  0  0  0  0  0  0  0  0  0
  172.3044  160.2175  116.3386 C   0  0  0  0  0  0  0  0  0  0  0  0
  173.6532  159.9808  115.7829 C   0  0  0  0  0  0  0  0  0  0  0  0
  174.0735  160.8970  114.6596 C   0  0  1  0  0  0  0  0  0  0  0  0
  175.3143  160.2131  114.0658 C   0  0  0  0  0  0  0  0  0  0  0  0
  174.3513  162.2412  115.1986 C   0  0  0  0  0  0  0  0  0  0  0  0
  174.3379  163.4204  114.3306 C   0  0  0  0  0  0  0  0  0  0  0  0
  173.7028  163.2955  112.9721 C   0  0  1  0  0  0  0  0  0  0  0  0
  172.3633  164.0393  112.9199 C   0  0  0  0  0  0  0  0  0  0  0  0
  170.6794  159.1922  114.7881 C   0  0  0  0  0  0  0  0  0  0  0  0
  170.5481  158.9797  113.4309 O   0  0  0  0  0  0  0  0  0  0  0  0
  170.2832  158.2411  115.5344 O   0  0  0  0  0  0  0  0  0  0  0  0
  174.3015  167.1948  109.0586 C   0  0  0  0  0  0  0  0  0  0  0  0
  175.6226  167.9654  109.1986 C   0  0  0  0  0  0  0  0  0  0  0  0
  173.2656  168.2636  109.4812 C   0  0  0  0  0  0  0  0  0  0  0  0
  174.9199  167.6456  106.8393 O   0  0  0  0  0  0  0  0  0  0  0  0
  175.1239  167.4099  105.5001 C   0  0  0  0  0  0  0  0  0  0  0  0
  176.2962  167.5581  105.0668 O   0  0  0  0  0  0  0  0  0  0  0  0
  173.9752  167.0014  104.6440 C   0  0  0  0  0  0  0  0  0  0  0  0
  173.0604  168.1644  104.3573 C   0  0  0  0  0  0  0  0  0  0  0  0
  171.8289  168.0210  105.1604 C   0  0  0  0  0  0  0  0  0  0  0  0
  171.3642  169.1113  105.8716 O   0  0  0  0  0  0  0  0  0  0  0  0
  171.2214  166.9108  105.1840 O   0  0  0  0  0  0  0  0  0  0  0  0
  1  2  1  0
  2  3  1  0
  3  4  1  0
  4  5  1  6
  4  6  1  0
  6  7  1  1
  7  8  1  0
  8  9  1  0
  9 10  1  6
  9 11  1  0
 11 12  1  6
 12 13  2  0
 12 14  1  0
 14 15  2  0
 15 16  1  0
 16 17  1  1
 17 18  1  0
 18 19  1  1
 18 20  1  0
 20 21  1  0
 21 22  1  0
 22 23  1  6
 22 24  1  0
 24 25  1  0
 25 26  1  0
 26 27  1  1
 18 28  1  0
 28 29  1  0
 28 30  2  0
  6 31  1  0
 31 32  1  0
 31 33  1  0
  1 34  1  6
 34 35  1  0
 35 36  2  0
 35 37  1  0
 37 38  1  0
 38 39  1  0
 39 40  1  0
 39 41  2  0
 31  1  1  0
 11  4  1  0
 26 15  1  0
 26  9  1  0
 22 16  1  0
M  END
$$$$
