
     RDKit          3D

 41 45  0  0  0  0  0  0  0  0999 V2000
  187.1753  160.8387  134.2429 C   0  0  1  0  0  0  0  0  0  0  0  0
  186.6570  159.7113  135.0468 C   0  0  0  0  0  0  0  0  0  0  0  0
  185.9763  160.0808  136.3393 C   0  0  0  0  0  0  0  0  0  0  0  0
  186.7631  161.0847  137.1573 C   0  0  1  0  0  0  0  0  0  0  0  0
  188.0272  160.3969  137.5713 C   0  0  0  0  0  0  0  0  0  0  0  0
  186.9954  162.2989  136.2971 C   0  0  1  0  0  0  0  0  0  0  0  0
  187.8163  163.2750  137.0679 C   0  0  0  0  0  0  0  0  0  0  0  0
  187.2539  163.7060  138.3793 C   0  0  0  0  0  0  0  0  0  0  0  0
  186.4919  162.6639  139.1238 C   0  0  2  0  0  0  0  0  0  0  0  0
  187.4173  161.9956  140.1418 C   0  0  0  0  0  0  0  0  0  0  0  0
  185.9210  161.5612  138.2930 C   0  0  2  0  0  0  0  0  0  0  0  0
  185.4446  160.5389  139.2268 C   0  0  0  0  0  0  0  0  0  0  0  0
  185.6459  159.3145  139.2122 O   0  0  0  0  0  0  0  0  0  0  0  0
  184.6180  161.0537  140.3227 C   0  0  0  0  0  0  0  0  0  0  0  0
  184.5811  162.3374  140.6305 C   0  0  0  0  0  0  0  0  0  0  0  0
  183.7241  162.8231  141.7579 C   0  0  2  0  0  0  0  0  0  0  0  0
  182.7179  163.8276  141.3315 C   0  0  0  0  0  0  0  0  0  0  0  0
  181.9248  164.3586  142.5000 C   0  0  2  0  0  0  0  0  0  0  0  0
  181.2135  165.6257  141.9907 C   0  0  0  0  0  0  0  0  0  0  0  0
  182.7954  164.8130  143.6292 C   0  0  0  0  0  0  0  0  0  0  0  0
  183.9103  163.8971  143.9489 C   0  0  0  0  0  0  0  0  0  0  0  0
  184.6819  163.3605  142.7681 C   0  0  1  0  0  0  0  0  0  0  0  0
  185.5069  162.2056  143.3560 C   0  0  0  0  0  0  0  0  0  0  0  0
  185.5120  164.4353  142.1929 C   0  0  0  0  0  0  0  0  0  0  0  0
  186.0056  164.3536  140.8168 C   0  0  0  0  0  0  0  0  0  0  0  0
  185.3763  163.3446  139.8948 C   0  0  1  0  0  0  0  0  0  0  0  0
  184.4870  164.0311  138.8517 C   0  0  0  0  0  0  0  0  0  0  0  0
  180.8848  163.4240  142.9108 C   0  0  0  0  0  0  0  0  0  0  0  0
  181.1946  162.2490  143.5646 O   0  0  0  0  0  0  0  0  0  0  0  0
  179.6466  163.6257  142.6994 O   0  0  0  0  0  0  0  0  0  0  0  0
  187.5876  162.0653  134.9600 C   0  0  0  0  0  0  0  0  0  0  0  0
  189.1120  162.2512  134.9367 C   0  0  0  0  0  0  0  0  0  0  0  0
  187.1130  163.2318  134.0612 C   0  0  0  0  0  0  0  0  0  0  0  0
  188.3361  160.3437  133.5504 O   0  0  0  0  0  0  0  0  0  0  0  0
  188.3098  159.2575  132.7078 C   0  0  0  0  0  0  0  0  0  0  0  0
  188.1539  159.4907  131.4809 O   0  0  0  0  0  0  0  0  0  0  0  0
  188.4619  157.8873  133.2726 C   0  0  0  0  0  0  0  0  0  0  0  0
  187.1227  157.2499  133.5406 C   0  0  0  0  0  0  0  0  0  0  0  0
  187.0255  155.9887  132.7778 C   0  0  0  0  0  0  0  0  0  0  0  0
  188.0639  155.6344  131.9372 O   0  0  0  0  0  0  0  0  0  0  0  0
  186.0013  155.2560  132.9054 O   0  0  0  0  0  0  0  0  0  0  0  0
  1  2  1  0
  2  3  1  0
  3  4  1  0
  4  5  1  1
  4  6  1  0
  6  7  1  1
  7  8  1  0
  8  9  1  0
  9 10  1  1
  9 11  1  0
 11 12  1  1
 12 13  2  0
 12 14  1  0
 14 15  2  0
 15 16  1  0
 16 17  1  6
 17 18  1  0
 18 19  1  6
 18 20  1  0
 20 21  1  0
 21 22  1  0
 22 23  1  1
 22 24  1  0
 24 25  1  0
 25 26  1  0
 26 27  1  6
 18 28  1  0
 28 29  1  0
 28 30  2  0
  6 31  1  0
 31 32  1  0
 31 33  1  0
  1 34  1  1
 34 35  1  0
 35 36  2  0
 35 37  1  0
 37 38  1  0
 38 39  1  0
 39 40  1  0
 39 41  2  0
 31  1  1  0
 11  4  1  0
 26 15  1  0
 26  9  1  0
 22 16  1  0
M  END
$$$$
