
     RDKit          3D

 41 45  0  0  0  0  0  0  0  0999 V2000
  169.2426  146.0335  130.2202 C   0  0  1  0  0  0  0  0  0  0  0  0
  168.0338  146.3582  131.0072 C   0  0  0  0  0  0  0  0  0  0  0  0
  166.9305  147.0626  130.2609 C   0  0  0  0  0  0  0  0  0  0  0  0
  167.4283  148.2246  129.4255 C   0  0  1  0  0  0  0  0  0  0  0  0
  167.9539  149.2445  130.3878 C   0  0  0  0  0  0  0  0  0  0  0  0
  168.4751  147.6971  128.4801 C   0  0  1  0  0  0  0  0  0  0  0  0
  169.0157  148.8378  127.6881 C   0  0  0  0  0  0  0  0  0  0  0  0
  168.0140  149.6269  126.9164 C   0  0  0  0  0  0  0  0  0  0  0  0
  166.6771  149.7698  127.5593 C   0  0  2  0  0  0  0  0  0  0  0  0
  166.6205  151.1005  128.3111 C   0  0  0  0  0  0  0  0  0  0  0  0
  166.3204  148.7137  128.5541 C   0  0  2  0  0  0  0  0  0  0  0  0
  165.1085  149.1740  129.2349 C   0  0  0  0  0  0  0  0  0  0  0  0
  164.8668  149.2202  130.4512 O   0  0  0  0  0  0  0  0  0  0  0  0
  164.0468  149.6405  128.3380 C   0  0  0  0  0  0  0  0  0  0  0  0
  164.2765  149.9316  127.0705 C   0  0  0  0  0  0  0  0  0  0  0  0
  163.1647  150.4059  126.1872 C   0  0  2  0  0  0  0  0  0  0  0  0
  162.9499  149.5343  125.0051 C   0  0  0  0  0  0  0  0  0  0  0  0
  161.8802  150.0804  124.0920 C   0  0  2  0  0  0  0  0  0  0  0  0
  162.0253  149.3170  122.7626 C   0  0  0  0  0  0  0  0  0  0  0  0
  162.0927  151.5223  123.7524 C   0  0  0  0  0  0  0  0  0  0  0  0
  162.4784  152.3705  124.8995 C   0  0  0  0  0  0  0  0  0  0  0  0
  163.5364  151.8019  125.8134 C   0  0  1  0  0  0  0  0  0  0  0  0
  163.4738  152.6989  127.0589 C   0  0  0  0  0  0  0  0  0  0  0  0
  164.8450  151.8387  125.1344 C   0  0  0  0  0  0  0  0  0  0  0  0
  165.9443  150.9731  125.5661 C   0  0  0  0  0  0  0  0  0  0  0  0
  165.6227  149.8131  126.4690 C   0  0  1  0  0  0  0  0  0  0  0  0
  165.7269  148.4826  125.7146 C   0  0  0  0  0  0  0  0  0  0  0  0
  160.5446  149.7962  124.6011 C   0  0  0  0  0  0  0  0  0  0  0  0
  159.4200  150.3130  123.9909 O   0  0  0  0  0  0  0  0  0  0  0  0
  160.3306  149.0663  125.6209 O   0  0  0  0  0  0  0  0  0  0  0  0
  169.5793  146.9122  129.0785 C   0  0  0  0  0  0  0  0  0  0  0  0
  170.8318  147.7549  129.3607 C   0  0  0  0  0  0  0  0  0  0  0  0
  170.0847  145.9546  127.9733 C   0  0  0  0  0  0  0  0  0  0  0  0
  170.3509  146.0887  131.1370 O   0  0  0  0  0  0  0  0  0  0  0  0
  170.2159  146.3911  132.4715 C   0  0  0  0  0  0  0  0  0  0  0  0
  169.9524  145.4371  133.2490 O   0  0  0  0  0  0  0  0  0  0  0  0
  170.3824  147.8005  132.9247 C   0  0  0  0  0  0  0  0  0  0  0  0
  171.5759  147.9501  133.8329 C   0  0  0  0  0  0  0  0  0  0  0  0
  172.7245  148.4430  133.0457 C   0  0  0  0  0  0  0  0  0  0  0  0
  172.5017  149.3769  132.0514 O   0  0  0  0  0  0  0  0  0  0  0  0
  173.8870  148.0072  133.2924 O   0  0  0  0  0  0  0  0  0  0  0  0
  1  2  1  0
  2  3  1  0
  3  4  1  0
  4  5  1  1
  4  6  1  0
  6  7  1  1
  7  8  1  0
  8  9  1  0
  9 10  1  1
  9 11  1  0
 11 12  1  1
 12 13  2  0
 12 14  1  0
 14 15  2  0
 15 16  1  0
 16 17  1  6
 17 18  1  0
 18 19  1  6
 18 20  1  0
 20 21  1  0
 21 22  1  0
 22 23  1  1
 22 24  1  0
 24 25  1  0
 25 26  1  0
 26 27  1  6
 18 28  1  0
 28 29  1  0
 28 30  2  0
  6 31  1  0
 31 32  1  0
 31 33  1  0
  1 34  1  1
 34 35  1  0
 35 36  2  0
 35 37  1  0
 37 38  1  0
 38 39  1  0
 39 40  1  0
 39 41  2  0
 31  1  1  0
 11  4  1  0
 26 15  1  0
 26  9  1  0
 22 16  1  0
M  END
$$$$
