
     RDKit          3D

 41 45  0  0  0  0  0  0  0  0999 V2000
  138.3136  161.7918  156.9607 C   0  0  1  0  0  0  0  0  0  0  0  0
  137.3650  160.6614  157.0509 C   0  0  0  0  0  0  0  0  0  0  0  0
  136.0525  160.8428  156.3333 C   0  0  0  0  0  0  0  0  0  0  0  0
  135.4077  162.1861  156.6085 C   0  0  1  0  0  0  0  0  0  0  0  0
  135.0551  162.1973  158.0639 C   0  0  0  0  0  0  0  0  0  0  0  0
  136.3927  163.2578  156.2221 C   0  0  1  0  0  0  0  0  0  0  0  0
  135.7954  164.5860  156.5382 C   0  0  0  0  0  0  0  0  0  0  0  0
  134.4810  164.8773  155.8985 C   0  0  0  0  0  0  0  0  0  0  0  0
  133.5758  163.7054  155.7307 C   0  0  2  0  0  0  0  0  0  0  0  0
  132.5941  163.6566  156.9025 C   0  0  0  0  0  0  0  0  0  0  0  0
  134.2449  162.3701  155.6919 C   0  0  2  0  0  0  0  0  0  0  0  0
  133.1811  161.3676  155.7769 C   0  0  0  0  0  0  0  0  0  0  0  0
  133.1036  160.3732  156.5151 O   0  0  0  0  0  0  0  0  0  0  0  0
  132.0628  161.5875  154.8548 C   0  0  0  0  0  0  0  0  0  0  0  0
  131.8707  162.7448  154.2482 C   0  0  0  0  0  0  0  0  0  0  0  0
  130.7156  162.9293  153.3138 C   0  0  2  0  0  0  0  0  0  0  0  0
  131.1337  163.3126  151.9422 C   0  0  0  0  0  0  0  0  0  0  0  0
  129.9481  163.5709  151.0455 C   0  0  2  0  0  0  0  0  0  0  0  0
  130.5003  164.3089  149.8121 C   0  0  0  0  0  0  0  0  0  0  0  0
  128.9529  164.5045  151.6600 C   0  0  0  0  0  0  0  0  0  0  0  0
  128.6588  164.2351  153.0830 C   0  0  0  0  0  0  0  0  0  0  0  0
  129.8542  163.9606  153.9625 C   0  0  1  0  0  0  0  0  0  0  0  0
  129.2450  163.3828  155.2490 C   0  0  0  0  0  0  0  0  0  0  0  0
  130.6009  165.2130  154.1832 C   0  0  0  0  0  0  0  0  0  0  0  0
  132.0047  165.1918  154.5994 C   0  0  0  0  0  0  0  0  0  0  0  0
  132.7671  163.9018  154.4619 C   0  0  1  0  0  0  0  0  0  0  0  0
  133.7789  163.9798  153.3128 C   0  0  0  0  0  0  0  0  0  0  0  0
  129.3570  162.3277  150.5670 C   0  0  0  0  0  0  0  0  0  0  0  0
  128.2388  162.3305  149.7584 O   0  0  0  0  0  0  0  0  0  0  0  0
  129.8239  161.1802  150.8560 O   0  0  0  0  0  0  0  0  0  0  0  0
  137.7534  163.1514  156.7970 C   0  0  0  0  0  0  0  0  0  0  0  0
  137.9384  163.9980  158.0649 C   0  0  0  0  0  0  0  0  0  0  0  0
  138.7051  163.8583  155.8028 C   0  0  0  0  0  0  0  0  0  0  0  0
  139.0656  161.7898  158.1880 O   0  0  0  0  0  0  0  0  0  0  0  0
  138.8120  160.9298  159.2305 C   0  0  0  0  0  0  0  0  0  0  0  0
  139.1659  159.7313  159.0806 O   0  0  0  0  0  0  0  0  0  0  0  0
  138.1447  161.4436  160.4594 C   0  0  0  0  0  0  0  0  0  0  0  0
  139.0103  161.2513  161.6781 C   0  0  0  0  0  0  0  0  0  0  0  0
  139.9348  162.3967  161.8010 C   0  0  0  0  0  0  0  0  0  0  0  0
  140.3422  163.0527  160.6546 O   0  0  0  0  0  0  0  0  0  0  0  0
  140.3359  162.7589  162.9456 O   0  0  0  0  0  0  0  0  0  0  0  0
  1  2  1  0
  2  3  1  0
  3  4  1  0
  4  5  1  1
  4  6  1  0
  6  7  1  1
  7  8  1  0
  8  9  1  0
  9 10  1  1
  9 11  1  0
 11 12  1  1
 12 13  2  0
 12 14  1  0
 14 15  2  0
 15 16  1  0
 16 17  1  6
 17 18  1  0
 18 19  1  6
 18 20  1  0
 20 21  1  0
 21 22  1  0
 22 23  1  1
 22 24  1  0
 24 25  1  0
 25 26  1  0
 26 27  1  6
 18 28  1  0
 28 29  1  0
 28 30  2  0
  6 31  1  0
 31 32  1  0
 31 33  1  0
  1 34  1  1
 34 35  1  0
 35 36  2  0
 35 37  1  0
 37 38  1  0
 38 39  1  0
 39 40  1  0
 39 41  2  0
 31  1  1  0
 11  4  1  0
 26 15  1  0
 26  9  1  0
 22 16  1  0
M  END
$$$$
