
     RDKit          3D

 41 45  0  0  0  0  0  0  0  0999 V2000
  113.8473  167.7252  140.2830 C   0  0  1  0  0  0  0  0  0  0  0  0
  113.1318  168.4293  141.3684 C   0  0  0  0  0  0  0  0  0  0  0  0
  113.9229  168.6794  142.6262 C   0  0  0  0  0  0  0  0  0  0  0  0
  114.6769  167.4553  143.1049 C   0  0  1  0  0  0  0  0  0  0  0  0
  113.6424  166.4456  143.4955 C   0  0  0  0  0  0  0  0  0  0  0  0
  115.5693  166.9958  141.9823 C   0  0  1  0  0  0  0  0  0  0  0  0
  116.2780  165.7590  142.4169 C   0  0  0  0  0  0  0  0  0  0  0  0
  117.0843  165.8755  143.6651 C   0  0  0  0  0  0  0  0  0  0  0  0
  116.5281  166.7865  144.7051 C   0  0  2  0  0  0  0  0  0  0  0  0
  115.7306  165.9646  145.7188 C   0  0  0  0  0  0  0  0  0  0  0  0
  115.6015  167.8479  144.2081 C   0  0  2  0  0  0  0  0  0  0  0  0
  114.9867  168.4527  145.3916 C   0  0  0  0  0  0  0  0  0  0  0  0
  113.7887  168.6865  145.6149 O   0  0  0  0  0  0  0  0  0  0  0  0
  115.9344  168.8257  146.4460 C   0  0  0  0  0  0  0  0  0  0  0  0
  117.1712  168.3635  146.4735 C   0  0  0  0  0  0  0  0  0  0  0  0
  118.1084  168.7683  147.5685 C   0  0  2  0  0  0  0  0  0  0  0  0
  119.3353  169.4355  147.0659 C   0  0  0  0  0  0  0  0  0  0  0  0
  120.2967  169.7581  148.1830 C   0  0  2  0  0  0  0  0  0  0  0  0
  121.6419  170.0807  147.5068 C   0  0  0  0  0  0  0  0  0  0  0  0
  120.5648  168.5833  149.0705 C   0  0  0  0  0  0  0  0  0  0  0  0
  119.3622  167.8068  149.4373 C   0  0  0  0  0  0  0  0  0  0  0  0
  118.4017  167.5082  148.3121 C   0  0  1  0  0  0  0  0  0  0  0  0
  117.1293  167.0276  149.0262 C   0  0  0  0  0  0  0  0  0  0  0  0
  118.9889  166.4907  147.4206 C   0  0  0  0  0  0  0  0  0  0  0  0
  118.5179  166.3311  146.0434 C   0  0  0  0  0  0  0  0  0  0  0  0
  117.6846  167.4321  145.4454 C   0  0  1  0  0  0  0  0  0  0  0  0
  118.4814  168.2195  144.3988 C   0  0  0  0  0  0  0  0  0  0  0  0
  119.8904  170.9531  148.9114 C   0  0  0  0  0  0  0  0  0  0  0  0
  120.5711  172.1451  148.7696 O   0  0  0  0  0  0  0  0  0  0  0  0
  118.9000  170.9771  149.7095 O   0  0  0  0  0  0  0  0  0  0  0  0
  114.9287  166.7896  140.6630 C   0  0  0  0  0  0  0  0  0  0  0  0
  114.5299  165.3282  140.4100 C   0  0  0  0  0  0  0  0  0  0  0  0
  116.0336  167.0043  139.6015 C   0  0  0  0  0  0  0  0  0  0  0  0
  112.8564  166.9596  139.5733 O   0  0  0  0  0  0  0  0  0  0  0  0
  111.6404  167.4700  139.1839 C   0  0  0  0  0  0  0  0  0  0  0  0
  111.1453  167.0159  138.1196 O   0  0  0  0  0  0  0  0  0  0  0  0
  110.9816  168.5131  140.0189 C   0  0  0  0  0  0  0  0  0  0  0  0
  109.4965  168.2786  140.1235 C   0  0  0  0  0  0  0  0  0  0  0  0
  108.9151  168.2431  138.7661 C   0  0  0  0  0  0  0  0  0  0  0  0
  109.3791  169.1344  137.8169 O   0  0  0  0  0  0  0  0  0  0  0  0
  108.0087  167.4026  138.4938 O   0  0  0  0  0  0  0  0  0  0  0  0
  1  2  1  0
  2  3  1  0
  3  4  1  0
  4  5  1  1
  4  6  1  0
  6  7  1  1
  7  8  1  0
  8  9  1  0
  9 10  1  1
  9 11  1  0
 11 12  1  1
 12 13  2  0
 12 14  1  0
 14 15  2  0
 15 16  1  0
 16 17  1  6
 17 18  1  0
 18 19  1  6
 18 20  1  0
 20 21  1  0
 21 22  1  0
 22 23  1  1
 22 24  1  0
 24 25  1  0
 25 26  1  0
 26 27  1  6
 18 28  1  0
 28 29  1  0
 28 30  2  0
  6 31  1  0
 31 32  1  0
 31 33  1  0
  1 34  1  1
 34 35  1  0
 35 36  2  0
 35 37  1  0
 37 38  1  0
 38 39  1  0
 39 40  1  0
 39 41  2  0
 31  1  1  0
 11  4  1  0
 26 15  1  0
 26  9  1  0
 22 16  1  0
M  END
$$$$
