
     RDKit          3D

 62 70  0  0  0  0  0  0  0  0999 V2000
  120.5652  162.5723  140.8794 O   0  0  0  0  0  0  0  0  0  0  0  0
  120.1929  163.3392  141.9982 C   0  0  2  0  0  0  0  0  0  0  0  0
  120.5238  164.7624  141.7536 C   0  0  1  0  0  0  0  0  0  0  0  0
  121.0624  165.0219  140.4935 O   0  0  0  0  0  0  0  0  0  0  0  0
  119.3710  165.6543  142.0993 C   0  0  1  0  0  0  0  0  0  0  0  0
  118.0681  165.3409  141.4698 C   0  0  0  0  0  0  0  0  0  0  0  0
  117.2208  166.5466  141.2314 C   0  0  0  0  0  0  0  0  0  0  0  0
  117.4567  167.3210  140.0869 C   0  0  0  0  0  0  0  0  0  0  0  0
  116.7231  168.4384  139.8291 C   0  0  0  0  0  0  0  0  0  0  0  0
  115.7234  168.8645  140.6675 C   0  0  0  0  0  0  0  0  0  0  0  0
  115.4985  168.0995  141.7884 C   0  0  0  0  0  0  0  0  0  0  0  0
  116.2329  166.9532  142.0755 C   0  0  0  0  0  0  0  0  0  0  0  0
  119.3031  165.7329  143.5386 N   0  0  0  0  0  0  0  0  0  0  0  0
  118.4984  166.7982  144.0655 C   0  0  0  0  0  0  0  0  0  0  0  0
  117.5640  166.3895  145.1341 C   0  0  0  0  0  0  0  0  0  0  0  0
  117.3187  165.0998  145.5223 C   0  0  0  0  0  0  0  0  0  0  0  0
  116.3751  164.8502  146.4939 C   0  0  0  0  0  0  0  0  0  0  0  0
  115.6653  165.8639  147.0892 C   0  0  0  0  0  0  0  0  0  0  0  0
  115.8958  167.1834  146.7107 C   0  0  0  0  0  0  0  0  0  0  0  0
  116.8381  167.4173  145.7455 C   0  0  0  0  0  0  0  0  0  0  0  0
  115.0871  168.2165  147.3241 C   0  0  0  0  0  0  0  0  0  0  0  0
  115.4063  169.4349  147.2419 O   0  0  0  0  0  0  0  0  0  0  0  0
  113.9082  167.8665  148.0399 N   0  0  0  0  0  0  0  0  0  0  0  0
  112.9892  168.8896  148.4008 C   0  0  0  0  0  0  0  0  0  0  0  0
  111.6963  168.6717  148.7858 N   0  0  0  0  0  0  0  0  0  0  0  0
  111.0982  169.8286  149.0644 C   0  0  0  0  0  0  0  0  0  0  0  0
  112.0352  170.8099  148.8514 C   0  0  0  0  0  0  0  0  0  0  0  0
  113.1797  170.1964  148.4457 N   0  0  0  0  0  0  0  0  0  0  0  0
  111.6703  172.1352  149.0727 C   0  0  0  0  0  0  0  0  0  0  0  0
  110.4059  172.4870  149.4952 C   0  0  0  0  0  0  0  0  0  0  0  0
  109.4787  171.4777  149.7015 C   0  0  0  0  0  0  0  0  0  0  0  0
  109.8281  170.1640  149.4865 C   0  0  0  0  0  0  0  0  0  0  0  0
  119.9550  164.9223  144.5408 C   0  0  0  0  0  0  0  0  0  0  0  0
  120.1449  165.4658  145.6588 O   0  0  0  0  0  0  0  0  0  0  0  0
  120.3991  163.5735  144.3866 N   0  0  0  0  0  0  0  0  0  0  0  0
  120.4382  162.8864  145.6883 C   0  0  0  0  0  0  0  0  0  0  0  0
  120.2620  161.4258  145.5639 C   0  0  0  0  0  0  0  0  0  0  0  0
  120.8411  160.5842  146.5116 C   0  0  0  0  0  0  0  0  0  0  0  0
  120.7141  159.2067  146.4253 C   0  0  0  0  0  0  0  0  0  0  0  0
  119.9881  158.6884  145.3634 C   0  0  0  0  0  0  0  0  0  0  0  0
  119.3970  159.5004  144.4003 C   0  0  0  0  0  0  0  0  0  0  0  0
  119.5489  160.8828  144.5218 C   0  0  0  0  0  0  0  0  0  0  0  0
  121.3019  158.2907  147.3742 C   0  0  0  0  0  0  0  0  0  0  0  0
  121.6599  158.7200  148.5092 O   0  0  0  0  0  0  0  0  0  0  0  0
  121.5219  156.9045  147.1440 N   0  0  0  0  0  0  0  0  0  0  0  0
  122.0030  155.9880  148.1209 C   0  0  0  0  0  0  0  0  0  0  0  0
  121.9557  154.6300  147.9688 N   0  0  0  0  0  0  0  0  0  0  0  0
  122.4816  154.0279  149.0433 C   0  0  0  0  0  0  0  0  0  0  0  0
  122.8806  155.0293  149.9144 C   0  0  0  0  0  0  0  0  0  0  0  0
  122.5653  156.2005  149.3032 N   0  0  0  0  0  0  0  0  0  0  0  0
  123.4542  154.6903  151.1086 C   0  0  0  0  0  0  0  0  0  0  0  0
  123.6516  153.3871  151.4805 C   0  0  0  0  0  0  0  0  0  0  0  0
  123.2438  152.4068  150.5908 C   0  0  0  0  0  0  0  0  0  0  0  0
  122.6697  152.6965  149.3937 C   0  0  0  0  0  0  0  0  0  0  0  0
  120.8051  162.7803  143.2541 C   0  0  2  0  0  0  0  0  0  0  0  0
  122.2948  162.6608  143.2152 C   0  0  0  0  0  0  0  0  0  0  0  0
  122.9621  162.4537  144.5011 C   0  0  0  0  0  0  0  0  0  0  0  0
  123.6821  161.2764  144.7516 C   0  0  0  0  0  0  0  0  0  0  0  0
  124.2952  161.0551  145.9537 C   0  0  0  0  0  0  0  0  0  0  0  0
  124.2368  161.9737  146.9748 C   0  0  0  0  0  0  0  0  0  0  0  0
  123.5293  163.1355  146.7350 C   0  0  0  0  0  0  0  0  0  0  0  0
  122.9121  163.3630  145.5311 C   0  0  0  0  0  0  0  0  0  0  0  0
  2  1  1  6
  2  3  1  0
  3  4  1  6
  3  5  1  0
  5  6  1  1
  6  7  1  0
  7  8  2  0
  8  9  1  0
  9 10  2  0
 10 11  1  0
 11 12  2  0
  5 13  1  0
 13 14  1  0
 14 15  1  0
 15 16  2  0
 16 17  1  0
 17 18  2  0
 18 19  1  0
 19 20  2  0
 19 21  1  0
 21 22  2  0
 21 23  1  0
 23 24  1  0
 24 25  2  0
 25 26  1  0
 26 27  2  0
 27 28  1  0
 27 29  1  0
 29 30  2  0
 30 31  1  0
 31 32  2  0
 13 33  1  0
 33 34  2  0
 33 35  1  0
 35 36  1  0
 36 37  1  0
 37 38  2  0
 38 39  1  0
 39 40  2  0
 40 41  1  0
 41 42  2  0
 39 43  1  0
 43 44  2  0
 43 45  1  0
 45 46  1  0
 46 47  2  0
 47 48  1  0
 48 49  2  0
 49 50  1  0
 49 51  1  0
 51 52  2  0
 52 53  1  0
 53 54  2  0
 35 55  1  0
 55 56  1  6
 56 57  1  0
 57 58  2  0
 58 59  1  0
 59 60  2  0
 60 61  1  0
 61 62  2  0
 55  2  1  0
 62 57  1  0
 12  7  1  0
 20 15  1  0
 28 24  1  0
 42 37  1  0
 50 46  1  0
 32 26  1  0
 54 48  1  0
M  END
$$$$
