
     RDKit          3D

 62 70  0  0  0  0  0  0  0  0999 V2000
  205.3150  137.4340  134.0202 O   0  0  0  0  0  0  0  0  0  0  0  0
  204.1411  137.1490  133.2995 C   0  0  2  0  0  0  0  0  0  0  0  0
  203.2097  138.2968  133.3990 C   0  0  1  0  0  0  0  0  0  0  0  0
  203.7083  139.3850  134.1149 O   0  0  0  0  0  0  0  0  0  0  0  0
  202.6661  138.6722  132.0546 C   0  0  1  0  0  0  0  0  0  0  0  0
  203.6521  138.9352  130.9819 C   0  0  0  0  0  0  0  0  0  0  0  0
  203.3574  140.1703  130.1971 C   0  0  0  0  0  0  0  0  0  0  0  0
  204.2966  140.6102  129.2539 C   0  0  0  0  0  0  0  0  0  0  0  0
  204.0844  141.7381  128.5219 C   0  0  0  0  0  0  0  0  0  0  0  0
  202.9516  142.4995  128.6664 C   0  0  0  0  0  0  0  0  0  0  0  0
  202.0352  142.0614  129.5940 C   0  0  0  0  0  0  0  0  0  0  0  0
  202.2268  140.9125  130.3549 C   0  0  0  0  0  0  0  0  0  0  0  0
  201.6844  137.6780  131.6935 N   0  0  0  0  0  0  0  0  0  0  0  0
  200.8057  138.0350  130.6163 C   0  0  0  0  0  0  0  0  0  0  0  0
  201.0658  139.3651  130.0285 C   0  0  0  0  0  0  0  0  0  0  0  0
  202.2769  139.8038  129.5647 C   0  0  0  0  0  0  0  0  0  0  0  0
  202.3983  141.0927  129.0949 C   0  0  0  0  0  0  0  0  0  0  0  0
  201.3333  141.9594  129.0789 C   0  0  0  0  0  0  0  0  0  0  0  0
  200.0920  141.5372  129.5463 C   0  0  0  0  0  0  0  0  0  0  0  0
  199.9848  140.2528  130.0083 C   0  0  0  0  0  0  0  0  0  0  0  0
  199.0098  142.4995  129.5625 C   0  0  0  0  0  0  0  0  0  0  0  0
  197.8924  142.2215  130.0795 O   0  0  0  0  0  0  0  0  0  0  0  0
  199.1933  143.7869  128.9852 N   0  0  0  0  0  0  0  0  0  0  0  0
  200.2119  144.6359  129.4985 C   0  0  0  0  0  0  0  0  0  0  0  0
  200.6848  145.7512  128.8663 N   0  0  0  0  0  0  0  0  0  0  0  0
  201.6285  146.3329  129.6044 C   0  0  0  0  0  0  0  0  0  0  0  0
  201.7602  145.5678  130.7373 C   0  0  0  0  0  0  0  0  0  0  0  0
  200.8769  144.5380  130.6360 N   0  0  0  0  0  0  0  0  0  0  0  0
  202.6920  145.9564  131.6960 C   0  0  0  0  0  0  0  0  0  0  0  0
  203.4798  147.0774  131.5411 C   0  0  0  0  0  0  0  0  0  0  0  0
  203.3282  147.8314  130.3880 C   0  0  0  0  0  0  0  0  0  0  0  0
  202.4098  147.4573  129.4336 C   0  0  0  0  0  0  0  0  0  0  0  0
  201.4215  136.3833  132.2774 C   0  0  0  0  0  0  0  0  0  0  0  0
  200.2535  135.9378  132.1401 O   0  0  0  0  0  0  0  0  0  0  0  0
  202.3527  135.5658  132.9878 N   0  0  0  0  0  0  0  0  0  0  0  0
  201.9718  134.1462  132.9002 C   0  0  0  0  0  0  0  0  0  0  0  0
  202.8640  133.2704  133.6854 C   0  0  0  0  0  0  0  0  0  0  0  0
  202.7878  131.8892  133.5167 C   0  0  0  0  0  0  0  0  0  0  0  0
  203.5954  131.0289  134.2439 C   0  0  0  0  0  0  0  0  0  0  0  0
  204.4876  131.5866  135.1474 C   0  0  0  0  0  0  0  0  0  0  0  0
  204.5892  132.9610  135.3399 C   0  0  0  0  0  0  0  0  0  0  0  0
  203.7576  133.7939  134.5892 C   0  0  0  0  0  0  0  0  0  0  0  0
  203.5494  129.5915  134.1144 C   0  0  0  0  0  0  0  0  0  0  0  0
  202.4416  128.9936  134.2410 O   0  0  0  0  0  0  0  0  0  0  0  0
  204.6707  128.7581  133.8478 N   0  0  0  0  0  0  0  0  0  0  0  0
  205.4079  128.7581  132.6304 C   0  0  0  0  0  0  0  0  0  0  0  0
  206.7267  128.4064  132.5475 N   0  0  0  0  0  0  0  0  0  0  0  0
  207.1486  128.4984  131.2797 C   0  0  0  0  0  0  0  0  0  0  0  0
  206.0679  128.9219  130.5224 C   0  0  0  0  0  0  0  0  0  0  0  0
  205.0366  129.0645  131.3945 N   0  0  0  0  0  0  0  0  0  0  0  0
  206.2229  129.1051  129.1761 C   0  0  0  0  0  0  0  0  0  0  0  0
  207.4160  128.8840  128.5412 C   0  0  0  0  0  0  0  0  0  0  0  0
  208.4792  128.4611  129.3221 C   0  0  0  0  0  0  0  0  0  0  0  0
  208.3717  128.2657  130.6626 C   0  0  0  0  0  0  0  0  0  0  0  0
  203.5450  135.8423  133.7485 C   0  0  2  0  0  0  0  0  0  0  0  0
  203.2521  135.7673  135.2126 C   0  0  0  0  0  0  0  0  0  0  0  0
  202.0912  134.9652  135.6009 C   0  0  0  0  0  0  0  0  0  0  0  0
  201.5624  134.0034  134.7278 C   0  0  0  0  0  0  0  0  0  0  0  0
  200.4661  133.2583  135.0637 C   0  0  0  0  0  0  0  0  0  0  0  0
  199.8286  133.4143  136.2716 C   0  0  0  0  0  0  0  0  0  0  0  0
  200.3441  134.3600  137.1364 C   0  0  0  0  0  0  0  0  0  0  0  0
  201.4437  135.1104  136.8050 C   0  0  0  0  0  0  0  0  0  0  0  0
  2  1  1  1
  2  3  1  0
  3  4  1  6
  3  5  1  0
  5  6  1  6
  6  7  1  0
  7  8  2  0
  8  9  1  0
  9 10  2  0
 10 11  1  0
 11 12  2  0
  5 13  1  0
 13 14  1  0
 14 15  1  0
 15 16  2  0
 16 17  1  0
 17 18  2  0
 18 19  1  0
 19 20  2  0
 19 21  1  0
 21 22  2  0
 21 23  1  0
 23 24  1  0
 24 25  2  0
 25 26  1  0
 26 27  2  0
 27 28  1  0
 27 29  1  0
 29 30  2  0
 30 31  1  0
 31 32  2  0
 13 33  1  0
 33 34  2  0
 33 35  1  0
 35 36  1  0
 36 37  1  0
 37 38  2  0
 38 39  1  0
 39 40  2  0
 40 41  1  0
 41 42  2  0
 39 43  1  0
 43 44  2  0
 43 45  1  0
 45 46  1  0
 46 47  2  0
 47 48  1  0
 48 49  2  0
 49 50  1  0
 49 51  1  0
 51 52  2  0
 52 53  1  0
 53 54  2  0
 35 55  1  0
 55 56  1  1
 56 57  1  0
 57 58  2  0
 58 59  1  0
 59 60  2  0
 60 61  1  0
 61 62  2  0
 55  2  1  0
 62 57  1  0
 12  7  1  0
 20 15  1  0
 28 24  1  0
 42 37  1  0
 50 46  1  0
 32 26  1  0
 54 48  1  0
M  END
$$$$
