
     RDKit          3D

 62 70  0  0  0  0  0  0  0  0999 V2000
  129.7889  145.1980  129.5435 O   0  0  0  0  0  0  0  0  0  0  0  0
  130.0732  144.7148  130.8335 C   0  0  2  0  0  0  0  0  0  0  0  0
  129.1911  143.5634  131.1351 C   0  0  1  0  0  0  0  0  0  0  0  0
  128.3432  143.1960  130.0904 O   0  0  0  0  0  0  0  0  0  0  0  0
  129.9718  142.4143  131.6954 C   0  0  1  0  0  0  0  0  0  0  0  0
  131.1342  141.9453  130.9074 C   0  0  0  0  0  0  0  0  0  0  0  0
  132.3375  141.6569  131.7423 C   0  0  0  0  0  0  0  0  0  0  0  0
  132.1613  141.3710  133.1033 C   0  0  0  0  0  0  0  0  0  0  0  0
  133.2255  141.1154  133.9128 C   0  0  0  0  0  0  0  0  0  0  0  0
  134.5163  141.1246  133.4461 C   0  0  0  0  0  0  0  0  0  0  0  0
  134.6807  141.4064  132.1097 C   0  0  0  0  0  0  0  0  0  0  0  0
  133.6109  141.6708  131.2604 C   0  0  0  0  0  0  0  0  0  0  0  0
  130.3055  142.7443  133.0600 N   0  0  0  0  0  0  0  0  0  0  0  0
  130.7448  141.6474  133.8749 C   0  0  0  0  0  0  0  0  0  0  0  0
  130.0271  140.3790  133.6337 C   0  0  0  0  0  0  0  0  0  0  0  0
  128.8337  140.2563  132.9741 C   0  0  0  0  0  0  0  0  0  0  0  0
  128.2387  139.0186  132.8702 C   0  0  0  0  0  0  0  0  0  0  0  0
  128.8096  137.8943  133.4141 C   0  0  0  0  0  0  0  0  0  0  0  0
  130.0221  137.9936  134.0906 C   0  0  0  0  0  0  0  0  0  0  0  0
  130.6037  139.2295  134.1844 C   0  0  0  0  0  0  0  0  0  0  0  0
  130.5617  136.7936  134.6958 C   0  0  0  0  0  0  0  0  0  0  0  0
  131.7899  136.5138  134.6159 O   0  0  0  0  0  0  0  0  0  0  0  0
  129.7024  135.9007  135.3950 N   0  0  0  0  0  0  0  0  0  0  0  0
  130.1973  135.2200  136.5409 C   0  0  0  0  0  0  0  0  0  0  0  0
  131.5084  134.8924  136.7436 N   0  0  0  0  0  0  0  0  0  0  0  0
  131.6512  134.2679  137.9113 C   0  0  0  0  0  0  0  0  0  0  0  0
  130.3975  134.1959  138.4676 C   0  0  0  0  0  0  0  0  0  0  0  0
  129.5341  134.7889  137.5993 N   0  0  0  0  0  0  0  0  0  0  0  0
  130.2569  133.5834  139.7100 C   0  0  0  0  0  0  0  0  0  0  0  0
  131.3311  133.0512  140.3911 C   0  0  0  0  0  0  0  0  0  0  0  0
  132.5852  133.1358  139.8071 C   0  0  0  0  0  0  0  0  0  0  0  0
  132.7365  133.7395  138.5796 C   0  0  0  0  0  0  0  0  0  0  0  0
  130.2294  144.0108  133.7503 C   0  0  0  0  0  0  0  0  0  0  0  0
  130.0891  143.9566  134.9988 O   0  0  0  0  0  0  0  0  0  0  0  0
  130.3000  145.3082  133.1570 N   0  0  0  0  0  0  0  0  0  0  0  0
  130.7943  146.2985  134.1281 C   0  0  0  0  0  0  0  0  0  0  0  0
  129.7132  146.8690  134.9561 C   0  0  0  0  0  0  0  0  0  0  0  0
  128.4682  147.1145  134.3802 C   0  0  0  0  0  0  0  0  0  0  0  0
  127.4296  147.6631  135.1160 C   0  0  0  0  0  0  0  0  0  0  0  0
  127.6670  147.9601  136.4498 C   0  0  0  0  0  0  0  0  0  0  0  0
  128.8978  147.7272  137.0556 C   0  0  0  0  0  0  0  0  0  0  0  0
  129.9188  147.1746  136.2804 C   0  0  0  0  0  0  0  0  0  0  0  0
  126.1249  147.9461  134.5657 C   0  0  0  0  0  0  0  0  0  0  0  0
  126.0383  148.5070  133.4350 O   0  0  0  0  0  0  0  0  0  0  0  0
  124.8875  147.6415  135.1972 N   0  0  0  0  0  0  0  0  0  0  0  0
  123.6129  147.7434  134.5719 C   0  0  0  0  0  0  0  0  0  0  0  0
  122.4798  147.1630  135.0709 N   0  0  0  0  0  0  0  0  0  0  0  0
  121.4366  147.4315  134.2751 C   0  0  0  0  0  0  0  0  0  0  0  0
  121.9125  148.2093  133.2314 C   0  0  0  0  0  0  0  0  0  0  0  0
  123.2415  148.3675  133.4622 N   0  0  0  0  0  0  0  0  0  0  0  0
  121.0477  148.6274  132.2579 C   0  0  0  0  0  0  0  0  0  0  0  0
  119.7170  148.3042  132.2749 C   0  0  0  0  0  0  0  0  0  0  0  0
  119.2685  147.5261  133.3295 C   0  0  0  0  0  0  0  0  0  0  0  0
  120.0909  147.0882  134.3187 C   0  0  0  0  0  0  0  0  0  0  0  0
  129.9922  145.8241  131.8471 C   0  0  2  0  0  0  0  0  0  0  0  0
  128.6826  146.5450  131.8710 C   0  0  0  0  0  0  0  0  0  0  0  0
  128.7393  147.9828  132.1376 C   0  0  0  0  0  0  0  0  0  0  0  0
  128.0488  148.5359  133.2260 C   0  0  0  0  0  0  0  0  0  0  0  0
  128.0724  149.8793  133.4799 C   0  0  0  0  0  0  0  0  0  0  0  0
  128.7729  150.7534  132.6829 C   0  0  0  0  0  0  0  0  0  0  0  0
  129.4552  150.2155  131.6092 C   0  0  0  0  0  0  0  0  0  0  0  0
  129.4352  148.8686  131.3494 C   0  0  0  0  0  0  0  0  0  0  0  0
  2  1  1  6
  2  3  1  0
  3  4  1  6
  3  5  1  0
  5  6  1  6
  6  7  1  0
  7  8  2  0
  8  9  1  0
  9 10  2  0
 10 11  1  0
 11 12  2  0
  5 13  1  0
 13 14  1  0
 14 15  1  0
 15 16  2  0
 16 17  1  0
 17 18  2  0
 18 19  1  0
 19 20  2  0
 19 21  1  0
 21 22  2  0
 21 23  1  0
 23 24  1  0
 24 25  2  0
 25 26  1  0
 26 27  2  0
 27 28  1  0
 27 29  1  0
 29 30  2  0
 30 31  1  0
 31 32  2  0
 13 33  1  0
 33 34  2  0
 33 35  1  0
 35 36  1  0
 36 37  1  0
 37 38  2  0
 38 39  1  0
 39 40  2  0
 40 41  1  0
 41 42  2  0
 39 43  1  0
 43 44  2  0
 43 45  1  0
 45 46  1  0
 46 47  2  0
 47 48  1  0
 48 49  2  0
 49 50  1  0
 49 51  1  0
 51 52  2  0
 52 53  1  0
 53 54  2  0
 35 55  1  0
 55 56  1  1
 56 57  1  0
 57 58  2  0
 58 59  1  0
 59 60  2  0
 60 61  1  0
 61 62  2  0
 55  2  1  0
 62 57  1  0
 12  7  1  0
 20 15  1  0
 28 24  1  0
 42 37  1  0
 50 46  1  0
 32 26  1  0
 54 48  1  0
M  END
$$$$
