
     RDKit          3D

 62 70  0  0  0  0  0  0  0  0999 V2000
  189.6066  165.1617  138.9743 O   0  0  0  0  0  0  0  0  0  0  0  0
  188.8363  163.9971  138.8043 C   0  0  2  0  0  0  0  0  0  0  0  0
  188.6972  163.3028  140.1056 C   0  0  1  0  0  0  0  0  0  0  0  0
  189.2947  163.9627  141.1793 O   0  0  0  0  0  0  0  0  0  0  0  0
  187.2729  162.9189  140.3658 C   0  0  1  0  0  0  0  0  0  0  0  0
  186.2608  163.9958  140.2765 C   0  0  0  0  0  0  0  0  0  0  0  0
  185.1578  163.8554  141.2725 C   0  0  0  0  0  0  0  0  0  0  0  0
  185.0872  164.7686  142.3338 C   0  0  0  0  0  0  0  0  0  0  0  0
  184.1106  164.6771  143.2778 C   0  0  0  0  0  0  0  0  0  0  0  0
  183.1521  163.6953  143.2435 C   0  0  0  0  0  0  0  0  0  0  0  0
  183.2286  162.8031  142.1993 C   0  0  0  0  0  0  0  0  0  0  0  0
  184.2155  162.8740  141.2212 C   0  0  0  0  0  0  0  0  0  0  0  0
  186.9718  161.7843  139.5264 N   0  0  0  0  0  0  0  0  0  0  0  0
  185.7855  161.0537  139.8712 C   0  0  0  0  0  0  0  0  0  0  0  0
  184.5667  161.4941  139.1620 C   0  0  0  0  0  0  0  0  0  0  0  0
  184.4895  162.5580  138.3040 C   0  0  0  0  0  0  0  0  0  0  0  0
  183.2744  162.9007  137.7537 C   0  0  0  0  0  0  0  0  0  0  0  0
  182.1276  162.2030  138.0433 C   0  0  0  0  0  0  0  0  0  0  0  0
  182.1801  161.1182  138.9138 C   0  0  0  0  0  0  0  0  0  0  0  0
  183.3949  160.7871  139.4517 C   0  0  0  0  0  0  0  0  0  0  0  0
  180.9388  160.4445  139.2345 C   0  0  0  0  0  0  0  0  0  0  0  0
  180.0812  160.9755  139.9933 O   0  0  0  0  0  0  0  0  0  0  0  0
  180.6675  159.1567  138.6937 N   0  0  0  0  0  0  0  0  0  0  0  0
  179.4942  158.4672  139.1053 C   0  0  0  0  0  0  0  0  0  0  0  0
  178.2848  158.5470  138.4741 N   0  0  0  0  0  0  0  0  0  0  0  0
  177.3900  157.7813  139.0961 C   0  0  0  0  0  0  0  0  0  0  0  0
  178.0469  157.1980  140.1518 C   0  0  0  0  0  0  0  0  0  0  0  0
  179.3326  157.6423  140.1247 N   0  0  0  0  0  0  0  0  0  0  0  0
  177.3358  156.3341  140.9804 C   0  0  0  0  0  0  0  0  0  0  0  0
  176.0024  156.0510  140.7731 C   0  0  0  0  0  0  0  0  0  0  0  0
  175.3627  156.6538  139.7015 C   0  0  0  0  0  0  0  0  0  0  0  0
  176.0555  157.5091  138.8754 C   0  0  0  0  0  0  0  0  0  0  0  0
  187.7053  161.2422  138.4064 C   0  0  0  0  0  0  0  0  0  0  0  0
  187.5334  160.0194  138.1681 O   0  0  0  0  0  0  0  0  0  0  0  0
  188.5978  161.9552  137.5490 N   0  0  0  0  0  0  0  0  0  0  0  0
  188.6761  161.3109  136.2274 C   0  0  0  0  0  0  0  0  0  0  0  0
  187.3859  161.3308  135.5098 C   0  0  0  0  0  0  0  0  0  0  0  0
  187.2822  160.6983  134.2724 C   0  0  0  0  0  0  0  0  0  0  0  0
  186.0950  160.7050  133.5572 C   0  0  0  0  0  0  0  0  0  0  0  0
  185.0074  161.3617  134.1133 C   0  0  0  0  0  0  0  0  0  0  0  0
  185.0770  162.0028  135.3464 C   0  0  0  0  0  0  0  0  0  0  0  0
  186.2909  161.9743  136.0352 C   0  0  0  0  0  0  0  0  0  0  0  0
  185.9371  160.0741  132.2679 C   0  0  0  0  0  0  0  0  0  0  0  0
  186.6497  159.0696  131.9788 O   0  0  0  0  0  0  0  0  0  0  0  0
  185.0237  160.4904  131.2603 N   0  0  0  0  0  0  0  0  0  0  0  0
  184.7835  159.7887  130.0455 C   0  0  0  0  0  0  0  0  0  0  0  0
  185.7770  159.2420  129.2815 N   0  0  0  0  0  0  0  0  0  0  0  0
  185.2526  158.6440  128.2039 C   0  0  0  0  0  0  0  0  0  0  0  0
  183.8785  158.8103  128.2764 C   0  0  0  0  0  0  0  0  0  0  0  0
  183.6493  159.5135  129.4156 N   0  0  0  0  0  0  0  0  0  0  0  0
  183.0873  158.2943  127.2876 C   0  0  0  0  0  0  0  0  0  0  0  0
  183.6051  157.6130  126.2184 C   0  0  0  0  0  0  0  0  0  0  0  0
  184.9812  157.4613  126.1713 C   0  0  0  0  0  0  0  0  0  0  0  0
  185.8063  157.9566  127.1308 C   0  0  0  0  0  0  0  0  0  0  0  0
  189.4103  163.1340  137.7135 C   0  0  2  0  0  0  0  0  0  0  0  0
  190.8409  162.7504  137.9172 C   0  0  0  0  0  0  0  0  0  0  0  0
  191.5175  162.1400  136.7721 C   0  0  0  0  0  0  0  0  0  0  0  0
  192.1207  162.9384  135.7893 C   0  0  0  0  0  0  0  0  0  0  0  0
  192.7399  162.3878  134.7014 C   0  0  0  0  0  0  0  0  0  0  0  0
  192.8021  161.0270  134.5169 C   0  0  0  0  0  0  0  0  0  0  0  0
  192.2099  160.2347  135.4811 C   0  0  0  0  0  0  0  0  0  0  0  0
  191.5873  160.7813  136.5745 C   0  0  0  0  0  0  0  0  0  0  0  0
  2  1  1  1
  2  3  1  0
  3  4  1  1
  3  5  1  0
  5  6  1  6
  6  7  1  0
  7  8  2  0
  8  9  1  0
  9 10  2  0
 10 11  1  0
 11 12  2  0
  5 13  1  0
 13 14  1  0
 14 15  1  0
 15 16  2  0
 16 17  1  0
 17 18  2  0
 18 19  1  0
 19 20  2  0
 19 21  1  0
 21 22  2  0
 21 23  1  0
 23 24  1  0
 24 25  2  0
 25 26  1  0
 26 27  2  0
 27 28  1  0
 27 29  1  0
 29 30  2  0
 30 31  1  0
 31 32  2  0
 13 33  1  0
 33 34  2  0
 33 35  1  0
 35 36  1  0
 36 37  1  0
 37 38  2  0
 38 39  1  0
 39 40  2  0
 40 41  1  0
 41 42  2  0
 39 43  1  0
 43 44  2  0
 43 45  1  0
 45 46  1  0
 46 47  2  0
 47 48  1  0
 48 49  2  0
 49 50  1  0
 49 51  1  0
 51 52  2  0
 52 53  1  0
 53 54  2  0
 35 55  1  0
 55 56  1  1
 56 57  1  0
 57 58  2  0
 58 59  1  0
 59 60  2  0
 60 61  1  0
 61 62  2  0
 55  2  1  0
 62 57  1  0
 12  7  1  0
 20 15  1  0
 28 24  1  0
 42 37  1  0
 50 46  1  0
 32 26  1  0
 54 48  1  0
M  END
$$$$
