
     RDKit          3D

 62 70  0  0  0  0  0  0  0  0999 V2000
  130.8748  161.6940  151.2156 O   0  0  0  0  0  0  0  0  0  0  0  0
  131.6174  162.1654  152.3132 C   0  0  2  0  0  0  0  0  0  0  0  0
  133.0403  162.3033  151.9241 C   0  0  1  0  0  0  0  0  0  0  0  0
  133.3066  161.9964  150.5898 O   0  0  0  0  0  0  0  0  0  0  0  0
  133.5921  163.6299  152.3475 C   0  0  1  0  0  0  0  0  0  0  0  0
  132.8487  164.8349  151.9144 C   0  0  0  0  0  0  0  0  0  0  0  0
  133.7335  165.9280  151.4138 C   0  0  0  0  0  0  0  0  0  0  0  0
  135.0943  165.9013  151.7495 C   0  0  0  0  0  0  0  0  0  0  0  0
  135.9420  166.8809  151.3316 C   0  0  0  0  0  0  0  0  0  0  0  0
  135.5154  167.9383  150.5675 C   0  0  0  0  0  0  0  0  0  0  0  0
  134.1788  167.9574  150.2428 C   0  0  0  0  0  0  0  0  0  0  0  0
  133.2910  166.9691  150.6562 C   0  0  0  0  0  0  0  0  0  0  0  0
  133.8030  163.5739  153.7740 N   0  0  0  0  0  0  0  0  0  0  0  0
  134.6402  164.6042  154.3193 C   0  0  0  0  0  0  0  0  0  0  0  0
  136.0823  164.4275  154.0519 C   0  0  0  0  0  0  0  0  0  0  0  0
  136.6330  164.1403  152.8319 C   0  0  0  0  0  0  0  0  0  0  0  0
  137.9918  163.9398  152.7298 C   0  0  0  0  0  0  0  0  0  0  0  0
  138.8180  164.0179  153.8239 C   0  0  0  0  0  0  0  0  0  0  0  0
  138.2816  164.3074  155.0753 C   0  0  0  0  0  0  0  0  0  0  0  0
  136.9299  164.5068  155.1620 C   0  0  0  0  0  0  0  0  0  0  0  0
  139.1803  164.3263  156.2109 C   0  0  0  0  0  0  0  0  0  0  0  0
  140.2050  163.5904  156.2489 O   0  0  0  0  0  0  0  0  0  0  0  0
  138.9144  165.1838  157.3148 N   0  0  0  0  0  0  0  0  0  0  0  0
  139.7810  165.1493  158.4415 C   0  0  0  0  0  0  0  0  0  0  0  0
  139.4424  165.5755  159.6949 N   0  0  0  0  0  0  0  0  0  0  0  0
  140.4659  165.4064  160.5303 C   0  0  0  0  0  0  0  0  0  0  0  0
  141.4837  164.8576  159.7892 C   0  0  0  0  0  0  0  0  0  0  0  0
  141.0268  164.7155  158.5156 N   0  0  0  0  0  0  0  0  0  0  0  0
  142.6888  164.5725  160.4255 C   0  0  0  0  0  0  0  0  0  0  0  0
  142.8876  164.8241  161.7665 C   0  0  0  0  0  0  0  0  0  0  0  0
  141.8449  165.3795  162.4913 C   0  0  0  0  0  0  0  0  0  0  0  0
  140.6489  165.6650  161.8731 C   0  0  0  0  0  0  0  0  0  0  0  0
  133.3294  162.6117  154.7417 C   0  0  0  0  0  0  0  0  0  0  0  0
  134.0224  162.4828  155.7832 O   0  0  0  0  0  0  0  0  0  0  0  0
  132.1586  161.8010  154.6319 N   0  0  0  0  0  0  0  0  0  0  0  0
  131.6574  161.4273  155.9650 C   0  0  0  0  0  0  0  0  0  0  0  0
  130.2188  161.0957  155.9573 C   0  0  0  0  0  0  0  0  0  0  0  0
  129.8236  159.7637  156.0648 C   0  0  0  0  0  0  0  0  0  0  0  0
  128.4848  159.4056  156.0467 C   0  0  0  0  0  0  0  0  0  0  0  0
  127.5452  160.4178  155.9196 C   0  0  0  0  0  0  0  0  0  0  0  0
  127.9058  161.7574  155.8104 C   0  0  0  0  0  0  0  0  0  0  0  0
  129.2645  162.0770  155.8316 C   0  0  0  0  0  0  0  0  0  0  0  0
  128.0228  158.0410  156.1448 C   0  0  0  0  0  0  0  0  0  0  0  0
  127.8720  157.5190  157.2873 O   0  0  0  0  0  0  0  0  0  0  0  0
  127.7101  157.2023  155.0395 N   0  0  0  0  0  0  0  0  0  0  0  0
  126.3905  156.8553  154.6346 C   0  0  0  0  0  0  0  0  0  0  0  0
  125.9378  156.9826  153.3506 N   0  0  0  0  0  0  0  0  0  0  0  0
  124.6640  156.5770  153.2695 C   0  0  0  0  0  0  0  0  0  0  0  0
  124.2846  156.1755  154.5406 C   0  0  0  0  0  0  0  0  0  0  0  0
  125.3728  156.3666  155.3306 N   0  0  0  0  0  0  0  0  0  0  0  0
  123.0141  155.7134  154.7469 C   0  0  0  0  0  0  0  0  0  0  0  0
  122.0936  155.6312  153.7363 C   0  0  0  0  0  0  0  0  0  0  0  0
  122.4995  156.0388  152.4762 C   0  0  0  0  0  0  0  0  0  0  0  0
  123.7511  156.5044  152.2244 C   0  0  0  0  0  0  0  0  0  0  0  0
  131.3992  161.2911  153.5183 C   0  0  2  0  0  0  0  0  0  0  0  0
  131.7127  159.8460  153.2984 C   0  0  0  0  0  0  0  0  0  0  0  0
  132.2599  159.1198  154.4451 C   0  0  0  0  0  0  0  0  0  0  0  0
  132.7247  159.8111  155.5735 C   0  0  0  0  0  0  0  0  0  0  0  0
  133.2583  159.1522  156.6463 C   0  0  0  0  0  0  0  0  0  0  0  0
  133.3656  157.7820  156.6727 C   0  0  0  0  0  0  0  0  0  0  0  0
  132.9097  157.0947  155.5646 C   0  0  0  0  0  0  0  0  0  0  0  0
  132.3735  157.7503  154.4854 C   0  0  0  0  0  0  0  0  0  0  0  0
  2  1  1  6
  2  3  1  0
  3  4  1  6
  3  5  1  0
  5  6  1  1
  6  7  1  0
  7  8  2  0
  8  9  1  0
  9 10  2  0
 10 11  1  0
 11 12  2  0
  5 13  1  0
 13 14  1  0
 14 15  1  0
 15 16  2  0
 16 17  1  0
 17 18  2  0
 18 19  1  0
 19 20  2  0
 19 21  1  0
 21 22  2  0
 21 23  1  0
 23 24  1  0
 24 25  2  0
 25 26  1  0
 26 27  2  0
 27 28  1  0
 27 29  1  0
 29 30  2  0
 30 31  1  0
 31 32  2  0
 13 33  1  0
 33 34  2  0
 33 35  1  0
 35 36  1  0
 36 37  1  0
 37 38  2  0
 38 39  1  0
 39 40  2  0
 40 41  1  0
 41 42  2  0
 39 43  1  0
 43 44  2  0
 43 45  1  0
 45 46  1  0
 46 47  2  0
 47 48  1  0
 48 49  2  0
 49 50  1  0
 49 51  1  0
 51 52  2  0
 52 53  1  0
 53 54  2  0
 35 55  1  0
 55 56  1  6
 56 57  1  0
 57 58  2  0
 58 59  1  0
 59 60  2  0
 60 61  1  0
 61 62  2  0
 55  2  1  0
 62 57  1  0
 12  7  1  0
 20 15  1  0
 28 24  1  0
 42 37  1  0
 50 46  1  0
 32 26  1  0
 54 48  1  0
M  END
$$$$
