
     RDKit          3D

 62 70  0  0  0  0  0  0  0  0999 V2000
  192.1140  161.3342  135.1657 O   0  0  0  0  0  0  0  0  0  0  0  0
  190.7458  161.6521  135.2397 C   0  0  2  0  0  0  0  0  0  0  0  0
  190.1047  160.8326  136.2942 C   0  0  1  0  0  0  0  0  0  0  0  0
  190.9796  159.9973  136.9886 O   0  0  0  0  0  0  0  0  0  0  0  0
  189.2528  161.6753  137.1931 C   0  0  1  0  0  0  0  0  0  0  0  0
  189.8963  162.8546  137.8152 C   0  0  0  0  0  0  0  0  0  0  0  0
  189.1739  163.3552  139.0218 C   0  0  0  0  0  0  0  0  0  0  0  0
  189.7679  164.3636  139.7934 C   0  0  0  0  0  0  0  0  0  0  0  0
  189.1592  164.8457  140.9115 C   0  0  0  0  0  0  0  0  0  0  0  0
  187.9436  164.3750  141.3411 C   0  0  0  0  0  0  0  0  0  0  0  0
  187.3675  163.3854  140.5788 C   0  0  0  0  0  0  0  0  0  0  0  0
  187.9675  162.8753  139.4318 C   0  0  0  0  0  0  0  0  0  0  0  0
  188.0497  162.0013  136.4659 N   0  0  0  0  0  0  0  0  0  0  0  0
  186.9620  162.5022  137.2569 C   0  0  0  0  0  0  0  0  0  0  0  0
  186.1489  161.4573  137.9123 C   0  0  0  0  0  0  0  0  0  0  0  0
  186.4017  160.1126  137.8688 C   0  0  0  0  0  0  0  0  0  0  0  0
  185.5278  159.2368  138.4741 C   0  0  0  0  0  0  0  0  0  0  0  0
  184.4001  159.6748  139.1239 C   0  0  0  0  0  0  0  0  0  0  0  0
  184.1207  161.0372  139.1806 C   0  0  0  0  0  0  0  0  0  0  0  0
  184.9990  161.8967  138.5769 C   0  0  0  0  0  0  0  0  0  0  0  0
  182.8934  161.4519  139.8280 C   0  0  0  0  0  0  0  0  0  0  0  0
  182.5236  160.9415  140.9216 O   0  0  0  0  0  0  0  0  0  0  0  0
  182.0757  162.4512  139.2302 N   0  0  0  0  0  0  0  0  0  0  0  0
  180.9236  162.9093  139.9262 C   0  0  0  0  0  0  0  0  0  0  0  0
  180.7148  164.2024  140.3157 N   0  0  0  0  0  0  0  0  0  0  0  0
  179.5424  164.3116  140.9383 C   0  0  0  0  0  0  0  0  0  0  0  0
  178.9895  163.0544  140.9454 C   0  0  0  0  0  0  0  0  0  0  0  0
  179.8644  162.2231  140.3173 N   0  0  0  0  0  0  0  0  0  0  0  0
  177.7434  162.8808  141.5418 C   0  0  0  0  0  0  0  0  0  0  0  0
  177.0555  163.9260  142.1208 C   0  0  0  0  0  0  0  0  0  0  0  0
  177.6362  165.1844  142.1012 C   0  0  0  0  0  0  0  0  0  0  0  0
  178.8673  165.3681  141.5141 C   0  0  0  0  0  0  0  0  0  0  0  0
  187.7543  161.8651  135.0585 C   0  0  0  0  0  0  0  0  0  0  0  0
  186.5408  161.7365  134.7546 O   0  0  0  0  0  0  0  0  0  0  0  0
  188.6992  161.8646  133.9874 N   0  0  0  0  0  0  0  0  0  0  0  0
  188.0674  162.3141  132.7357 C   0  0  0  0  0  0  0  0  0  0  0  0
  189.0313  162.9342  131.8051 C   0  0  0  0  0  0  0  0  0  0  0  0
  188.7489  162.9529  130.4406 C   0  0  0  0  0  0  0  0  0  0  0  0
  189.6321  163.5109  129.5297 C   0  0  0  0  0  0  0  0  0  0  0  0
  190.8102  164.0545  130.0193 C   0  0  0  0  0  0  0  0  0  0  0  0
  191.1227  164.0526  131.3753 C   0  0  0  0  0  0  0  0  0  0  0  0
  190.2077  163.4801  132.2606 C   0  0  0  0  0  0  0  0  0  0  0  0
  189.3924  163.5472  128.1061 C   0  0  0  0  0  0  0  0  0  0  0  0
  188.4221  164.2246  127.6588 O   0  0  0  0  0  0  0  0  0  0  0  0
  190.1726  162.8708  127.1281 N   0  0  0  0  0  0  0  0  0  0  0  0
  189.6468  162.2530  125.9587 C   0  0  0  0  0  0  0  0  0  0  0  0
  190.4160  161.5786  125.0514 N   0  0  0  0  0  0  0  0  0  0  0  0
  189.6496  161.1041  124.0608 C   0  0  0  0  0  0  0  0  0  0  0  0
  188.3461  161.4843  124.3390 C   0  0  0  0  0  0  0  0  0  0  0  0
  188.4030  162.1804  125.5038 N   0  0  0  0  0  0  0  0  0  0  0  0
  187.3456  161.1304  123.4766 C   0  0  0  0  0  0  0  0  0  0  0  0
  187.5841  160.4079  122.3378 C   0  0  0  0  0  0  0  0  0  0  0  0
  188.8957  160.0411  122.0846 C   0  0  0  0  0  0  0  0  0  0  0  0
  189.9216  160.3701  122.9128 C   0  0  0  0  0  0  0  0  0  0  0  0
  190.0953  161.5213  133.8891 C   0  0  2  0  0  0  0  0  0  0  0  0
  190.2528  160.1767  133.2549 C   0  0  0  0  0  0  0  0  0  0  0  0
  189.2685  159.8239  132.2309 C   0  0  0  0  0  0  0  0  0  0  0  0
  188.1637  160.6524  131.9857 C   0  0  0  0  0  0  0  0  0  0  0  0
  187.2223  160.3301  131.0478 C   0  0  0  0  0  0  0  0  0  0  0  0
  187.3115  159.1803  130.2996 C   0  0  0  0  0  0  0  0  0  0  0  0
  188.3971  158.3596  130.5359 C   0  0  0  0  0  0  0  0  0  0  0  0
  189.3447  158.6777  131.4755 C   0  0  0  0  0  0  0  0  0  0  0  0
  2  1  1  6
  2  3  1  0
  3  4  1  1
  3  5  1  0
  5  6  1  6
  6  7  1  0
  7  8  2  0
  8  9  1  0
  9 10  2  0
 10 11  1  0
 11 12  2  0
  5 13  1  0
 13 14  1  0
 14 15  1  0
 15 16  2  0
 16 17  1  0
 17 18  2  0
 18 19  1  0
 19 20  2  0
 19 21  1  0
 21 22  2  0
 21 23  1  0
 23 24  1  0
 24 25  2  0
 25 26  1  0
 26 27  2  0
 27 28  1  0
 27 29  1  0
 29 30  2  0
 30 31  1  0
 31 32  2  0
 13 33  1  0
 33 34  2  0
 33 35  1  0
 35 36  1  0
 36 37  1  0
 37 38  2  0
 38 39  1  0
 39 40  2  0
 40 41  1  0
 41 42  2  0
 39 43  1  0
 43 44  2  0
 43 45  1  0
 45 46  1  0
 46 47  2  0
 47 48  1  0
 48 49  2  0
 49 50  1  0
 49 51  1  0
 51 52  2  0
 52 53  1  0
 53 54  2  0
 35 55  1  0
 55 56  1  1
 56 57  1  0
 57 58  2  0
 58 59  1  0
 59 60  2  0
 60 61  1  0
 61 62  2  0
 55  2  1  0
 62 57  1  0
 12  7  1  0
 20 15  1  0
 28 24  1  0
 42 37  1  0
 50 46  1  0
 32 26  1  0
 54 48  1  0
M  END
$$$$
