
     RDKit          3D

 62 70  0  0  0  0  0  0  0  0999 V2000
  193.6711  155.8243  127.8263 O   0  0  0  0  0  0  0  0  0  0  0  0
  192.5392  156.6589  127.7981 C   0  0  2  0  0  0  0  0  0  0  0  0
  191.9612  156.7534  129.1589 C   0  0  1  0  0  0  0  0  0  0  0  0
  192.6734  156.0613  130.1383 O   0  0  0  0  0  0  0  0  0  0  0  0
  191.6761  158.1765  129.5294 C   0  0  1  0  0  0  0  0  0  0  0  0
  192.7946  159.1387  129.4063 C   0  0  0  0  0  0  0  0  0  0  0  0
  192.4633  160.5002  129.9211 C   0  0  0  0  0  0  0  0  0  0  0  0
  191.7711  161.3873  129.0850 C   0  0  0  0  0  0  0  0  0  0  0  0
  191.4570  162.6454  129.4992 C   0  0  0  0  0  0  0  0  0  0  0  0
  191.7981  163.1102  130.7447 C   0  0  0  0  0  0  0  0  0  0  0  0
  192.4775  162.2338  131.5588 C   0  0  0  0  0  0  0  0  0  0  0  0
  192.8105  160.9429  131.1609 C   0  0  0  0  0  0  0  0  0  0  0  0
  190.4948  158.5819  128.8065 N   0  0  0  0  0  0  0  0  0  0  0  0
  189.8588  159.7794  129.2771 C   0  0  0  0  0  0  0  0  0  0  0  0
  188.9704  159.5845  130.4412 C   0  0  0  0  0  0  0  0  0  0  0  0
  189.3110  158.9384  131.5991 C   0  0  0  0  0  0  0  0  0  0  0  0
  188.3665  158.7714  132.5874 C   0  0  0  0  0  0  0  0  0  0  0  0
  187.0819  159.2353  132.4450 C   0  0  0  0  0  0  0  0  0  0  0  0
  186.7109  159.8943  131.2764 C   0  0  0  0  0  0  0  0  0  0  0  0
  187.6604  160.0556  130.3033 C   0  0  0  0  0  0  0  0  0  0  0  0
  185.3325  160.3188  131.1451 C   0  0  0  0  0  0  0  0  0  0  0  0
  184.6519  160.0305  130.1219 O   0  0  0  0  0  0  0  0  0  0  0  0
  184.7202  161.0795  132.1800 N   0  0  0  0  0  0  0  0  0  0  0  0
  183.4769  161.7200  131.9242 C   0  0  0  0  0  0  0  0  0  0  0  0
  182.7089  162.3325  132.8742 N   0  0  0  0  0  0  0  0  0  0  0  0
  181.6105  162.8419  132.3193 C   0  0  0  0  0  0  0  0  0  0  0  0
  181.6807  162.5463  130.9800 C   0  0  0  0  0  0  0  0  0  0  0  0
  182.8369  161.8586  130.7766 N   0  0  0  0  0  0  0  0  0  0  0  0
  180.6451  162.9702  130.1516 C   0  0  0  0  0  0  0  0  0  0  0  0
  179.5604  163.6716  130.6339 C   0  0  0  0  0  0  0  0  0  0  0  0
  179.5133  163.9560  131.9896 C   0  0  0  0  0  0  0  0  0  0  0  0
  180.5315  163.5424  132.8181 C   0  0  0  0  0  0  0  0  0  0  0  0
  189.8252  157.9439  127.6970 C   0  0  0  0  0  0  0  0  0  0  0  0
  188.5980  158.1889  127.5725 O   0  0  0  0  0  0  0  0  0  0  0  0
  190.4177  157.0709  126.7343 N   0  0  0  0  0  0  0  0  0  0  0  0
  189.6649  157.1033  125.4693 C   0  0  0  0  0  0  0  0  0  0  0  0
  190.1252  158.1740  124.5630 C   0  0  0  0  0  0  0  0  0  0  0  0
  191.0126  157.8642  123.5342 C   0  0  0  0  0  0  0  0  0  0  0  0
  191.4823  158.8404  122.6696 C   0  0  0  0  0  0  0  0  0  0  0  0
  191.0392  160.1409  122.8587 C   0  0  0  0  0  0  0  0  0  0  0  0
  190.1534  160.4840  123.8756 C   0  0  0  0  0  0  0  0  0  0  0  0
  189.7043  159.4723  124.7262 C   0  0  0  0  0  0  0  0  0  0  0  0
  192.4092  158.5747  121.5947 C   0  0  0  0  0  0  0  0  0  0  0  0
  193.5072  158.0011  121.8516 O   0  0  0  0  0  0  0  0  0  0  0  0
  192.1945  158.9077  120.2287 N   0  0  0  0  0  0  0  0  0  0  0  0
  193.1621  158.7543  119.1964 C   0  0  0  0  0  0  0  0  0  0  0  0
  192.9916  159.2313  117.9263 N   0  0  0  0  0  0  0  0  0  0  0  0
  194.0645  158.9425  117.1784 C   0  0  0  0  0  0  0  0  0  0  0  0
  194.9539  158.2587  117.9922 C   0  0  0  0  0  0  0  0  0  0  0  0
  194.3538  158.1723  119.2076 N   0  0  0  0  0  0  0  0  0  0  0  0
  196.1468  157.8352  117.4750 C   0  0  0  0  0  0  0  0  0  0  0  0
  196.5001  158.0629  116.1716 C   0  0  0  0  0  0  0  0  0  0  0  0
  195.5927  158.7486  115.3809 C   0  0  0  0  0  0  0  0  0  0  0  0
  194.3961  159.1884  115.8517 C   0  0  0  0  0  0  0  0  0  0  0  0
  191.5610  156.1938  126.7535 C   0  0  2  0  0  0  0  0  0  0  0  0
  191.1196  154.7739  126.9088 C   0  0  0  0  0  0  0  0  0  0  0  0
  190.0922  154.3090  125.9761 C   0  0  0  0  0  0  0  0  0  0  0  0
  188.7390  154.3085  126.3450 C   0  0  0  0  0  0  0  0  0  0  0  0
  187.7663  153.8589  125.4956 C   0  0  0  0  0  0  0  0  0  0  0  0
  188.0653  153.3861  124.2399 C   0  0  0  0  0  0  0  0  0  0  0  0
  189.3961  153.3837  123.8699 C   0  0  0  0  0  0  0  0  0  0  0  0
  190.3763  153.8333  124.7178 C   0  0  0  0  0  0  0  0  0  0  0  0
  2  1  1  1
  2  3  1  0
  3  4  1  1
  3  5  1  0
  5  6  1  6
  6  7  1  0
  7  8  2  0
  8  9  1  0
  9 10  2  0
 10 11  1  0
 11 12  2  0
  5 13  1  0
 13 14  1  0
 14 15  1  0
 15 16  2  0
 16 17  1  0
 17 18  2  0
 18 19  1  0
 19 20  2  0
 19 21  1  0
 21 22  2  0
 21 23  1  0
 23 24  1  0
 24 25  2  0
 25 26  1  0
 26 27  2  0
 27 28  1  0
 27 29  1  0
 29 30  2  0
 30 31  1  0
 31 32  2  0
 13 33  1  0
 33 34  2  0
 33 35  1  0
 35 36  1  0
 36 37  1  0
 37 38  2  0
 38 39  1  0
 39 40  2  0
 40 41  1  0
 41 42  2  0
 39 43  1  0
 43 44  2  0
 43 45  1  0
 45 46  1  0
 46 47  2  0
 47 48  1  0
 48 49  2  0
 49 50  1  0
 49 51  1  0
 51 52  2  0
 52 53  1  0
 53 54  2  0
 35 55  1  0
 55 56  1  1
 56 57  1  0
 57 58  2  0
 58 59  1  0
 59 60  2  0
 60 61  1  0
 61 62  2  0
 55  2  1  0
 62 57  1  0
 12  7  1  0
 20 15  1  0
 28 24  1  0
 42 37  1  0
 50 46  1  0
 32 26  1  0
 54 48  1  0
M  END
$$$$
