
     RDKit          3D

 62 70  0  0  0  0  0  0  0  0999 V2000
  123.6847  159.1162  143.8326 O   0  0  0  0  0  0  0  0  0  0  0  0
  122.9291  159.7866  144.8114 C   0  0  2  0  0  0  0  0  0  0  0  0
  123.7020  159.8512  146.0736 C   0  0  1  0  0  0  0  0  0  0  0  0
  124.9807  159.2995  145.9967 O   0  0  0  0  0  0  0  0  0  0  0  0
  123.6882  161.2346  146.6478 C   0  0  1  0  0  0  0  0  0  0  0  0
  124.1174  162.3355  145.7558 C   0  0  0  0  0  0  0  0  0  0  0  0
  125.2234  163.1612  146.3247 C   0  0  0  0  0  0  0  0  0  0  0  0
  126.5386  162.6860  146.2271 C   0  0  0  0  0  0  0  0  0  0  0  0
  127.5824  163.3920  146.7420 C   0  0  0  0  0  0  0  0  0  0  0  0
  127.4064  164.5947  147.3793 C   0  0  0  0  0  0  0  0  0  0  0  0
  126.1129  165.0538  147.4712 C   0  0  0  0  0  0  0  0  0  0  0  0
  125.0282  164.3529  146.9536 C   0  0  0  0  0  0  0  0  0  0  0  0
  122.3840  161.4479  147.2275 N   0  0  0  0  0  0  0  0  0  0  0  0
  122.2774  162.5636  148.1239 C   0  0  0  0  0  0  0  0  0  0  0  0
  122.0191  163.8589  147.4621 C   0  0  0  0  0  0  0  0  0  0  0  0
  120.8217  164.2507  146.9267 C   0  0  0  0  0  0  0  0  0  0  0  0
  120.7302  165.4639  146.2812 C   0  0  0  0  0  0  0  0  0  0  0  0
  121.8131  166.2990  146.1556 C   0  0  0  0  0  0  0  0  0  0  0  0
  123.0417  165.9223  146.6905 C   0  0  0  0  0  0  0  0  0  0  0  0
  123.1179  164.7149  147.3315 C   0  0  0  0  0  0  0  0  0  0  0  0
  124.1702  166.8073  146.4880 C   0  0  0  0  0  0  0  0  0  0  0  0
  124.1287  167.7390  145.6376 O   0  0  0  0  0  0  0  0  0  0  0  0
  125.3573  166.6335  147.2528 N   0  0  0  0  0  0  0  0  0  0  0  0
  126.4241  167.5598  147.0935 C   0  0  0  0  0  0  0  0  0  0  0  0
  127.7413  167.2735  147.3184 N   0  0  0  0  0  0  0  0  0  0  0  0
  128.4930  168.3457  147.0752 C   0  0  0  0  0  0  0  0  0  0  0  0
  127.6317  169.3417  146.6847 C   0  0  0  0  0  0  0  0  0  0  0  0
  126.3743  168.8227  146.7086 N   0  0  0  0  0  0  0  0  0  0  0  0
  128.1611  170.5888  146.3636 C   0  0  0  0  0  0  0  0  0  0  0  0
  129.5135  170.8497  146.4268 C   0  0  0  0  0  0  0  0  0  0  0  0
  130.3609  169.8278  146.8251 C   0  0  0  0  0  0  0  0  0  0  0  0
  129.8490  168.5908  147.1445 C   0  0  0  0  0  0  0  0  0  0  0  0
  121.1677  160.6839  147.0741 C   0  0  0  0  0  0  0  0  0  0  0  0
  120.3434  160.7541  148.0213 O   0  0  0  0  0  0  0  0  0  0  0  0
  120.8127  159.8652  145.9589 N   0  0  0  0  0  0  0  0  0  0  0  0
  119.3494  159.7478  145.8443 C   0  0  0  0  0  0  0  0  0  0  0  0
  118.8283  160.3477  144.5999 C   0  0  0  0  0  0  0  0  0  0  0  0
  118.8915  161.7292  144.4284 C   0  0  0  0  0  0  0  0  0  0  0  0
  118.4007  162.3362  143.2831 C   0  0  0  0  0  0  0  0  0  0  0  0
  117.8438  161.5234  142.3071 C   0  0  0  0  0  0  0  0  0  0  0  0
  117.7654  160.1411  142.4466 C   0  0  0  0  0  0  0  0  0  0  0  0
  118.2698  159.5680  143.6153 C   0  0  0  0  0  0  0  0  0  0  0  0
  118.4328  163.7626  143.0602 C   0  0  0  0  0  0  0  0  0  0  0  0
  119.4849  164.4088  143.3357 O   0  0  0  0  0  0  0  0  0  0  0  0
  117.3560  164.5334  142.5414 N   0  0  0  0  0  0  0  0  0  0  0  0
  117.4091  165.9338  142.2927 C   0  0  0  0  0  0  0  0  0  0  0  0
  116.4493  166.6126  141.5945 N   0  0  0  0  0  0  0  0  0  0  0  0
  116.7643  167.9124  141.5237 C   0  0  0  0  0  0  0  0  0  0  0  0
  117.9643  168.0759  142.1977 C   0  0  0  0  0  0  0  0  0  0  0  0
  118.3107  166.8409  142.6441 N   0  0  0  0  0  0  0  0  0  0  0  0
  118.5248  169.3208  142.2771 C   0  0  0  0  0  0  0  0  0  0  0  0
  117.9406  170.4225  141.7111 C   0  0  0  0  0  0  0  0  0  0  0  0
  116.7420  170.2304  141.0439 C   0  0  0  0  0  0  0  0  0  0  0  0
  116.1483  169.0124  140.9398 C   0  0  0  0  0  0  0  0  0  0  0  0
  121.5720  159.1540  144.9617 C   0  0  2  0  0  0  0  0  0  0  0  0
  121.6028  157.6938  145.2809 C   0  0  0  0  0  0  0  0  0  0  0  0
  120.7655  157.2570  146.3988 C   0  0  0  0  0  0  0  0  0  0  0  0
  119.8433  158.1350  146.9871 C   0  0  0  0  0  0  0  0  0  0  0  0
  119.0666  157.7526  148.0455 C   0  0  0  0  0  0  0  0  0  0  0  0
  119.1503  156.4909  148.5849 C   0  0  0  0  0  0  0  0  0  0  0  0
  120.0564  155.6210  148.0105 C   0  0  0  0  0  0  0  0  0  0  0  0
  120.8384  155.9990  146.9485 C   0  0  0  0  0  0  0  0  0  0  0  0
  2  1  1  6
  2  3  1  0
  3  4  1  6
  3  5  1  0
  5  6  1  6
  6  7  1  0
  7  8  2  0
  8  9  1  0
  9 10  2  0
 10 11  1  0
 11 12  2  0
  5 13  1  0
 13 14  1  0
 14 15  1  0
 15 16  2  0
 16 17  1  0
 17 18  2  0
 18 19  1  0
 19 20  2  0
 19 21  1  0
 21 22  2  0
 21 23  1  0
 23 24  1  0
 24 25  2  0
 25 26  1  0
 26 27  2  0
 27 28  1  0
 27 29  1  0
 29 30  2  0
 30 31  1  0
 31 32  2  0
 13 33  1  0
 33 34  2  0
 33 35  1  0
 35 36  1  0
 36 37  1  0
 37 38  2  0
 38 39  1  0
 39 40  2  0
 40 41  1  0
 41 42  2  0
 39 43  1  0
 43 44  2  0
 43 45  1  0
 45 46  1  0
 46 47  2  0
 47 48  1  0
 48 49  2  0
 49 50  1  0
 49 51  1  0
 51 52  2  0
 52 53  1  0
 53 54  2  0
 35 55  1  0
 55 56  1  1
 56 57  1  0
 57 58  2  0
 58 59  1  0
 59 60  2  0
 60 61  1  0
 61 62  2  0
 55  2  1  0
 62 57  1  0
 12  7  1  0
 20 15  1  0
 28 24  1  0
 42 37  1  0
 50 46  1  0
 32 26  1  0
 54 48  1  0
M  END
$$$$
