
     RDKit          3D

 62 70  0  0  0  0  0  0  0  0999 V2000
  201.4186  131.9749  136.7396 O   0  0  0  0  0  0  0  0  0  0  0  0
  202.0982  131.5550  135.5819 C   0  0  2  0  0  0  0  0  0  0  0  0
  202.3018  130.0885  135.6333 C   0  0  1  0  0  0  0  0  0  0  0  0
  201.7478  129.4672  136.7523 O   0  0  0  0  0  0  0  0  0  0  0  0
  201.9079  129.4407  134.3414 C   0  0  1  0  0  0  0  0  0  0  0  0
  200.5464  129.7271  133.8351 C   0  0  0  0  0  0  0  0  0  0  0  0
  200.3825  129.4356  132.3803 C   0  0  0  0  0  0  0  0  0  0  0  0
  199.6975  130.3606  131.5801 C   0  0  0  0  0  0  0  0  0  0  0  0
  199.5072  130.1371  130.2509 C   0  0  0  0  0  0  0  0  0  0  0  0
  199.9695  129.0050  129.6277 C   0  0  0  0  0  0  0  0  0  0  0  0
  200.6402  128.1022  130.4197 C   0  0  0  0  0  0  0  0  0  0  0  0
  200.8489  128.3060  131.7801 C   0  0  0  0  0  0  0  0  0  0  0  0
  202.9447  129.7301  133.3802 N   0  0  0  0  0  0  0  0  0  0  0  0
  202.9348  128.9227  132.1936 C   0  0  0  0  0  0  0  0  0  0  0  0
  203.4593  127.5542  132.3792 C   0  0  0  0  0  0  0  0  0  0  0  0
  202.8615  126.5696  133.1190 C   0  0  0  0  0  0  0  0  0  0  0  0
  203.4879  125.3515  133.2618 C   0  0  0  0  0  0  0  0  0  0  0  0
  204.7052  125.0925  132.6814 C   0  0  0  0  0  0  0  0  0  0  0  0
  205.3338  126.0780  131.9255 C   0  0  0  0  0  0  0  0  0  0  0  0
  204.6988  127.2833  131.7898 C   0  0  0  0  0  0  0  0  0  0  0  0
  206.6411  125.7820  131.3769 C   0  0  0  0  0  0  0  0  0  0  0  0
  207.3148  124.7950  131.7832 O   0  0  0  0  0  0  0  0  0  0  0  0
  207.1917  126.6129  130.3616 N   0  0  0  0  0  0  0  0  0  0  0  0
  207.2646  126.1210  129.0296 C   0  0  0  0  0  0  0  0  0  0  0  0
  207.7635  126.8231  127.9687 N   0  0  0  0  0  0  0  0  0  0  0  0
  207.7005  126.0877  126.8601 C   0  0  0  0  0  0  0  0  0  0  0  0
  207.1468  124.8848  127.2245 C   0  0  0  0  0  0  0  0  0  0  0  0
  206.8931  124.9433  128.5599 N   0  0  0  0  0  0  0  0  0  0  0  0
  206.9654  123.9134  126.2436 C   0  0  0  0  0  0  0  0  0  0  0  0
  207.3221  124.1236  124.9285 C   0  0  0  0  0  0  0  0  0  0  0  0
  207.8776  125.3466  124.5869 C   0  0  0  0  0  0  0  0  0  0  0  0
  208.0623  126.3142  125.5480 C   0  0  0  0  0  0  0  0  0  0  0  0
  204.0233  130.6888  133.4438 C   0  0  0  0  0  0  0  0  0  0  0  0
  205.0451  130.4229  132.7607 O   0  0  0  0  0  0  0  0  0  0  0  0
  204.0403  131.9006  134.1996 N   0  0  0  0  0  0  0  0  0  0  0  0
  204.9543  132.8813  133.5903 C   0  0  0  0  0  0  0  0  0  0  0  0
  206.2844  132.8907  134.2308 C   0  0  0  0  0  0  0  0  0  0  0  0
  206.9720  134.0959  134.3607 C   0  0  0  0  0  0  0  0  0  0  0  0
  208.2293  134.1490  134.9416 C   0  0  0  0  0  0  0  0  0  0  0  0
  208.7846  132.9613  135.3938 C   0  0  0  0  0  0  0  0  0  0  0  0
  208.1251  131.7414  135.2798 C   0  0  0  0  0  0  0  0  0  0  0  0
  206.8609  131.7296  134.6878 C   0  0  0  0  0  0  0  0  0  0  0  0
  208.9877  135.3686  135.0913 C   0  0  0  0  0  0  0  0  0  0  0  0
  210.1354  135.4525  134.5658 O   0  0  0  0  0  0  0  0  0  0  0  0
  208.5489  136.5229  135.7971 N   0  0  0  0  0  0  0  0  0  0  0  0
  207.4100  137.3014  135.4473 C   0  0  0  0  0  0  0  0  0  0  0  0
  207.0071  138.4049  136.1470 N   0  0  0  0  0  0  0  0  0  0  0  0
  205.9121  138.9321  135.5843 C   0  0  0  0  0  0  0  0  0  0  0  0
  205.6003  138.1440  134.4877 C   0  0  0  0  0  0  0  0  0  0  0  0
  206.5434  137.1673  134.4522 N   0  0  0  0  0  0  0  0  0  0  0  0
  204.5100  138.4580  133.7242 C   0  0  0  0  0  0  0  0  0  0  0  0
  203.7068  139.5313  134.0041 C   0  0  0  0  0  0  0  0  0  0  0  0
  204.0417  140.3018  135.1054 C   0  0  0  0  0  0  0  0  0  0  0  0
  205.1153  140.0280  135.8922 C   0  0  0  0  0  0  0  0  0  0  0  0
  203.3695  132.3387  135.3974 C   0  0  2  0  0  0  0  0  0  0  0  0
  204.3046  132.2827  136.5625 C   0  0  0  0  0  0  0  0  0  0  0  0
  204.1796  133.3592  137.5461 C   0  0  0  0  0  0  0  0  0  0  0  0
  205.3204  133.9461  138.1127 C   0  0  0  0  0  0  0  0  0  0  0  0
  205.2244  134.9387  139.0482 C   0  0  0  0  0  0  0  0  0  0  0  0
  204.0072  135.4104  139.4793 C   0  0  0  0  0  0  0  0  0  0  0  0
  202.8793  134.8368  138.9255 C   0  0  0  0  0  0  0  0  0  0  0  0
  202.9695  133.8406  137.9866 C   0  0  0  0  0  0  0  0  0  0  0  0
  2  1  1  1
  2  3  1  0
  3  4  1  1
  3  5  1  0
  5  6  1  6
  6  7  1  0
  7  8  2  0
  8  9  1  0
  9 10  2  0
 10 11  1  0
 11 12  2  0
  5 13  1  0
 13 14  1  0
 14 15  1  0
 15 16  2  0
 16 17  1  0
 17 18  2  0
 18 19  1  0
 19 20  2  0
 19 21  1  0
 21 22  2  0
 21 23  1  0
 23 24  1  0
 24 25  2  0
 25 26  1  0
 26 27  2  0
 27 28  1  0
 27 29  1  0
 29 30  2  0
 30 31  1  0
 31 32  2  0
 13 33  1  0
 33 34  2  0
 33 35  1  0
 35 36  1  0
 36 37  1  0
 37 38  2  0
 38 39  1  0
 39 40  2  0
 40 41  1  0
 41 42  2  0
 39 43  1  0
 43 44  2  0
 43 45  1  0
 45 46  1  0
 46 47  2  0
 47 48  1  0
 48 49  2  0
 49 50  1  0
 49 51  1  0
 51 52  2  0
 52 53  1  0
 53 54  2  0
 35 55  1  0
 55 56  1  1
 56 57  1  0
 57 58  2  0
 58 59  1  0
 59 60  2  0
 60 61  1  0
 61 62  2  0
 55  2  1  0
 62 57  1  0
 12  7  1  0
 20 15  1  0
 28 24  1  0
 42 37  1  0
 50 46  1  0
 32 26  1  0
 54 48  1  0
M  END
$$$$
