
     RDKit          3D

 62 70  0  0  0  0  0  0  0  0999 V2000
  187.9655  154.8455  128.6237 O   0  0  0  0  0  0  0  0  0  0  0  0
  188.4033  156.0564  129.1899 C   0  0  2  0  0  0  0  0  0  0  0  0
  189.8786  156.1448  129.0868 C   0  0  1  0  0  0  0  0  0  0  0  0
  190.4770  155.0709  128.4281 O   0  0  0  0  0  0  0  0  0  0  0  0
  190.3061  157.4780  128.5542 C   0  0  1  0  0  0  0  0  0  0  0  0
  189.7004  157.9153  127.2759 C   0  0  0  0  0  0  0  0  0  0  0  0
  190.6721  157.9541  126.1434 C   0  0  0  0  0  0  0  0  0  0  0  0
  192.0389  158.0736  126.4312 C   0  0  0  0  0  0  0  0  0  0  0  0
  192.9660  158.1284  125.4360 C   0  0  0  0  0  0  0  0  0  0  0  0
  192.6172  158.0714  124.1097 C   0  0  0  0  0  0  0  0  0  0  0  0
  191.2742  157.9546  123.8357 C   0  0  0  0  0  0  0  0  0  0  0  0
  190.3061  157.8960  124.8333 C   0  0  0  0  0  0  0  0  0  0  0  0
  190.1447  158.4393  129.6183 N   0  0  0  0  0  0  0  0  0  0  0  0
  190.8163  159.6936  129.4296 C   0  0  0  0  0  0  0  0  0  0  0  0
  192.0869  159.8261  130.1714 C   0  0  0  0  0  0  0  0  0  0  0  0
  192.4394  159.0986  131.2763 C   0  0  0  0  0  0  0  0  0  0  0  0
  193.6319  159.3634  131.9125 C   0  0  0  0  0  0  0  0  0  0  0  0
  194.4846  160.3446  131.4699 C   0  0  0  0  0  0  0  0  0  0  0  0
  194.1479  161.0987  130.3494 C   0  0  0  0  0  0  0  0  0  0  0  0
  192.9608  160.8232  129.7253 C   0  0  0  0  0  0  0  0  0  0  0  0
  195.0493  162.1593  129.9492 C   0  0  0  0  0  0  0  0  0  0  0  0
  195.8280  162.7062  130.7784 O   0  0  0  0  0  0  0  0  0  0  0  0
  195.0666  162.6070  128.5987 N   0  0  0  0  0  0  0  0  0  0  0  0
  195.6012  163.8909  128.3028 C   0  0  0  0  0  0  0  0  0  0  0  0
  195.4544  164.5365  127.1074 N   0  0  0  0  0  0  0  0  0  0  0  0
  196.0630  165.7205  127.1464 C   0  0  0  0  0  0  0  0  0  0  0  0
  196.6120  165.8323  128.4003 C   0  0  0  0  0  0  0  0  0  0  0  0
  196.3085  164.6928  129.0789 N   0  0  0  0  0  0  0  0  0  0  0  0
  197.3151  166.9919  128.7160 C   0  0  0  0  0  0  0  0  0  0  0  0
  197.4747  168.0215  127.8129 C   0  0  0  0  0  0  0  0  0  0  0  0
  196.9119  167.8830  126.5539 C   0  0  0  0  0  0  0  0  0  0  0  0
  196.2143  166.7415  126.2307 C   0  0  0  0  0  0  0  0  0  0  0  0
  189.4375  158.3208  130.8722 C   0  0  0  0  0  0  0  0  0  0  0  0
  189.8405  159.0555  131.8099 O   0  0  0  0  0  0  0  0  0  0  0  0
  188.3323  157.4588  131.1470 N   0  0  0  0  0  0  0  0  0  0  0  0
  187.5060  158.0033  132.2373 C   0  0  0  0  0  0  0  0  0  0  0  0
  186.2829  158.6672  131.7442 C   0  0  0  0  0  0  0  0  0  0  0  0
  185.1169  158.6041  132.5048 C   0  0  0  0  0  0  0  0  0  0  0  0
  183.9422  159.1998  132.0733 C   0  0  0  0  0  0  0  0  0  0  0  0
  183.9623  159.8656  130.8568 C   0  0  0  0  0  0  0  0  0  0  0  0
  185.1093  159.9476  130.0731 C   0  0  0  0  0  0  0  0  0  0  0  0
  186.2719  159.3336  130.5421 C   0  0  0  0  0  0  0  0  0  0  0  0
  182.7055  159.1557  132.8175 C   0  0  0  0  0  0  0  0  0  0  0  0
  182.7412  158.9561  134.0663 O   0  0  0  0  0  0  0  0  0  0  0  0
  181.4084  159.3224  132.2585 N   0  0  0  0  0  0  0  0  0  0  0  0
  180.1966  159.3019  133.0046 C   0  0  0  0  0  0  0  0  0  0  0  0
  180.1427  159.4730  134.3601 N   0  0  0  0  0  0  0  0  0  0  0  0
  178.8732  159.4084  134.7821 C   0  0  0  0  0  0  0  0  0  0  0  0
  178.0848  159.1894  133.6634 C   0  0  0  0  0  0  0  0  0  0  0  0
  178.9414  159.1327  132.6109 N   0  0  0  0  0  0  0  0  0  0  0  0
  176.7298  159.0766  133.8094 C   0  0  0  0  0  0  0  0  0  0  0  0
  176.1160  159.1728  135.0299 C   0  0  0  0  0  0  0  0  0  0  0  0
  176.9278  159.3921  136.1307 C   0  0  0  0  0  0  0  0  0  0  0  0
  178.2780  159.5107  136.0334 C   0  0  0  0  0  0  0  0  0  0  0  0
  187.8823  156.2066  130.5936 C   0  0  2  0  0  0  0  0  0  0  0  0
  188.2391  155.0798  131.5091 C   0  0  0  0  0  0  0  0  0  0  0  0
  188.0544  155.3243  132.9401 C   0  0  0  0  0  0  0  0  0  0  0  0
  186.8977  154.8808  133.5978 C   0  0  0  0  0  0  0  0  0  0  0  0
  186.6971  155.1172  134.9296 C   0  0  0  0  0  0  0  0  0  0  0  0
  187.6172  155.8000  135.6891 C   0  0  0  0  0  0  0  0  0  0  0  0
  188.7588  156.2398  135.0478 C   0  0  0  0  0  0  0  0  0  0  0  0
  188.9655  156.0056  133.7120 C   0  0  0  0  0  0  0  0  0  0  0  0
  2  1  1  1
  2  3  1  0
  3  4  1  6
  3  5  1  0
  5  6  1  6
  6  7  1  0
  7  8  2  0
  8  9  1  0
  9 10  2  0
 10 11  1  0
 11 12  2  0
  5 13  1  0
 13 14  1  0
 14 15  1  0
 15 16  2  0
 16 17  1  0
 17 18  2  0
 18 19  1  0
 19 20  2  0
 19 21  1  0
 21 22  2  0
 21 23  1  0
 23 24  1  0
 24 25  2  0
 25 26  1  0
 26 27  2  0
 27 28  1  0
 27 29  1  0
 29 30  2  0
 30 31  1  0
 31 32  2  0
 13 33  1  0
 33 34  2  0
 33 35  1  0
 35 36  1  0
 36 37  1  0
 37 38  2  0
 38 39  1  0
 39 40  2  0
 40 41  1  0
 41 42  2  0
 39 43  1  0
 43 44  2  0
 43 45  1  0
 45 46  1  0
 46 47  2  0
 47 48  1  0
 48 49  2  0
 49 50  1  0
 49 51  1  0
 51 52  2  0
 52 53  1  0
 53 54  2  0
 35 55  1  0
 55 56  1  1
 56 57  1  0
 57 58  2  0
 58 59  1  0
 59 60  2  0
 60 61  1  0
 61 62  2  0
 55  2  1  0
 62 57  1  0
 12  7  1  0
 20 15  1  0
 28 24  1  0
 42 37  1  0
 50 46  1  0
 32 26  1  0
 54 48  1  0
M  END
$$$$
