
     RDKit          3D

 62 70  0  0  0  0  0  0  0  0999 V2000
  189.3952  163.4885  129.1231 O   0  0  0  0  0  0  0  0  0  0  0  0
  189.7261  162.2066  129.5982 C   0  0  2  0  0  0  0  0  0  0  0  0
  189.7293  161.2472  128.4693 C   0  0  1  0  0  0  0  0  0  0  0  0
  189.4648  161.8187  127.2248 O   0  0  0  0  0  0  0  0  0  0  0  0
  190.9648  160.4003  128.4808 C   0  0  1  0  0  0  0  0  0  0  0  0
  192.2638  161.1094  128.5223 C   0  0  0  0  0  0  0  0  0  0  0  0
  193.3051  160.3910  129.3147 C   0  0  0  0  0  0  0  0  0  0  0  0
  194.0352  159.3662  128.6966 C   0  0  0  0  0  0  0  0  0  0  0  0
  194.9858  158.6693  129.3776 C   0  0  0  0  0  0  0  0  0  0  0  0
  195.2780  158.9282  130.6934 C   0  0  0  0  0  0  0  0  0  0  0  0
  194.5571  159.9349  131.2927 C   0  0  0  0  0  0  0  0  0  0  0  0
  193.5807  160.6628  130.6200 C   0  0  0  0  0  0  0  0  0  0  0  0
  190.8125  159.4298  129.5378 N   0  0  0  0  0  0  0  0  0  0  0  0
  191.7167  158.3160  129.4938 C   0  0  0  0  0  0  0  0  0  0  0  0
  191.4911  157.3879  128.3669 C   0  0  0  0  0  0  0  0  0  0  0  0
  192.0545  156.1470  128.2369 C   0  0  0  0  0  0  0  0  0  0  0  0
  191.8086  155.4042  127.1034 C   0  0  0  0  0  0  0  0  0  0  0  0
  191.0103  155.8749  126.0901 C   0  0  0  0  0  0  0  0  0  0  0  0
  190.4271  157.1342  126.1984 C   0  0  0  0  0  0  0  0  0  0  0  0
  190.6780  157.8608  127.3314 C   0  0  0  0  0  0  0  0  0  0  0  0
  189.6372  157.6143  125.0835 C   0  0  0  0  0  0  0  0  0  0  0  0
  188.4366  157.9725  125.2362 O   0  0  0  0  0  0  0  0  0  0  0  0
  190.2109  157.6865  123.7834 N   0  0  0  0  0  0  0  0  0  0  0  0
  189.8817  158.7846  122.9424 C   0  0  0  0  0  0  0  0  0  0  0  0
  190.7958  159.5979  122.3337 N   0  0  0  0  0  0  0  0  0  0  0  0
  190.1744  160.5268  121.6093 C   0  0  0  0  0  0  0  0  0  0  0  0
  188.8285  160.2992  121.7604 C   0  0  0  0  0  0  0  0  0  0  0  0
  188.6888  159.2250  122.5835 N   0  0  0  0  0  0  0  0  0  0  0  0
  187.9352  161.1375  121.0987 C   0  0  0  0  0  0  0  0  0  0  0  0
  188.3601  162.1808  120.3037 C   0  0  0  0  0  0  0  0  0  0  0  0
  189.7237  162.3897  120.1690 C   0  0  0  0  0  0  0  0  0  0  0  0
  190.6161  161.5672  120.8179 C   0  0  0  0  0  0  0  0  0  0  0  0
  189.8584  159.3847  130.6214 C   0  0  0  0  0  0  0  0  0  0  0  0
  189.6016  158.2462  131.0896 O   0  0  0  0  0  0  0  0  0  0  0  0
  189.1859  160.4993  131.2092 N   0  0  0  0  0  0  0  0  0  0  0  0
  188.8000  160.2009  132.5985 C   0  0  0  0  0  0  0  0  0  0  0  0
  189.6432  160.9053  133.5847 C   0  0  0  0  0  0  0  0  0  0  0  0
  189.2087  161.0101  134.9046 C   0  0  0  0  0  0  0  0  0  0  0  0
  189.9608  161.6756  135.8600 C   0  0  0  0  0  0  0  0  0  0  0  0
  191.1656  162.2351  135.4616 C   0  0  0  0  0  0  0  0  0  0  0  0
  191.6286  162.1485  134.1522 C   0  0  0  0  0  0  0  0  0  0  0  0
  190.8415  161.4709  133.2194 C   0  0  0  0  0  0  0  0  0  0  0  0
  189.5520  161.8212  137.2373 C   0  0  0  0  0  0  0  0  0  0  0  0
  190.3915  162.2262  138.0927 O   0  0  0  0  0  0  0  0  0  0  0  0
  188.2498  161.5436  137.7374 N   0  0  0  0  0  0  0  0  0  0  0  0
  187.8830  161.5932  139.1117 C   0  0  0  0  0  0  0  0  0  0  0  0
  186.6064  161.3937  139.5590 N   0  0  0  0  0  0  0  0  0  0  0  0
  186.5650  161.4968  140.8937 C   0  0  0  0  0  0  0  0  0  0  0  0
  187.8553  161.7707  141.3194 C   0  0  0  0  0  0  0  0  0  0  0  0
  188.6150  161.8187  140.1945 N   0  0  0  0  0  0  0  0  0  0  0  0
  188.1011  161.9314  142.6550 C   0  0  0  0  0  0  0  0  0  0  0  0
  187.1122  161.8311  143.5971 C   0  0  0  0  0  0  0  0  0  0  0  0
  185.8324  161.5564  143.1439 C   0  0  0  0  0  0  0  0  0  0  0  0
  185.5414  161.3889  141.8271 C   0  0  0  0  0  0  0  0  0  0  0  0
  188.8194  161.8084  130.7312 C   0  0  2  0  0  0  0  0  0  0  0  0
  187.3621  161.8475  130.3995 C   0  0  0  0  0  0  0  0  0  0  0  0
  186.4374  161.7275  131.5274 C   0  0  0  0  0  0  0  0  0  0  0  0
  185.9029  160.4808  131.8842 C   0  0  0  0  0  0  0  0  0  0  0  0
  185.0217  160.3509  132.9217 C   0  0  0  0  0  0  0  0  0  0  0  0
  184.6164  161.4335  133.6656 C   0  0  0  0  0  0  0  0  0  0  0  0
  185.1389  162.6645  133.3198 C   0  0  0  0  0  0  0  0  0  0  0  0
  186.0233  162.8010  132.2799 C   0  0  0  0  0  0  0  0  0  0  0  0
  2  1  1  6
  2  3  1  0
  3  4  1  6
  3  5  1  0
  5  6  1  1
  6  7  1  0
  7  8  2  0
  8  9  1  0
  9 10  2  0
 10 11  1  0
 11 12  2  0
  5 13  1  0
 13 14  1  0
 14 15  1  0
 15 16  2  0
 16 17  1  0
 17 18  2  0
 18 19  1  0
 19 20  2  0
 19 21  1  0
 21 22  2  0
 21 23  1  0
 23 24  1  0
 24 25  2  0
 25 26  1  0
 26 27  2  0
 27 28  1  0
 27 29  1  0
 29 30  2  0
 30 31  1  0
 31 32  2  0
 13 33  1  0
 33 34  2  0
 33 35  1  0
 35 36  1  0
 36 37  1  0
 37 38  2  0
 38 39  1  0
 39 40  2  0
 40 41  1  0
 41 42  2  0
 39 43  1  0
 43 44  2  0
 43 45  1  0
 45 46  1  0
 46 47  2  0
 47 48  1  0
 48 49  2  0
 49 50  1  0
 49 51  1  0
 51 52  2  0
 52 53  1  0
 53 54  2  0
 35 55  1  0
 55 56  1  6
 56 57  1  0
 57 58  2  0
 58 59  1  0
 59 60  2  0
 60 61  1  0
 61 62  2  0
 55  2  1  0
 62 57  1  0
 12  7  1  0
 20 15  1  0
 28 24  1  0
 42 37  1  0
 50 46  1  0
 32 26  1  0
 54 48  1  0
M  END
$$$$
