
     RDKit          3D

 62 70  0  0  0  0  0  0  0  0999 V2000
  131.3120  144.6559  136.9778 O   0  0  0  0  0  0  0  0  0  0  0  0
  130.5172  143.8162  136.1768 C   0  0  2  0  0  0  0  0  0  0  0  0
  131.3876  143.0216  135.2791 C   0  0  1  0  0  0  0  0  0  0  0  0
  132.7537  143.2374  135.4591 O   0  0  0  0  0  0  0  0  0  0  0  0
  131.0098  141.5722  135.3008 C   0  0  1  0  0  0  0  0  0  0  0  0
  130.9462  140.9153  136.6261 C   0  0  0  0  0  0  0  0  0  0  0  0
  131.7037  139.6304  136.6867 C   0  0  0  0  0  0  0  0  0  0  0  0
  130.9869  138.4265  136.7314 C   0  0  0  0  0  0  0  0  0  0  0  0
  131.6278  137.2276  136.8022 C   0  0  0  0  0  0  0  0  0  0  0  0
  132.9966  137.1325  136.8345 C   0  0  0  0  0  0  0  0  0  0  0  0
  133.6926  138.3183  136.7907 C   0  0  0  0  0  0  0  0  0  0  0  0
  133.0628  139.5568  136.7178 C   0  0  0  0  0  0  0  0  0  0  0  0
  129.7930  141.4322  134.5376 N   0  0  0  0  0  0  0  0  0  0  0  0
  129.4553  140.0932  134.1467 C   0  0  0  0  0  0  0  0  0  0  0  0
  129.5576  139.8342  132.6959 C   0  0  0  0  0  0  0  0  0  0  0  0
  130.0357  140.7166  131.7648 C   0  0  0  0  0  0  0  0  0  0  0  0
  130.0206  140.3724  130.4314 C   0  0  0  0  0  0  0  0  0  0  0  0
  129.5346  139.1615  130.0032 C   0  0  0  0  0  0  0  0  0  0  0  0
  129.0418  138.2478  130.9306 C   0  0  0  0  0  0  0  0  0  0  0  0
  129.0651  138.6021  132.2529 C   0  0  0  0  0  0  0  0  0  0  0  0
  128.4887  137.0058  130.4317 C   0  0  0  0  0  0  0  0  0  0  0  0
  128.6225  135.9250  131.0697 O   0  0  0  0  0  0  0  0  0  0  0  0
  127.7807  136.9868  129.1977 N   0  0  0  0  0  0  0  0  0  0  0  0
  127.7738  135.7946  128.4229 C   0  0  0  0  0  0  0  0  0  0  0  0
  127.6885  134.5327  128.9402 N   0  0  0  0  0  0  0  0  0  0  0  0
  127.6993  133.6318  127.9594 C   0  0  0  0  0  0  0  0  0  0  0  0
  127.7939  134.3387  126.7857 C   0  0  0  0  0  0  0  0  0  0  0  0
  127.8375  135.6592  127.1101 N   0  0  0  0  0  0  0  0  0  0  0  0
  127.8235  133.6325  125.5861 C   0  0  0  0  0  0  0  0  0  0  0  0
  127.7619  132.2557  125.5440 C   0  0  0  0  0  0  0  0  0  0  0  0
  127.6681  131.5662  126.7427 C   0  0  0  0  0  0  0  0  0  0  0  0
  127.6375  132.2536  127.9346 C   0  0  0  0  0  0  0  0  0  0  0  0
  128.8737  142.4432  134.0694 C   0  0  0  0  0  0  0  0  0  0  0  0
  128.2012  142.1531  133.0471 O   0  0  0  0  0  0  0  0  0  0  0  0
  128.6548  143.7289  134.6517 N   0  0  0  0  0  0  0  0  0  0  0  0
  127.3031  144.2200  134.3360 C   0  0  0  0  0  0  0  0  0  0  0  0
  126.8152  145.2081  135.3185 C   0  0  0  0  0  0  0  0  0  0  0  0
  126.9465  146.5679  135.0433 C   0  0  0  0  0  0  0  0  0  0  0  0
  126.5162  147.5300  135.9436 C   0  0  0  0  0  0  0  0  0  0  0  0
  125.9465  147.0968  137.1315 C   0  0  0  0  0  0  0  0  0  0  0  0
  125.8003  145.7472  137.4372 C   0  0  0  0  0  0  0  0  0  0  0  0
  126.2471  144.8091  136.5049 C   0  0  0  0  0  0  0  0  0  0  0  0
  126.6377  148.9501  135.7118 C   0  0  0  0  0  0  0  0  0  0  0  0
  127.3866  149.6383  136.4641 O   0  0  0  0  0  0  0  0  0  0  0  0
  125.9725  149.6702  134.6814 N   0  0  0  0  0  0  0  0  0  0  0  0
  126.1472  151.0586  134.4216 C   0  0  0  0  0  0  0  0  0  0  0  0
  125.3354  151.7779  133.5889 N   0  0  0  0  0  0  0  0  0  0  0  0
  125.7387  153.0542  133.5426 C   0  0  0  0  0  0  0  0  0  0  0  0
  126.8441  153.1605  134.3718 C   0  0  0  0  0  0  0  0  0  0  0  0
  127.0482  151.9174  134.8796 N   0  0  0  0  0  0  0  0  0  0  0  0
  127.4661  154.3706  134.5087 C   0  0  0  0  0  0  0  0  0  0  0  0
  127.0347  155.4922  133.8519 C   0  0  0  0  0  0  0  0  0  0  0  0
  125.9277  155.3575  133.0301 C   0  0  0  0  0  0  0  0  0  0  0  0
  125.2780  154.1757  132.8638 C   0  0  0  0  0  0  0  0  0  0  0  0
  129.4637  144.6113  135.4541 C   0  0  2  0  0  0  0  0  0  0  0  0
  129.9986  145.7270  134.6149 C   0  0  0  0  0  0  0  0  0  0  0  0
  129.0197  146.4597  133.8107 C   0  0  0  0  0  0  0  0  0  0  0  0
  128.8233  146.1415  132.4589 C   0  0  0  0  0  0  0  0  0  0  0  0
  127.9284  146.8277  131.6854 C   0  0  0  0  0  0  0  0  0  0  0  0
  127.1779  147.8615  132.1930 C   0  0  0  0  0  0  0  0  0  0  0  0
  127.3663  148.1803  133.5238 C   0  0  0  0  0  0  0  0  0  0  0  0
  128.2626  147.4955  134.3046 C   0  0  0  0  0  0  0  0  0  0  0  0
  2  1  1  6
  2  3  1  0
  3  4  1  1
  3  5  1  0
  5  6  1  1
  6  7  1  0
  7  8  2  0
  8  9  1  0
  9 10  2  0
 10 11  1  0
 11 12  2  0
  5 13  1  0
 13 14  1  0
 14 15  1  0
 15 16  2  0
 16 17  1  0
 17 18  2  0
 18 19  1  0
 19 20  2  0
 19 21  1  0
 21 22  2  0
 21 23  1  0
 23 24  1  0
 24 25  2  0
 25 26  1  0
 26 27  2  0
 27 28  1  0
 27 29  1  0
 29 30  2  0
 30 31  1  0
 31 32  2  0
 13 33  1  0
 33 34  2  0
 33 35  1  0
 35 36  1  0
 36 37  1  0
 37 38  2  0
 38 39  1  0
 39 40  2  0
 40 41  1  0
 41 42  2  0
 39 43  1  0
 43 44  2  0
 43 45  1  0
 45 46  1  0
 46 47  2  0
 47 48  1  0
 48 49  2  0
 49 50  1  0
 49 51  1  0
 51 52  2  0
 52 53  1  0
 53 54  2  0
 35 55  1  0
 55 56  1  6
 56 57  1  0
 57 58  2  0
 58 59  1  0
 59 60  2  0
 60 61  1  0
 61 62  2  0
 55  2  1  0
 62 57  1  0
 12  7  1  0
 20 15  1  0
 28 24  1  0
 42 37  1  0
 50 46  1  0
 32 26  1  0
 54 48  1  0
M  END
$$$$
