
     RDKit          3D

 62 70  0  0  0  0  0  0  0  0999 V2000
  184.4131  162.5700  137.3079 O   0  0  0  0  0  0  0  0  0  0  0  0
  185.5554  162.0228  136.6960 C   0  0  2  0  0  0  0  0  0  0  0  0
  185.9617  162.8768  135.5557 C   0  0  1  0  0  0  0  0  0  0  0  0
  185.1807  164.0193  135.3825 O   0  0  0  0  0  0  0  0  0  0  0  0
  187.4314  163.1645  135.5903 C   0  0  1  0  0  0  0  0  0  0  0  0
  187.9740  163.7343  136.8445 C   0  0  0  0  0  0  0  0  0  0  0  0
  189.4347  163.4848  137.0245 C   0  0  0  0  0  0  0  0  0  0  0  0
  190.2087  163.1696  135.8990 C   0  0  0  0  0  0  0  0  0  0  0  0
  191.5421  162.9186  136.0091 C   0  0  0  0  0  0  0  0  0  0  0  0
  192.1951  162.9588  137.2157 C   0  0  0  0  0  0  0  0  0  0  0  0
  191.4285  163.2684  138.3152 C   0  0  0  0  0  0  0  0  0  0  0  0
  190.0646  163.5296  138.2307 C   0  0  0  0  0  0  0  0  0  0  0  0
  188.1155  161.9664  135.1672 N   0  0  0  0  0  0  0  0  0  0  0  0
  189.4929  162.1340  134.8005 C   0  0  0  0  0  0  0  0  0  0  0  0
  189.7175  163.0539  133.6666 C   0  0  0  0  0  0  0  0  0  0  0  0
  188.9576  164.1551  133.3765 C   0  0  0  0  0  0  0  0  0  0  0  0
  189.2380  164.8971  132.2507 C   0  0  0  0  0  0  0  0  0  0  0  0
  190.2643  164.5624  131.4018 C   0  0  0  0  0  0  0  0  0  0  0  0
  191.0504  163.4465  131.6746 C   0  0  0  0  0  0  0  0  0  0  0  0
  190.7620  162.7194  132.7982 C   0  0  0  0  0  0  0  0  0  0  0  0
  192.0867  163.0979  130.7248 C   0  0  0  0  0  0  0  0  0  0  0  0
  191.8680  163.1089  129.4818 O   0  0  0  0  0  0  0  0  0  0  0  0
  193.3812  162.7302  131.1869 N   0  0  0  0  0  0  0  0  0  0  0  0
  194.3774  162.3703  130.2384 C   0  0  0  0  0  0  0  0  0  0  0  0
  195.6256  162.9231  130.1756 N   0  0  0  0  0  0  0  0  0  0  0  0
  196.3239  162.3707  129.1851 C   0  0  0  0  0  0  0  0  0  0  0  0
  195.4986  161.4409  128.6014 C   0  0  0  0  0  0  0  0  0  0  0  0
  194.3159  161.4700  129.2733 N   0  0  0  0  0  0  0  0  0  0  0  0
  195.9853  160.7046  127.5246 C   0  0  0  0  0  0  0  0  0  0  0  0
  197.2607  160.8816  127.0317 C   0  0  0  0  0  0  0  0  0  0  0  0
  198.0728  161.8272  127.6379 C   0  0  0  0  0  0  0  0  0  0  0  0
  197.6028  162.5606  128.7034 C   0  0  0  0  0  0  0  0  0  0  0  0
  187.6151  160.6196  135.0178 C   0  0  0  0  0  0  0  0  0  0  0  0
  188.2214  159.8891  134.1931 O   0  0  0  0  0  0  0  0  0  0  0  0
  186.5088  160.0416  135.7121 N   0  0  0  0  0  0  0  0  0  0  0  0
  186.6518  158.5784  135.7926 C   0  0  0  0  0  0  0  0  0  0  0  0
  185.8907  157.8756  134.7406 C   0  0  0  0  0  0  0  0  0  0  0  0
  185.2412  156.6818  135.0486 C   0  0  0  0  0  0  0  0  0  0  0  0
  184.5282  155.9811  134.0886 C   0  0  0  0  0  0  0  0  0  0  0  0
  184.4784  156.5071  132.8063 C   0  0  0  0  0  0  0  0  0  0  0  0
  185.1152  157.6966  132.4655 C   0  0  0  0  0  0  0  0  0  0  0  0
  185.8242  158.3719  133.4605 C   0  0  0  0  0  0  0  0  0  0  0  0
  183.8461  154.7360  134.3526 C   0  0  0  0  0  0  0  0  0  0  0  0
  184.2322  153.6825  133.7682 O   0  0  0  0  0  0  0  0  0  0  0  0
  182.7450  154.5789  135.2391 N   0  0  0  0  0  0  0  0  0  0  0  0
  182.8588  154.2894  136.6279 C   0  0  0  0  0  0  0  0  0  0  0  0
  182.0143  153.4449  137.2937 N   0  0  0  0  0  0  0  0  0  0  0  0
  182.3663  153.3646  138.5835 C   0  0  0  0  0  0  0  0  0  0  0  0
  183.4722  154.1825  138.7535 C   0  0  0  0  0  0  0  0  0  0  0  0
  183.7278  154.7199  137.5327 N   0  0  0  0  0  0  0  0  0  0  0  0
  184.0414  154.2919  139.9921 C   0  0  0  0  0  0  0  0  0  0  0  0
  183.5564  153.6180  141.0812 C   0  0  0  0  0  0  0  0  0  0  0  0
  182.4507  152.8076  140.8826 C   0  0  0  0  0  0  0  0  0  0  0  0
  181.8524  152.6682  139.6705 C   0  0  0  0  0  0  0  0  0  0  0  0
  185.3220  160.5834  136.3241 C   0  0  2  0  0  0  0  0  0  0  0  0
  184.1368  160.3576  135.4412 C   0  0  0  0  0  0  0  0  0  0  0  0
  182.8339  160.3080  136.1057 C   0  0  0  0  0  0  0  0  0  0  0  0
  182.4258  159.1561  136.7940 C   0  0  0  0  0  0  0  0  0  0  0  0
  181.2041  159.0825  137.4039 C   0  0  0  0  0  0  0  0  0  0  0  0
  180.3165  160.1318  137.3731 C   0  0  0  0  0  0  0  0  0  0  0  0
  180.7119  161.2695  136.6969 C   0  0  0  0  0  0  0  0  0  0  0  0
  181.9362  161.3491  136.0832 C   0  0  0  0  0  0  0  0  0  0  0  0
  2  1  1  6
  2  3  1  0
  3  4  1  1
  3  5  1  0
  5  6  1  1
  6  7  1  0
  7  8  2  0
  8  9  1  0
  9 10  2  0
 10 11  1  0
 11 12  2  0
  5 13  1  0
 13 14  1  0
 14 15  1  0
 15 16  2  0
 16 17  1  0
 17 18  2  0
 18 19  1  0
 19 20  2  0
 19 21  1  0
 21 22  2  0
 21 23  1  0
 23 24  1  0
 24 25  2  0
 25 26  1  0
 26 27  2  0
 27 28  1  0
 27 29  1  0
 29 30  2  0
 30 31  1  0
 31 32  2  0
 13 33  1  0
 33 34  2  0
 33 35  1  0
 35 36  1  0
 36 37  1  0
 37 38  2  0
 38 39  1  0
 39 40  2  0
 40 41  1  0
 41 42  2  0
 39 43  1  0
 43 44  2  0
 43 45  1  0
 45 46  1  0
 46 47  2  0
 47 48  1  0
 48 49  2  0
 49 50  1  0
 49 51  1  0
 51 52  2  0
 52 53  1  0
 53 54  2  0
 35 55  1  0
 55 56  1  6
 56 57  1  0
 57 58  2  0
 58 59  1  0
 59 60  2  0
 60 61  1  0
 61 62  2  0
 55  2  1  0
 62 57  1  0
 12  7  1  0
 20 15  1  0
 28 24  1  0
 42 37  1  0
 50 46  1  0
 32 26  1  0
 54 48  1  0
M  END
$$$$
