
     RDKit          3D

 62 70  0  0  0  0  0  0  0  0999 V2000
  132.2406  134.6700  135.6169 O   0  0  0  0  0  0  0  0  0  0  0  0
  131.9922  135.4303  134.4598 C   0  0  2  0  0  0  0  0  0  0  0  0
  132.0963  134.5600  133.2654 C   0  0  1  0  0  0  0  0  0  0  0  0
  132.3558  133.2191  133.5484 O   0  0  0  0  0  0  0  0  0  0  0  0
  130.9281  134.7558  132.3484 C   0  0  1  0  0  0  0  0  0  0  0  0
  129.5789  134.6122  132.9408 C   0  0  0  0  0  0  0  0  0  0  0  0
  128.6229  133.8738  132.0638 C   0  0  0  0  0  0  0  0  0  0  0  0
  129.1208  132.8785  131.2113 C   0  0  0  0  0  0  0  0  0  0  0  0
  128.2950  132.1851  130.3804 C   0  0  0  0  0  0  0  0  0  0  0  0
  126.9437  132.4206  130.3313 C   0  0  0  0  0  0  0  0  0  0  0  0
  126.4632  133.3989  131.1705 C   0  0  0  0  0  0  0  0  0  0  0  0
  127.2847  134.1221  132.0295 C   0  0  0  0  0  0  0  0  0  0  0  0
  131.1198  136.0140  131.6683 N   0  0  0  0  0  0  0  0  0  0  0  0
  130.3036  136.2229  130.5064 C   0  0  0  0  0  0  0  0  0  0  0  0
  128.9424  136.7191  130.7949 C   0  0  0  0  0  0  0  0  0  0  0  0
  128.5968  137.5160  131.8530 C   0  0  0  0  0  0  0  0  0  0  0  0
  127.2765  137.8593  132.0426 C   0  0  0  0  0  0  0  0  0  0  0  0
  126.2874  137.4214  131.1966 C   0  0  0  0  0  0  0  0  0  0  0  0
  126.6136  136.6091  130.1143 C   0  0  0  0  0  0  0  0  0  0  0  0
  127.9300  136.2776  129.9364 C   0  0  0  0  0  0  0  0  0  0  0  0
  125.5337  136.1252  129.2793 C   0  0  0  0  0  0  0  0  0  0  0  0
  125.7591  135.4065  128.2665 O   0  0  0  0  0  0  0  0  0  0  0  0
  124.1868  136.4611  129.5919 N   0  0  0  0  0  0  0  0  0  0  0  0
  123.1421  135.9771  128.7577 C   0  0  0  0  0  0  0  0  0  0  0  0
  121.8119  136.2130  128.9631 N   0  0  0  0  0  0  0  0  0  0  0  0
  121.0888  135.6320  128.0073 C   0  0  0  0  0  0  0  0  0  0  0  0
  121.9823  135.0095  127.1705 C   0  0  0  0  0  0  0  0  0  0  0  0
  123.2291  135.2428  127.6626 N   0  0  0  0  0  0  0  0  0  0  0  0
  121.4878  134.3166  126.0687 C   0  0  0  0  0  0  0  0  0  0  0  0
  120.1383  134.2380  125.7971 C   0  0  0  0  0  0  0  0  0  0  0  0
  119.2577  134.8739  126.6581 C   0  0  0  0  0  0  0  0  0  0  0  0
  119.7351  135.5623  127.7501 C   0  0  0  0  0  0  0  0  0  0  0  0
  132.0404  137.0895  131.9554 C   0  0  0  0  0  0  0  0  0  0  0  0
  132.3672  137.8166  130.9828 O   0  0  0  0  0  0  0  0  0  0  0  0
  132.6087  137.4057  133.2271 N   0  0  0  0  0  0  0  0  0  0  0  0
  132.9724  138.8309  133.2948 C   0  0  0  0  0  0  0  0  0  0  0  0
  132.6698  139.5532  132.0432 C   0  0  0  0  0  0  0  0  0  0  0  0
  131.7575  140.6063  132.0651 C   0  0  0  0  0  0  0  0  0  0  0  0
  131.4324  141.3020  130.9112 C   0  0  0  0  0  0  0  0  0  0  0  0
  132.0468  140.9182  129.7286 C   0  0  0  0  0  0  0  0  0  0  0  0
  132.9622  139.8716  129.6720 C   0  0  0  0  0  0  0  0  0  0  0  0
  133.2622  139.1951  130.8556 C   0  0  0  0  0  0  0  0  0  0  0  0
  130.4872  142.3932  130.8775 C   0  0  0  0  0  0  0  0  0  0  0  0
  130.1561  142.8913  129.7627 O   0  0  0  0  0  0  0  0  0  0  0  0
  129.8728  142.9783  132.0190 N   0  0  0  0  0  0  0  0  0  0  0  0
  128.8334  142.3720  132.7790 C   0  0  0  0  0  0  0  0  0  0  0  0
  128.5515  142.7085  134.0740 N   0  0  0  0  0  0  0  0  0  0  0  0
  127.5246  141.9773  134.5263 C   0  0  0  0  0  0  0  0  0  0  0  0
  127.1325  141.1444  133.4902 C   0  0  0  0  0  0  0  0  0  0  0  0
  127.9625  141.4264  132.4528 N   0  0  0  0  0  0  0  0  0  0  0  0
  126.0930  140.2770  133.6836 C   0  0  0  0  0  0  0  0  0  0  0  0
  125.4182  140.1990  134.8727 C   0  0  0  0  0  0  0  0  0  0  0  0
  125.8307  141.0430  135.8907 C   0  0  0  0  0  0  0  0  0  0  0  0
  126.8579  141.9206  135.7440 C   0  0  0  0  0  0  0  0  0  0  0  0
  132.8906  136.6366  134.4127 C   0  0  2  0  0  0  0  0  0  0  0  0
  134.3504  136.3234  134.4898 C   0  0  0  0  0  0  0  0  0  0  0  0
  135.2097  137.3716  135.0417 C   0  0  0  0  0  0  0  0  0  0  0  0
  136.0510  138.1203  134.2056 C   0  0  0  0  0  0  0  0  0  0  0  0
  136.8763  139.0898  134.7044 C   0  0  0  0  0  0  0  0  0  0  0  0
  136.9225  139.3788  136.0476 C   0  0  0  0  0  0  0  0  0  0  0  0
  136.0966  138.6453  136.8769 C   0  0  0  0  0  0  0  0  0  0  0  0
  135.2666  137.6714  136.3822 C   0  0  0  0  0  0  0  0  0  0  0  0
  2  1  1  1
  2  3  1  0
  3  4  1  1
  3  5  1  0
  5  6  1  1
  6  7  1  0
  7  8  2  0
  8  9  1  0
  9 10  2  0
 10 11  1  0
 11 12  2  0
  5 13  1  0
 13 14  1  0
 14 15  1  0
 15 16  2  0
 16 17  1  0
 17 18  2  0
 18 19  1  0
 19 20  2  0
 19 21  1  0
 21 22  2  0
 21 23  1  0
 23 24  1  0
 24 25  2  0
 25 26  1  0
 26 27  2  0
 27 28  1  0
 27 29  1  0
 29 30  2  0
 30 31  1  0
 31 32  2  0
 13 33  1  0
 33 34  2  0
 33 35  1  0
 35 36  1  0
 36 37  1  0
 37 38  2  0
 38 39  1  0
 39 40  2  0
 40 41  1  0
 41 42  2  0
 39 43  1  0
 43 44  2  0
 43 45  1  0
 45 46  1  0
 46 47  2  0
 47 48  1  0
 48 49  2  0
 49 50  1  0
 49 51  1  0
 51 52  2  0
 52 53  1  0
 53 54  2  0
 35 55  1  0
 55 56  1  6
 56 57  1  0
 57 58  2  0
 58 59  1  0
 59 60  2  0
 60 61  1  0
 61 62  2  0
 55  2  1  0
 62 57  1  0
 12  7  1  0
 20 15  1  0
 28 24  1  0
 42 37  1  0
 50 46  1  0
 32 26  1  0
 54 48  1  0
M  END
$$$$
