
     RDKit          3D

 62 70  0  0  0  0  0  0  0  0999 V2000
  120.9541  165.1170  139.0867 O   0  0  0  0  0  0  0  0  0  0  0  0
  120.1291  165.6523  140.0923 C   0  0  2  0  0  0  0  0  0  0  0  0
  120.9690  166.2914  141.1320 C   0  0  1  0  0  0  0  0  0  0  0  0
  122.3377  166.2666  140.8647 O   0  0  0  0  0  0  0  0  0  0  0  0
  120.4585  167.6564  141.4781 C   0  0  1  0  0  0  0  0  0  0  0  0
  120.2641  168.6040  140.3572 C   0  0  0  0  0  0  0  0  0  0  0  0
  119.8510  169.9683  140.8005 C   0  0  0  0  0  0  0  0  0  0  0  0
  118.4837  170.2683  140.8740 C   0  0  0  0  0  0  0  0  0  0  0  0
  118.0529  171.5012  141.2580 C   0  0  0  0  0  0  0  0  0  0  0  0
  118.9245  172.5083  141.5896 C   0  0  0  0  0  0  0  0  0  0  0  0
  120.2643  172.2060  141.5146 C   0  0  0  0  0  0  0  0  0  0  0  0
  120.7316  170.9545  141.1257 C   0  0  0  0  0  0  0  0  0  0  0  0
  119.2764  167.4824  142.2873 N   0  0  0  0  0  0  0  0  0  0  0  0
  118.8380  168.6455  143.0050 C   0  0  0  0  0  0  0  0  0  0  0  0
  119.4537  168.8116  144.3374 C   0  0  0  0  0  0  0  0  0  0  0  0
  120.7649  169.1285  144.5709 C   0  0  0  0  0  0  0  0  0  0  0  0
  121.2282  169.1937  145.8663 C   0  0  0  0  0  0  0  0  0  0  0  0
  120.4086  168.9467  146.9401 C   0  0  0  0  0  0  0  0  0  0  0  0
  119.0718  168.6214  146.7284 C   0  0  0  0  0  0  0  0  0  0  0  0
  118.6241  168.5624  145.4359 C   0  0  0  0  0  0  0  0  0  0  0  0
  118.2565  168.3152  147.8856 C   0  0  0  0  0  0  0  0  0  0  0  0
  117.0424  168.6558  147.9413 O   0  0  0  0  0  0  0  0  0  0  0  0
  118.8219  167.6199  148.9908 N   0  0  0  0  0  0  0  0  0  0  0  0
  118.0401  167.4339  150.1637 C   0  0  0  0  0  0  0  0  0  0  0  0
  118.2799  166.4815  151.1139 N   0  0  0  0  0  0  0  0  0  0  0  0
  117.3780  166.5683  152.0900 C   0  0  0  0  0  0  0  0  0  0  0  0
  116.5413  167.6039  151.7528 C   0  0  0  0  0  0  0  0  0  0  0  0
  116.9782  168.1086  150.5673 N   0  0  0  0  0  0  0  0  0  0  0  0
  115.4931  167.9175  152.6139 C   0  0  0  0  0  0  0  0  0  0  0  0
  115.2731  167.2234  153.7847 C   0  0  0  0  0  0  0  0  0  0  0  0
  116.1312  166.1820  154.1011 C   0  0  0  0  0  0  0  0  0  0  0  0
  117.1711  165.8632  153.2578 C   0  0  0  0  0  0  0  0  0  0  0  0
  118.4805  166.2996  142.5194 C   0  0  0  0  0  0  0  0  0  0  0  0
  117.8396  166.2636  143.6008 O   0  0  0  0  0  0  0  0  0  0  0  0
  118.3505  165.1772  141.6457 N   0  0  0  0  0  0  0  0  0  0  0  0
  117.0686  164.4885  141.8703 C   0  0  0  0  0  0  0  0  0  0  0  0
  116.1507  164.6100  140.7202 C   0  0  0  0  0  0  0  0  0  0  0  0
  115.3687  165.7558  140.5879 C   0  0  0  0  0  0  0  0  0  0  0  0
  114.4827  165.9053  139.5325 C   0  0  0  0  0  0  0  0  0  0  0  0
  114.3986  164.8764  138.6065 C   0  0  0  0  0  0  0  0  0  0  0  0
  115.1652  163.7195  138.7090 C   0  0  0  0  0  0  0  0  0  0  0  0
  116.0449  163.6064  139.7870 C   0  0  0  0  0  0  0  0  0  0  0  0
  113.6432  167.0667  139.3545 C   0  0  0  0  0  0  0  0  0  0  0  0
  113.4188  167.4951  138.1855 O   0  0  0  0  0  0  0  0  0  0  0  0
  113.0239  167.7969  140.4062 N   0  0  0  0  0  0  0  0  0  0  0  0
  111.6841  168.2762  140.3792 C   0  0  0  0  0  0  0  0  0  0  0  0
  111.0436  168.7866  141.4742 N   0  0  0  0  0  0  0  0  0  0  0  0
  109.7994  169.1592  141.1474 C   0  0  0  0  0  0  0  0  0  0  0  0
  109.6335  168.8807  139.7999 C   0  0  0  0  0  0  0  0  0  0  0  0
  110.8102  168.3449  139.3839 N   0  0  0  0  0  0  0  0  0  0  0  0
  108.4376  169.1619  139.1991 C   0  0  0  0  0  0  0  0  0  0  0  0
  107.3878  169.7134  139.8840 C   0  0  0  0  0  0  0  0  0  0  0  0
  107.5811  169.9818  141.2291 C   0  0  0  0  0  0  0  0  0  0  0  0
  108.7516  169.7194  141.8678 C   0  0  0  0  0  0  0  0  0  0  0  0
  119.1933  164.6025  140.6279 C   0  0  2  0  0  0  0  0  0  0  0  0
  119.8729  163.3780  141.1512 C   0  0  0  0  0  0  0  0  0  0  0  0
  119.0178  162.4010  141.8264 C   0  0  0  0  0  0  0  0  0  0  0  0
  118.5111  161.2931  141.1314 C   0  0  0  0  0  0  0  0  0  0  0  0
  117.6941  160.3802  141.7387 C   0  0  0  0  0  0  0  0  0  0  0  0
  117.3290  160.5023  143.0584 C   0  0  0  0  0  0  0  0  0  0  0  0
  117.8243  161.5912  143.7491 C   0  0  0  0  0  0  0  0  0  0  0  0
  118.6444  162.5103  143.1451 C   0  0  0  0  0  0  0  0  0  0  0  0
  2  1  1  6
  2  3  1  0
  3  4  1  6
  3  5  1  0
  5  6  1  6
  6  7  1  0
  7  8  2  0
  8  9  1  0
  9 10  2  0
 10 11  1  0
 11 12  2  0
  5 13  1  0
 13 14  1  0
 14 15  1  0
 15 16  2  0
 16 17  1  0
 17 18  2  0
 18 19  1  0
 19 20  2  0
 19 21  1  0
 21 22  2  0
 21 23  1  0
 23 24  1  0
 24 25  2  0
 25 26  1  0
 26 27  2  0
 27 28  1  0
 27 29  1  0
 29 30  2  0
 30 31  1  0
 31 32  2  0
 13 33  1  0
 33 34  2  0
 33 35  1  0
 35 36  1  0
 36 37  1  0
 37 38  2  0
 38 39  1  0
 39 40  2  0
 40 41  1  0
 41 42  2  0
 39 43  1  0
 43 44  2  0
 43 45  1  0
 45 46  1  0
 46 47  2  0
 47 48  1  0
 48 49  2  0
 49 50  1  0
 49 51  1  0
 51 52  2  0
 52 53  1  0
 53 54  2  0
 35 55  1  0
 55 56  1  1
 56 57  1  0
 57 58  2  0
 58 59  1  0
 59 60  2  0
 60 61  1  0
 61 62  2  0
 55  2  1  0
 62 57  1  0
 12  7  1  0
 20 15  1  0
 28 24  1  0
 42 37  1  0
 50 46  1  0
 32 26  1  0
 54 48  1  0
M  END
$$$$
