
     RDKit          3D

 62 70  0  0  0  0  0  0  0  0999 V2000
  191.5651  155.5367  121.3260 O   0  0  0  0  0  0  0  0  0  0  0  0
  191.2252  156.7772  121.8955 C   0  0  2  0  0  0  0  0  0  0  0  0
  191.7400  157.8712  121.0395 C   0  0  1  0  0  0  0  0  0  0  0  0
  192.3776  157.4426  119.8753 O   0  0  0  0  0  0  0  0  0  0  0  0
  190.6863  158.9062  120.7900 C   0  0  1  0  0  0  0  0  0  0  0  0
  189.3932  158.4301  120.2486 C   0  0  0  0  0  0  0  0  0  0  0  0
  188.4274  159.5330  119.9673 C   0  0  0  0  0  0  0  0  0  0  0  0
  187.5101  159.8965  120.9631 C   0  0  0  0  0  0  0  0  0  0  0  0
  186.5982  160.8852  120.7536 C   0  0  0  0  0  0  0  0  0  0  0  0
  186.5266  161.5727  119.5679 C   0  0  0  0  0  0  0  0  0  0  0  0
  187.4297  161.2099  118.5958 C   0  0  0  0  0  0  0  0  0  0  0  0
  188.3721  160.2037  118.7837 C   0  0  0  0  0  0  0  0  0  0  0  0
  190.5461  159.6793  122.0005 N   0  0  0  0  0  0  0  0  0  0  0  0
  189.8480  160.9259  121.8643 C   0  0  0  0  0  0  0  0  0  0  0  0
  190.6629  162.0273  121.3119 C   0  0  0  0  0  0  0  0  0  0  0  0
  191.9859  161.9407  120.9707 C   0  0  0  0  0  0  0  0  0  0  0  0
  192.6470  163.0625  120.5220 C   0  0  0  0  0  0  0  0  0  0  0  0
  192.0149  164.2761  120.4071 C   0  0  0  0  0  0  0  0  0  0  0  0
  190.6704  164.3899  120.7491 C   0  0  0  0  0  0  0  0  0  0  0  0
  190.0249  163.2664  121.1914 C   0  0  0  0  0  0  0  0  0  0  0  0
  190.0573  165.6993  120.6651 C   0  0  0  0  0  0  0  0  0  0  0  0
  190.6174  166.7187  121.1553 O   0  0  0  0  0  0  0  0  0  0  0  0
  188.7970  165.8553  120.0232 N   0  0  0  0  0  0  0  0  0  0  0  0
  188.2877  167.1654  119.8091 C   0  0  0  0  0  0  0  0  0  0  0  0
  187.6288  167.5678  118.6815 N   0  0  0  0  0  0  0  0  0  0  0  0
  187.2731  168.8468  118.7884 C   0  0  0  0  0  0  0  0  0  0  0  0
  187.7171  169.2705  120.0171 C   0  0  0  0  0  0  0  0  0  0  0  0
  188.3334  168.2136  120.6121 N   0  0  0  0  0  0  0  0  0  0  0  0
  187.4731  170.5890  120.3923 C   0  0  0  0  0  0  0  0  0  0  0  0
  186.8051  171.4733  119.5722 C   0  0  0  0  0  0  0  0  0  0  0  0
  186.3687  171.0208  118.3369 C   0  0  0  0  0  0  0  0  0  0  0  0
  186.6036  169.7195  117.9554 C   0  0  0  0  0  0  0  0  0  0  0  0
  191.0362  159.4092  123.3322 C   0  0  0  0  0  0  0  0  0  0  0  0
  191.2264  160.4106  124.0688 O   0  0  0  0  0  0  0  0  0  0  0  0
  191.3211  158.1253  123.8893 N   0  0  0  0  0  0  0  0  0  0  0  0
  191.2018  158.1565  125.3566 C   0  0  0  0  0  0  0  0  0  0  0  0
  189.7979  158.2130  125.8101 C   0  0  0  0  0  0  0  0  0  0  0  0
  189.3267  157.2470  126.6971 C   0  0  0  0  0  0  0  0  0  0  0  0
  188.0123  157.2527  127.1370 C   0  0  0  0  0  0  0  0  0  0  0  0
  187.1765  158.2548  126.6673 C   0  0  0  0  0  0  0  0  0  0  0  0
  187.6150  159.2344  125.7816 C   0  0  0  0  0  0  0  0  0  0  0  0
  188.9455  159.1935  125.3612 C   0  0  0  0  0  0  0  0  0  0  0  0
  187.4716  156.2705  128.0469 C   0  0  0  0  0  0  0  0  0  0  0  0
  186.2168  156.1459  128.1492 O   0  0  0  0  0  0  0  0  0  0  0  0
  188.2445  155.4006  128.8647 N   0  0  0  0  0  0  0  0  0  0  0  0
  188.1540  153.9804  128.8474 C   0  0  0  0  0  0  0  0  0  0  0  0
  187.2089  153.2937  128.1369 N   0  0  0  0  0  0  0  0  0  0  0  0
  187.3719  151.9754  128.3085 C   0  0  0  0  0  0  0  0  0  0  0  0
  188.4560  151.8078  129.1555 C   0  0  0  0  0  0  0  0  0  0  0  0
  188.8923  153.0594  129.4521 N   0  0  0  0  0  0  0  0  0  0  0  0
  188.8446  150.5443  129.5057 C   0  0  0  0  0  0  0  0  0  0  0  0
  188.1977  149.4276  129.0474 C   0  0  0  0  0  0  0  0  0  0  0  0
  187.1179  149.6243  128.2023 C   0  0  0  0  0  0  0  0  0  0  0  0
  186.6964  150.8606  127.8274 C   0  0  0  0  0  0  0  0  0  0  0  0
  191.6920  156.8527  123.3241 C   0  0  2  0  0  0  0  0  0  0  0  0
  193.1559  156.6125  123.5094 C   0  0  0  0  0  0  0  0  0  0  0  0
  193.5502  155.9365  124.7460 C   0  0  0  0  0  0  0  0  0  0  0  0
  193.8216  154.5605  124.7533 C   0  0  0  0  0  0  0  0  0  0  0  0
  194.1715  153.9066  125.9022 C   0  0  0  0  0  0  0  0  0  0  0  0
  194.2746  154.5639  127.1052 C   0  0  0  0  0  0  0  0  0  0  0  0
  194.0086  155.9193  127.1053 C   0  0  0  0  0  0  0  0  0  0  0  0
  193.6571  156.5806  125.9559 C   0  0  0  0  0  0  0  0  0  0  0  0
  2  1  1  6
  2  3  1  0
  3  4  1  6
  3  5  1  0
  5  6  1  1
  6  7  1  0
  7  8  2  0
  8  9  1  0
  9 10  2  0
 10 11  1  0
 11 12  2  0
  5 13  1  0
 13 14  1  0
 14 15  1  0
 15 16  2  0
 16 17  1  0
 17 18  2  0
 18 19  1  0
 19 20  2  0
 19 21  1  0
 21 22  2  0
 21 23  1  0
 23 24  1  0
 24 25  2  0
 25 26  1  0
 26 27  2  0
 27 28  1  0
 27 29  1  0
 29 30  2  0
 30 31  1  0
 31 32  2  0
 13 33  1  0
 33 34  2  0
 33 35  1  0
 35 36  1  0
 36 37  1  0
 37 38  2  0
 38 39  1  0
 39 40  2  0
 40 41  1  0
 41 42  2  0
 39 43  1  0
 43 44  2  0
 43 45  1  0
 45 46  1  0
 46 47  2  0
 47 48  1  0
 48 49  2  0
 49 50  1  0
 49 51  1  0
 51 52  2  0
 52 53  1  0
 53 54  2  0
 35 55  1  0
 55 56  1  6
 56 57  1  0
 57 58  2  0
 58 59  1  0
 59 60  2  0
 60 61  1  0
 61 62  2  0
 55  2  1  0
 62 57  1  0
 12  7  1  0
 20 15  1  0
 28 24  1  0
 42 37  1  0
 50 46  1  0
 32 26  1  0
 54 48  1  0
M  END
$$$$
