
     RDKit          3D

 62 70  0  0  0  0  0  0  0  0999 V2000
  133.3860  164.4759  150.1756 O   0  0  0  0  0  0  0  0  0  0  0  0
  133.1105  163.8561  151.4078 C   0  0  2  0  0  0  0  0  0  0  0  0
  131.7719  164.2764  151.8837 C   0  0  1  0  0  0  0  0  0  0  0  0
  131.0870  165.1206  151.0099 O   0  0  0  0  0  0  0  0  0  0  0  0
  130.9594  163.0986  152.3269 C   0  0  1  0  0  0  0  0  0  0  0  0
  130.8071  161.9870  151.3608 C   0  0  0  0  0  0  0  0  0  0  0  0
  129.5884  161.1586  151.5992 C   0  0  0  0  0  0  0  0  0  0  0  0
  128.6458  161.6002  152.5382 C   0  0  0  0  0  0  0  0  0  0  0  0
  127.5244  160.8759  152.8045 C   0  0  0  0  0  0  0  0  0  0  0  0
  127.2582  159.6853  152.1757 C   0  0  0  0  0  0  0  0  0  0  0  0
  128.1880  159.2588  151.2561 C   0  0  0  0  0  0  0  0  0  0  0  0
  129.3420  159.9794  150.9647 C   0  0  0  0  0  0  0  0  0  0  0  0
  131.4769  162.6742  153.6054 N   0  0  0  0  0  0  0  0  0  0  0  0
  130.6297  161.7926  154.3570 C   0  0  0  0  0  0  0  0  0  0  0  0
  131.1341  160.4089  154.4726 C   0  0  0  0  0  0  0  0  0  0  0  0
  132.4178  160.0089  154.2151 C   0  0  0  0  0  0  0  0  0  0  0  0
  132.7443  158.6738  154.3026 C   0  0  0  0  0  0  0  0  0  0  0  0
  131.8132  157.7230  154.6414 C   0  0  0  0  0  0  0  0  0  0  0  0
  130.5011  158.1046  154.9067 C   0  0  0  0  0  0  0  0  0  0  0  0
  130.1910  159.4353  154.8183 C   0  0  0  0  0  0  0  0  0  0  0  0
  129.5392  157.0643  155.2065 C   0  0  0  0  0  0  0  0  0  0  0  0
  129.0191  156.9621  156.3521 O   0  0  0  0  0  0  0  0  0  0  0  0
  129.1652  156.1294  154.2013 N   0  0  0  0  0  0  0  0  0  0  0  0
  128.8750  154.7892  154.5772 C   0  0  0  0  0  0  0  0  0  0  0  0
  129.7345  153.9683  155.2515 N   0  0  0  0  0  0  0  0  0  0  0  0
  129.1682  152.7811  155.4601 C   0  0  0  0  0  0  0  0  0  0  0  0
  127.9142  152.8474  154.9040 C   0  0  0  0  0  0  0  0  0  0  0  0
  127.7715  154.0918  154.3729 N   0  0  0  0  0  0  0  0  0  0  0  0
  127.0933  151.7255  154.9820 C   0  0  0  0  0  0  0  0  0  0  0  0
  127.5007  150.5600  155.5959 C   0  0  0  0  0  0  0  0  0  0  0  0
  128.7713  150.5189  156.1481 C   0  0  0  0  0  0  0  0  0  0  0  0
  129.5914  151.6219  156.0774 C   0  0  0  0  0  0  0  0  0  0  0  0
  132.7090  163.0318  154.2691 C   0  0  0  0  0  0  0  0  0  0  0  0
  132.7090  162.9502  155.5240 O   0  0  0  0  0  0  0  0  0  0  0  0
  133.9180  163.4633  153.6429 N   0  0  0  0  0  0  0  0  0  0  0  0
  135.0818  163.1562  154.4910 C   0  0  0  0  0  0  0  0  0  0  0  0
  135.1104  163.9619  155.7278 C   0  0  0  0  0  0  0  0  0  0  0  0
  136.1589  163.7926  156.6300 C   0  0  0  0  0  0  0  0  0  0  0  0
  136.2178  164.5167  157.8103 C   0  0  0  0  0  0  0  0  0  0  0  0
  135.1980  165.4209  158.0671 C   0  0  0  0  0  0  0  0  0  0  0  0
  134.1371  165.6145  157.1877 C   0  0  0  0  0  0  0  0  0  0  0  0
  134.1134  164.8651  156.0102 C   0  0  0  0  0  0  0  0  0  0  0  0
  137.2757  164.3723  158.7826 C   0  0  0  0  0  0  0  0  0  0  0  0
  136.9867  164.3567  160.0141 O   0  0  0  0  0  0  0  0  0  0  0  0
  138.6577  164.2405  158.4736 N   0  0  0  0  0  0  0  0  0  0  0  0
  139.6850  164.0243  159.4346 C   0  0  0  0  0  0  0  0  0  0  0  0
  139.4397  163.7225  160.7456 N   0  0  0  0  0  0  0  0  0  0  0  0
  140.5945  163.5718  161.4069 C   0  0  0  0  0  0  0  0  0  0  0  0
  141.6154  163.7826  160.4935 C   0  0  0  0  0  0  0  0  0  0  0  0
  141.0052  164.0543  159.3109 N   0  0  0  0  0  0  0  0  0  0  0  0
  142.9155  163.6931  160.9080 C   0  0  0  0  0  0  0  0  0  0  0  0
  143.2509  163.4004  162.2031 C   0  0  0  0  0  0  0  0  0  0  0  0
  142.2109  163.1943  163.0947 C   0  0  0  0  0  0  0  0  0  0  0  0
  140.9048  163.2727  162.7279 C   0  0  0  0  0  0  0  0  0  0  0  0
  134.2160  164.1185  152.3945 C   0  0  2  0  0  0  0  0  0  0  0  0
  134.5053  165.5666  152.6277 C   0  0  0  0  0  0  0  0  0  0  0  0
  135.7828  166.0629  152.1145 C   0  0  0  0  0  0  0  0  0  0  0  0
  135.9357  167.4114  151.7605 C   0  0  0  0  0  0  0  0  0  0  0  0
  137.1147  167.8903  151.2601 C   0  0  0  0  0  0  0  0  0  0  0  0
  138.2071  167.0756  151.0792 C   0  0  0  0  0  0  0  0  0  0  0  0
  138.0636  165.7462  151.4257 C   0  0  0  0  0  0  0  0  0  0  0  0
  136.8832  165.2601  151.9282 C   0  0  0  0  0  0  0  0  0  0  0  0
  2  1  1  6
  2  3  1  0
  3  4  1  6
  3  5  1  0
  5  6  1  6
  6  7  1  0
  7  8  2  0
  8  9  1  0
  9 10  2  0
 10 11  1  0
 11 12  2  0
  5 13  1  0
 13 14  1  0
 14 15  1  0
 15 16  2  0
 16 17  1  0
 17 18  2  0
 18 19  1  0
 19 20  2  0
 19 21  1  0
 21 22  2  0
 21 23  1  0
 23 24  1  0
 24 25  2  0
 25 26  1  0
 26 27  2  0
 27 28  1  0
 27 29  1  0
 29 30  2  0
 30 31  1  0
 31 32  2  0
 13 33  1  0
 33 34  2  0
 33 35  1  0
 35 36  1  0
 36 37  1  0
 37 38  2  0
 38 39  1  0
 39 40  2  0
 40 41  1  0
 41 42  2  0
 39 43  1  0
 43 44  2  0
 43 45  1  0
 45 46  1  0
 46 47  2  0
 47 48  1  0
 48 49  2  0
 49 50  1  0
 49 51  1  0
 51 52  2  0
 52 53  1  0
 53 54  2  0
 35 55  1  0
 55 56  1  1
 56 57  1  0
 57 58  2  0
 58 59  1  0
 59 60  2  0
 60 61  1  0
 61 62  2  0
 55  2  1  0
 62 57  1  0
 12  7  1  0
 20 15  1  0
 28 24  1  0
 42 37  1  0
 50 46  1  0
 32 26  1  0
 54 48  1  0
M  END
$$$$
