
     RDKit          3D

 62 70  0  0  0  0  0  0  0  0999 V2000
  163.2186  144.1782  122.8059 O   0  0  0  0  0  0  0  0  0  0  0  0
  163.2446  144.9606  123.9745 C   0  0  2  0  0  0  0  0  0  0  0  0
  164.3349  145.9588  123.8762 C   0  0  1  0  0  0  0  0  0  0  0  0
  165.0326  145.9352  122.6688 O   0  0  0  0  0  0  0  0  0  0  0  0
  163.8543  147.3260  124.2551 C   0  0  1  0  0  0  0  0  0  0  0  0
  162.6591  147.8372  123.5463 C   0  0  0  0  0  0  0  0  0  0  0  0
  162.1969  149.1652  124.0474 C   0  0  0  0  0  0  0  0  0  0  0  0
  162.7282  150.3264  123.4692 C   0  0  0  0  0  0  0  0  0  0  0  0
  162.3522  151.5623  123.8984 C   0  0  0  0  0  0  0  0  0  0  0  0
  161.4427  151.7378  124.9111 C   0  0  0  0  0  0  0  0  0  0  0  0
  160.9263  150.5935  125.4735 C   0  0  0  0  0  0  0  0  0  0  0  0
  161.2928  149.3186  125.0538 C   0  0  0  0  0  0  0  0  0  0  0  0
  163.7184  147.3526  125.6915 N   0  0  0  0  0  0  0  0  0  0  0  0
  163.6061  148.6564  126.2810 C   0  0  0  0  0  0  0  0  0  0  0  0
  164.8772  149.4050  126.3594 C   0  0  0  0  0  0  0  0  0  0  0  0
  166.1266  148.8621  126.2236 C   0  0  0  0  0  0  0  0  0  0  0  0
  167.2363  149.6629  126.3795 C   0  0  0  0  0  0  0  0  0  0  0  0
  167.1270  151.0003  126.6713 C   0  0  0  0  0  0  0  0  0  0  0  0
  165.8676  151.5753  126.8155 C   0  0  0  0  0  0  0  0  0  0  0  0
  164.7732  150.7683  126.6555 C   0  0  0  0  0  0  0  0  0  0  0  0
  165.7984  152.9760  127.1770 C   0  0  0  0  0  0  0  0  0  0  0  0
  164.6983  153.5276  127.4575 O   0  0  0  0  0  0  0  0  0  0  0  0
  166.9851  153.7600  127.2180 N   0  0  0  0  0  0  0  0  0  0  0  0
  166.9088  155.1066  127.6679 C   0  0  0  0  0  0  0  0  0  0  0  0
  167.9877  155.8763  128.0010 N   0  0  0  0  0  0  0  0  0  0  0  0
  167.5882  157.0901  128.3767 C   0  0  0  0  0  0  0  0  0  0  0  0
  166.2182  157.0938  128.2802 C   0  0  0  0  0  0  0  0  0  0  0  0
  165.8392  155.8622  127.8435 N   0  0  0  0  0  0  0  0  0  0  0  0
  165.5323  158.2576  128.6170 C   0  0  0  0  0  0  0  0  0  0  0  0
  166.1839  159.3961  129.0416 C   0  0  0  0  0  0  0  0  0  0  0  0
  167.5667  159.3655  129.1315 C   0  0  0  0  0  0  0  0  0  0  0  0
  168.2555  158.2209  128.8007 C   0  0  0  0  0  0  0  0  0  0  0  0
  163.7158  146.2636  126.6405 C   0  0  0  0  0  0  0  0  0  0  0  0
  164.0803  146.5446  127.8108 O   0  0  0  0  0  0  0  0  0  0  0  0
  163.3402  144.9103  126.3808 N   0  0  0  0  0  0  0  0  0  0  0  0
  162.8758  144.2532  127.6140 C   0  0  0  0  0  0  0  0  0  0  0  0
  163.4845  144.8317  128.8283 C   0  0  0  0  0  0  0  0  0  0  0  0
  162.7559  144.8499  130.0160 C   0  0  0  0  0  0  0  0  0  0  0  0
  163.2822  145.3967  131.1758 C   0  0  0  0  0  0  0  0  0  0  0  0
  164.5628  145.9260  131.1192 C   0  0  0  0  0  0  0  0  0  0  0  0
  165.3173  145.9236  129.9500 C   0  0  0  0  0  0  0  0  0  0  0  0
  164.7513  145.3647  128.8028 C   0  0  0  0  0  0  0  0  0  0  0  0
  162.5663  145.4495  132.4288 C   0  0  0  0  0  0  0  0  0  0  0  0
  161.7191  144.5488  132.6962 O   0  0  0  0  0  0  0  0  0  0  0  0
  162.7319  146.4525  133.4234 N   0  0  0  0  0  0  0  0  0  0  0  0
  161.9792  146.5292  134.6289 C   0  0  0  0  0  0  0  0  0  0  0  0
  162.0734  147.5691  135.5117 N   0  0  0  0  0  0  0  0  0  0  0  0
  161.2477  147.3698  136.5473 C   0  0  0  0  0  0  0  0  0  0  0  0
  160.6013  146.1644  136.3242 C   0  0  0  0  0  0  0  0  0  0  0  0
  161.0845  145.6967  135.1442 N   0  0  0  0  0  0  0  0  0  0  0  0
  159.6933  145.7105  137.2406 C   0  0  0  0  0  0  0  0  0  0  0  0
  159.3952  146.4078  138.3810 C   0  0  0  0  0  0  0  0  0  0  0  0
  160.0557  147.6093  138.5785 C   0  0  0  0  0  0  0  0  0  0  0  0
  160.9651  148.0994  137.6956 C   0  0  0  0  0  0  0  0  0  0  0  0
  163.3283  144.0879  125.1975 C   0  0  2  0  0  0  0  0  0  0  0  0
  164.4927  143.1502  125.2091 C   0  0  0  0  0  0  0  0  0  0  0  0
  164.3318  141.9271  125.9964 C   0  0  0  0  0  0  0  0  0  0  0  0
  163.2216  141.0924  125.8018 C   0  0  0  0  0  0  0  0  0  0  0  0
  163.0427  139.9562  126.5414 C   0  0  0  0  0  0  0  0  0  0  0  0
  163.9403  139.5759  127.5107 C   0  0  0  0  0  0  0  0  0  0  0  0
  165.0361  140.3934  127.7077 C   0  0  0  0  0  0  0  0  0  0  0  0
  165.2209  141.5344  126.9688 C   0  0  0  0  0  0  0  0  0  0  0  0
  2  1  1  6
  2  3  1  0
  3  4  1  6
  3  5  1  0
  5  6  1  6
  6  7  1  0
  7  8  2  0
  8  9  1  0
  9 10  2  0
 10 11  1  0
 11 12  2  0
  5 13  1  0
 13 14  1  0
 14 15  1  0
 15 16  2  0
 16 17  1  0
 17 18  2  0
 18 19  1  0
 19 20  2  0
 19 21  1  0
 21 22  2  0
 21 23  1  0
 23 24  1  0
 24 25  2  0
 25 26  1  0
 26 27  2  0
 27 28  1  0
 27 29  1  0
 29 30  2  0
 30 31  1  0
 31 32  2  0
 13 33  1  0
 33 34  2  0
 33 35  1  0
 35 36  1  0
 36 37  1  0
 37 38  2  0
 38 39  1  0
 39 40  2  0
 40 41  1  0
 41 42  2  0
 39 43  1  0
 43 44  2  0
 43 45  1  0
 45 46  1  0
 46 47  2  0
 47 48  1  0
 48 49  2  0
 49 50  1  0
 49 51  1  0
 51 52  2  0
 52 53  1  0
 53 54  2  0
 35 55  1  0
 55 56  1  6
 56 57  1  0
 57 58  2  0
 58 59  1  0
 59 60  2  0
 60 61  1  0
 61 62  2  0
 55  2  1  0
 62 57  1  0
 12  7  1  0
 20 15  1  0
 28 24  1  0
 42 37  1  0
 50 46  1  0
 32 26  1  0
 54 48  1  0
M  END
$$$$
