
     RDKit          3D

 62 70  0  0  0  0  0  0  0  0999 V2000
  166.1764  159.0562  129.0593 O   0  0  0  0  0  0  0  0  0  0  0  0
  165.7174  157.7344  129.2030 C   0  0  2  0  0  0  0  0  0  0  0  0
  164.6404  157.4760  128.2191 C   0  0  1  0  0  0  0  0  0  0  0  0
  164.3685  158.5454  127.3659 O   0  0  0  0  0  0  0  0  0  0  0  0
  164.8658  156.1842  127.4950 C   0  0  1  0  0  0  0  0  0  0  0  0
  166.1805  156.0038  126.8383 C   0  0  0  0  0  0  0  0  0  0  0  0
  166.0820  155.8010  125.3627 C   0  0  0  0  0  0  0  0  0  0  0  0
  165.6957  156.8817  124.5577 C   0  0  0  0  0  0  0  0  0  0  0  0
  165.5760  156.7473  123.2084 C   0  0  0  0  0  0  0  0  0  0  0  0
  165.8232  155.5585  122.5685 C   0  0  0  0  0  0  0  0  0  0  0  0
  166.2014  154.5030  123.3654 C   0  0  0  0  0  0  0  0  0  0  0  0
  166.3318  154.6130  124.7463 C   0  0  0  0  0  0  0  0  0  0  0  0
  164.5338  155.1155  128.4062 N   0  0  0  0  0  0  0  0  0  0  0  0
  164.3491  153.8239  127.8081 C   0  0  0  0  0  0  0  0  0  0  0  0
  165.4015  152.8405  128.1363 C   0  0  0  0  0  0  0  0  0  0  0  0
  166.3934  153.0202  129.0626 C   0  0  0  0  0  0  0  0  0  0  0  0
  167.3521  152.0456  129.2297 C   0  0  0  0  0  0  0  0  0  0  0  0
  167.3446  150.8900  128.4880 C   0  0  0  0  0  0  0  0  0  0  0  0
  166.3471  150.6846  127.5390 C   0  0  0  0  0  0  0  0  0  0  0  0
  165.3992  151.6605  127.3850 C   0  0  0  0  0  0  0  0  0  0  0  0
  166.4079  149.4777  126.7409 C   0  0  0  0  0  0  0  0  0  0  0  0
  167.4407  148.7523  126.7261 O   0  0  0  0  0  0  0  0  0  0  0  0
  165.2905  149.0905  125.9497 N   0  0  0  0  0  0  0  0  0  0  0  0
  165.3599  147.8857  125.1979 C   0  0  0  0  0  0  0  0  0  0  0  0
  164.4006  147.4601  124.3228 N   0  0  0  0  0  0  0  0  0  0  0  0
  164.7611  146.3019  123.7727 C   0  0  0  0  0  0  0  0  0  0  0  0
  165.9829  145.9812  124.3117 C   0  0  0  0  0  0  0  0  0  0  0  0
  166.3163  146.9742  125.1799 N   0  0  0  0  0  0  0  0  0  0  0  0
  166.5997  144.8017  123.9029 C   0  0  0  0  0  0  0  0  0  0  0  0
  166.0231  143.9540  122.9810 C   0  0  0  0  0  0  0  0  0  0  0  0
  164.7891  144.3002  122.4534 C   0  0  0  0  0  0  0  0  0  0  0  0
  164.1702  145.4639  122.8495 C   0  0  0  0  0  0  0  0  0  0  0  0
  164.3192  155.1509  129.8341 C   0  0  0  0  0  0  0  0  0  0  0  0
  163.5794  154.2512  130.3081 O   0  0  0  0  0  0  0  0  0  0  0  0
  164.8633  156.0999  130.7525 N   0  0  0  0  0  0  0  0  0  0  0  0
  164.9602  155.5209  132.1029 C   0  0  0  0  0  0  0  0  0  0  0  0
  163.6372  155.2669  132.7069 C   0  0  0  0  0  0  0  0  0  0  0  0
  163.2755  155.9435  133.8703 C   0  0  0  0  0  0  0  0  0  0  0  0
  162.0500  155.7247  134.4796 C   0  0  0  0  0  0  0  0  0  0  0  0
  161.1892  154.8091  133.8929 C   0  0  0  0  0  0  0  0  0  0  0  0
  161.5190  154.1169  132.7317 C   0  0  0  0  0  0  0  0  0  0  0  0
  162.7632  154.3645  132.1490 C   0  0  0  0  0  0  0  0  0  0  0  0
  161.6308  156.3914  135.6899 C   0  0  0  0  0  0  0  0  0  0  0  0
  160.3953  156.5283  135.9252 O   0  0  0  0  0  0  0  0  0  0  0  0
  162.5071  156.9249  136.6750 N   0  0  0  0  0  0  0  0  0  0  0  0
  162.1817  157.9972  137.5525 C   0  0  0  0  0  0  0  0  0  0  0  0
  160.9451  158.1655  138.1112 N   0  0  0  0  0  0  0  0  0  0  0  0
  160.9371  159.2537  138.8920 C   0  0  0  0  0  0  0  0  0  0  0  0
  162.2082  159.8030  138.8347 C   0  0  0  0  0  0  0  0  0  0  0  0
  162.9232  158.9990  138.0059 N   0  0  0  0  0  0  0  0  0  0  0  0
  162.4805  160.9394  139.5452 C   0  0  0  0  0  0  0  0  0  0  0  0
  161.5367  161.5613  140.3185 C   0  0  0  0  0  0  0  0  0  0  0  0
  160.2750  160.9907  140.3576 C   0  0  0  0  0  0  0  0  0  0  0  0
  159.9591  159.8628  139.6686 C   0  0  0  0  0  0  0  0  0  0  0  0
  165.3168  157.4620  130.6277 C   0  0  2  0  0  0  0  0  0  0  0  0
  164.2873  158.4005  131.1703 C   0  0  0  0  0  0  0  0  0  0  0  0
  164.4564  158.8121  132.5645 C   0  0  0  0  0  0  0  0  0  0  0  0
  165.5518  159.5987  132.9499 C   0  0  0  0  0  0  0  0  0  0  0  0
  165.7387  159.9764  134.2507 C   0  0  0  0  0  0  0  0  0  0  0  0
  164.8640  159.6049  135.2440 C   0  0  0  0  0  0  0  0  0  0  0  0
  163.7828  158.8301  134.8716 C   0  0  0  0  0  0  0  0  0  0  0  0
  163.5902  158.4481  133.5681 C   0  0  0  0  0  0  0  0  0  0  0  0
  2  1  1  1
  2  3  1  0
  3  4  1  6
  3  5  1  0
  5  6  1  1
  6  7  1  0
  7  8  2  0
  8  9  1  0
  9 10  2  0
 10 11  1  0
 11 12  2  0
  5 13  1  0
 13 14  1  0
 14 15  1  0
 15 16  2  0
 16 17  1  0
 17 18  2  0
 18 19  1  0
 19 20  2  0
 19 21  1  0
 21 22  2  0
 21 23  1  0
 23 24  1  0
 24 25  2  0
 25 26  1  0
 26 27  2  0
 27 28  1  0
 27 29  1  0
 29 30  2  0
 30 31  1  0
 31 32  2  0
 13 33  1  0
 33 34  2  0
 33 35  1  0
 35 36  1  0
 36 37  1  0
 37 38  2  0
 38 39  1  0
 39 40  2  0
 40 41  1  0
 41 42  2  0
 39 43  1  0
 43 44  2  0
 43 45  1  0
 45 46  1  0
 46 47  2  0
 47 48  1  0
 48 49  2  0
 49 50  1  0
 49 51  1  0
 51 52  2  0
 52 53  1  0
 53 54  2  0
 35 55  1  0
 55 56  1  6
 56 57  1  0
 57 58  2  0
 58 59  1  0
 59 60  2  0
 60 61  1  0
 61 62  2  0
 55  2  1  0
 62 57  1  0
 12  7  1  0
 20 15  1  0
 28 24  1  0
 42 37  1  0
 50 46  1  0
 32 26  1  0
 54 48  1  0
M  END
$$$$
