
     RDKit          3D

 62 70  0  0  0  0  0  0  0  0999 V2000
  192.1756  155.7049  122.6401 O   0  0  0  0  0  0  0  0  0  0  0  0
  191.4846  156.8271  123.1317 C   0  0  2  0  0  0  0  0  0  0  0  0
  190.2155  156.3899  123.7586 C   0  0  1  0  0  0  0  0  0  0  0  0
  190.0215  155.0087  123.7680 O   0  0  0  0  0  0  0  0  0  0  0  0
  190.0289  157.0226  125.1035 C   0  0  1  0  0  0  0  0  0  0  0  0
  191.1334  156.8668  126.0772 C   0  0  0  0  0  0  0  0  0  0  0  0
  190.6993  156.2675  127.3736 C   0  0  0  0  0  0  0  0  0  0  0  0
  189.6676  155.3184  127.3660 C   0  0  0  0  0  0  0  0  0  0  0  0
  189.2235  154.7517  128.5213 C   0  0  0  0  0  0  0  0  0  0  0  0
  189.7548  155.0760  129.7445 C   0  0  0  0  0  0  0  0  0  0  0  0
  190.7663  156.0082  129.7435 C   0  0  0  0  0  0  0  0  0  0  0  0
  191.2394  156.6023  128.5777 C   0  0  0  0  0  0  0  0  0  0  0  0
  189.6537  158.3987  124.8845 N   0  0  0  0  0  0  0  0  0  0  0  0
  189.0964  159.0789  126.0188 C   0  0  0  0  0  0  0  0  0  0  0  0
  190.0972  159.6391  126.9499 C   0  0  0  0  0  0  0  0  0  0  0  0
  191.4409  159.7340  126.7062 C   0  0  0  0  0  0  0  0  0  0  0  0
  192.2766  160.2223  127.6860 C   0  0  0  0  0  0  0  0  0  0  0  0
  191.7994  160.6186  128.9112 C   0  0  0  0  0  0  0  0  0  0  0  0
  190.4371  160.5305  129.1834 C   0  0  0  0  0  0  0  0  0  0  0  0
  189.6176  160.0455  128.1996 C   0  0  0  0  0  0  0  0  0  0  0  0
  189.9836  160.9073  130.5062 C   0  0  0  0  0  0  0  0  0  0  0  0
  190.4225  160.3302  131.5393 O   0  0  0  0  0  0  0  0  0  0  0  0
  189.0220  161.9446  130.6604 N   0  0  0  0  0  0  0  0  0  0  0  0
  187.7231  161.7708  130.1087 C   0  0  0  0  0  0  0  0  0  0  0  0
  186.6590  161.2385  130.7807 N   0  0  0  0  0  0  0  0  0  0  0  0
  185.5836  161.2162  129.9952 C   0  0  0  0  0  0  0  0  0  0  0  0
  185.9730  161.7490  128.7908 C   0  0  0  0  0  0  0  0  0  0  0  0
  187.2892  162.0762  128.8987 N   0  0  0  0  0  0  0  0  0  0  0  0
  185.0288  161.8473  127.7722 C   0  0  0  0  0  0  0  0  0  0  0  0
  183.7258  161.4280  127.9372 C   0  0  0  0  0  0  0  0  0  0  0  0
  183.3589  160.8929  129.1620 C   0  0  0  0  0  0  0  0  0  0  0  0
  184.2835  160.7912  130.1764 C   0  0  0  0  0  0  0  0  0  0  0  0
  189.7171  159.1940  123.6803 C   0  0  0  0  0  0  0  0  0  0  0  0
  188.9053  160.1513  123.6024 O   0  0  0  0  0  0  0  0  0  0  0  0
  190.6068  159.0012  122.5798 N   0  0  0  0  0  0  0  0  0  0  0  0
  190.8265  160.2669  121.8602 C   0  0  0  0  0  0  0  0  0  0  0  0
  191.5316  161.2709  122.6816 C   0  0  0  0  0  0  0  0  0  0  0  0
  192.9250  161.2907  122.6900 C   0  0  0  0  0  0  0  0  0  0  0  0
  193.6279  162.2057  123.4580 C   0  0  0  0  0  0  0  0  0  0  0  0
  192.8994  163.1068  124.2201 C   0  0  0  0  0  0  0  0  0  0  0  0
  191.5080  163.1143  124.2342 C   0  0  0  0  0  0  0  0  0  0  0  0
  190.8369  162.1761  123.4480 C   0  0  0  0  0  0  0  0  0  0  0  0
  195.0698  162.2623  123.5101 C   0  0  0  0  0  0  0  0  0  0  0  0
  195.6956  162.9239  122.6320 O   0  0  0  0  0  0  0  0  0  0  0  0
  195.8783  161.6230  124.4903 N   0  0  0  0  0  0  0  0  0  0  0  0
  196.9262  162.2577  125.2145 C   0  0  0  0  0  0  0  0  0  0  0  0
  197.6964  163.2637  124.7003 N   0  0  0  0  0  0  0  0  0  0  0  0
  198.5950  163.6655  125.6085 C   0  0  0  0  0  0  0  0  0  0  0  0
  198.3971  162.8947  126.7431 C   0  0  0  0  0  0  0  0  0  0  0  0
  197.3709  162.0556  126.4477 N   0  0  0  0  0  0  0  0  0  0  0  0
  199.1924  163.0953  127.8375 C   0  0  0  0  0  0  0  0  0  0  0  0
  200.1861  164.0375  127.8556 C   0  0  0  0  0  0  0  0  0  0  0  0
  200.3617  164.7938  126.7083 C   0  0  0  0  0  0  0  0  0  0  0  0
  199.5956  164.6295  125.5980 C   0  0  0  0  0  0  0  0  0  0  0  0
  191.3044  157.8571  122.0496 C   0  0  2  0  0  0  0  0  0  0  0  0
  190.6114  157.3521  120.8249 C   0  0  0  0  0  0  0  0  0  0  0  0
  190.8197  158.1227  119.5983 C   0  0  0  0  0  0  0  0  0  0  0  0
  191.7149  159.2022  119.5754 C   0  0  0  0  0  0  0  0  0  0  0  0
  191.9082  159.9472  118.4452 C   0  0  0  0  0  0  0  0  0  0  0  0
  191.2363  159.6759  117.2770 C   0  0  0  0  0  0  0  0  0  0  0  0
  190.3530  158.6141  117.2923 C   0  0  0  0  0  0  0  0  0  0  0  0
  190.1549  157.8631  118.4232 C   0  0  0  0  0  0  0  0  0  0  0  0
  2  1  1  6
  2  3  1  0
  3  4  1  1
  3  5  1  0
  5  6  1  1
  6  7  1  0
  7  8  2  0
  8  9  1  0
  9 10  2  0
 10 11  1  0
 11 12  2  0
  5 13  1  0
 13 14  1  0
 14 15  1  0
 15 16  2  0
 16 17  1  0
 17 18  2  0
 18 19  1  0
 19 20  2  0
 19 21  1  0
 21 22  2  0
 21 23  1  0
 23 24  1  0
 24 25  2  0
 25 26  1  0
 26 27  2  0
 27 28  1  0
 27 29  1  0
 29 30  2  0
 30 31  1  0
 31 32  2  0
 13 33  1  0
 33 34  2  0
 33 35  1  0
 35 36  1  0
 36 37  1  0
 37 38  2  0
 38 39  1  0
 39 40  2  0
 40 41  1  0
 41 42  2  0
 39 43  1  0
 43 44  2  0
 43 45  1  0
 45 46  1  0
 46 47  2  0
 47 48  1  0
 48 49  2  0
 49 50  1  0
 49 51  1  0
 51 52  2  0
 52 53  1  0
 53 54  2  0
 35 55  1  0
 55 56  1  6
 56 57  1  0
 57 58  2  0
 58 59  1  0
 59 60  2  0
 60 61  1  0
 61 62  2  0
 55  2  1  0
 62 57  1  0
 12  7  1  0
 20 15  1  0
 28 24  1  0
 42 37  1  0
 50 46  1  0
 32 26  1  0
 54 48  1  0
M  END
$$$$
