
     RDKit          3D

 62 70  0  0  0  0  0  0  0  0999 V2000
  191.1398  154.6060  123.4232 O   0  0  0  0  0  0  0  0  0  0  0  0
  191.0455  156.0020  123.5673 C   0  0  2  0  0  0  0  0  0  0  0  0
  192.0313  156.6581  122.6770 C   0  0  1  0  0  0  0  0  0  0  0  0
  192.7693  155.7787  121.8849 O   0  0  0  0  0  0  0  0  0  0  0  0
  191.4012  157.7706  121.8966 C   0  0  1  0  0  0  0  0  0  0  0  0
  190.1856  157.4396  121.1188 C   0  0  0  0  0  0  0  0  0  0  0  0
  190.2045  157.9864  119.7299 C   0  0  0  0  0  0  0  0  0  0  0  0
  188.9925  158.1071  119.0361 C   0  0  0  0  0  0  0  0  0  0  0  0
  188.9548  158.5857  117.7623 C   0  0  0  0  0  0  0  0  0  0  0  0
  190.0898  158.9712  117.0937 C   0  0  0  0  0  0  0  0  0  0  0  0
  191.2750  158.8493  117.7812 C   0  0  0  0  0  0  0  0  0  0  0  0
  191.3417  158.3638  119.0834 C   0  0  0  0  0  0  0  0  0  0  0  0
  191.2135  158.8794  122.8009 N   0  0  0  0  0  0  0  0  0  0  0  0
  190.9487  160.1474  122.1828 C   0  0  0  0  0  0  0  0  0  0  0  0
  189.5148  160.4759  122.0482 C   0  0  0  0  0  0  0  0  0  0  0  0
  188.4844  159.5786  122.1339 C   0  0  0  0  0  0  0  0  0  0  0  0
  187.1915  160.0065  121.9284 C   0  0  0  0  0  0  0  0  0  0  0  0
  186.9019  161.3166  121.6359 C   0  0  0  0  0  0  0  0  0  0  0  0
  187.9324  162.2476  121.5422 C   0  0  0  0  0  0  0  0  0  0  0  0
  189.2125  161.8091  121.7511 C   0  0  0  0  0  0  0  0  0  0  0  0
  187.5883  163.6065  121.1781 C   0  0  0  0  0  0  0  0  0  0  0  0
  187.0688  163.8744  120.0594 O   0  0  0  0  0  0  0  0  0  0  0  0
  187.8378  164.6720  122.0875 N   0  0  0  0  0  0  0  0  0  0  0  0
  187.5297  166.0031  121.6942 C   0  0  0  0  0  0  0  0  0  0  0  0
  187.8453  167.1192  122.4168 N   0  0  0  0  0  0  0  0  0  0  0  0
  187.4291  168.2123  121.7800 C   0  0  0  0  0  0  0  0  0  0  0  0
  186.8325  167.7812  120.6205 C   0  0  0  0  0  0  0  0  0  0  0  0
  186.9133  166.4232  120.6036 N   0  0  0  0  0  0  0  0  0  0  0  0
  186.3032  168.7328  119.7528 C   0  0  0  0  0  0  0  0  0  0  0  0
  186.3600  170.0837  120.0229 C   0  0  0  0  0  0  0  0  0  0  0  0
  186.9664  170.4923  121.2005 C   0  0  0  0  0  0  0  0  0  0  0  0
  187.4935  169.5607  122.0655 C   0  0  0  0  0  0  0  0  0  0  0  0
  191.2888  158.9196  124.2428 C   0  0  0  0  0  0  0  0  0  0  0  0
  191.5820  160.0306  124.7539 O   0  0  0  0  0  0  0  0  0  0  0  0
  191.0621  157.8291  125.1369 N   0  0  0  0  0  0  0  0  0  0  0  0
  190.6245  158.3188  126.4548 C   0  0  0  0  0  0  0  0  0  0  0  0
  190.5962  159.7929  126.5309 C   0  0  0  0  0  0  0  0  0  0  0  0
  191.1641  160.4316  127.6316 C   0  0  0  0  0  0  0  0  0  0  0  0
  191.1467  161.8123  127.7516 C   0  0  0  0  0  0  0  0  0  0  0  0
  190.5459  162.5431  126.7375 C   0  0  0  0  0  0  0  0  0  0  0  0
  189.9700  161.9370  125.6252 C   0  0  0  0  0  0  0  0  0  0  0  0
  190.0070  160.5440  125.5419 C   0  0  0  0  0  0  0  0  0  0  0  0
  191.7115  162.5223  128.8750 C   0  0  0  0  0  0  0  0  0  0  0  0
  191.9003  161.9076  129.9644 O   0  0  0  0  0  0  0  0  0  0  0  0
  192.0890  163.8936  128.8695 N   0  0  0  0  0  0  0  0  0  0  0  0
  192.6060  164.5954  129.9946 C   0  0  0  0  0  0  0  0  0  0  0  0
  193.1963  165.8258  129.9097 N   0  0  0  0  0  0  0  0  0  0  0  0
  193.5805  166.2368  131.1250 C   0  0  0  0  0  0  0  0  0  0  0  0
  193.2262  165.2403  132.0208 C   0  0  0  0  0  0  0  0  0  0  0  0
  192.6379  164.2665  131.2791 N   0  0  0  0  0  0  0  0  0  0  0  0
  193.5092  165.4007  133.3491 C   0  0  0  0  0  0  0  0  0  0  0  0
  194.1351  166.5186  133.8329 C   0  0  0  0  0  0  0  0  0  0  0  0
  194.4777  167.4986  132.9158 C   0  0  0  0  0  0  0  0  0  0  0  0
  194.2163  167.3826  131.5873 C   0  0  0  0  0  0  0  0  0  0  0  0
  191.1751  156.3978  125.0133 C   0  0  2  0  0  0  0  0  0  0  0  0
  192.4277  155.9199  125.6749 C   0  0  0  0  0  0  0  0  0  0  0  0
  192.3522  155.6939  127.1189 C   0  0  0  0  0  0  0  0  0  0  0  0
  193.0685  154.6469  127.7171 C   0  0  0  0  0  0  0  0  0  0  0  0
  192.9951  154.4067  129.0612 C   0  0  0  0  0  0  0  0  0  0  0  0
  192.2172  155.1778  129.8919 C   0  0  0  0  0  0  0  0  0  0  0  0
  191.5089  156.2107  129.3094 C   0  0  0  0  0  0  0  0  0  0  0  0
  191.5786  156.4565  127.9615 C   0  0  0  0  0  0  0  0  0  0  0  0
  2  1  1  1
  2  3  1  0
  3  4  1  6
  3  5  1  0
  5  6  1  1
  6  7  1  0
  7  8  2  0
  8  9  1  0
  9 10  2  0
 10 11  1  0
 11 12  2  0
  5 13  1  0
 13 14  1  0
 14 15  1  0
 15 16  2  0
 16 17  1  0
 17 18  2  0
 18 19  1  0
 19 20  2  0
 19 21  1  0
 21 22  2  0
 21 23  1  0
 23 24  1  0
 24 25  2  0
 25 26  1  0
 26 27  2  0
 27 28  1  0
 27 29  1  0
 29 30  2  0
 30 31  1  0
 31 32  2  0
 13 33  1  0
 33 34  2  0
 33 35  1  0
 35 36  1  0
 36 37  1  0
 37 38  2  0
 38 39  1  0
 39 40  2  0
 40 41  1  0
 41 42  2  0
 39 43  1  0
 43 44  2  0
 43 45  1  0
 45 46  1  0
 46 47  2  0
 47 48  1  0
 48 49  2  0
 49 50  1  0
 49 51  1  0
 51 52  2  0
 52 53  1  0
 53 54  2  0
 35 55  1  0
 55 56  1  6
 56 57  1  0
 57 58  2  0
 58 59  1  0
 59 60  2  0
 60 61  1  0
 61 62  2  0
 55  2  1  0
 62 57  1  0
 12  7  1  0
 20 15  1  0
 28 24  1  0
 42 37  1  0
 50 46  1  0
 32 26  1  0
 54 48  1  0
M  END
$$$$
