
     RDKit          3D

 62 70  0  0  0  0  0  0  0  0999 V2000
  188.7116  158.4933  126.4624 O   0  0  0  0  0  0  0  0  0  0  0  0
  189.3286  159.7549  126.5419 C   0  0  2  0  0  0  0  0  0  0  0  0
  189.2743  160.2440  127.9392 C   0  0  1  0  0  0  0  0  0  0  0  0
  188.6917  159.3534  128.8408 O   0  0  0  0  0  0  0  0  0  0  0  0
  190.6101  160.7514  128.3885 C   0  0  1  0  0  0  0  0  0  0  0  0
  191.7619  159.8335  128.2371 C   0  0  0  0  0  0  0  0  0  0  0  0
  192.8202  160.0365  129.2701 C   0  0  0  0  0  0  0  0  0  0  0  0
  193.3542  161.3208  129.4452 C   0  0  0  0  0  0  0  0  0  0  0  0
  194.3314  161.5581  130.3627 C   0  0  0  0  0  0  0  0  0  0  0  0
  194.8431  160.5633  131.1578 C   0  0  0  0  0  0  0  0  0  0  0  0
  194.3142  159.3060  130.9796 C   0  0  0  0  0  0  0  0  0  0  0  0
  193.3151  159.0360  130.0498 C   0  0  0  0  0  0  0  0  0  0  0  0
  190.8182  162.0335  127.7598 N   0  0  0  0  0  0  0  0  0  0  0  0
  191.8657  162.8382  128.3211 C   0  0  0  0  0  0  0  0  0  0  0  0
  192.3629  162.3700  129.6310 C   0  0  0  0  0  0  0  0  0  0  0  0
  193.5499  161.7215  129.8427 C   0  0  0  0  0  0  0  0  0  0  0  0
  193.8681  161.2823  131.1087 C   0  0  0  0  0  0  0  0  0  0  0  0
  193.0233  161.4751  132.1740 C   0  0  0  0  0  0  0  0  0  0  0  0
  191.8102  162.1306  131.9839 C   0  0  0  0  0  0  0  0  0  0  0  0
  191.5076  162.5639  130.7209 C   0  0  0  0  0  0  0  0  0  0  0  0
  190.9252  162.2642  133.1225 C   0  0  0  0  0  0  0  0  0  0  0  0
  189.9911  161.4406  133.3276 O   0  0  0  0  0  0  0  0  0  0  0  0
  191.0975  163.3421  134.0352 N   0  0  0  0  0  0  0  0  0  0  0  0
  190.1927  163.4776  135.1237 C   0  0  0  0  0  0  0  0  0  0  0  0
  190.1208  164.5694  135.9424 N   0  0  0  0  0  0  0  0  0  0  0  0
  189.1708  164.3948  136.8593 C   0  0  0  0  0  0  0  0  0  0  0  0
  188.6226  163.1589  136.6182 C   0  0  0  0  0  0  0  0  0  0  0  0
  189.2744  162.6279  135.5485 N   0  0  0  0  0  0  0  0  0  0  0  0
  187.5901  162.7187  137.4420 C   0  0  0  0  0  0  0  0  0  0  0  0
  187.1073  163.4815  138.4841 C   0  0  0  0  0  0  0  0  0  0  0  0
  187.6788  164.7245  138.7068 C   0  0  0  0  0  0  0  0  0  0  0  0
  188.6997  165.1704  137.8987 C   0  0  0  0  0  0  0  0  0  0  0  0
  190.1050  162.6546  126.6680 C   0  0  0  0  0  0  0  0  0  0  0  0
  190.1281  163.9115  126.6317 O   0  0  0  0  0  0  0  0  0  0  0  0
  189.3840  161.9848  125.6328 N   0  0  0  0  0  0  0  0  0  0  0  0
  189.3197  162.8178  124.4204 C   0  0  0  0  0  0  0  0  0  0  0  0
  190.4185  162.5312  123.4769 C   0  0  0  0  0  0  0  0  0  0  0  0
  190.4657  161.2936  122.8380 C   0  0  0  0  0  0  0  0  0  0  0  0
  191.4872  160.9764  121.9565 C   0  0  0  0  0  0  0  0  0  0  0  0
  192.4647  161.9329  121.7265 C   0  0  0  0  0  0  0  0  0  0  0  0
  192.4472  163.1781  122.3474 C   0  0  0  0  0  0  0  0  0  0  0  0
  191.4022  163.4589  123.2294 C   0  0  0  0  0  0  0  0  0  0  0  0
  191.5881  159.7065  121.2766 C   0  0  0  0  0  0  0  0  0  0  0  0
  190.6223  158.8918  121.3400 O   0  0  0  0  0  0  0  0  0  0  0  0
  192.7092  159.2729  120.5162 N   0  0  0  0  0  0  0  0  0  0  0  0
  192.8486  157.9758  119.9472 C   0  0  0  0  0  0  0  0  0  0  0  0
  194.0573  157.3793  119.7173 N   0  0  0  0  0  0  0  0  0  0  0  0
  193.8768  156.1657  119.1803 C   0  0  0  0  0  0  0  0  0  0  0  0
  192.5092  155.9744  119.0611 C   0  0  0  0  0  0  0  0  0  0  0  0
  191.9328  157.1063  119.5419 N   0  0  0  0  0  0  0  0  0  0  0  0
  192.0392  154.8046  118.5312 C   0  0  0  0  0  0  0  0  0  0  0  0
  192.8755  153.8054  118.1098 C   0  0  0  0  0  0  0  0  0  0  0  0
  194.2372  154.0230  118.2408 C   0  0  0  0  0  0  0  0  0  0  0  0
  194.7495  155.1689  118.7615 C   0  0  0  0  0  0  0  0  0  0  0  0
  188.7276  160.7051  125.5418 C   0  0  2  0  0  0  0  0  0  0  0  0
  187.2472  160.8747  125.6627 C   0  0  0  0  0  0  0  0  0  0  0  0
  186.6552  161.9688  124.8919 C   0  0  0  0  0  0  0  0  0  0  0  0
  185.2711  162.1947  124.9180 C   0  0  0  0  0  0  0  0  0  0  0  0
  184.6965  163.1987  124.1889 C   0  0  0  0  0  0  0  0  0  0  0  0
  185.4450  164.0354  123.3954 C   0  0  0  0  0  0  0  0  0  0  0  0
  186.8088  163.8186  123.3649 C   0  0  0  0  0  0  0  0  0  0  0  0
  187.3909  162.8129  124.0942 C   0  0  0  0  0  0  0  0  0  0  0  0
  2  1  1  1
  2  3  1  0
  3  4  1  1
  3  5  1  0
  5  6  1  6
  6  7  1  0
  7  8  2  0
  8  9  1  0
  9 10  2  0
 10 11  1  0
 11 12  2  0
  5 13  1  0
 13 14  1  0
 14 15  1  0
 15 16  2  0
 16 17  1  0
 17 18  2  0
 18 19  1  0
 19 20  2  0
 19 21  1  0
 21 22  2  0
 21 23  1  0
 23 24  1  0
 24 25  2  0
 25 26  1  0
 26 27  2  0
 27 28  1  0
 27 29  1  0
 29 30  2  0
 30 31  1  0
 31 32  2  0
 13 33  1  0
 33 34  2  0
 33 35  1  0
 35 36  1  0
 36 37  1  0
 37 38  2  0
 38 39  1  0
 39 40  2  0
 40 41  1  0
 41 42  2  0
 39 43  1  0
 43 44  2  0
 43 45  1  0
 45 46  1  0
 46 47  2  0
 47 48  1  0
 48 49  2  0
 49 50  1  0
 49 51  1  0
 51 52  2  0
 52 53  1  0
 53 54  2  0
 35 55  1  0
 55 56  1  1
 56 57  1  0
 57 58  2  0
 58 59  1  0
 59 60  2  0
 60 61  1  0
 61 62  2  0
 55  2  1  0
 62 57  1  0
 12  7  1  0
 20 15  1  0
 28 24  1  0
 42 37  1  0
 50 46  1  0
 32 26  1  0
 54 48  1  0
M  END
$$$$
