
     RDKit          3D

 62 70  0  0  0  0  0  0  0  0999 V2000
  202.8447  128.7894  135.5002 O   0  0  0  0  0  0  0  0  0  0  0  0
  203.0529  129.9982  134.8118 C   0  0  2  0  0  0  0  0  0  0  0  0
  201.7476  130.5575  134.3899 C   0  0  1  0  0  0  0  0  0  0  0  0
  200.6409  129.8145  134.8006 O   0  0  0  0  0  0  0  0  0  0  0  0
  201.6442  132.0118  134.7334 C   0  0  1  0  0  0  0  0  0  0  0  0
  201.9046  132.3887  136.1413 C   0  0  0  0  0  0  0  0  0  0  0  0
  200.9257  133.3788  136.6796 C   0  0  0  0  0  0  0  0  0  0  0  0
  201.2328  134.0519  137.8703 C   0  0  0  0  0  0  0  0  0  0  0  0
  200.3692  134.9537  138.4125 C   0  0  0  0  0  0  0  0  0  0  0  0
  199.1622  135.2496  137.8299 C   0  0  0  0  0  0  0  0  0  0  0  0
  198.8681  134.5847  136.6621 C   0  0  0  0  0  0  0  0  0  0  0  0
  199.7326  133.6590  136.0865 C   0  0  0  0  0  0  0  0  0  0  0  0
  202.4609  132.7369  133.7901 N   0  0  0  0  0  0  0  0  0  0  0  0
  202.2289  134.1518  133.7261 C   0  0  0  0  0  0  0  0  0  0  0  0
  203.4390  134.9798  133.9058 C   0  0  0  0  0  0  0  0  0  0  0  0
  204.5484  134.6177  134.6216 C   0  0  0  0  0  0  0  0  0  0  0  0
  205.5878  135.5102  134.7623 C   0  0  0  0  0  0  0  0  0  0  0  0
  205.5444  136.7638  134.2034 C   0  0  0  0  0  0  0  0  0  0  0  0
  204.4268  137.1559  133.4722 C   0  0  0  0  0  0  0  0  0  0  0  0
  203.4019  136.2579  133.3382 C   0  0  0  0  0  0  0  0  0  0  0  0
  204.3988  138.5051  132.9464 C   0  0  0  0  0  0  0  0  0  0  0  0
  205.3662  139.2970  133.1201 O   0  0  0  0  0  0  0  0  0  0  0  0
  203.2639  138.9628  132.2205 N   0  0  0  0  0  0  0  0  0  0  0  0
  203.3474  139.0748  130.8056 C   0  0  0  0  0  0  0  0  0  0  0  0
  204.2667  139.8355  130.1397 N   0  0  0  0  0  0  0  0  0  0  0  0
  204.0889  139.7252  128.8243 C   0  0  0  0  0  0  0  0  0  0  0  0
  203.0280  138.8711  128.6476 C   0  0  0  0  0  0  0  0  0  0  0  0
  202.6005  138.4944  129.8830 N   0  0  0  0  0  0  0  0  0  0  0  0
  202.6237  138.5750  127.3485 C   0  0  0  0  0  0  0  0  0  0  0  0
  203.2525  139.1107  126.2446 C   0  0  0  0  0  0  0  0  0  0  0  0
  204.3197  139.9708  126.4507 C   0  0  0  0  0  0  0  0  0  0  0  0
  204.7286  140.2705  127.7302 C   0  0  0  0  0  0  0  0  0  0  0  0
  203.4579  132.2505  132.8648 C   0  0  0  0  0  0  0  0  0  0  0  0
  203.6588  132.9548  131.8425 O   0  0  0  0  0  0  0  0  0  0  0  0
  204.2328  131.0582  132.9989 N   0  0  0  0  0  0  0  0  0  0  0  0
  205.5043  131.1787  132.2662 C   0  0  0  0  0  0  0  0  0  0  0  0
  206.6808  131.0831  133.1530 C   0  0  0  0  0  0  0  0  0  0  0  0
  207.5084  129.9648  133.0725 C   0  0  0  0  0  0  0  0  0  0  0  0
  208.6147  129.8265  133.8960 C   0  0  0  0  0  0  0  0  0  0  0  0
  208.8758  130.8402  134.8057 C   0  0  0  0  0  0  0  0  0  0  0  0
  208.0701  131.9698  134.9116 C   0  0  0  0  0  0  0  0  0  0  0  0
  206.9647  132.0714  134.0652 C   0  0  0  0  0  0  0  0  0  0  0  0
  209.4978  128.6846  133.8600 C   0  0  0  0  0  0  0  0  0  0  0  0
  210.2375  128.4423  134.8574 O   0  0  0  0  0  0  0  0  0  0  0  0
  209.6161  127.7764  132.7719 N   0  0  0  0  0  0  0  0  0  0  0  0
  210.4186  127.9966  131.6173 C   0  0  0  0  0  0  0  0  0  0  0  0
  210.2864  127.2812  130.4595 N   0  0  0  0  0  0  0  0  0  0  0  0
  211.1700  127.7111  129.5495 C   0  0  0  0  0  0  0  0  0  0  0  0
  211.8935  128.7356  130.1393 C   0  0  0  0  0  0  0  0  0  0  0  0
  211.3951  128.8664  131.3960 N   0  0  0  0  0  0  0  0  0  0  0  0
  212.8785  129.3591  129.4243 C   0  0  0  0  0  0  0  0  0  0  0  0
  213.1804  129.0070  128.1357 C   0  0  0  0  0  0  0  0  0  0  0  0
  212.4415  127.9804  127.5710 C   0  0  0  0  0  0  0  0  0  0  0  0
  211.4539  127.3326  128.2430 C   0  0  0  0  0  0  0  0  0  0  0  0
  204.0256  129.8052  133.6798 C   0  0  2  0  0  0  0  0  0  0  0  0
  203.6329  128.7450  132.7016 C   0  0  0  0  0  0  0  0  0  0  0  0
  203.2646  129.2040  131.3617 C   0  0  0  0  0  0  0  0  0  0  0  0
  204.2509  129.5879  130.4413 C   0  0  0  0  0  0  0  0  0  0  0  0
  203.9264  130.0389  129.1918 C   0  0  0  0  0  0  0  0  0  0  0  0
  202.6199  130.1384  128.7760 C   0  0  0  0  0  0  0  0  0  0  0  0
  201.6433  129.7620  129.6774 C   0  0  0  0  0  0  0  0  0  0  0  0
  201.9628  129.3088  130.9323 C   0  0  0  0  0  0  0  0  0  0  0  0
  2  1  1  6
  2  3  1  0
  3  4  1  1
  3  5  1  0
  5  6  1  1
  6  7  1  0
  7  8  2  0
  8  9  1  0
  9 10  2  0
 10 11  1  0
 11 12  2  0
  5 13  1  0
 13 14  1  0
 14 15  1  0
 15 16  2  0
 16 17  1  0
 17 18  2  0
 18 19  1  0
 19 20  2  0
 19 21  1  0
 21 22  2  0
 21 23  1  0
 23 24  1  0
 24 25  2  0
 25 26  1  0
 26 27  2  0
 27 28  1  0
 27 29  1  0
 29 30  2  0
 30 31  1  0
 31 32  2  0
 13 33  1  0
 33 34  2  0
 33 35  1  0
 35 36  1  0
 36 37  1  0
 37 38  2  0
 38 39  1  0
 39 40  2  0
 40 41  1  0
 41 42  2  0
 39 43  1  0
 43 44  2  0
 43 45  1  0
 45 46  1  0
 46 47  2  0
 47 48  1  0
 48 49  2  0
 49 50  1  0
 49 51  1  0
 51 52  2  0
 52 53  1  0
 53 54  2  0
 35 55  1  0
 55 56  1  6
 56 57  1  0
 57 58  2  0
 58 59  1  0
 59 60  2  0
 60 61  1  0
 61 62  2  0
 55  2  1  0
 62 57  1  0
 12  7  1  0
 20 15  1  0
 28 24  1  0
 42 37  1  0
 50 46  1  0
 32 26  1  0
 54 48  1  0
M  END
$$$$
