
     RDKit          3D

 62 70  0  0  0  0  0  0  0  0999 V2000
  191.4589  159.7660  130.5982 O   0  0  0  0  0  0  0  0  0  0  0  0
  191.0543  160.7889  129.7217 C   0  0  2  0  0  0  0  0  0  0  0  0
  191.1894  160.3222  128.3222 C   0  0  1  0  0  0  0  0  0  0  0  0
  191.6218  159.0025  128.1925 O   0  0  0  0  0  0  0  0  0  0  0  0
  189.9540  160.6205  127.5294 C   0  0  1  0  0  0  0  0  0  0  0  0
  188.6687  160.1374  128.0830 C   0  0  0  0  0  0  0  0  0  0  0  0
  187.6264  161.2021  128.1750 C   0  0  0  0  0  0  0  0  0  0  0  0
  186.6031  161.2287  127.2173 C   0  0  0  0  0  0  0  0  0  0  0  0
  185.6362  162.1864  127.2462 C   0  0  0  0  0  0  0  0  0  0  0  0
  185.6108  163.1692  128.2039 C   0  0  0  0  0  0  0  0  0  0  0  0
  186.6185  163.1364  129.1398 C   0  0  0  0  0  0  0  0  0  0  0  0
  187.6184  162.1690  129.1336 C   0  0  0  0  0  0  0  0  0  0  0  0
  189.9550  162.0354  127.2453 N   0  0  0  0  0  0  0  0  0  0  0  0
  189.0524  162.4629  126.2146 C   0  0  0  0  0  0  0  0  0  0  0  0
  189.1793  161.7219  124.9429 C   0  0  0  0  0  0  0  0  0  0  0  0
  189.6153  160.4302  124.8181 C   0  0  0  0  0  0  0  0  0  0  0  0
  189.7456  159.8749  123.5645 C   0  0  0  0  0  0  0  0  0  0  0  0
  189.4509  160.5839  122.4260 C   0  0  0  0  0  0  0  0  0  0  0  0
  189.0071  161.8994  122.5268 C   0  0  0  0  0  0  0  0  0  0  0  0
  188.8798  162.4380  123.7791 C   0  0  0  0  0  0  0  0  0  0  0  0
  188.7600  162.6281  121.2999 C   0  0  0  0  0  0  0  0  0  0  0  0
  189.7096  163.0121  120.5623 O   0  0  0  0  0  0  0  0  0  0  0  0
  187.4259  162.9278  120.9063 N   0  0  0  0  0  0  0  0  0  0  0  0
  187.2086  163.7078  119.7375 C   0  0  0  0  0  0  0  0  0  0  0  0
  185.9876  164.1570  119.3197 N   0  0  0  0  0  0  0  0  0  0  0  0
  186.1166  164.8635  118.1981 C   0  0  0  0  0  0  0  0  0  0  0  0
  187.4558  164.8647  117.8934 C   0  0  0  0  0  0  0  0  0  0  0  0
  188.0918  164.1468  118.8583 N   0  0  0  0  0  0  0  0  0  0  0  0
  187.8763  165.5431  116.7525 C   0  0  0  0  0  0  0  0  0  0  0  0
  186.9938  166.2072  115.9271 C   0  0  0  0  0  0  0  0  0  0  0  0
  185.6476  166.1896  116.2565 C   0  0  0  0  0  0  0  0  0  0  0  0
  185.2204  165.5227  117.3820 C   0  0  0  0  0  0  0  0  0  0  0  0
  190.7574  163.0925  127.8156 C   0  0  0  0  0  0  0  0  0  0  0  0
  190.9378  164.1057  127.0929 O   0  0  0  0  0  0  0  0  0  0  0  0
  191.3588  163.0990  129.1111 N   0  0  0  0  0  0  0  0  0  0  0  0
  191.5549  164.4786  129.5870 C   0  0  0  0  0  0  0  0  0  0  0  0
  191.5539  164.5756  131.0602 C   0  0  0  0  0  0  0  0  0  0  0  0
  191.4352  163.4145  131.8216 C   0  0  0  0  0  0  0  0  0  0  0  0
  191.4145  163.4603  133.2067 C   0  0  0  0  0  0  0  0  0  0  0  0
  191.5181  164.7022  133.8154 C   0  0  0  0  0  0  0  0  0  0  0  0
  191.6382  165.8804  133.0850 C   0  0  0  0  0  0  0  0  0  0  0  0
  191.6540  165.7923  131.6919 C   0  0  0  0  0  0  0  0  0  0  0  0
  191.2836  162.2893  134.0415 C   0  0  0  0  0  0  0  0  0  0  0  0
  191.1065  162.4327  135.2859 O   0  0  0  0  0  0  0  0  0  0  0  0
  191.3359  160.9454  133.5788 N   0  0  0  0  0  0  0  0  0  0  0  0
  192.0916  159.9070  134.1921 C   0  0  0  0  0  0  0  0  0  0  0  0
  191.6455  158.6201  134.3126 N   0  0  0  0  0  0  0  0  0  0  0  0
  192.5687  157.8685  134.9264 C   0  0  0  0  0  0  0  0  0  0  0  0
  193.6430  158.6971  135.2096 C   0  0  0  0  0  0  0  0  0  0  0  0
  193.2986  159.9247  134.7418 N   0  0  0  0  0  0  0  0  0  0  0  0
  194.7377  158.1818  135.8471 C   0  0  0  0  0  0  0  0  0  0  0  0
  194.8140  156.8663  136.2199 C   0  0  0  0  0  0  0  0  0  0  0  0
  193.7265  156.0609  135.9243 C   0  0  0  0  0  0  0  0  0  0  0  0
  192.6182  156.5291  135.2924 C   0  0  0  0  0  0  0  0  0  0  0  0
  191.7994  162.0638  130.0116 C   0  0  2  0  0  0  0  0  0  0  0  0
  193.2880  161.9348  129.9609 C   0  0  0  0  0  0  0  0  0  0  0  0
  194.0403  163.1772  129.7814 C   0  0  0  0  0  0  0  0  0  0  0  0
  195.4395  163.1859  129.8771 C   0  0  0  0  0  0  0  0  0  0  0  0
  196.1591  164.3397  129.7329 C   0  0  0  0  0  0  0  0  0  0  0  0
  195.5483  165.5465  129.4873 C   0  0  0  0  0  0  0  0  0  0  0  0
  194.1704  165.5453  129.3917 C   0  0  0  0  0  0  0  0  0  0  0  0
  193.4432  164.3909  129.5355 C   0  0  0  0  0  0  0  0  0  0  0  0
  2  1  1  1
  2  3  1  0
  3  4  1  1
  3  5  1  0
  5  6  1  1
  6  7  1  0
  7  8  2  0
  8  9  1  0
  9 10  2  0
 10 11  1  0
 11 12  2  0
  5 13  1  0
 13 14  1  0
 14 15  1  0
 15 16  2  0
 16 17  1  0
 17 18  2  0
 18 19  1  0
 19 20  2  0
 19 21  1  0
 21 22  2  0
 21 23  1  0
 23 24  1  0
 24 25  2  0
 25 26  1  0
 26 27  2  0
 27 28  1  0
 27 29  1  0
 29 30  2  0
 30 31  1  0
 31 32  2  0
 13 33  1  0
 33 34  2  0
 33 35  1  0
 35 36  1  0
 36 37  1  0
 37 38  2  0
 38 39  1  0
 39 40  2  0
 40 41  1  0
 41 42  2  0
 39 43  1  0
 43 44  2  0
 43 45  1  0
 45 46  1  0
 46 47  2  0
 47 48  1  0
 48 49  2  0
 49 50  1  0
 49 51  1  0
 51 52  2  0
 52 53  1  0
 53 54  2  0
 35 55  1  0
 55 56  1  6
 56 57  1  0
 57 58  2  0
 58 59  1  0
 59 60  2  0
 60 61  1  0
 61 62  2  0
 55  2  1  0
 62 57  1  0
 12  7  1  0
 20 15  1  0
 28 24  1  0
 42 37  1  0
 50 46  1  0
 32 26  1  0
 54 48  1  0
M  END
$$$$
