
     RDKit          3D

 62 70  0  0  0  0  0  0  0  0999 V2000
  144.6585  179.3827  148.7935 O   0  0  0  0  0  0  0  0  0  0  0  0
  145.3350  178.3813  149.5133 C   0  0  2  0  0  0  0  0  0  0  0  0
  146.0089  177.4624  148.5666 C   0  0  1  0  0  0  0  0  0  0  0  0
  145.8708  177.8132  147.2238 O   0  0  0  0  0  0  0  0  0  0  0  0
  147.4301  177.2146  148.9701 C   0  0  1  0  0  0  0  0  0  0  0  0
  148.2834  178.4051  149.1859 C   0  0  0  0  0  0  0  0  0  0  0  0
  149.7376  178.0815  149.2811 C   0  0  0  0  0  0  0  0  0  0  0  0
  150.3139  177.2696  148.2942 C   0  0  0  0  0  0  0  0  0  0  0  0
  151.6317  176.9318  148.3412 C   0  0  0  0  0  0  0  0  0  0  0  0
  152.4599  177.3621  149.3476 C   0  0  0  0  0  0  0  0  0  0  0  0
  151.8868  178.1579  150.3122 C   0  0  0  0  0  0  0  0  0  0  0  0
  150.5432  178.5184  150.2880 C   0  0  0  0  0  0  0  0  0  0  0  0
  147.4073  176.3186  150.1011 N   0  0  0  0  0  0  0  0  0  0  0  0
  148.6564  175.6873  150.4189 C   0  0  0  0  0  0  0  0  0  0  0  0
  148.7103  174.2442  150.1076 C   0  0  0  0  0  0  0  0  0  0  0  0
  147.7132  173.5254  149.5050 C   0  0  0  0  0  0  0  0  0  0  0  0
  147.8661  172.1684  149.3263 C   0  0  0  0  0  0  0  0  0  0  0  0
  148.9973  171.5082  149.7392 C   0  0  0  0  0  0  0  0  0  0  0  0
  150.0246  172.2169  150.3555 C   0  0  0  0  0  0  0  0  0  0  0  0
  149.8603  173.5656  150.5247 C   0  0  0  0  0  0  0  0  0  0  0  0
  151.1756  171.4734  150.8246 C   0  0  0  0  0  0  0  0  0  0  0  0
  151.6959  171.7107  151.9498 O   0  0  0  0  0  0  0  0  0  0  0  0
  151.7446  170.4544  150.0107 N   0  0  0  0  0  0  0  0  0  0  0  0
  152.0107  169.1804  150.5833 C   0  0  0  0  0  0  0  0  0  0  0  0
  152.4641  168.9808  151.8568 N   0  0  0  0  0  0  0  0  0  0  0  0
  152.6080  167.6783  152.0949 C   0  0  0  0  0  0  0  0  0  0  0  0
  152.2361  167.0308  150.9422 C   0  0  0  0  0  0  0  0  0  0  0  0
  151.8772  167.9836  150.0397 N   0  0  0  0  0  0  0  0  0  0  0  0
  152.2899  165.6398  150.9155 C   0  0  0  0  0  0  0  0  0  0  0  0
  152.7030  164.9008  152.0037 C   0  0  0  0  0  0  0  0  0  0  0  0
  153.0743  165.5787  153.1542 C   0  0  0  0  0  0  0  0  0  0  0  0
  153.0247  166.9535  153.1925 C   0  0  0  0  0  0  0  0  0  0  0  0
  146.3047  175.9256  150.9474 C   0  0  0  0  0  0  0  0  0  0  0  0
  146.4082  174.8069  151.5125 O   0  0  0  0  0  0  0  0  0  0  0  0
  145.1190  176.6795  151.2043 N   0  0  0  0  0  0  0  0  0  0  0  0
  144.5386  176.3094  152.5059 C   0  0  0  0  0  0  0  0  0  0  0  0
  145.0983  177.0987  153.6211 C   0  0  0  0  0  0  0  0  0  0  0  0
  146.1195  176.5553  154.3982 C   0  0  0  0  0  0  0  0  0  0  0  0
  146.6637  177.2545  155.4640 C   0  0  0  0  0  0  0  0  0  0  0  0
  146.1605  178.5184  155.7341 C   0  0  0  0  0  0  0  0  0  0  0  0
  145.1419  179.0902  154.9780 C   0  0  0  0  0  0  0  0  0  0  0  0
  144.6194  178.3535  153.9136 C   0  0  0  0  0  0  0  0  0  0  0  0
  147.7151  176.7339  156.3058 C   0  0  0  0  0  0  0  0  0  0  0  0
  148.9003  177.1447  156.1416 O   0  0  0  0  0  0  0  0  0  0  0  0
  147.5355  175.7712  157.3372 N   0  0  0  0  0  0  0  0  0  0  0  0
  148.1703  175.8206  158.6101 C   0  0  0  0  0  0  0  0  0  0  0  0
  148.3026  174.7338  159.4294 N   0  0  0  0  0  0  0  0  0  0  0  0
  148.9424  175.0804  160.5538 C   0  0  0  0  0  0  0  0  0  0  0  0
  149.2316  176.4322  160.4555 C   0  0  0  0  0  0  0  0  0  0  0  0
  148.7392  176.8309  159.2542 N   0  0  0  0  0  0  0  0  0  0  0  0
  149.8871  177.0544  161.4819 C   0  0  0  0  0  0  0  0  0  0  0  0
  150.2724  176.3867  162.6139 C   0  0  0  0  0  0  0  0  0  0  0  0
  149.9710  175.0366  162.6854 C   0  0  0  0  0  0  0  0  0  0  0  0
  149.3216  174.3770  161.6905 C   0  0  0  0  0  0  0  0  0  0  0  0
  144.4012  177.6904  150.4699 C   0  0  2  0  0  0  0  0  0  0  0  0
  143.1870  177.0985  149.8292 C   0  0  0  0  0  0  0  0  0  0  0  0
  142.0399  176.8644  150.7072 C   0  0  0  0  0  0  0  0  0  0  0  0
  142.0042  175.7470  151.5543 C   0  0  0  0  0  0  0  0  0  0  0  0
  140.9327  175.4996  152.3670 C   0  0  0  0  0  0  0  0  0  0  0  0
  139.8391  176.3321  152.3947 C   0  0  0  0  0  0  0  0  0  0  0  0
  139.8675  177.4345  151.5630 C   0  0  0  0  0  0  0  0  0  0  0  0
  140.9396  177.6878  150.7454 C   0  0  0  0  0  0  0  0  0  0  0  0
  2  1  1  6
  2  3  1  0
  3  4  1  6
  3  5  1  0
  5  6  1  1
  6  7  1  0
  7  8  2  0
  8  9  1  0
  9 10  2  0
 10 11  1  0
 11 12  2  0
  5 13  1  0
 13 14  1  0
 14 15  1  0
 15 16  2  0
 16 17  1  0
 17 18  2  0
 18 19  1  0
 19 20  2  0
 19 21  1  0
 21 22  2  0
 21 23  1  0
 23 24  1  0
 24 25  2  0
 25 26  1  0
 26 27  2  0
 27 28  1  0
 27 29  1  0
 29 30  2  0
 30 31  1  0
 31 32  2  0
 13 33  1  0
 33 34  2  0
 33 35  1  0
 35 36  1  0
 36 37  1  0
 37 38  2  0
 38 39  1  0
 39 40  2  0
 40 41  1  0
 41 42  2  0
 39 43  1  0
 43 44  2  0
 43 45  1  0
 45 46  1  0
 46 47  2  0
 47 48  1  0
 48 49  2  0
 49 50  1  0
 49 51  1  0
 51 52  2  0
 52 53  1  0
 53 54  2  0
 35 55  1  0
 55 56  1  6
 56 57  1  0
 57 58  2  0
 58 59  1  0
 59 60  2  0
 60 61  1  0
 61 62  2  0
 55  2  1  0
 62 57  1  0
 12  7  1  0
 20 15  1  0
 28 24  1  0
 42 37  1  0
 50 46  1  0
 32 26  1  0
 54 48  1  0
M  END
$$$$
