
     RDKit          3D

 47 52  0  0  0  0  0  0  0  0999 V2000
  204.8875  133.8646  132.9018 C   0  0  1  0  0  0  0  0  0  0  0  0
  204.5405  133.6111  134.3620 C   0  0  0  0  0  0  0  0  0  0  0  0
  203.1227  133.1758  134.4995 C   0  0  1  0  0  0  0  0  0  0  0  0
  202.4969  133.9590  135.4989 O   0  0  0  0  0  0  0  0  0  0  0  0
  202.2840  133.3373  133.2696 C   0  0  0  0  0  0  0  0  0  0  0  0
  202.6022  134.6393  132.6373 C   0  0  0  0  0  0  0  0  0  0  0  0
  201.6263  135.5356  132.2602 C   0  0  0  0  0  0  0  0  0  0  0  0
  200.2852  135.2553  132.4743 O   0  0  0  0  0  0  0  0  0  0  0  0
  201.9658  136.7260  131.6636 C   0  0  0  0  0  0  0  0  0  0  0  0
  203.3019  136.9920  131.4556 C   0  0  0  0  0  0  0  0  0  0  0  0
  204.2928  136.0798  131.8396 C   0  0  0  0  0  0  0  0  0  0  0  0
  205.6348  136.3476  131.6288 O   0  0  0  0  0  0  0  0  0  0  0  0
  203.9595  134.9090  132.4275 C   0  0  0  0  0  0  0  0  0  0  0  0
  203.7022  138.2471  130.8260 C   0  0  0  0  0  0  0  0  0  0  0  0
  204.9154  138.5064  130.6287 O   0  0  0  0  0  0  0  0  0  0  0  0
  202.6525  139.1945  130.4310 C   0  0  0  0  0  0  0  0  0  0  0  0
  201.3229  138.9367  130.6341 C   0  0  0  0  0  0  0  0  0  0  0  0
  200.3269  139.8427  130.2590 C   0  0  0  0  0  0  0  0  0  0  0  0
  200.7316  141.0212  129.6689 C   0  0  0  0  0  0  0  0  0  0  0  0
  202.0611  141.3057  129.4512 C   0  0  0  0  0  0  0  0  0  0  0  0
  203.0257  140.3907  129.8326 C   0  0  0  0  0  0  0  0  0  0  0  0
  204.3775  140.6103  129.6447 O   0  0  0  0  0  0  0  0  0  0  0  0
  204.7414  141.6326  128.7097 C   0  0  0  0  0  0  0  0  0  0  0  0
  200.9113  137.6892  131.2616 C   0  0  0  0  0  0  0  0  0  0  0  0
  199.7143  137.3838  131.4801 O   0  0  0  0  0  0  0  0  0  0  0  0
  203.0941  131.7551  134.9461 C   0  0  0  0  0  0  0  0  0  0  0  0
  201.8507  131.2462  135.6280 C   0  0  0  0  0  0  0  0  0  0  0  0
  204.0407  130.9193  134.8110 N   0  0  0  0  0  0  0  0  0  0  0  0
  203.8928  129.8001  133.9980 N   0  0  0  0  0  0  0  0  0  0  0  0
  204.8701  129.5157  133.0322 C   0  0  0  0  0  0  0  0  0  0  0  0
  205.6653  130.4505  132.6777 O   0  0  0  0  0  0  0  0  0  0  0  0
  205.0472  128.2177  132.3968 C   0  0  0  0  0  0  0  0  0  0  0  0
  205.9900  128.0106  131.4112 C   0  0  0  0  0  0  0  0  0  0  0  0
  206.1448  126.7572  130.8136 C   0  0  0  0  0  0  0  0  0  0  0  0
  205.3606  125.6752  131.1862 C   0  0  0  0  0  0  0  0  0  0  0  0
  204.4231  125.8857  132.1681 C   0  0  0  0  0  0  0  0  0  0  0  0
  204.2711  127.1217  132.7555 C   0  0  0  0  0  0  0  0  0  0  0  0
  206.1984  134.1787  132.7122 O   0  0  0  0  0  0  0  0  0  0  0  0
  206.8635  134.5925  133.8638 C   0  0  1  0  0  0  0  0  0  0  0  0
  205.9757  135.2765  134.8481 C   0  0  0  0  0  0  0  0  0  0  0  0
  206.4879  135.2792  136.2515 C   0  0  2  0  0  0  0  0  0  0  0  0
  207.3537  136.4479  136.4187 N   0  0  0  0  0  0  0  0  0  0  0  0
  207.2682  134.0537  136.6307 C   0  0  2  0  0  0  0  0  0  0  0  0
  207.8814  134.1886  137.8504 O   0  0  0  0  0  0  0  0  0  0  0  0
  208.1980  133.6518  135.5264 C   0  0  2  0  0  0  0  0  0  0  0  0
  209.4155  134.5277  135.4159 C   0  0  0  0  0  0  0  0  0  0  0  0
  207.5008  133.4796  134.3630 O   0  0  0  0  0  0  0  0  0  0  0  0
  1  2  1  0
  2  3  1  0
  3  4  1  1
  3  5  1  0
  5  6  1  0
  6  7  2  0
  7  8  1  0
  7  9  1  0
  9 10  2  0
 10 11  1  0
 11 12  1  0
 11 13  2  0
 10 14  1  0
 14 15  2  0
 14 16  1  0
 16 17  2  0
 17 18  1  0
 18 19  2  0
 19 20  1  0
 20 21  2  0
 21 22  1  0
 22 23  1  0
 17 24  1  0
 24 25  2  0
  3 26  1  0
 26 27  1  0
 26 28  2  3
 28 29  1  0
 29 30  1  0
 30 31  2  0
 30 32  1  0
 32 33  2  0
 33 34  1  0
 34 35  2  0
 35 36  1  0
 36 37  2  0
  1 38  1  1
 39 38  1  6
 39 40  1  0
 40 41  1  0
 41 42  1  6
 41 43  1  0
 43 44  1  1
 43 45  1  0
 45 46  1  6
 45 47  1  0
 13  1  1  0
 21 16  1  0
 37 32  1  0
 47 39  1  0
 13  6  1  0
 24  9  1  0
M  END
$$$$
