
     RDKit          3D

 47 52  0  0  0  0  0  0  0  0999 V2000
  129.5258  139.3441  134.2499 C   0  0  1  0  0  0  0  0  0  0  0  0
  130.5433  140.3551  133.7402 C   0  0  0  0  0  0  0  0  0  0  0  0
  129.9342  141.7103  133.6368 C   0  0  1  0  0  0  0  0  0  0  0  0
  130.2154  142.2435  132.3559 O   0  0  0  0  0  0  0  0  0  0  0  0
  128.4441  141.7522  133.7783 C   0  0  0  0  0  0  0  0  0  0  0  0
  127.8572  140.6161  133.0292 C   0  0  0  0  0  0  0  0  0  0  0  0
  126.8193  140.7765  132.1374 C   0  0  0  0  0  0  0  0  0  0  0  0
  126.2835  142.0315  131.8914 O   0  0  0  0  0  0  0  0  0  0  0  0
  126.2956  139.6926  131.4749 C   0  0  0  0  0  0  0  0  0  0  0  0
  126.8364  138.4508  131.7290 C   0  0  0  0  0  0  0  0  0  0  0  0
  127.8915  138.2894  132.6358 C   0  0  0  0  0  0  0  0  0  0  0  0
  128.4330  137.0410  132.8914 O   0  0  0  0  0  0  0  0  0  0  0  0
  128.4078  139.3555  133.2873 C   0  0  0  0  0  0  0  0  0  0  0  0
  126.3079  137.2752  131.0431 C   0  0  0  0  0  0  0  0  0  0  0  0
  126.7886  136.1355  131.2622 O   0  0  0  0  0  0  0  0  0  0  0  0
  125.2034  137.4603  130.0936 C   0  0  0  0  0  0  0  0  0  0  0  0
  124.6609  138.6911  129.8364 C   0  0  0  0  0  0  0  0  0  0  0  0
  123.6112  138.8631  128.9296 C   0  0  0  0  0  0  0  0  0  0  0  0
  123.1322  137.7376  128.2934 C   0  0  0  0  0  0  0  0  0  0  0  0
  123.6577  136.4878  128.5341 C   0  0  0  0  0  0  0  0  0  0  0  0
  124.6964  136.3469  129.4366 C   0  0  0  0  0  0  0  0  0  0  0  0
  125.2714  135.1237  129.7265 O   0  0  0  0  0  0  0  0  0  0  0  0
  124.7316  133.9808  129.0528 C   0  0  0  0  0  0  0  0  0  0  0  0
  125.1797  139.8708  130.5135 C   0  0  0  0  0  0  0  0  0  0  0  0
  124.7345  141.0290  130.3293 O   0  0  0  0  0  0  0  0  0  0  0  0
  130.5621  142.6014  134.6519 C   0  0  0  0  0  0  0  0  0  0  0  0
  131.1247  141.9746  135.9012 C   0  0  0  0  0  0  0  0  0  0  0  0
  130.6618  143.8645  134.5653 N   0  0  0  0  0  0  0  0  0  0  0  0
  129.5743  144.6404  134.1771 N   0  0  0  0  0  0  0  0  0  0  0  0
  129.0312  145.5668  135.0802 C   0  0  0  0  0  0  0  0  0  0  0  0
  129.0315  145.2760  136.3240 O   0  0  0  0  0  0  0  0  0  0  0  0
  128.4608  146.8512  134.6994 C   0  0  0  0  0  0  0  0  0  0  0  0
  127.5621  147.5181  135.5061 C   0  0  0  0  0  0  0  0  0  0  0  0
  127.0258  148.7502  135.1229 C   0  0  0  0  0  0  0  0  0  0  0  0
  127.3748  149.3500  133.9216 C   0  0  0  0  0  0  0  0  0  0  0  0
  128.2702  148.6825  133.1214 C   0  0  0  0  0  0  0  0  0  0  0  0
  128.7970  147.4681  133.4999 C   0  0  0  0  0  0  0  0  0  0  0  0
  130.0572  138.1066  134.4477 O   0  0  0  0  0  0  0  0  0  0  0  0
  130.8371  137.6396  133.3925 C   0  0  1  0  0  0  0  0  0  0  0  0
  132.1786  138.2870  133.3146 C   0  0  0  0  0  0  0  0  0  0  0  0
  133.2059  137.5024  132.5657 C   0  0  2  0  0  0  0  0  0  0  0  0
  133.1011  137.8507  131.1475 N   0  0  0  0  0  0  0  0  0  0  0  0
  133.0695  136.0132  132.6988 C   0  0  2  0  0  0  0  0  0  0  0  0
  133.9028  135.3393  131.8424 O   0  0  0  0  0  0  0  0  0  0  0  0
  131.6329  135.5990  132.5970 C   0  0  2  0  0  0  0  0  0  0  0  0
  131.0944  135.6338  131.1933 C   0  0  0  0  0  0  0  0  0  0  0  0
  130.8826  136.2703  133.5220 O   0  0  0  0  0  0  0  0  0  0  0  0
  1  2  1  0
  2  3  1  0
  3  4  1  6
  3  5  1  0
  5  6  1  0
  6  7  2  0
  7  8  1  0
  7  9  1  0
  9 10  2  0
 10 11  1  0
 11 12  1  0
 11 13  2  0
 10 14  1  0
 14 15  2  0
 14 16  1  0
 16 17  2  0
 17 18  1  0
 18 19  2  0
 19 20  1  0
 20 21  2  0
 21 22  1  0
 22 23  1  0
 17 24  1  0
 24 25  2  0
  3 26  1  0
 26 27  1  0
 26 28  2  3
 28 29  1  0
 29 30  1  0
 30 31  2  0
 30 32  1  0
 32 33  2  0
 33 34  1  0
 34 35  2  0
 35 36  1  0
 36 37  2  0
  1 38  1  6
 39 38  1  1
 39 40  1  0
 40 41  1  0
 41 42  1  6
 41 43  1  0
 43 44  1  6
 43 45  1  0
 45 46  1  6
 45 47  1  0
 13  1  1  0
 21 16  1  0
 37 32  1  0
 47 39  1  0
 13  6  1  0
 24  9  1  0
M  END
$$$$
