
     RDKit          3D

 47 52  0  0  0  0  0  0  0  0999 V2000
  186.3815  160.3611  138.2333 C   0  0  1  0  0  0  0  0  0  0  0  0
  185.5064  161.3908  138.9342 C   0  0  0  0  0  0  0  0  0  0  0  0
  184.8246  160.7885  140.1135 C   0  0  1  0  0  0  0  0  0  0  0  0
  183.4436  161.0932  140.0505 O   0  0  0  0  0  0  0  0  0  0  0  0
  184.9096  159.2964  140.2059 C   0  0  0  0  0  0  0  0  0  0  0  0
  184.7069  158.7181  138.8567 C   0  0  0  0  0  0  0  0  0  0  0  0
  183.8146  157.6959  138.6173 C   0  0  0  0  0  0  0  0  0  0  0  0
  183.0478  157.1690  139.6454 O   0  0  0  0  0  0  0  0  0  0  0  0
  183.6690  157.1795  137.3523 C   0  0  0  0  0  0  0  0  0  0  0  0
  184.4376  157.7113  136.3397 C   0  0  0  0  0  0  0  0  0  0  0  0
  185.3442  158.7504  136.5845 C   0  0  0  0  0  0  0  0  0  0  0  0
  186.1170  159.2829  135.5666 O   0  0  0  0  0  0  0  0  0  0  0  0
  185.4873  159.2596  137.8287 C   0  0  0  0  0  0  0  0  0  0  0  0
  184.3099  157.1902  134.9817 C   0  0  0  0  0  0  0  0  0  0  0  0
  185.0023  157.6629  134.0463 O   0  0  0  0  0  0  0  0  0  0  0  0
  183.3538  156.1025  134.7398 C   0  0  0  0  0  0  0  0  0  0  0  0
  182.5870  155.5689  135.7412 C   0  0  0  0  0  0  0  0  0  0  0  0
  181.6760  154.5354  135.5060 C   0  0  0  0  0  0  0  0  0  0  0  0
  181.5728  154.0629  134.2148 C   0  0  0  0  0  0  0  0  0  0  0  0
  182.3323  154.5797  133.1891 C   0  0  0  0  0  0  0  0  0  0  0  0
  183.2261  155.6025  133.4507 C   0  0  0  0  0  0  0  0  0  0  0  0
  184.0197  156.1681  132.4703 O   0  0  0  0  0  0  0  0  0  0  0  0
  184.6090  155.2724  131.5206 C   0  0  0  0  0  0  0  0  0  0  0  0
  182.7049  156.0806  137.0990 C   0  0  0  0  0  0  0  0  0  0  0  0
  182.0367  155.6428  138.0664 O   0  0  0  0  0  0  0  0  0  0  0  0
  185.3730  161.4025  141.3548 C   0  0  0  0  0  0  0  0  0  0  0  0
  186.8502  161.6935  141.4146 C   0  0  0  0  0  0  0  0  0  0  0  0
  184.7010  161.7013  142.3902 N   0  0  0  0  0  0  0  0  0  0  0  0
  183.3457  162.0015  142.2983 N   0  0  0  0  0  0  0  0  0  0  0  0
  182.8746  163.2231  142.8026 C   0  0  0  0  0  0  0  0  0  0  0  0
  181.7499  163.2383  143.4079 O   0  0  0  0  0  0  0  0  0  0  0  0
  183.5822  164.4903  142.6858 C   0  0  0  0  0  0  0  0  0  0  0  0
  184.8674  164.5650  142.1901 C   0  0  0  0  0  0  0  0  0  0  0  0
  185.5298  165.7909  142.0858 C   0  0  0  0  0  0  0  0  0  0  0  0
  184.9238  166.9770  142.4740 C   0  0  0  0  0  0  0  0  0  0  0  0
  183.6438  166.8980  142.9669 C   0  0  0  0  0  0  0  0  0  0  0  0
  182.9929  165.6891  143.0699 C   0  0  0  0  0  0  0  0  0  0  0  0
  187.0972  160.8846  137.2004 O   0  0  0  0  0  0  0  0  0  0  0  0
  186.5602  162.0508  136.6606 C   0  0  1  0  0  0  0  0  0  0  0  0
  186.6476  163.2239  137.5777 C   0  0  0  0  0  0  0  0  0  0  0  0
  186.5691  164.5522  136.8986 C   0  0  2  0  0  0  0  0  0  0  0  0
  185.1570  164.9191  136.7767 N   0  0  0  0  0  0  0  0  0  0  0  0
  187.1876  164.5885  135.5310 C   0  0  2  0  0  0  0  0  0  0  0  0
  186.9173  165.7613  134.8727 O   0  0  0  0  0  0  0  0  0  0  0  0
  186.8289  163.3599  134.7517 C   0  0  2  0  0  0  0  0  0  0  0  0
  185.4169  163.3663  134.2341 C   0  0  0  0  0  0  0  0  0  0  0  0
  187.1851  162.2392  135.4491 O   0  0  0  0  0  0  0  0  0  0  0  0
  1  2  1  0
  2  3  1  0
  3  4  1  6
  3  5  1  0
  5  6  1  0
  6  7  2  0
  7  8  1  0
  7  9  1  0
  9 10  2  0
 10 11  1  0
 11 12  1  0
 11 13  2  0
 10 14  1  0
 14 15  2  0
 14 16  1  0
 16 17  2  0
 17 18  1  0
 18 19  2  0
 19 20  1  0
 20 21  2  0
 21 22  1  0
 22 23  1  0
 17 24  1  0
 24 25  2  0
  3 26  1  0
 26 27  1  0
 26 28  2  3
 28 29  1  0
 29 30  1  0
 30 31  2  0
 30 32  1  0
 32 33  2  0
 33 34  1  0
 34 35  2  0
 35 36  1  0
 36 37  2  0
  1 38  1  6
 39 38  1  1
 39 40  1  0
 40 41  1  0
 41 42  1  6
 41 43  1  0
 43 44  1  6
 43 45  1  0
 45 46  1  1
 45 47  1  0
 13  1  1  0
 21 16  1  0
 37 32  1  0
 47 39  1  0
 13  6  1  0
 24  9  1  0
M  END
$$$$
