
     RDKit          3D

 47 52  0  0  0  0  0  0  0  0999 V2000
  185.2184  158.8546  135.1883 C   0  0  1  0  0  0  0  0  0  0  0  0
  186.3743  157.8930  134.9512 C   0  0  0  0  0  0  0  0  0  0  0  0
  185.8787  156.4946  134.8200 C   0  0  1  0  0  0  0  0  0  0  0  0
  186.6358  155.6571  135.6740 O   0  0  0  0  0  0  0  0  0  0  0  0
  184.4475  156.2862  135.2078 C   0  0  0  0  0  0  0  0  0  0  0  0
  184.1646  157.0609  136.4391 C   0  0  0  0  0  0  0  0  0  0  0  0
  183.5461  156.5037  137.5368 C   0  0  0  0  0  0  0  0  0  0  0  0
  183.1702  155.1689  137.5373 O   0  0  0  0  0  0  0  0  0  0  0  0
  183.2900  157.2630  138.6530 C   0  0  0  0  0  0  0  0  0  0  0  0
  183.6676  158.5882  138.6394 C   0  0  0  0  0  0  0  0  0  0  0  0
  184.2964  159.1533  137.5228 C   0  0  0  0  0  0  0  0  0  0  0  0
  184.6740  160.4853  137.5097 O   0  0  0  0  0  0  0  0  0  0  0  0
  184.5494  158.4065  136.4246 C   0  0  0  0  0  0  0  0  0  0  0  0
  183.4139  159.4269  139.8074 C   0  0  0  0  0  0  0  0  0  0  0  0
  183.7514  160.6369  139.8128 O   0  0  0  0  0  0  0  0  0  0  0  0
  182.7562  158.8201  140.9713 C   0  0  0  0  0  0  0  0  0  0  0  0
  182.3778  157.5041  140.9918 C   0  0  0  0  0  0  0  0  0  0  0  0
  181.7543  156.9298  142.1031 C   0  0  0  0  0  0  0  0  0  0  0  0
  181.5286  157.7425  143.1938 C   0  0  0  0  0  0  0  0  0  0  0  0
  181.8971  159.0692  143.2000 C   0  0  0  0  0  0  0  0  0  0  0  0
  182.5127  159.6113  142.0862 C   0  0  0  0  0  0  0  0  0  0  0  0
  182.9089  160.9341  142.0231 O   0  0  0  0  0  0  0  0  0  0  0  0
  181.9599  161.8676  141.4941 C   0  0  0  0  0  0  0  0  0  0  0  0
  182.6259  156.6577  139.8337 C   0  0  0  0  0  0  0  0  0  0  0  0
  182.3084  155.4452  139.7791 O   0  0  0  0  0  0  0  0  0  0  0  0
  186.0934  156.0349  133.4195 C   0  0  0  0  0  0  0  0  0  0  0  0
  187.2930  156.5581  132.6727 C   0  0  0  0  0  0  0  0  0  0  0  0
  185.3414  155.2351  132.7811 N   0  0  0  0  0  0  0  0  0  0  0  0
  183.9866  155.1372  133.0816 N   0  0  0  0  0  0  0  0  0  0  0  0
  183.1759  156.2787  132.9892 C   0  0  0  0  0  0  0  0  0  0  0  0
  183.6613  157.4012  133.3580 O   0  0  0  0  0  0  0  0  0  0  0  0
  181.8055  156.2781  132.4972 C   0  0  0  0  0  0  0  0  0  0  0  0
  181.0708  157.4402  132.3837 C   0  0  0  0  0  0  0  0  0  0  0  0
  179.7568  157.4188  131.9091 C   0  0  0  0  0  0  0  0  0  0  0  0
  179.1413  156.2334  131.5339 C   0  0  0  0  0  0  0  0  0  0  0  0
  179.8766  155.0786  131.6484 C   0  0  0  0  0  0  0  0  0  0  0  0
  181.1710  155.1012  132.1171 C   0  0  0  0  0  0  0  0  0  0  0  0
  185.6088  160.1582  135.2262 O   0  0  0  0  0  0  0  0  0  0  0  0
  186.9540  160.3475  135.5333 C   0  0  1  0  0  0  0  0  0  0  0  0
  187.8616  160.1587  134.3648 C   0  0  0  0  0  0  0  0  0  0  0  0
  189.1933  160.8226  134.4973 C   0  0  2  0  0  0  0  0  0  0  0  0
  190.0979  159.8974  135.1822 N   0  0  0  0  0  0  0  0  0  0  0  0
  189.1703  162.1149  135.2612 C   0  0  2  0  0  0  0  0  0  0  0  0
  190.4330  162.5811  135.5261 O   0  0  0  0  0  0  0  0  0  0  0  0
  188.2999  162.0001  136.4756 C   0  0  2  0  0  0  0  0  0  0  0  0
  188.9304  161.2208  137.5966 C   0  0  0  0  0  0  0  0  0  0  0  0
  187.0455  161.5897  136.1187 O   0  0  0  0  0  0  0  0  0  0  0  0
  1  2  1  0
  2  3  1  0
  3  4  1  1
  3  5  1  0
  5  6  1  0
  6  7  2  0
  7  8  1  0
  7  9  1  0
  9 10  2  0
 10 11  1  0
 11 12  1  0
 11 13  2  0
 10 14  1  0
 14 15  2  0
 14 16  1  0
 16 17  2  0
 17 18  1  0
 18 19  2  0
 19 20  1  0
 20 21  2  0
 21 22  1  0
 22 23  1  0
 17 24  1  0
 24 25  2  0
  3 26  1  0
 26 27  1  0
 26 28  2  3
 28 29  1  0
 29 30  1  0
 30 31  2  0
 30 32  1  0
 32 33  2  0
 33 34  1  0
 34 35  2  0
 35 36  1  0
 36 37  2  0
  1 38  1  1
 39 38  1  6
 39 40  1  0
 40 41  1  0
 41 42  1  1
 41 43  1  0
 43 44  1  1
 43 45  1  0
 45 46  1  1
 45 47  1  0
 13  1  1  0
 21 16  1  0
 37 32  1  0
 47 39  1  0
 13  6  1  0
 24  9  1  0
M  END
$$$$
