
     RDKit          3D

 47 52  0  0  0  0  0  0  0  0999 V2000
  115.8480  166.3871  146.7947 C   0  0  1  0  0  0  0  0  0  0  0  0
  114.3836  166.7654  146.6228 C   0  0  0  0  0  0  0  0  0  0  0  0
  113.5820  165.5877  146.1883 C   0  0  1  0  0  0  0  0  0  0  0  0
  112.7988  165.9537  145.0673 O   0  0  0  0  0  0  0  0  0  0  0  0
  114.3806  164.3968  145.7570 C   0  0  0  0  0  0  0  0  0  0  0  0
  115.5269  164.8567  144.9380 C   0  0  0  0  0  0  0  0  0  0  0  0
  115.8281  164.3043  143.7124 C   0  0  0  0  0  0  0  0  0  0  0  0
  115.0480  163.2880  143.1818 O   0  0  0  0  0  0  0  0  0  0  0  0
  116.9097  164.7519  142.9927 C   0  0  0  0  0  0  0  0  0  0  0  0
  117.6773  165.7616  143.5315 C   0  0  0  0  0  0  0  0  0  0  0  0
  117.3698  166.3222  144.7776 C   0  0  0  0  0  0  0  0  0  0  0  0
  118.1426  167.3356  145.3186 O   0  0  0  0  0  0  0  0  0  0  0  0
  116.3053  165.8829  145.4857 C   0  0  0  0  0  0  0  0  0  0  0  0
  118.8337  166.2651  142.7959 C   0  0  0  0  0  0  0  0  0  0  0  0
  119.5446  167.1850  143.2716 O   0  0  0  0  0  0  0  0  0  0  0  0
  119.1423  165.6693  141.4900 C   0  0  0  0  0  0  0  0  0  0  0  0
  118.3842  164.6654  140.9486 C   0  0  0  0  0  0  0  0  0  0  0  0
  118.6800  164.1030  139.7037 C   0  0  0  0  0  0  0  0  0  0  0  0
  119.7755  164.5979  139.0285 C   0  0  0  0  0  0  0  0  0  0  0  0
  120.5560  165.6054  139.5498 C   0  0  0  0  0  0  0  0  0  0  0  0
  120.2399  166.1438  140.7842 C   0  0  0  0  0  0  0  0  0  0  0  0
  120.9788  167.1561  141.3673 O   0  0  0  0  0  0  0  0  0  0  0  0
  122.2275  167.4836  140.7468 C   0  0  0  0  0  0  0  0  0  0  0  0
  117.2284  164.1555  141.6720 C   0  0  0  0  0  0  0  0  0  0  0  0
  116.4880  163.2394  141.2405 O   0  0  0  0  0  0  0  0  0  0  0  0
  112.6550  165.2013  147.2884 C   0  0  0  0  0  0  0  0  0  0  0  0
  112.2640  163.7518  147.4162 C   0  0  0  0  0  0  0  0  0  0  0  0
  112.1470  165.9955  148.1393 N   0  0  0  0  0  0  0  0  0  0  0  0
  112.5842  167.3127  148.2349 N   0  0  0  0  0  0  0  0  0  0  0  0
  112.4124  168.0102  149.4402 C   0  0  0  0  0  0  0  0  0  0  0  0
  113.1228  169.0514  149.6473 O   0  0  0  0  0  0  0  0  0  0  0  0
  111.4721  167.6302  150.4850 C   0  0  0  0  0  0  0  0  0  0  0  0
  110.7365  166.4653  150.4157 C   0  0  0  0  0  0  0  0  0  0  0  0
  109.8390  166.1181  151.4288 C   0  0  0  0  0  0  0  0  0  0  0  0
  109.6532  166.9269  152.5405 C   0  0  0  0  0  0  0  0  0  0  0  0
  110.3879  168.0860  152.6055 C   0  0  0  0  0  0  0  0  0  0  0  0
  111.2712  168.4272  151.6059 C   0  0  0  0  0  0  0  0  0  0  0  0
  116.6088  167.4074  147.2776 O   0  0  0  0  0  0  0  0  0  0  0  0
  116.4569  168.6119  146.5950 C   0  0  1  0  0  0  0  0  0  0  0  0
  116.7316  168.5039  145.1329 C   0  0  0  0  0  0  0  0  0  0  0  0
  116.1132  169.5805  144.3022 C   0  0  2  0  0  0  0  0  0  0  0  0
  117.0405  170.7126  144.2592 N   0  0  0  0  0  0  0  0  0  0  0  0
  114.7882  170.0726  144.8085 C   0  0  2  0  0  0  0  0  0  0  0  0
  114.3586  171.1870  144.1336 O   0  0  0  0  0  0  0  0  0  0  0  0
  114.8159  170.2394  146.2975 C   0  0  2  0  0  0  0  0  0  0  0  0
  115.5677  171.4598  146.7525 C   0  0  0  0  0  0  0  0  0  0  0  0
  115.1942  169.0695  146.8954 O   0  0  0  0  0  0  0  0  0  0  0  0
  1  2  1  0
  2  3  1  0
  3  4  1  6
  3  5  1  0
  5  6  1  0
  6  7  2  0
  7  8  1  0
  7  9  1  0
  9 10  2  0
 10 11  1  0
 11 12  1  0
 11 13  2  0
 10 14  1  0
 14 15  2  0
 14 16  1  0
 16 17  2  0
 17 18  1  0
 18 19  2  0
 19 20  1  0
 20 21  2  0
 21 22  1  0
 22 23  1  0
 17 24  1  0
 24 25  2  0
  3 26  1  0
 26 27  1  0
 26 28  2  3
 28 29  1  0
 29 30  1  0
 30 31  2  0
 30 32  1  0
 32 33  2  0
 33 34  1  0
 34 35  2  0
 35 36  1  0
 36 37  2  0
  1 38  1  6
 39 38  1  1
 39 40  1  0
 40 41  1  0
 41 42  1  1
 41 43  1  0
 43 44  1  6
 43 45  1  0
 45 46  1  6
 45 47  1  0
 13  1  1  0
 21 16  1  0
 37 32  1  0
 47 39  1  0
 13  6  1  0
 24  9  1  0
M  END
$$$$
