
     RDKit          3D

 47 52  0  0  0  0  0  0  0  0999 V2000
  188.9877  160.4169  121.3491 C   0  0  1  0  0  0  0  0  0  0  0  0
  189.8898  161.0742  122.3842 C   0  0  0  0  0  0  0  0  0  0  0  0
  190.4243  162.3670  121.8732 C   0  0  1  0  0  0  0  0  0  0  0  0
  191.8269  162.3912  122.0635 O   0  0  0  0  0  0  0  0  0  0  0  0
  190.2062  162.6146  120.4126 C   0  0  0  0  0  0  0  0  0  0  0  0
  190.4634  161.3594  119.6679 C   0  0  0  0  0  0  0  0  0  0  0  0
  191.2817  161.3118  118.5605 C   0  0  0  0  0  0  0  0  0  0  0  0
  191.9188  162.4541  118.1002 O   0  0  0  0  0  0  0  0  0  0  0  0
  191.4809  160.1284  117.8912 C   0  0  0  0  0  0  0  0  0  0  0  0
  190.8412  159.0007  118.3583 C   0  0  0  0  0  0  0  0  0  0  0  0
  190.0097  159.0507  119.4842 C   0  0  0  0  0  0  0  0  0  0  0  0
  189.3664  157.9173  119.9517 O   0  0  0  0  0  0  0  0  0  0  0  0
  189.8140  160.2145  120.1437 C   0  0  0  0  0  0  0  0  0  0  0  0
  191.0295  157.7243  117.6748 C   0  0  0  0  0  0  0  0  0  0  0  0
  190.4545  156.6861  118.0866 O   0  0  0  0  0  0  0  0  0  0  0  0
  191.9059  157.6869  116.4974 C   0  0  0  0  0  0  0  0  0  0  0  0
  192.5444  158.8034  116.0274 C   0  0  0  0  0  0  0  0  0  0  0  0
  193.3801  158.7628  114.9077 C   0  0  0  0  0  0  0  0  0  0  0  0
  193.5429  157.5449  114.2822 C   0  0  0  0  0  0  0  0  0  0  0  0
  192.9120  156.4068  114.7322 C   0  0  0  0  0  0  0  0  0  0  0  0
  192.0906  156.4762  115.8429 C   0  0  0  0  0  0  0  0  0  0  0  0
  191.4264  155.3746  116.3491 O   0  0  0  0  0  0  0  0  0  0  0  0
  191.5072  154.1652  115.5858 C   0  0  0  0  0  0  0  0  0  0  0  0
  192.3652  160.0817  116.7007 C   0  0  0  0  0  0  0  0  0  0  0  0
  192.9165  161.1455  116.3290 O   0  0  0  0  0  0  0  0  0  0  0  0
  189.8351  163.4813  122.6667 C   0  0  0  0  0  0  0  0  0  0  0  0
  190.0541  163.4895  124.1574 C   0  0  0  0  0  0  0  0  0  0  0  0
  189.1452  164.4385  122.1969 N   0  0  0  0  0  0  0  0  0  0  0  0
  187.7551  164.3833  122.1987 N   0  0  0  0  0  0  0  0  0  0  0  0
  187.0180  165.5702  122.0696 C   0  0  0  0  0  0  0  0  0  0  0  0
  185.9401  165.6933  122.7438 O   0  0  0  0  0  0  0  0  0  0  0  0
  187.3962  166.6858  121.2138 C   0  0  0  0  0  0  0  0  0  0  0  0
  186.4825  167.6364  120.8082 C   0  0  0  0  0  0  0  0  0  0  0  0
  186.8651  168.6999  119.9868 C   0  0  0  0  0  0  0  0  0  0  0  0
  188.1737  168.8424  119.5487 C   0  0  0  0  0  0  0  0  0  0  0  0
  189.0804  167.8937  119.9551 C   0  0  0  0  0  0  0  0  0  0  0  0
  188.7016  166.8458  120.7639 C   0  0  0  0  0  0  0  0  0  0  0  0
  188.4015  159.2747  121.8015 O   0  0  0  0  0  0  0  0  0  0  0  0
  189.2968  158.3071  122.2509 C   0  0  1  0  0  0  0  0  0  0  0  0
  190.3796  158.0006  121.2718 C   0  0  0  0  0  0  0  0  0  0  0  0
  191.6038  157.3875  121.8694 C   0  0  2  0  0  0  0  0  0  0  0  0
  191.4126  155.9366  121.9125 N   0  0  0  0  0  0  0  0  0  0  0  0
  191.9240  157.8644  123.2566 C   0  0  2  0  0  0  0  0  0  0  0  0
  192.9310  157.1338  123.8345 O   0  0  0  0  0  0  0  0  0  0  0  0
  190.6818  157.9491  124.0904 C   0  0  2  0  0  0  0  0  0  0  0  0
  190.1722  156.6106  124.5490 C   0  0  0  0  0  0  0  0  0  0  0  0
  189.7540  158.7419  123.4739 O   0  0  0  0  0  0  0  0  0  0  0  0
  1  2  1  0
  2  3  1  0
  3  4  1  6
  3  5  1  0
  5  6  1  0
  6  7  2  0
  7  8  1  0
  7  9  1  0
  9 10  2  0
 10 11  1  0
 11 12  1  0
 11 13  2  0
 10 14  1  0
 14 15  2  0
 14 16  1  0
 16 17  2  0
 17 18  1  0
 18 19  2  0
 19 20  1  0
 20 21  2  0
 21 22  1  0
 22 23  1  0
 17 24  1  0
 24 25  2  0
  3 26  1  0
 26 27  1  0
 26 28  2  3
 28 29  1  0
 29 30  1  0
 30 31  2  0
 30 32  1  0
 32 33  2  0
 33 34  1  0
 34 35  2  0
 35 36  1  0
 36 37  2  0
  1 38  1  1
 39 38  1  6
 39 40  1  0
 40 41  1  0
 41 42  1  1
 41 43  1  0
 43 44  1  1
 43 45  1  0
 45 46  1  6
 45 47  1  0
 13  1  1  0
 21 16  1  0
 37 32  1  0
 47 39  1  0
 13  6  1  0
 24  9  1  0
M  END
$$$$
