
     RDKit          3D

 47 52  0  0  0  0  0  0  0  0999 V2000
  188.1105  180.5499  128.5865 C   0  0  1  0  0  0  0  0  0  0  0  0
  188.1412  181.7269  127.6217 C   0  0  0  0  0  0  0  0  0  0  0  0
  187.2623  181.4693  126.4472 C   0  0  1  0  0  0  0  0  0  0  0  0
  187.9900  181.7348  125.2623 O   0  0  0  0  0  0  0  0  0  0  0  0
  186.7690  180.0616  126.3164 C   0  0  0  0  0  0  0  0  0  0  0  0
  187.8790  179.1313  126.6304 C   0  0  0  0  0  0  0  0  0  0  0  0
  188.2135  178.0765  125.8096 C   0  0  0  0  0  0  0  0  0  0  0  0
  187.5212  177.8489  124.6299 O   0  0  0  0  0  0  0  0  0  0  0  0
  189.2415  177.2294  126.1469 C   0  0  0  0  0  0  0  0  0  0  0  0
  189.9208  177.4660  127.3223 C   0  0  0  0  0  0  0  0  0  0  0  0
  189.5796  178.5387  128.1556 C   0  0  0  0  0  0  0  0  0  0  0  0
  190.2619  178.7745  129.3371 O   0  0  0  0  0  0  0  0  0  0  0  0
  188.5689  179.3730  127.8239 C   0  0  0  0  0  0  0  0  0  0  0  0
  191.0204  176.5887  127.7140 C   0  0  0  0  0  0  0  0  0  0  0  0
  191.6508  176.7893  128.7818 O   0  0  0  0  0  0  0  0  0  0  0  0
  191.3681  175.4698  126.8292 C   0  0  0  0  0  0  0  0  0  0  0  0
  190.6972  175.2284  125.6600 C   0  0  0  0  0  0  0  0  0  0  0  0
  191.0334  174.1636  124.8193 C   0  0  0  0  0  0  0  0  0  0  0  0
  192.0769  173.3519  125.2107 C   0  0  0  0  0  0  0  0  0  0  0  0
  192.7676  173.5703  126.3817 C   0  0  0  0  0  0  0  0  0  0  0  0
  192.4134  174.6319  127.1946 C   0  0  0  0  0  0  0  0  0  0  0  0
  193.0626  174.9100  128.3829 O   0  0  0  0  0  0  0  0  0  0  0  0
  193.9118  173.8840  128.9099 C   0  0  0  0  0  0  0  0  0  0  0  0
  189.5996  176.0964  125.2584 C   0  0  0  0  0  0  0  0  0  0  0  0
  188.9399  175.9384  124.2032 O   0  0  0  0  0  0  0  0  0  0  0  0
  186.1055  182.4065  126.4941 C   0  0  0  0  0  0  0  0  0  0  0  0
  186.3845  183.8868  126.4610 C   0  0  0  0  0  0  0  0  0  0  0  0
  184.8837  182.0685  126.5695 N   0  0  0  0  0  0  0  0  0  0  0  0
  184.2310  182.0232  127.7972 N   0  0  0  0  0  0  0  0  0  0  0  0
  183.7247  180.8006  128.2639 C   0  0  0  0  0  0  0  0  0  0  0  0
  184.1919  179.7198  127.7688 O   0  0  0  0  0  0  0  0  0  0  0  0
  182.6937  180.6716  129.2839 C   0  0  0  0  0  0  0  0  0  0  0  0
  181.5069  181.3714  129.2140 C   0  0  0  0  0  0  0  0  0  0  0  0
  180.5295  181.2339  130.2030 C   0  0  0  0  0  0  0  0  0  0  0  0
  180.7122  180.3911  131.2897 C   0  0  0  0  0  0  0  0  0  0  0  0
  181.8955  179.6960  131.3553 C   0  0  0  0  0  0  0  0  0  0  0  0
  182.8579  179.8333  130.3805 C   0  0  0  0  0  0  0  0  0  0  0  0
  188.8281  180.7724  129.7217 O   0  0  0  0  0  0  0  0  0  0  0  0
  190.0251  181.4556  129.5214 C   0  0  1  0  0  0  0  0  0  0  0  0
  190.8027  181.6702  130.7760 C   0  0  0  0  0  0  0  0  0  0  0  0
  192.2610  181.9204  130.5695 C   0  0  2  0  0  0  0  0  0  0  0  0
  192.4521  183.3568  130.3610 N   0  0  0  0  0  0  0  0  0  0  0  0
  192.8579  181.1888  129.4021 C   0  0  2  0  0  0  0  0  0  0  0  0
  194.1387  181.6007  129.1344 O   0  0  0  0  0  0  0  0  0  0  0  0
  191.9437  181.2432  128.2160 C   0  0  2  0  0  0  0  0  0  0  0  0
  191.9393  182.5763  127.5199 C   0  0  0  0  0  0  0  0  0  0  0  0
  190.7091  180.7603  128.5505 O   0  0  0  0  0  0  0  0  0  0  0  0
  1  2  1  0
  2  3  1  0
  3  4  1  6
  3  5  1  0
  5  6  1  0
  6  7  2  0
  7  8  1  0
  7  9  1  0
  9 10  2  0
 10 11  1  0
 11 12  1  0
 11 13  2  0
 10 14  1  0
 14 15  2  0
 14 16  1  0
 16 17  2  0
 17 18  1  0
 18 19  2  0
 19 20  1  0
 20 21  2  0
 21 22  1  0
 22 23  1  0
 17 24  1  0
 24 25  2  0
  3 26  1  0
 26 27  1  0
 26 28  2  3
 28 29  1  0
 29 30  1  0
 30 31  2  0
 30 32  1  0
 32 33  2  0
 33 34  1  0
 34 35  2  0
 35 36  1  0
 36 37  2  0
  1 38  1  1
 39 38  1  1
 39 40  1  0
 40 41  1  0
 41 42  1  6
 41 43  1  0
 43 44  1  6
 43 45  1  0
 45 46  1  1
 45 47  1  0
 13  1  1  0
 21 16  1  0
 37 32  1  0
 47 39  1  0
 13  6  1  0
 24  9  1  0
M  END
$$$$
