
     RDKit          3D

 47 52  0  0  0  0  0  0  0  0999 V2000
  182.3929  144.6776  128.8887 C   0  0  1  0  0  0  0  0  0  0  0  0
  182.3918  143.1600  129.0063 C   0  0  0  0  0  0  0  0  0  0  0  0
  183.7774  142.6223  128.9085 C   0  0  1  0  0  0  0  0  0  0  0  0
  183.7972  141.5747  127.9566 O   0  0  0  0  0  0  0  0  0  0  0  0
  184.8123  143.6051  128.4555 C   0  0  0  0  0  0  0  0  0  0  0  0
  184.2527  144.4185  127.3503 C   0  0  0  0  0  0  0  0  0  0  0  0
  184.9251  144.6157  126.1642 C   0  0  0  0  0  0  0  0  0  0  0  0
  186.1676  144.0388  125.9492 O   0  0  0  0  0  0  0  0  0  0  0  0
  184.3749  145.3898  125.1711 C   0  0  0  0  0  0  0  0  0  0  0  0
  183.1401  145.9582  125.3976 C   0  0  0  0  0  0  0  0  0  0  0  0
  182.4577  145.7568  126.6040 C   0  0  0  0  0  0  0  0  0  0  0  0
  181.2178  146.3296  126.8310 O   0  0  0  0  0  0  0  0  0  0  0  0
  182.9981  144.9946  127.5811 C   0  0  0  0  0  0  0  0  0  0  0  0
  182.5221  146.7857  124.3656 C   0  0  0  0  0  0  0  0  0  0  0  0
  181.3971  147.3117  124.5546 O   0  0  0  0  0  0  0  0  0  0  0  0
  183.2483  146.9859  123.1054 C   0  0  0  0  0  0  0  0  0  0  0  0
  184.4757  146.4246  122.8734 C   0  0  0  0  0  0  0  0  0  0  0  0
  185.1624  146.6156  121.6711 C   0  0  0  0  0  0  0  0  0  0  0  0
  184.5559  147.3990  120.7122 C   0  0  0  0  0  0  0  0  0  0  0  0
  183.3233  147.9769  120.9191 C   0  0  0  0  0  0  0  0  0  0  0  0
  182.6662  147.7709  122.1188 C   0  0  0  0  0  0  0  0  0  0  0  0
  181.4278  148.3197  122.3944 O   0  0  0  0  0  0  0  0  0  0  0  0
  181.2000  149.6591  121.9408 C   0  0  0  0  0  0  0  0  0  0  0  0
  185.1019  145.5970  123.8944 C   0  0  0  0  0  0  0  0  0  0  0  0
  186.2223  145.0504  123.7542 O   0  0  0  0  0  0  0  0  0  0  0  0
  184.1683  142.0506  130.2272 C   0  0  0  0  0  0  0  0  0  0  0  0
  185.4977  141.3497  130.3354 C   0  0  0  0  0  0  0  0  0  0  0  0
  183.4692  142.0918  131.2866 N   0  0  0  0  0  0  0  0  0  0  0  0
  182.1579  141.6273  131.2939 N   0  0  0  0  0  0  0  0  0  0  0  0
  181.9162  140.2452  131.2901 C   0  0  0  0  0  0  0  0  0  0  0  0
  182.9066  139.4548  131.1286 O   0  0  0  0  0  0  0  0  0  0  0  0
  180.6037  139.6380  131.4593 C   0  0  0  0  0  0  0  0  0  0  0  0
  179.4393  140.3499  131.2580 C   0  0  0  0  0  0  0  0  0  0  0  0
  178.1889  139.7491  131.4253 C   0  0  0  0  0  0  0  0  0  0  0  0
  178.0688  138.4183  131.7980 C   0  0  0  0  0  0  0  0  0  0  0  0
  179.2309  137.7130  131.9973 C   0  0  0  0  0  0  0  0  0  0  0  0
  180.4622  138.3066  131.8329 C   0  0  0  0  0  0  0  0  0  0  0  0
  181.1591  145.2264  129.0614 O   0  0  0  0  0  0  0  0  0  0  0  0
  180.1523  144.6278  128.3081 C   0  0  1  0  0  0  0  0  0  0  0  0
  179.9754  145.2418  126.9602 C   0  0  0  0  0  0  0  0  0  0  0  0
  179.3054  144.3600  125.9576 C   0  0  2  0  0  0  0  0  0  0  0  0
  177.8583  144.5417  126.0854 N   0  0  0  0  0  0  0  0  0  0  0  0
  179.6144  142.8987  126.1102 C   0  0  2  0  0  0  0  0  0  0  0  0
  178.8283  142.1171  125.3021 O   0  0  0  0  0  0  0  0  0  0  0  0
  179.5873  142.4967  127.5535 C   0  0  2  0  0  0  0  0  0  0  0  0
  178.1989  142.3752  128.1186 C   0  0  0  0  0  0  0  0  0  0  0  0
  180.4405  143.2825  128.2773 O   0  0  0  0  0  0  0  0  0  0  0  0
  1  2  1  0
  2  3  1  0
  3  4  1  6
  3  5  1  0
  5  6  1  0
  6  7  2  0
  7  8  1  0
  7  9  1  0
  9 10  2  0
 10 11  1  0
 11 12  1  0
 11 13  2  0
 10 14  1  0
 14 15  2  0
 14 16  1  0
 16 17  2  0
 17 18  1  0
 18 19  2  0
 19 20  1  0
 20 21  2  0
 21 22  1  0
 22 23  1  0
 17 24  1  0
 24 25  2  0
  3 26  1  0
 26 27  1  0
 26 28  2  3
 28 29  1  0
 29 30  1  0
 30 31  2  0
 30 32  1  0
 32 33  2  0
 33 34  1  0
 34 35  2  0
 35 36  1  0
 36 37  2  0
  1 38  1  6
 39 38  1  6
 39 40  1  0
 40 41  1  0
 41 42  1  1
 41 43  1  0
 43 44  1  6
 43 45  1  0
 45 46  1  1
 45 47  1  0
 13  1  1  0
 21 16  1  0
 37 32  1  0
 47 39  1  0
 13  6  1  0
 24  9  1  0
M  END
$$$$
