
     RDKit          3D

 47 52  0  0  0  0  0  0  0  0999 V2000
  189.6200  160.2933  121.9602 C   0  0  1  0  0  0  0  0  0  0  0  0
  190.5367  160.3300  123.1748 C   0  0  0  0  0  0  0  0  0  0  0  0
  191.4612  161.4956  123.1029 C   0  0  1  0  0  0  0  0  0  0  0  0
  192.7838  161.0476  123.3351 O   0  0  0  0  0  0  0  0  0  0  0  0
  191.4953  162.2021  121.7831 C   0  0  0  0  0  0  0  0  0  0  0  0
  191.4870  161.1939  120.6970 C   0  0  0  0  0  0  0  0  0  0  0  0
  192.3875  161.2233  119.6547 C   0  0  0  0  0  0  0  0  0  0  0  0
  193.3627  162.2068  119.5879 O   0  0  0  0  0  0  0  0  0  0  0  0
  192.3344  160.2762  118.6606 C   0  0  0  0  0  0  0  0  0  0  0  0
  191.3600  159.3049  118.7382 C   0  0  0  0  0  0  0  0  0  0  0  0
  190.4453  159.2762  119.7984 C   0  0  0  0  0  0  0  0  0  0  0  0
  189.4658  158.3007  119.8746 O   0  0  0  0  0  0  0  0  0  0  0  0
  190.4975  160.2072  120.7773 C   0  0  0  0  0  0  0  0  0  0  0  0
  191.2728  158.2803  117.7016 C   0  0  0  0  0  0  0  0  0  0  0  0
  190.3912  157.3871  117.7562 O   0  0  0  0  0  0  0  0  0  0  0  0
  192.2399  158.3217  116.5977 C   0  0  0  0  0  0  0  0  0  0  0  0
  193.2106  159.2841  116.5138 C   0  0  0  0  0  0  0  0  0  0  0  0
  194.1310  159.3183  115.4626 C   0  0  0  0  0  0  0  0  0  0  0  0
  194.0287  158.3381  114.4983 C   0  0  0  0  0  0  0  0  0  0  0  0
  193.0618  157.3595  114.5567 C   0  0  0  0  0  0  0  0  0  0  0  0
  192.1638  157.3499  115.6088 C   0  0  0  0  0  0  0  0  0  0  0  0
  191.1685  156.3984  115.7309 O   0  0  0  0  0  0  0  0  0  0  0  0
  190.9814  155.5139  114.6199 C   0  0  0  0  0  0  0  0  0  0  0  0
  193.3081  160.3106  117.5415 C   0  0  0  0  0  0  0  0  0  0  0  0
  194.1694  161.2227  117.5323 O   0  0  0  0  0  0  0  0  0  0  0  0
  191.1081  162.4600  124.1818 C   0  0  0  0  0  0  0  0  0  0  0  0
  190.8876  161.9251  125.5730 C   0  0  0  0  0  0  0  0  0  0  0  0
  190.9646  163.7132  124.0344 N   0  0  0  0  0  0  0  0  0  0  0  0
  189.7579  164.2453  123.5916 N   0  0  0  0  0  0  0  0  0  0  0  0
  188.5731  163.5178  123.7808 C   0  0  0  0  0  0  0  0  0  0  0  0
  188.6519  162.3474  124.2864 O   0  0  0  0  0  0  0  0  0  0  0  0
  187.2440  164.0048  123.4396 C   0  0  0  0  0  0  0  0  0  0  0  0
  186.2279  163.1502  123.0652 C   0  0  0  0  0  0  0  0  0  0  0  0
  184.9588  163.6371  122.7416 C   0  0  0  0  0  0  0  0  0  0  0  0
  184.6708  164.9935  122.7846 C   0  0  0  0  0  0  0  0  0  0  0  0
  185.6855  165.8410  123.1581 C   0  0  0  0  0  0  0  0  0  0  0  0
  186.9357  165.3597  123.4758 C   0  0  0  0  0  0  0  0  0  0  0  0
  188.6943  159.2970  122.0211 O   0  0  0  0  0  0  0  0  0  0  0  0
  189.0824  158.1962  122.7809 C   0  0  1  0  0  0  0  0  0  0  0  0
  190.5610  158.0737  122.9353 C   0  0  0  0  0  0  0  0  0  0  0  0
  190.9989  157.2596  124.1088 C   0  0  2  0  0  0  0  0  0  0  0  0
  191.0580  155.8568  123.6940 N   0  0  0  0  0  0  0  0  0  0  0  0
  190.0995  157.3617  125.3066 C   0  0  2  0  0  0  0  0  0  0  0  0
  190.4287  156.4519  126.2791 O   0  0  0  0  0  0  0  0  0  0  0  0
  188.6590  157.3150  124.8961 C   0  0  2  0  0  0  0  0  0  0  0  0
  188.1848  155.9385  124.5194 C   0  0  0  0  0  0  0  0  0  0  0  0
  188.4006  158.2896  123.9726 O   0  0  0  0  0  0  0  0  0  0  0  0
  1  2  1  0
  2  3  1  0
  3  4  1  1
  3  5  1  0
  5  6  1  0
  6  7  2  0
  7  8  1  0
  7  9  1  0
  9 10  2  0
 10 11  1  0
 11 12  1  0
 11 13  2  0
 10 14  1  0
 14 15  2  0
 14 16  1  0
 16 17  2  0
 17 18  1  0
 18 19  2  0
 19 20  1  0
 20 21  2  0
 21 22  1  0
 22 23  1  0
 17 24  1  0
 24 25  2  0
  3 26  1  0
 26 27  1  0
 26 28  2  3
 28 29  1  0
 29 30  1  0
 30 31  2  0
 30 32  1  0
 32 33  2  0
 33 34  1  0
 34 35  2  0
 35 36  1  0
 36 37  2  0
  1 38  1  1
 39 38  1  6
 39 40  1  0
 40 41  1  0
 41 42  1  6
 41 43  1  0
 43 44  1  1
 43 45  1  0
 45 46  1  6
 45 47  1  0
 13  1  1  0
 21 16  1  0
 37 32  1  0
 47 39  1  0
 13  6  1  0
 24  9  1  0
M  END
$$$$
