
     RDKit          3D

 47 52  0  0  0  0  0  0  0  0999 V2000
  205.1293  133.6925  134.1605 C   0  0  1  0  0  0  0  0  0  0  0  0
  204.1945  132.4924  134.1071 C   0  0  0  0  0  0  0  0  0  0  0  0
  204.1488  131.9200  132.7328 C   0  0  1  0  0  0  0  0  0  0  0  0
  202.7962  131.7590  132.3473 O   0  0  0  0  0  0  0  0  0  0  0  0
  204.7787  132.7646  131.6690 C   0  0  0  0  0  0  0  0  0  0  0  0
  204.4062  134.1810  131.8953 C   0  0  0  0  0  0  0  0  0  0  0  0
  203.9047  134.9823  130.8930 C   0  0  0  0  0  0  0  0  0  0  0  0
  203.7123  134.4814  129.6144 O   0  0  0  0  0  0  0  0  0  0  0  0
  203.5857  136.2951  131.1438 C   0  0  0  0  0  0  0  0  0  0  0  0
  203.7824  136.7807  132.4183 C   0  0  0  0  0  0  0  0  0  0  0  0
  204.2923  135.9650  133.4362 C   0  0  0  0  0  0  0  0  0  0  0  0
  204.4909  136.4544  134.7160 O   0  0  0  0  0  0  0  0  0  0  0  0
  204.6055  134.6730  133.1904 C   0  0  0  0  0  0  0  0  0  0  0  0
  203.4537  138.1701  132.7241 C   0  0  0  0  0  0  0  0  0  0  0  0
  203.6263  138.6298  133.8803 O   0  0  0  0  0  0  0  0  0  0  0  0
  202.9178  139.0125  131.6476 C   0  0  0  0  0  0  0  0  0  0  0  0
  202.7201  138.5369  130.3787 C   0  0  0  0  0  0  0  0  0  0  0  0
  202.2072  139.3416  129.3575 C   0  0  0  0  0  0  0  0  0  0  0  0
  201.9026  140.6488  129.6729 C   0  0  0  0  0  0  0  0  0  0  0  0
  202.0927  141.1538  130.9397 C   0  0  0  0  0  0  0  0  0  0  0  0
  202.6019  140.3346  131.9312 C   0  0  0  0  0  0  0  0  0  0  0  0
  202.8183  140.7745  133.2236 O   0  0  0  0  0  0  0  0  0  0  0  0
  202.5067  142.1450  133.4997 C   0  0  0  0  0  0  0  0  0  0  0  0
  203.0434  137.1533  130.0617 C   0  0  0  0  0  0  0  0  0  0  0  0
  202.8894  136.6474  128.9241 O   0  0  0  0  0  0  0  0  0  0  0  0
  204.7840  130.5728  132.7488 C   0  0  0  0  0  0  0  0  0  0  0  0
  205.0308  129.9158  134.0821 C   0  0  0  0  0  0  0  0  0  0  0  0
  205.1518  129.9174  131.7250 N   0  0  0  0  0  0  0  0  0  0  0  0
  206.4959  129.6344  131.5047 N   0  0  0  0  0  0  0  0  0  0  0  0
  207.0452  128.4518  132.0228 C   0  0  0  0  0  0  0  0  0  0  0  0
  206.2906  127.6775  132.7031 O   0  0  0  0  0  0  0  0  0  0  0  0
  208.4288  128.0368  131.8394 C   0  0  0  0  0  0  0  0  0  0  0  0
  209.3363  128.8099  131.1454 C   0  0  0  0  0  0  0  0  0  0  0  0
  210.6600  128.3942  130.9803 C   0  0  0  0  0  0  0  0  0  0  0  0
  211.1130  127.1930  131.5062 C   0  0  0  0  0  0  0  0  0  0  0  0
  210.2059  126.4263  132.1967 C   0  0  0  0  0  0  0  0  0  0  0  0
  208.9017  126.8368  132.3578 C   0  0  0  0  0  0  0  0  0  0  0  0
  205.2760  134.1984  135.4157 O   0  0  0  0  0  0  0  0  0  0  0  0
  204.1641  134.0306  136.2376 C   0  0  1  0  0  0  0  0  0  0  0  0
  202.9403  133.6029  135.4999 C   0  0  0  0  0  0  0  0  0  0  0  0
  201.9052  132.9357  136.3454 C   0  0  2  0  0  0  0  0  0  0  0  0
  201.0414  133.9731  136.9121 N   0  0  0  0  0  0  0  0  0  0  0  0
  202.4591  132.1129  137.4725 C   0  0  2  0  0  0  0  0  0  0  0  0
  201.4783  131.6870  138.3319 O   0  0  0  0  0  0  0  0  0  0  0  0
  203.5884  132.8288  138.1492 C   0  0  2  0  0  0  0  0  0  0  0  0
  203.1396  133.9519  139.0430 C   0  0  0  0  0  0  0  0  0  0  0  0
  204.5484  133.1640  137.2352 O   0  0  0  0  0  0  0  0  0  0  0  0
  1  2  1  0
  2  3  1  0
  3  4  1  6
  3  5  1  0
  5  6  1  0
  6  7  2  0
  7  8  1  0
  7  9  1  0
  9 10  2  0
 10 11  1  0
 11 12  1  0
 11 13  2  0
 10 14  1  0
 14 15  2  0
 14 16  1  0
 16 17  2  0
 17 18  1  0
 18 19  2  0
 19 20  1  0
 20 21  2  0
 21 22  1  0
 22 23  1  0
 17 24  1  0
 24 25  2  0
  3 26  1  0
 26 27  1  0
 26 28  2  3
 28 29  1  0
 29 30  1  0
 30 31  2  0
 30 32  1  0
 32 33  2  0
 33 34  1  0
 34 35  2  0
 35 36  1  0
 36 37  2  0
  1 38  1  1
 39 38  1  6
 39 40  1  0
 40 41  1  0
 41 42  1  1
 41 43  1  0
 43 44  1  1
 43 45  1  0
 45 46  1  6
 45 47  1  0
 13  1  1  0
 21 16  1  0
 37 32  1  0
 47 39  1  0
 13  6  1  0
 24  9  1  0
M  END
$$$$
