
     RDKit          3D

 47 52  0  0  0  0  0  0  0  0999 V2000
  161.2137  160.4662  138.0088 C   0  0  1  0  0  0  0  0  0  0  0  0
  161.0985  161.9565  137.7208 C   0  0  0  0  0  0  0  0  0  0  0  0
  162.1522  162.3915  136.7623 C   0  0  1  0  0  0  0  0  0  0  0  0
  162.8040  163.5346  137.2843 O   0  0  0  0  0  0  0  0  0  0  0  0
  163.2328  161.3878  136.5037 C   0  0  0  0  0  0  0  0  0  0  0  0
  163.6141  160.7498  137.7858 C   0  0  0  0  0  0  0  0  0  0  0  0
  164.9254  160.6349  138.1927 C   0  0  0  0  0  0  0  0  0  0  0  0
  165.9565  161.1333  137.4108 O   0  0  0  0  0  0  0  0  0  0  0  0
  165.2349  160.0227  139.3832 C   0  0  0  0  0  0  0  0  0  0  0  0
  164.2012  159.5309  140.1503 C   0  0  0  0  0  0  0  0  0  0  0  0
  162.8686  159.6485  139.7354 C   0  0  0  0  0  0  0  0  0  0  0  0
  161.8309  159.1527  140.5063 O   0  0  0  0  0  0  0  0  0  0  0  0
  162.5634  160.2516  138.5646 C   0  0  0  0  0  0  0  0  0  0  0  0
  164.4900  158.8754  141.4226 C   0  0  0  0  0  0  0  0  0  0  0  0
  163.5603  158.4212  142.1349 O   0  0  0  0  0  0  0  0  0  0  0  0
  165.8914  158.7616  141.8455 C   0  0  0  0  0  0  0  0  0  0  0  0
  166.9238  159.2476  141.0882 C   0  0  0  0  0  0  0  0  0  0  0  0
  168.2563  159.1395  141.4960 C   0  0  0  0  0  0  0  0  0  0  0  0
  168.5019  158.5186  142.7022 C   0  0  0  0  0  0  0  0  0  0  0  0
  167.4835  158.0194  143.4831 C   0  0  0  0  0  0  0  0  0  0  0  0
  166.1737  158.1403  143.0549 C   0  0  0  0  0  0  0  0  0  0  0  0
  165.1029  157.6627  143.7870 O   0  0  0  0  0  0  0  0  0  0  0  0
  165.4107  156.8529  144.9276 C   0  0  0  0  0  0  0  0  0  0  0  0
  166.6485  159.9038  139.8182 C   0  0  0  0  0  0  0  0  0  0  0  0
  167.5405  160.3732  139.0715 O   0  0  0  0  0  0  0  0  0  0  0  0
  161.5065  162.7793  135.4772 C   0  0  0  0  0  0  0  0  0  0  0  0
  161.0084  161.6844  134.5699 C   0  0  0  0  0  0  0  0  0  0  0  0
  161.3411  163.9684  135.0630 N   0  0  0  0  0  0  0  0  0  0  0  0
  161.1139  165.0096  135.9572 N   0  0  0  0  0  0  0  0  0  0  0  0
  159.9452  165.0087  136.7336 C   0  0  0  0  0  0  0  0  0  0  0  0
  159.1009  164.0658  136.5612 O   0  0  0  0  0  0  0  0  0  0  0  0
  159.6201  166.0155  137.7339 C   0  0  0  0  0  0  0  0  0  0  0  0
  158.9990  165.6896  138.9218 C   0  0  0  0  0  0  0  0  0  0  0  0
  158.6954  166.6704  139.8695 C   0  0  0  0  0  0  0  0  0  0  0  0
  159.0058  168.0055  139.6551 C   0  0  0  0  0  0  0  0  0  0  0  0
  159.6245  168.3257  138.4710 C   0  0  0  0  0  0  0  0  0  0  0  0
  159.9221  167.3581  137.5378 C   0  0  0  0  0  0  0  0  0  0  0  0
  160.2175  159.9998  138.8108 O   0  0  0  0  0  0  0  0  0  0  0  0
  159.2150  160.9277  139.0823 C   0  0  1  0  0  0  0  0  0  0  0  0
  159.7266  162.1975  139.6745 C   0  0  0  0  0  0  0  0  0  0  0  0
  158.8160  163.3708  139.5133 C   0  0  2  0  0  0  0  0  0  0  0  0
  157.8782  163.3780  140.6376 N   0  0  0  0  0  0  0  0  0  0  0  0
  158.0251  163.3730  138.2370 C   0  0  2  0  0  0  0  0  0  0  0  0
  157.0666  164.3543  138.2249 O   0  0  0  0  0  0  0  0  0  0  0  0
  157.4944  162.0041  137.9372 C   0  0  2  0  0  0  0  0  0  0  0  0
  156.3213  161.6125  138.7928 C   0  0  0  0  0  0  0  0  0  0  0  0
  158.5181  161.0982  137.9079 O   0  0  0  0  0  0  0  0  0  0  0  0
  1  2  1  0
  2  3  1  0
  3  4  1  1
  3  5  1  0
  5  6  1  0
  6  7  2  0
  7  8  1  0
  7  9  1  0
  9 10  2  0
 10 11  1  0
 11 12  1  0
 11 13  2  0
 10 14  1  0
 14 15  2  0
 14 16  1  0
 16 17  2  0
 17 18  1  0
 18 19  2  0
 19 20  1  0
 20 21  2  0
 21 22  1  0
 22 23  1  0
 17 24  1  0
 24 25  2  0
  3 26  1  0
 26 27  1  0
 26 28  2  3
 28 29  1  0
 29 30  1  0
 30 31  2  0
 30 32  1  0
 32 33  2  0
 33 34  1  0
 34 35  2  0
 35 36  1  0
 36 37  2  0
  1 38  1  1
 39 38  1  6
 39 40  1  0
 40 41  1  0
 41 42  1  1
 41 43  1  0
 43 44  1  1
 43 45  1  0
 45 46  1  1
 45 47  1  0
 13  1  1  0
 21 16  1  0
 37 32  1  0
 47 39  1  0
 13  6  1  0
 24  9  1  0
M  END
$$$$
