
     RDKit          3D

 47 52  0  0  0  0  0  0  0  0999 V2000
  189.6668  158.8133  121.2088 C   0  0  1  0  0  0  0  0  0  0  0  0
  189.6914  157.4358  121.8559 C   0  0  0  0  0  0  0  0  0  0  0  0
  191.0805  157.0562  122.2360 C   0  0  1  0  0  0  0  0  0  0  0  0
  191.3524  155.7569  121.7440 O   0  0  0  0  0  0  0  0  0  0  0  0
  192.1568  157.9366  121.6805 C   0  0  0  0  0  0  0  0  0  0  0  0
  191.8355  158.2582  120.2701 C   0  0  0  0  0  0  0  0  0  0  0  0
  192.7529  158.1154  119.2522 C   0  0  0  0  0  0  0  0  0  0  0  0
  194.0308  157.6432  119.5107 O   0  0  0  0  0  0  0  0  0  0  0  0
  192.4166  158.4394  117.9599 C   0  0  0  0  0  0  0  0  0  0  0  0
  191.1439  158.9083  117.7166 C   0  0  0  0  0  0  0  0  0  0  0  0
  190.2123  159.0530  118.7523 C   0  0  0  0  0  0  0  0  0  0  0  0
  188.9343  159.5257  118.5069 O   0  0  0  0  0  0  0  0  0  0  0  0
  190.5423  158.7335  120.0239 C   0  0  0  0  0  0  0  0  0  0  0  0
  190.7486  159.2615  116.3561 C   0  0  0  0  0  0  0  0  0  0  0  0
  189.5926  159.6904  116.1157 O   0  0  0  0  0  0  0  0  0  0  0  0
  191.7350  159.1023  115.2803 C   0  0  0  0  0  0  0  0  0  0  0  0
  193.0016  158.6373  115.5147 C   0  0  0  0  0  0  0  0  0  0  0  0
  193.9367  158.4848  114.4872 C   0  0  0  0  0  0  0  0  0  0  0  0
  193.5376  158.8228  113.2115 C   0  0  0  0  0  0  0  0  0  0  0  0
  192.2711  159.2942  112.9473 C   0  0  0  0  0  0  0  0  0  0  0  0
  191.3659  159.4351  113.9837 C   0  0  0  0  0  0  0  0  0  0  0  0
  190.0791  159.9020  113.7914 O   0  0  0  0  0  0  0  0  0  0  0  0
  189.6927  160.1928  112.4431 C   0  0  0  0  0  0  0  0  0  0  0  0
  193.4073  158.2813  116.8667 C   0  0  0  0  0  0  0  0  0  0  0  0
  194.5484  157.8492  117.1581 O   0  0  0  0  0  0  0  0  0  0  0  0
  191.1808  157.0137  123.7216 C   0  0  0  0  0  0  0  0  0  0  0  0
  191.5492  155.7070  124.3750 C   0  0  0  0  0  0  0  0  0  0  0  0
  190.9725  157.9920  124.5042 N   0  0  0  0  0  0  0  0  0  0  0  0
  189.8366  158.0340  125.3062 N   0  0  0  0  0  0  0  0  0  0  0  0
  189.5600  159.1915  126.0494 C   0  0  0  0  0  0  0  0  0  0  0  0
  188.5006  159.2180  126.7626 O   0  0  0  0  0  0  0  0  0  0  0  0
  190.4021  160.3792  126.0682 C   0  0  0  0  0  0  0  0  0  0  0  0
  190.5064  161.2168  124.9769 C   0  0  0  0  0  0  0  0  0  0  0  0
  191.3200  162.3521  125.0147 C   0  0  0  0  0  0  0  0  0  0  0  0
  192.0516  162.6817  126.1464 C   0  0  0  0  0  0  0  0  0  0  0  0
  191.9447  161.8450  127.2309 C   0  0  0  0  0  0  0  0  0  0  0  0
  191.1433  160.7262  127.1918 C   0  0  0  0  0  0  0  0  0  0  0  0
  188.4080  159.2458  120.9235 O   0  0  0  0  0  0  0  0  0  0  0  0
  188.1779  160.5862  121.2238 C   0  0  1  0  0  0  0  0  0  0  0  0
  186.8877  160.8219  121.9342 C   0  0  0  0  0  0  0  0  0  0  0  0
  186.8268  162.0989  122.7071 C   0  0  2  0  0  0  0  0  0  0  0  0
  186.3714  163.1572  121.8037 N   0  0  0  0  0  0  0  0  0  0  0  0
  188.1342  162.5224  123.3116 C   0  0  2  0  0  0  0  0  0  0  0  0
  188.0746  163.7883  123.8369 O   0  0  0  0  0  0  0  0  0  0  0  0
  189.2590  162.3213  122.3421 C   0  0  2  0  0  0  0  0  0  0  0  0
  189.3036  163.3535  121.2493 C   0  0  0  0  0  0  0  0  0  0  0  0
  189.2854  161.0231  121.9141 O   0  0  0  0  0  0  0  0  0  0  0  0
  1  2  1  0
  2  3  1  0
  3  4  1  6
  3  5  1  0
  5  6  1  0
  6  7  2  0
  7  8  1  0
  7  9  1  0
  9 10  2  0
 10 11  1  0
 11 12  1  0
 11 13  2  0
 10 14  1  0
 14 15  2  0
 14 16  1  0
 16 17  2  0
 17 18  1  0
 18 19  2  0
 19 20  1  0
 20 21  2  0
 21 22  1  0
 22 23  1  0
 17 24  1  0
 24 25  2  0
  3 26  1  0
 26 27  1  0
 26 28  2  3
 28 29  1  0
 29 30  1  0
 30 31  2  0
 30 32  1  0
 32 33  2  0
 33 34  1  0
 34 35  2  0
 35 36  1  0
 36 37  2  0
  1 38  1  6
 39 38  1  1
 39 40  1  0
 40 41  1  0
 41 42  1  6
 41 43  1  0
 43 44  1  6
 43 45  1  0
 45 46  1  6
 45 47  1  0
 13  1  1  0
 21 16  1  0
 37 32  1  0
 47 39  1  0
 13  6  1  0
 24  9  1  0
M  END
$$$$
