
     RDKit          3D

 47 52  0  0  0  0  0  0  0  0999 V2000
  120.7914  165.1526  145.2559 C   0  0  1  0  0  0  0  0  0  0  0  0
  120.5872  163.7980  145.9195 C   0  0  0  0  0  0  0  0  0  0  0  0
  120.9159  162.6934  144.9760 C   0  0  1  0  0  0  0  0  0  0  0  0
  119.8508  161.7609  144.9720 O   0  0  0  0  0  0  0  0  0  0  0  0
  121.1012  163.1075  143.5491 C   0  0  0  0  0  0  0  0  0  0  0  0
  120.0577  164.0987  143.1960 C   0  0  0  0  0  0  0  0  0  0  0  0
  119.2835  163.9843  142.0621 C   0  0  0  0  0  0  0  0  0  0  0  0
  119.4440  162.9106  141.1994 O   0  0  0  0  0  0  0  0  0  0  0  0
  118.3365  164.9347  141.7656 C   0  0  0  0  0  0  0  0  0  0  0  0
  118.1875  165.9971  142.6305 C   0  0  0  0  0  0  0  0  0  0  0  0
  118.9753  166.1121  143.7828 C   0  0  0  0  0  0  0  0  0  0  0  0
  118.8257  167.1808  144.6503 O   0  0  0  0  0  0  0  0  0  0  0  0
  119.9065  165.1768  144.0755 C   0  0  0  0  0  0  0  0  0  0  0  0
  117.1906  167.0265  142.3503 C   0  0  0  0  0  0  0  0  0  0  0  0
  117.0409  168.0018  143.1276 O   0  0  0  0  0  0  0  0  0  0  0  0
  116.3706  166.8913  141.1400 C   0  0  0  0  0  0  0  0  0  0  0  0
  116.5133  165.8385  140.2758 C   0  0  0  0  0  0  0  0  0  0  0  0
  115.7287  165.7123  139.1260 C   0  0  0  0  0  0  0  0  0  0  0  0
  114.7931  166.6962  138.8859 C   0  0  0  0  0  0  0  0  0  0  0  0
  114.6292  167.7663  139.7367 C   0  0  0  0  0  0  0  0  0  0  0  0
  115.4196  167.8658  140.8676 C   0  0  0  0  0  0  0  0  0  0  0  0
  115.3095  168.9119  141.7645 O   0  0  0  0  0  0  0  0  0  0  0  0
  114.5777  170.0629  141.3271 C   0  0  0  0  0  0  0  0  0  0  0  0
  117.5034  164.8057  140.5446 C   0  0  0  0  0  0  0  0  0  0  0  0
  117.6912  163.8134  139.8004 O   0  0  0  0  0  0  0  0  0  0  0  0
  122.1374  161.9916  145.4600 C   0  0  0  0  0  0  0  0  0  0  0  0
  122.1567  160.4855  145.4237 C   0  0  0  0  0  0  0  0  0  0  0  0
  123.1803  162.5542  145.9168 N   0  0  0  0  0  0  0  0  0  0  0  0
  123.2171  163.0358  147.2214 N   0  0  0  0  0  0  0  0  0  0  0  0
  123.9470  162.3359  148.1941 C   0  0  0  0  0  0  0  0  0  0  0  0
  124.6120  163.0058  149.0548 O   0  0  0  0  0  0  0  0  0  0  0  0
  124.0026  160.8845  148.2963 C   0  0  0  0  0  0  0  0  0  0  0  0
  124.7444  160.2499  149.2711 C   0  0  0  0  0  0  0  0  0  0  0  0
  124.7848  158.8557  149.3528 C   0  0  0  0  0  0  0  0  0  0  0  0
  124.0831  158.0571  148.4614 C   0  0  0  0  0  0  0  0  0  0  0  0
  123.3457  158.6933  147.4924 C   0  0  0  0  0  0  0  0  0  0  0  0
  123.3075  160.0672  147.4127 C   0  0  0  0  0  0  0  0  0  0  0  0
  120.5903  166.1977  146.1047 O   0  0  0  0  0  0  0  0  0  0  0  0
  119.5947  165.9843  147.0548 C   0  0  1  0  0  0  0  0  0  0  0  0
  118.2317  166.3620  146.5809 C   0  0  0  0  0  0  0  0  0  0  0  0
  117.1115  165.7059  147.3201 C   0  0  2  0  0  0  0  0  0  0  0  0
  116.7909  166.5300  148.4870 N   0  0  0  0  0  0  0  0  0  0  0  0
  117.4104  164.3124  147.7923 C   0  0  2  0  0  0  0  0  0  0  0  0
  116.4366  163.8306  148.6298 O   0  0  0  0  0  0  0  0  0  0  0  0
  118.7943  164.2283  148.3611 C   0  0  2  0  0  0  0  0  0  0  0  0
  118.9205  164.8379  149.7301 C   0  0  0  0  0  0  0  0  0  0  0  0
  119.7078  164.6692  147.4443 O   0  0  0  0  0  0  0  0  0  0  0  0
  1  2  1  0
  2  3  1  0
  3  4  1  6
  3  5  1  0
  5  6  1  0
  6  7  2  0
  7  8  1  0
  7  9  1  0
  9 10  2  0
 10 11  1  0
 11 12  1  0
 11 13  2  0
 10 14  1  0
 14 15  2  0
 14 16  1  0
 16 17  2  0
 17 18  1  0
 18 19  2  0
 19 20  1  0
 20 21  2  0
 21 22  1  0
 22 23  1  0
 17 24  1  0
 24 25  2  0
  3 26  1  0
 26 27  1  0
 26 28  2  3
 28 29  1  0
 29 30  1  0
 30 31  2  0
 30 32  1  0
 32 33  2  0
 33 34  1  0
 34 35  2  0
 35 36  1  0
 36 37  2  0
  1 38  1  1
 39 38  1  6
 39 40  1  0
 40 41  1  0
 41 42  1  1
 41 43  1  0
 43 44  1  1
 43 45  1  0
 45 46  1  1
 45 47  1  0
 13  1  1  0
 21 16  1  0
 37 32  1  0
 47 39  1  0
 13  6  1  0
 24  9  1  0
M  END
$$$$
