
     RDKit          3D

 47 52  0  0  0  0  0  0  0  0999 V2000
  128.1024  140.7502  134.3783 C   0  0  1  0  0  0  0  0  0  0  0  0
  128.8889  141.5367  135.4173 C   0  0  0  0  0  0  0  0  0  0  0  0
  128.5739  142.9897  135.3287 C   0  0  1  0  0  0  0  0  0  0  0  0
  129.7857  143.7201  135.2810 O   0  0  0  0  0  0  0  0  0  0  0  0
  127.8009  143.4017  134.1142 C   0  0  0  0  0  0  0  0  0  0  0  0
  128.3412  142.6866  132.9341 C   0  0  0  0  0  0  0  0  0  0  0  0
  128.6761  143.3360  131.7661 C   0  0  0  0  0  0  0  0  0  0  0  0
  128.5312  144.7104  131.6525 O   0  0  0  0  0  0  0  0  0  0  0  0
  129.1605  142.6311  130.6906 C   0  0  0  0  0  0  0  0  0  0  0  0
  129.2988  141.2659  130.8161 C   0  0  0  0  0  0  0  0  0  0  0  0
  128.9580  140.6070  132.0041 C   0  0  0  0  0  0  0  0  0  0  0  0
  129.0960  139.2350  132.1285 O   0  0  0  0  0  0  0  0  0  0  0  0
  128.4822  141.3001  133.0629 C   0  0  0  0  0  0  0  0  0  0  0  0
  129.8119  140.4826  129.6958 C   0  0  0  0  0  0  0  0  0  0  0  0
  129.9447  139.2372  129.7923 O   0  0  0  0  0  0  0  0  0  0  0  0
  130.1672  141.1873  128.4577 C   0  0  0  0  0  0  0  0  0  0  0  0
  130.0320  142.5436  128.3256 C   0  0  0  0  0  0  0  0  0  0  0  0
  130.3740  143.2108  127.1460 C   0  0  0  0  0  0  0  0  0  0  0  0
  130.8585  142.4486  126.1042 C   0  0  0  0  0  0  0  0  0  0  0  0
  131.0032  141.0833  126.2088 C   0  0  0  0  0  0  0  0  0  0  0  0
  130.6569  140.4491  127.3883 C   0  0  0  0  0  0  0  0  0  0  0  0
  130.7759  139.0830  127.5631 O   0  0  0  0  0  0  0  0  0  0  0  0
  130.7965  138.2799  126.3773 C   0  0  0  0  0  0  0  0  0  0  0  0
  129.5222  143.3355  129.4358 C   0  0  0  0  0  0  0  0  0  0  0  0
  129.3713  144.5800  129.3893 O   0  0  0  0  0  0  0  0  0  0  0  0
  127.8392  143.4010  136.5574 C   0  0  0  0  0  0  0  0  0  0  0  0
  127.4760  144.8544  136.7189 C   0  0  0  0  0  0  0  0  0  0  0  0
  127.4912  142.6284  137.5033 N   0  0  0  0  0  0  0  0  0  0  0  0
  126.4274  141.7455  137.3479 N   0  0  0  0  0  0  0  0  0  0  0  0
  126.5888  140.4006  137.7137 C   0  0  0  0  0  0  0  0  0  0  0  0
  127.6351  139.7838  137.3181 O   0  0  0  0  0  0  0  0  0  0  0  0
  125.6401  139.6471  138.5215 C   0  0  0  0  0  0  0  0  0  0  0  0
  125.1944  140.1082  139.7429 C   0  0  0  0  0  0  0  0  0  0  0  0
  124.2835  139.3703  140.5032 C   0  0  0  0  0  0  0  0  0  0  0  0
  123.7923  138.1502  140.0619 C   0  0  0  0  0  0  0  0  0  0  0  0
  124.2388  137.6949  138.8450 C   0  0  0  0  0  0  0  0  0  0  0  0
  125.1370  138.4227  138.0973 C   0  0  0  0  0  0  0  0  0  0  0  0
  128.2867  139.4050  134.4762 O   0  0  0  0  0  0  0  0  0  0  0  0
  129.5494  139.0283  134.9272 C   0  0  1  0  0  0  0  0  0  0  0  0
  129.5100  138.0998  136.0939 C   0  0  0  0  0  0  0  0  0  0  0  0
  130.7499  137.2890  136.2863 C   0  0  2  0  0  0  0  0  0  0  0  0
  131.6813  138.0674  137.1048 N   0  0  0  0  0  0  0  0  0  0  0  0
  131.4456  136.9053  135.0123 C   0  0  2  0  0  0  0  0  0  0  0  0
  132.6733  136.3388  135.2444 O   0  0  0  0  0  0  0  0  0  0  0  0
  131.4820  138.0595  134.0572 C   0  0  2  0  0  0  0  0  0  0  0  0
  132.4929  139.1113  134.4223 C   0  0  0  0  0  0  0  0  0  0  0  0
  130.2163  138.5255  133.8334 O   0  0  0  0  0  0  0  0  0  0  0  0
  1  2  1  0
  2  3  1  0
  3  4  1  6
  3  5  1  0
  5  6  1  0
  6  7  2  0
  7  8  1  0
  7  9  1  0
  9 10  2  0
 10 11  1  0
 11 12  1  0
 11 13  2  0
 10 14  1  0
 14 15  2  0
 14 16  1  0
 16 17  2  0
 17 18  1  0
 18 19  2  0
 19 20  1  0
 20 21  2  0
 21 22  1  0
 22 23  1  0
 17 24  1  0
 24 25  2  0
  3 26  1  0
 26 27  1  0
 26 28  2  3
 28 29  1  0
 29 30  1  0
 30 31  2  0
 30 32  1  0
 32 33  2  0
 33 34  1  0
 34 35  2  0
 35 36  1  0
 36 37  2  0
  1 38  1  6
 39 38  1  6
 39 40  1  0
 40 41  1  0
 41 42  1  1
 41 43  1  0
 43 44  1  1
 43 45  1  0
 45 46  1  1
 45 47  1  0
 13  1  1  0
 21 16  1  0
 37 32  1  0
 47 39  1  0
 13  6  1  0
 24  9  1  0
M  END
$$$$
