
     RDKit          3D

 47 52  0  0  0  0  0  0  0  0999 V2000
  102.9931  165.2891  157.9169 C   0  0  1  0  0  0  0  0  0  0  0  0
  102.5998  164.9255  156.4921 C   0  0  0  0  0  0  0  0  0  0  0  0
  103.7113  164.2121  155.8037 C   0  0  1  0  0  0  0  0  0  0  0  0
  103.9403  164.8227  154.5473 O   0  0  0  0  0  0  0  0  0  0  0  0
  105.0271  164.2417  156.5179 C   0  0  0  0  0  0  0  0  0  0  0  0
  105.2458  165.6003  157.0679 C   0  0  0  0  0  0  0  0  0  0  0  0
  106.4196  166.2954  156.8749 C   0  0  0  0  0  0  0  0  0  0  0  0
  107.4548  165.7465  156.1333 O   0  0  0  0  0  0  0  0  0  0  0  0
  106.5853  167.5477  157.4155 C   0  0  0  0  0  0  0  0  0  0  0  0
  105.5494  168.0814  158.1511 C   0  0  0  0  0  0  0  0  0  0  0  0
  104.3567  167.3736  158.3465 C   0  0  0  0  0  0  0  0  0  0  0  0
  103.3172  167.9102  159.0870 O   0  0  0  0  0  0  0  0  0  0  0  0
  104.1927  166.1418  157.8140 C   0  0  0  0  0  0  0  0  0  0  0  0
  105.6871  169.4103  158.7400 C   0  0  0  0  0  0  0  0  0  0  0  0
  104.7532  169.9126  159.4134 O   0  0  0  0  0  0  0  0  0  0  0  0
  106.9421  170.1412  158.5248 C   0  0  0  0  0  0  0  0  0  0  0  0
  107.9759  169.6171  157.7953 C   0  0  0  0  0  0  0  0  0  0  0  0
  109.1679  170.3176  157.5906 C   0  0  0  0  0  0  0  0  0  0  0  0
  109.2716  171.5712  158.1551 C   0  0  0  0  0  0  0  0  0  0  0  0
  108.2488  172.1219  158.8944 C   0  0  0  0  0  0  0  0  0  0  0  0
  107.0799  171.4062  159.0809 C   0  0  0  0  0  0  0  0  0  0  0  0
  106.0136  171.8969  159.8110 O   0  0  0  0  0  0  0  0  0  0  0  0
  106.3290  172.6434  160.9920 C   0  0  0  0  0  0  0  0  0  0  0  0
  107.8502  168.2934  157.2026 C   0  0  0  0  0  0  0  0  0  0  0  0
  108.7528  167.7486  156.5226 O   0  0  0  0  0  0  0  0  0  0  0  0
  103.3021  162.8008  155.5594 C   0  0  0  0  0  0  0  0  0  0  0  0
  101.9381  162.3624  156.0255 C   0  0  0  0  0  0  0  0  0  0  0  0
  104.0120  161.9137  154.9919 N   0  0  0  0  0  0  0  0  0  0  0  0
  105.1579  161.4178  155.6052 N   0  0  0  0  0  0  0  0  0  0  0  0
  106.2471  162.2744  155.8260 C   0  0  0  0  0  0  0  0  0  0  0  0
  106.1023  163.5191  155.5780 O   0  0  0  0  0  0  0  0  0  0  0  0
  107.5461  161.8439  156.3235 C   0  0  0  0  0  0  0  0  0  0  0  0
  108.0837  162.3472  157.4899 C   0  0  0  0  0  0  0  0  0  0  0  0
  109.3320  161.9212  157.9510 C   0  0  0  0  0  0  0  0  0  0  0  0
  110.0771  160.9784  157.2577 C   0  0  0  0  0  0  0  0  0  0  0  0
  109.5379  160.4797  156.0967 C   0  0  0  0  0  0  0  0  0  0  0  0
  108.3081  160.9012  155.6432 C   0  0  0  0  0  0  0  0  0  0  0  0
  101.9789  165.8643  158.6195 O   0  0  0  0  0  0  0  0  0  0  0  0
  101.9162  165.4822  159.9573 C   0  0  1  0  0  0  0  0  0  0  0  0
  100.5229  165.3736  160.4786 C   0  0  0  0  0  0  0  0  0  0  0  0
  100.3765  164.5094  161.6883 C   0  0  2  0  0  0  0  0  0  0  0  0
  100.6146  165.3376  162.8719 N   0  0  0  0  0  0  0  0  0  0  0  0
  101.3152  163.3385  161.7331 C   0  0  2  0  0  0  0  0  0  0  0  0
  101.2813  162.6951  162.9441 O   0  0  0  0  0  0  0  0  0  0  0  0
  102.6918  163.7430  161.3004 C   0  0  2  0  0  0  0  0  0  0  0  0
  103.4437  164.5267  162.3405 C   0  0  0  0  0  0  0  0  0  0  0  0
  102.6455  164.3198  160.0617 O   0  0  0  0  0  0  0  0  0  0  0  0
  1  2  1  0
  2  3  1  0
  3  4  1  6
  3  5  1  0
  5  6  1  0
  6  7  2  0
  7  8  1  0
  7  9  1  0
  9 10  2  0
 10 11  1  0
 11 12  1  0
 11 13  2  0
 10 14  1  0
 14 15  2  0
 14 16  1  0
 16 17  2  0
 17 18  1  0
 18 19  2  0
 19 20  1  0
 20 21  2  0
 21 22  1  0
 22 23  1  0
 17 24  1  0
 24 25  2  0
  3 26  1  0
 26 27  1  0
 26 28  2  3
 28 29  1  0
 29 30  1  0
 30 31  2  0
 30 32  1  0
 32 33  2  0
 33 34  1  0
 34 35  2  0
 35 36  1  0
 36 37  2  0
  1 38  1  6
 39 38  1  6
 39 40  1  0
 40 41  1  0
 41 42  1  1
 41 43  1  0
 43 44  1  1
 43 45  1  0
 45 46  1  1
 45 47  1  0
 13  1  1  0
 21 16  1  0
 37 32  1  0
 47 39  1  0
 13  6  1  0
 24  9  1  0
M  END
$$$$
