
     RDKit          3D

 47 52  0  0  0  0  0  0  0  0999 V2000
  189.5974  159.0249  116.7831 C   0  0  1  0  0  0  0  0  0  0  0  0
  188.9655  160.4020  116.6363 C   0  0  0  0  0  0  0  0  0  0  0  0
  190.0137  161.4558  116.5404 C   0  0  1  0  0  0  0  0  0  0  0  0
  189.7117  162.4886  117.4602 O   0  0  0  0  0  0  0  0  0  0  0  0
  191.4025  161.0060  116.8733 C   0  0  0  0  0  0  0  0  0  0  0  0
  191.3499  160.1178  118.0584 C   0  0  0  0  0  0  0  0  0  0  0  0
  192.1725  160.2925  119.1497 C   0  0  0  0  0  0  0  0  0  0  0  0
  193.0880  161.3333  119.1880 O   0  0  0  0  0  0  0  0  0  0  0  0
  192.0998  159.4361  120.2218 C   0  0  0  0  0  0  0  0  0  0  0  0
  191.1865  158.4054  120.1708 C   0  0  0  0  0  0  0  0  0  0  0  0
  190.3509  158.2291  119.0607 C   0  0  0  0  0  0  0  0  0  0  0  0
  189.4347  157.1924  119.0100 O   0  0  0  0  0  0  0  0  0  0  0  0
  190.4213  159.0719  118.0060 C   0  0  0  0  0  0  0  0  0  0  0  0
  191.0785  157.4757  121.2915 C   0  0  0  0  0  0  0  0  0  0  0  0
  190.2516  156.5305  121.2624 O   0  0  0  0  0  0  0  0  0  0  0  0
  191.9593  157.6745  122.4492 C   0  0  0  0  0  0  0  0  0  0  0  0
  192.8695  158.6962  122.5066 C   0  0  0  0  0  0  0  0  0  0  0  0
  193.7042  158.8834  123.6120 C   0  0  0  0  0  0  0  0  0  0  0  0
  193.5805  157.9934  124.6577 C   0  0  0  0  0  0  0  0  0  0  0  0
  192.6752  156.9563  124.6260 C   0  0  0  0  0  0  0  0  0  0  0  0
  191.8615  156.7949  123.5192 C   0  0  0  0  0  0  0  0  0  0  0  0
  190.9314  155.7771  123.4197 O   0  0  0  0  0  0  0  0  0  0  0  0
  190.8897  154.8333  124.4963 C   0  0  0  0  0  0  0  0  0  0  0  0
  192.9860  159.6300  121.3959 C   0  0  0  0  0  0  0  0  0  0  0  0
  193.7950  160.5886  121.3768 O   0  0  0  0  0  0  0  0  0  0  0  0
  189.9878  162.0403  115.1706 C   0  0  0  0  0  0  0  0  0  0  0  0
  189.0046  161.4818  114.1748 C   0  0  0  0  0  0  0  0  0  0  0  0
  190.7369  162.9769  114.7530 N   0  0  0  0  0  0  0  0  0  0  0  0
  192.0905  163.0038  115.0731 N   0  0  0  0  0  0  0  0  0  0  0  0
  192.8433  164.1531  114.7885 C   0  0  0  0  0  0  0  0  0  0  0  0
  193.8572  164.0414  114.0196 O   0  0  0  0  0  0  0  0  0  0  0  0
  192.5501  165.4801  115.3111 C   0  0  0  0  0  0  0  0  0  0  0  0
  193.2478  166.5967  114.8994 C   0  0  0  0  0  0  0  0  0  0  0  0
  192.9513  167.8620  115.4127 C   0  0  0  0  0  0  0  0  0  0  0  0
  191.9472  168.0454  116.3522 C   0  0  0  0  0  0  0  0  0  0  0  0
  191.2548  166.9308  116.7593 C   0  0  0  0  0  0  0  0  0  0  0  0
  191.5488  165.6846  116.2532 C   0  0  0  0  0  0  0  0  0  0  0  0
  188.6830  158.0164  116.7849 O   0  0  0  0  0  0  0  0  0  0  0  0
  187.4650  158.3448  117.3752 C   0  0  1  0  0  0  0  0  0  0  0  0
  187.3852  157.9720  118.8173 C   0  0  0  0  0  0  0  0  0  0  0  0
  186.3603  158.7267  119.5995 C   0  0  2  0  0  0  0  0  0  0  0  0
  185.0842  158.0188  119.4813 N   0  0  0  0  0  0  0  0  0  0  0  0
  186.1579  160.1456  119.1524 C   0  0  2  0  0  0  0  0  0  0  0  0
  185.0776  160.7306  119.7628 O   0  0  0  0  0  0  0  0  0  0  0  0
  186.1296  160.2336  117.6567 C   0  0  2  0  0  0  0  0  0  0  0  0
  184.8446  159.7423  117.0490 C   0  0  0  0  0  0  0  0  0  0  0  0
  187.2660  159.6845  117.1311 O   0  0  0  0  0  0  0  0  0  0  0  0
  1  2  1  0
  2  3  1  0
  3  4  1  1
  3  5  1  0
  5  6  1  0
  6  7  2  0
  7  8  1  0
  7  9  1  0
  9 10  2  0
 10 11  1  0
 11 12  1  0
 11 13  2  0
 10 14  1  0
 14 15  2  0
 14 16  1  0
 16 17  2  0
 17 18  1  0
 18 19  2  0
 19 20  1  0
 20 21  2  0
 21 22  1  0
 22 23  1  0
 17 24  1  0
 24 25  2  0
  3 26  1  0
 26 27  1  0
 26 28  2  3
 28 29  1  0
 29 30  1  0
 30 31  2  0
 30 32  1  0
 32 33  2  0
 33 34  1  0
 34 35  2  0
 35 36  1  0
 36 37  2  0
  1 38  1  1
 39 38  1  1
 39 40  1  0
 40 41  1  0
 41 42  1  6
 41 43  1  0
 43 44  1  1
 43 45  1  0
 45 46  1  6
 45 47  1  0
 13  1  1  0
 21 16  1  0
 37 32  1  0
 47 39  1  0
 13  6  1  0
 24  9  1  0
M  END
$$$$
