
     RDKit          3D

 47 52  0  0  0  0  0  0  0  0999 V2000
  126.2782  145.8401  135.3652 C   0  0  1  0  0  0  0  0  0  0  0  0
  127.0856  146.6003  136.4080 C   0  0  0  0  0  0  0  0  0  0  0  0
  128.1868  147.3695  135.7646 C   0  0  1  0  0  0  0  0  0  0  0  0
  129.3974  147.0945  136.4451 O   0  0  0  0  0  0  0  0  0  0  0  0
  128.4420  147.0367  134.3271 C   0  0  0  0  0  0  0  0  0  0  0  0
  128.3627  145.5673  134.1517 C   0  0  0  0  0  0  0  0  0  0  0  0
  129.3393  144.8474  133.4989 C   0  0  0  0  0  0  0  0  0  0  0  0
  130.4610  145.4793  132.9840 O   0  0  0  0  0  0  0  0  0  0  0  0
  129.2182  143.4872  133.3463 C   0  0  0  0  0  0  0  0  0  0  0  0
  128.0983  142.8715  133.8618 C   0  0  0  0  0  0  0  0  0  0  0  0
  127.1064  143.6046  134.5252 C   0  0  0  0  0  0  0  0  0  0  0  0
  125.9809  142.9852  135.0414 O   0  0  0  0  0  0  0  0  0  0  0  0
  127.2254  144.9428  134.6765 C   0  0  0  0  0  0  0  0  0  0  0  0
  127.9347  141.4274  133.7210 C   0  0  0  0  0  0  0  0  0  0  0  0
  126.9204  140.8493  134.1848 O   0  0  0  0  0  0  0  0  0  0  0  0
  128.9838  140.6718  133.0253 C   0  0  0  0  0  0  0  0  0  0  0  0
  130.0991  141.2769  132.5101 C   0  0  0  0  0  0  0  0  0  0  0  0
  131.0968  140.5533  131.8509 C   0  0  0  0  0  0  0  0  0  0  0  0
  130.9194  139.1911  131.7336 C   0  0  0  0  0  0  0  0  0  0  0  0
  129.8073  138.5569  132.2406 C   0  0  0  0  0  0  0  0  0  0  0  0
  128.8356  139.2979  132.8885 C   0  0  0  0  0  0  0  0  0  0  0  0
  127.6946  138.7276  133.4212 O   0  0  0  0  0  0  0  0  0  0  0  0
  127.3924  137.3879  133.0146 C   0  0  0  0  0  0  0  0  0  0  0  0
  130.2739  142.7159  132.6448 C   0  0  0  0  0  0  0  0  0  0  0  0
  131.2674  143.3393  132.1996 O   0  0  0  0  0  0  0  0  0  0  0  0
  127.9043  148.8255  135.9024 C   0  0  0  0  0  0  0  0  0  0  0  0
  129.0115  149.7996  135.5936 C   0  0  0  0  0  0  0  0  0  0  0  0
  126.7995  149.3318  136.2710 N   0  0  0  0  0  0  0  0  0  0  0  0
  125.8400  149.7069  135.3360 N   0  0  0  0  0  0  0  0  0  0  0  0
  125.7237  151.0567  134.9713 C   0  0  0  0  0  0  0  0  0  0  0  0
  124.5705  151.6038  135.0230 O   0  0  0  0  0  0  0  0  0  0  0  0
  126.8343  151.8904  134.5335 C   0  0  0  0  0  0  0  0  0  0  0  0
  127.8137  151.4147  133.6863 C   0  0  0  0  0  0  0  0  0  0  0  0
  128.8716  152.2306  133.2773 C   0  0  0  0  0  0  0  0  0  0  0  0
  128.9787  153.5462  133.7042 C   0  0  0  0  0  0  0  0  0  0  0  0
  128.0012  154.0160  134.5476 C   0  0  0  0  0  0  0  0  0  0  0  0
  126.9598  153.2105  134.9504 C   0  0  0  0  0  0  0  0  0  0  0  0
  125.2036  145.1914  135.8922 O   0  0  0  0  0  0  0  0  0  0  0  0
  125.4824  144.4544  137.0405 C   0  0  1  0  0  0  0  0  0  0  0  0
  126.3933  143.2986  136.7970 C   0  0  0  0  0  0  0  0  0  0  0  0
  127.1107  142.8049  138.0108 C   0  0  2  0  0  0  0  0  0  0  0  0
  126.2553  141.8214  138.6775 N   0  0  0  0  0  0  0  0  0  0  0  0
  127.4634  143.8754  139.0027 C   0  0  2  0  0  0  0  0  0  0  0  0
  127.9375  143.3535  140.1794 O   0  0  0  0  0  0  0  0  0  0  0  0
  126.3245  144.8330  139.1801 C   0  0  2  0  0  0  0  0  0  0  0  0
  125.1979  144.2813  140.0095 C   0  0  0  0  0  0  0  0  0  0  0  0
  125.9533  145.3524  137.9711 O   0  0  0  0  0  0  0  0  0  0  0  0
  1  2  1  0
  2  3  1  0
  3  4  1  1
  3  5  1  0
  5  6  1  0
  6  7  2  0
  7  8  1  0
  7  9  1  0
  9 10  2  0
 10 11  1  0
 11 12  1  0
 11 13  2  0
 10 14  1  0
 14 15  2  0
 14 16  1  0
 16 17  2  0
 17 18  1  0
 18 19  2  0
 19 20  1  0
 20 21  2  0
 21 22  1  0
 22 23  1  0
 17 24  1  0
 24 25  2  0
  3 26  1  0
 26 27  1  0
 26 28  2  3
 28 29  1  0
 29 30  1  0
 30 31  2  0
 30 32  1  0
 32 33  2  0
 33 34  1  0
 34 35  2  0
 35 36  1  0
 36 37  2  0
  1 38  1  1
 39 38  1  6
 39 40  1  0
 40 41  1  0
 41 42  1  1
 41 43  1  0
 43 44  1  1
 43 45  1  0
 45 46  1  6
 45 47  1  0
 13  1  1  0
 21 16  1  0
 37 32  1  0
 47 39  1  0
 13  6  1  0
 24  9  1  0
M  END
$$$$
