
     RDKit          3D

 47 52  0  0  0  0  0  0  0  0999 V2000
  190.2838  160.8200  122.9859 C   0  0  1  0  0  0  0  0  0  0  0  0
  188.7976  160.5590  122.7860 C   0  0  0  0  0  0  0  0  0  0  0  0
  188.4774  159.1239  123.0235 C   0  0  1  0  0  0  0  0  0  0  0  0
  187.7148  158.6374  121.9346 O   0  0  0  0  0  0  0  0  0  0  0  0
  189.6628  158.2152  123.1301 C   0  0  0  0  0  0  0  0  0  0  0  0
  190.6533  158.5926  122.0945 C   0  0  0  0  0  0  0  0  0  0  0  0
  191.2252  157.6686  121.2475 C   0  0  0  0  0  0  0  0  0  0  0  0
  190.8792  156.3280  121.3232 O   0  0  0  0  0  0  0  0  0  0  0  0
  192.1508  158.0607  120.3107 C   0  0  0  0  0  0  0  0  0  0  0  0
  192.4866  159.3956  120.2464 C   0  0  0  0  0  0  0  0  0  0  0  0
  191.9045  160.3338  121.1081 C   0  0  0  0  0  0  0  0  0  0  0  0
  192.2437  161.6745  121.0435 O   0  0  0  0  0  0  0  0  0  0  0  0
  190.9930  159.9488  122.0294 C   0  0  0  0  0  0  0  0  0  0  0  0
  193.4651  159.8510  119.2630 C   0  0  0  0  0  0  0  0  0  0  0  0
  193.7832  161.0640  119.1900 O   0  0  0  0  0  0  0  0  0  0  0  0
  194.0651  158.8565  118.3649 C   0  0  0  0  0  0  0  0  0  0  0  0
  193.7366  157.5283  118.4233 C   0  0  0  0  0  0  0  0  0  0  0  0
  194.3083  156.5853  117.5645 C   0  0  0  0  0  0  0  0  0  0  0  0
  195.2273  157.0415  116.6436 C   0  0  0  0  0  0  0  0  0  0  0  0
  195.5775  158.3708  116.5638 C   0  0  0  0  0  0  0  0  0  0  0  0
  194.9957  159.2824  117.4263 C   0  0  0  0  0  0  0  0  0  0  0  0
  195.2999  160.6306  117.4023 O   0  0  0  0  0  0  0  0  0  0  0  0
  196.2214  161.0666  116.3962 C   0  0  0  0  0  0  0  0  0  0  0  0
  192.7619  157.0622  119.3990 C   0  0  0  0  0  0  0  0  0  0  0  0
  192.4111  155.8630  119.5117 O   0  0  0  0  0  0  0  0  0  0  0  0
  187.6440  159.0115  124.2530 C   0  0  0  0  0  0  0  0  0  0  0  0
  187.3239  160.2708  125.0158 C   0  0  0  0  0  0  0  0  0  0  0  0
  187.1763  157.9324  124.7321 N   0  0  0  0  0  0  0  0  0  0  0  0
  186.8413  157.8367  126.0790 N   0  0  0  0  0  0  0  0  0  0  0  0
  186.2654  156.6525  126.5635 C   0  0  0  0  0  0  0  0  0  0  0  0
  185.9580  155.7383  125.7259 O   0  0  0  0  0  0  0  0  0  0  0  0
  185.9894  156.3854  127.9680 C   0  0  0  0  0  0  0  0  0  0  0  0
  185.4311  155.1959  128.3882 C   0  0  0  0  0  0  0  0  0  0  0  0
  185.1740  154.9584  129.7409 C   0  0  0  0  0  0  0  0  0  0  0  0
  185.4693  155.9047  130.7114 C   0  0  0  0  0  0  0  0  0  0  0  0
  186.0252  157.0878  130.2886 C   0  0  0  0  0  0  0  0  0  0  0  0
  186.2772  157.3206  128.9552 C   0  0  0  0  0  0  0  0  0  0  0  0
  190.6145  162.1353  122.8680 O   0  0  0  0  0  0  0  0  0  0  0  0
  189.8306  162.8471  121.9634 C   0  0  1  0  0  0  0  0  0  0  0  0
  189.9489  162.3549  120.5604 C   0  0  0  0  0  0  0  0  0  0  0  0
  188.8009  162.7160  119.6751 C   0  0  2  0  0  0  0  0  0  0  0  0
  189.0686  164.0339  119.0962 N   0  0  0  0  0  0  0  0  0  0  0  0
  187.4713  162.7655  120.3706 C   0  0  2  0  0  0  0  0  0  0  0  0
  186.4887  163.2906  119.5701 O   0  0  0  0  0  0  0  0  0  0  0  0
  187.5922  163.4406  121.7030 C   0  0  2  0  0  0  0  0  0  0  0  0
  187.7238  164.9359  121.6105 C   0  0  0  0  0  0  0  0  0  0  0  0
  188.5473  162.8208  122.4599 O   0  0  0  0  0  0  0  0  0  0  0  0
  1  2  1  0
  2  3  1  0
  3  4  1  6
  3  5  1  0
  5  6  1  0
  6  7  2  0
  7  8  1  0
  7  9  1  0
  9 10  2  0
 10 11  1  0
 11 12  1  0
 11 13  2  0
 10 14  1  0
 14 15  2  0
 14 16  1  0
 16 17  2  0
 17 18  1  0
 18 19  2  0
 19 20  1  0
 20 21  2  0
 21 22  1  0
 22 23  1  0
 17 24  1  0
 24 25  2  0
  3 26  1  0
 26 27  1  0
 26 28  2  3
 28 29  1  0
 29 30  1  0
 30 31  2  0
 30 32  1  0
 32 33  2  0
 33 34  1  0
 34 35  2  0
 35 36  1  0
 36 37  2  0
  1 38  1  6
 39 38  1  1
 39 40  1  0
 40 41  1  0
 41 42  1  1
 41 43  1  0
 43 44  1  6
 43 45  1  0
 45 46  1  6
 45 47  1  0
 13  1  1  0
 21 16  1  0
 37 32  1  0
 47 39  1  0
 13  6  1  0
 24  9  1  0
M  END
$$$$
