
     RDKit          3D

 47 52  0  0  0  0  0  0  0  0999 V2000
  187.0938  157.3451  129.2349 C   0  0  1  0  0  0  0  0  0  0  0  0
  187.2730  156.0561  130.0244 C   0  0  0  0  0  0  0  0  0  0  0  0
  186.6459  156.1705  131.3705 C   0  0  1  0  0  0  0  0  0  0  0  0
  187.5798  155.7531  132.3491 O   0  0  0  0  0  0  0  0  0  0  0  0
  186.2318  157.5542  131.7656 C   0  0  0  0  0  0  0  0  0  0  0  0
  187.2891  158.5085  131.3564 C   0  0  0  0  0  0  0  0  0  0  0  0
  187.8089  159.4495  132.2181 C   0  0  0  0  0  0  0  0  0  0  0  0
  187.3649  159.5321  133.5291 O   0  0  0  0  0  0  0  0  0  0  0  0
  188.7787  160.3248  131.7921 C   0  0  0  0  0  0  0  0  0  0  0  0
  189.2106  160.2327  130.4868 C   0  0  0  0  0  0  0  0  0  0  0  0
  188.6813  159.2757  129.6119 C   0  0  0  0  0  0  0  0  0  0  0  0
  189.1149  159.1852  128.3001 O   0  0  0  0  0  0  0  0  0  0  0  0
  187.7278  158.4136  130.0307 C   0  0  0  0  0  0  0  0  0  0  0  0
  190.2410  161.1443  129.9975 C   0  0  0  0  0  0  0  0  0  0  0  0
  190.6469  161.0748  128.8108 O   0  0  0  0  0  0  0  0  0  0  0  0
  190.7881  162.1407  130.9267 C   0  0  0  0  0  0  0  0  0  0  0  0
  190.3635  162.2382  132.2251 C   0  0  0  0  0  0  0  0  0  0  0  0
  190.8891  163.1865  133.1071 C   0  0  0  0  0  0  0  0  0  0  0  0
  191.8625  164.0334  132.6211 C   0  0  0  0  0  0  0  0  0  0  0  0
  192.3070  163.9588  131.3200 C   0  0  0  0  0  0  0  0  0  0  0  0
  191.7692  163.0102  130.4689 C   0  0  0  0  0  0  0  0  0  0  0  0
  192.1677  162.8789  129.1518 O   0  0  0  0  0  0  0  0  0  0  0  0
  193.0869  163.8585  128.6548 C   0  0  0  0  0  0  0  0  0  0  0  0
  189.3372  161.3346  132.7247 C   0  0  0  0  0  0  0  0  0  0  0  0
  188.8989  161.3636  133.8997 O   0  0  0  0  0  0  0  0  0  0  0  0
  185.4728  155.2551  131.4368 C   0  0  0  0  0  0  0  0  0  0  0  0
  184.0974  155.8631  131.5301 C   0  0  0  0  0  0  0  0  0  0  0  0
  185.5249  153.9862  131.4306 N   0  0  0  0  0  0  0  0  0  0  0  0
  186.2640  153.2983  132.3877 N   0  0  0  0  0  0  0  0  0  0  0  0
  185.7995  153.2461  133.7107 C   0  0  0  0  0  0  0  0  0  0  0  0
  184.9581  154.1267  134.0954 O   0  0  0  0  0  0  0  0  0  0  0  0
  186.2107  152.2494  134.6893 C   0  0  0  0  0  0  0  0  0  0  0  0
  185.7826  152.2941  136.0000 C   0  0  0  0  0  0  0  0  0  0  0  0
  186.1883  151.3280  136.9242 C   0  0  0  0  0  0  0  0  0  0  0  0
  187.0336  150.2891  136.5623 C   0  0  0  0  0  0  0  0  0  0  0  0
  187.4575  150.2484  135.2561 C   0  0  0  0  0  0  0  0  0  0  0  0
  187.0575  151.2016  134.3468 C   0  0  0  0  0  0  0  0  0  0  0  0
  187.5715  157.2617  127.9629 O   0  0  0  0  0  0  0  0  0  0  0  0
  188.9581  157.1657  127.8737 C   0  0  1  0  0  0  0  0  0  0  0  0
  189.5154  155.9680  128.5664 C   0  0  0  0  0  0  0  0  0  0  0  0
  190.8676  155.5471  128.0910 C   0  0  2  0  0  0  0  0  0  0  0  0
  191.8712  156.2919  128.8535 N   0  0  0  0  0  0  0  0  0  0  0  0
  191.1134  155.7822  126.6287 C   0  0  2  0  0  0  0  0  0  0  0  0
  192.4238  155.5676  126.2839 O   0  0  0  0  0  0  0  0  0  0  0  0
  190.5882  157.1215  126.2091 C   0  0  2  0  0  0  0  0  0  0  0  0
  191.4500  158.2716  126.6519 C   0  0  0  0  0  0  0  0  0  0  0  0
  189.2646  157.2309  126.5337 O   0  0  0  0  0  0  0  0  0  0  0  0
  1  2  1  0
  2  3  1  0
  3  4  1  1
  3  5  1  0
  5  6  1  0
  6  7  2  0
  7  8  1  0
  7  9  1  0
  9 10  2  0
 10 11  1  0
 11 12  1  0
 11 13  2  0
 10 14  1  0
 14 15  2  0
 14 16  1  0
 16 17  2  0
 17 18  1  0
 18 19  2  0
 19 20  1  0
 20 21  2  0
 21 22  1  0
 22 23  1  0
 17 24  1  0
 24 25  2  0
  3 26  1  0
 26 27  1  0
 26 28  2  3
 28 29  1  0
 29 30  1  0
 30 31  2  0
 30 32  1  0
 32 33  2  0
 33 34  1  0
 34 35  2  0
 35 36  1  0
 36 37  2  0
  1 38  1  6
 39 38  1  6
 39 40  1  0
 40 41  1  0
 41 42  1  1
 41 43  1  0
 43 44  1  1
 43 45  1  0
 45 46  1  1
 45 47  1  0
 13  1  1  0
 21 16  1  0
 37 32  1  0
 47 39  1  0
 13  6  1  0
 24  9  1  0
M  END
$$$$
