
     RDKit          3D

 47 52  0  0  0  0  0  0  0  0999 V2000
  183.5908  146.9541  126.4828 C   0  0  1  0  0  0  0  0  0  0  0  0
  182.8237  148.0519  127.2063 C   0  0  0  0  0  0  0  0  0  0  0  0
  182.5631  149.2014  126.2958 C   0  0  1  0  0  0  0  0  0  0  0  0
  182.9576  150.3976  126.9421 O   0  0  0  0  0  0  0  0  0  0  0  0
  183.3128  149.1712  125.0000 C   0  0  0  0  0  0  0  0  0  0  0  0
  184.7038  148.7304  125.2587 C   0  0  0  0  0  0  0  0  0  0  0  0
  185.7976  149.4138  124.7742 C   0  0  0  0  0  0  0  0  0  0  0  0
  185.6366  150.5690  124.0243 O   0  0  0  0  0  0  0  0  0  0  0  0
  187.0703  148.9611  125.0262 C   0  0  0  0  0  0  0  0  0  0  0  0
  187.2165  147.8115  125.7718 C   0  0  0  0  0  0  0  0  0  0  0  0
  186.1036  147.1178  126.2637 C   0  0  0  0  0  0  0  0  0  0  0  0
  186.2517  145.9621  127.0115 O   0  0  0  0  0  0  0  0  0  0  0  0
  184.8512  147.5632  126.0169 C   0  0  0  0  0  0  0  0  0  0  0  0
  188.5529  147.3001  126.0621 C   0  0  0  0  0  0  0  0  0  0  0  0
  188.7052  146.2537  126.7403 O   0  0  0  0  0  0  0  0  0  0  0  0
  189.7100  148.0391  125.5419 C   0  0  0  0  0  0  0  0  0  0  0  0
  189.5723  149.1819  124.7999 C   0  0  0  0  0  0  0  0  0  0  0  0
  190.6767  149.8839  124.3089 C   0  0  0  0  0  0  0  0  0  0  0  0
  191.9275  149.3815  124.5992 C   0  0  0  0  0  0  0  0  0  0  0  0
  192.0952  148.2339  125.3414 C   0  0  0  0  0  0  0  0  0  0  0  0
  190.9842  147.5594  125.8148 C   0  0  0  0  0  0  0  0  0  0  0  0
  191.0782  146.4024  126.5654 O   0  0  0  0  0  0  0  0  0  0  0  0
  192.2217  146.2778  127.4189 C   0  0  0  0  0  0  0  0  0  0  0  0
  188.2451  149.7020  124.5045 C   0  0  0  0  0  0  0  0  0  0  0  0
  188.0405  150.7415  123.8325 O   0  0  0  0  0  0  0  0  0  0  0  0
  181.0999  149.2855  126.0298 C   0  0  0  0  0  0  0  0  0  0  0  0
  180.5439  150.5826  125.5019 C   0  0  0  0  0  0  0  0  0  0  0  0
  180.2601  148.3516  126.2179 N   0  0  0  0  0  0  0  0  0  0  0  0
  180.6068  147.0241  125.9875 N   0  0  0  0  0  0  0  0  0  0  0  0
  179.7337  146.1999  125.2615 C   0  0  0  0  0  0  0  0  0  0  0  0
  179.0886  145.2940  125.8899 O   0  0  0  0  0  0  0  0  0  0  0  0
  179.5056  146.3026  123.8271 C   0  0  0  0  0  0  0  0  0  0  0  0
  180.3891  146.9560  122.9930 C   0  0  0  0  0  0  0  0  0  0  0  0
  180.1525  147.0437  121.6188 C   0  0  0  0  0  0  0  0  0  0  0  0
  179.0251  146.4789  121.0403 C   0  0  0  0  0  0  0  0  0  0  0  0
  178.1480  145.8291  121.8745 C   0  0  0  0  0  0  0  0  0  0  0  0
  178.3821  145.7443  123.2286 C   0  0  0  0  0  0  0  0  0  0  0  0
  183.7766  145.8421  127.2457 O   0  0  0  0  0  0  0  0  0  0  0  0
  184.3030  146.0931  128.5105 C   0  0  1  0  0  0  0  0  0  0  0  0
  184.4894  144.8611  129.3305 C   0  0  0  0  0  0  0  0  0  0  0  0
  185.4824  144.9952  130.4386 C   0  0  2  0  0  0  0  0  0  0  0  0
  184.7843  145.5148  131.6160 N   0  0  0  0  0  0  0  0  0  0  0  0
  186.6364  145.9055  130.1322 C   0  0  2  0  0  0  0  0  0  0  0  0
  187.4083  146.1516  131.2392 O   0  0  0  0  0  0  0  0  0  0  0  0
  186.1658  147.1452  129.4341 C   0  0  2  0  0  0  0  0  0  0  0  0
  185.4884  148.1297  130.3470 C   0  0  0  0  0  0  0  0  0  0  0  0
  185.4584  146.8140  128.3120 O   0  0  0  0  0  0  0  0  0  0  0  0
  1  2  1  0
  2  3  1  0
  3  4  1  1
  3  5  1  0
  5  6  1  0
  6  7  2  0
  7  8  1  0
  7  9  1  0
  9 10  2  0
 10 11  1  0
 11 12  1  0
 11 13  2  0
 10 14  1  0
 14 15  2  0
 14 16  1  0
 16 17  2  0
 17 18  1  0
 18 19  2  0
 19 20  1  0
 20 21  2  0
 21 22  1  0
 22 23  1  0
 17 24  1  0
 24 25  2  0
  3 26  1  0
 26 27  1  0
 26 28  2  3
 28 29  1  0
 29 30  1  0
 30 31  2  0
 30 32  1  0
 32 33  2  0
 33 34  1  0
 34 35  2  0
 35 36  1  0
 36 37  2  0
  1 38  1  1
 39 38  1  6
 39 40  1  0
 40 41  1  0
 41 42  1  1
 41 43  1  0
 43 44  1  1
 43 45  1  0
 45 46  1  1
 45 47  1  0
 13  1  1  0
 21 16  1  0
 37 32  1  0
 47 39  1  0
 13  6  1  0
 24  9  1  0
M  END
$$$$
