
     RDKit          3D

 47 52  0  0  0  0  0  0  0  0999 V2000
  191.0424  161.7335  120.2969 C   0  0  1  0  0  0  0  0  0  0  0  0
  191.5258  160.6464  119.3474 C   0  0  0  0  0  0  0  0  0  0  0  0
  190.3735  159.9729  118.6862 C   0  0  1  0  0  0  0  0  0  0  0  0
  190.5269  158.5713  118.8124 O   0  0  0  0  0  0  0  0  0  0  0  0
  189.0304  160.2905  119.2670 C   0  0  0  0  0  0  0  0  0  0  0  0
  189.1351  160.3004  120.7451 C   0  0  0  0  0  0  0  0  0  0  0  0
  188.2584  159.6095  121.5527 C   0  0  0  0  0  0  0  0  0  0  0  0
  187.2343  158.8531  121.0031 O   0  0  0  0  0  0  0  0  0  0  0  0
  188.3838  159.6582  122.9201 C   0  0  0  0  0  0  0  0  0  0  0  0
  189.4051  160.4142  123.4535 C   0  0  0  0  0  0  0  0  0  0  0  0
  190.2956  161.1160  122.6314 C   0  0  0  0  0  0  0  0  0  0  0  0
  191.3204  161.8764  123.1686 O   0  0  0  0  0  0  0  0  0  0  0  0
  190.1733  161.0677  121.2859 C   0  0  0  0  0  0  0  0  0  0  0  0
  189.5718  160.4893  124.9022 C   0  0  0  0  0  0  0  0  0  0  0  0
  190.4971  161.1733  125.4060 O   0  0  0  0  0  0  0  0  0  0  0  0
  188.6321  159.7464  125.7512 C   0  0  0  0  0  0  0  0  0  0  0  0
  187.6147  158.9935  125.2281 C   0  0  0  0  0  0  0  0  0  0  0  0
  186.7240  158.2856  126.0400 C   0  0  0  0  0  0  0  0  0  0  0  0
  186.9048  158.3711  127.4042 C   0  0  0  0  0  0  0  0  0  0  0  0
  187.9180  159.1217  127.9573 C   0  0  0  0  0  0  0  0  0  0  0  0
  188.7851  159.8121  127.1297 C   0  0  0  0  0  0  0  0  0  0  0  0
  189.8234  160.5844  127.6158 O   0  0  0  0  0  0  0  0  0  0  0  0
  189.9167  160.7188  129.0388 C   0  0  0  0  0  0  0  0  0  0  0  0
  187.4387  158.9102  123.7854 C   0  0  0  0  0  0  0  0  0  0  0  0
  186.5316  158.2417  123.2341 O   0  0  0  0  0  0  0  0  0  0  0  0
  190.3866  160.3063  117.2345 C   0  0  0  0  0  0  0  0  0  0  0  0
  189.6378  161.5311  116.7768 C   0  0  0  0  0  0  0  0  0  0  0  0
  190.9736  159.6377  116.3284 N   0  0  0  0  0  0  0  0  0  0  0  0
  191.1430  158.2626  116.4537 N   0  0  0  0  0  0  0  0  0  0  0  0
  191.7425  157.5438  115.4084 C   0  0  0  0  0  0  0  0  0  0  0  0
  192.2145  156.3838  115.6599 O   0  0  0  0  0  0  0  0  0  0  0  0
  191.8673  158.0285  114.0411 C   0  0  0  0  0  0  0  0  0  0  0  0
  192.5296  157.3075  113.0692 C   0  0  0  0  0  0  0  0  0  0  0  0
  192.6385  157.7897  111.7623 C   0  0  0  0  0  0  0  0  0  0  0  0
  192.0866  159.0072  111.3911 C   0  0  0  0  0  0  0  0  0  0  0  0
  191.4278  159.7219  112.3620 C   0  0  0  0  0  0  0  0  0  0  0  0
  191.3222  159.2458  113.6495 C   0  0  0  0  0  0  0  0  0  0  0  0
  192.0604  162.4405  120.8600 O   0  0  0  0  0  0  0  0  0  0  0  0
  193.3283  162.0842  120.4070 C   0  0  1  0  0  0  0  0  0  0  0  0
  193.5048  160.6132  120.2344 C   0  0  0  0  0  0  0  0  0  0  0  0
  194.6071  160.2234  119.3046 C   0  0  2  0  0  0  0  0  0  0  0  0
  195.8493  160.1491  120.0759 N   0  0  0  0  0  0  0  0  0  0  0  0
  194.8174  161.1700  118.1583 C   0  0  2  0  0  0  0  0  0  0  0  0
  195.9572  160.8808  117.4518 O   0  0  0  0  0  0  0  0  0  0  0  0
  194.7362  162.5929  118.6212 C   0  0  2  0  0  0  0  0  0  0  0  0
  195.9570  163.0531  119.3692 C   0  0  0  0  0  0  0  0  0  0  0  0
  193.5479  162.8131  119.2605 O   0  0  0  0  0  0  0  0  0  0  0  0
  1  2  1  0
  2  3  1  0
  3  4  1  6
  3  5  1  0
  5  6  1  0
  6  7  2  0
  7  8  1  0
  7  9  1  0
  9 10  2  0
 10 11  1  0
 11 12  1  0
 11 13  2  0
 10 14  1  0
 14 15  2  0
 14 16  1  0
 16 17  2  0
 17 18  1  0
 18 19  2  0
 19 20  1  0
 20 21  2  0
 21 22  1  0
 22 23  1  0
 17 24  1  0
 24 25  2  0
  3 26  1  0
 26 27  1  0
 26 28  2  3
 28 29  1  0
 29 30  1  0
 30 31  2  0
 30 32  1  0
 32 33  2  0
 33 34  1  0
 34 35  2  0
 35 36  1  0
 36 37  2  0
  1 38  1  1
 39 38  1  6
 39 40  1  0
 40 41  1  0
 41 42  1  1
 41 43  1  0
 43 44  1  1
 43 45  1  0
 45 46  1  1
 45 47  1  0
 13  1  1  0
 21 16  1  0
 37 32  1  0
 47 39  1  0
 13  6  1  0
 24  9  1  0
M  END
$$$$
