
     RDKit          3D

 47 52  0  0  0  0  0  0  0  0999 V2000
  205.4100  132.2291  133.6403 C   0  0  1  0  0  0  0  0  0  0  0  0
  204.8417  132.3171  135.0497 C   0  0  0  0  0  0  0  0  0  0  0  0
  205.1966  133.6185  135.6812 C   0  0  1  0  0  0  0  0  0  0  0  0
  205.7408  133.3727  136.9647 O   0  0  0  0  0  0  0  0  0  0  0  0
  206.2254  134.4232  134.9489 C   0  0  0  0  0  0  0  0  0  0  0  0
  207.2942  133.5159  134.4689 C   0  0  0  0  0  0  0  0  0  0  0  0
  208.6312  133.7723  134.6803 C   0  0  0  0  0  0  0  0  0  0  0  0
  209.0351  134.9024  135.3750 O   0  0  0  0  0  0  0  0  0  0  0  0
  209.5901  132.9106  134.2048 C   0  0  0  0  0  0  0  0  0  0  0  0
  209.1755  131.7918  133.5153 C   0  0  0  0  0  0  0  0  0  0  0  0
  207.8160  131.5324  133.3013 C   0  0  0  0  0  0  0  0  0  0  0  0
  207.4007  130.4088  132.6070 O   0  0  0  0  0  0  0  0  0  0  0  0
  206.8720  132.3793  133.7696 C   0  0  0  0  0  0  0  0  0  0  0  0
  210.1647  130.8517  132.9961 C   0  0  0  0  0  0  0  0  0  0  0  0
  209.8051  129.8266  132.3654 O   0  0  0  0  0  0  0  0  0  0  0  0
  211.5860  131.1356  133.2303 C   0  0  0  0  0  0  0  0  0  0  0  0
  212.0054  132.2455  133.9142 C   0  0  0  0  0  0  0  0  0  0  0  0
  213.3595  132.5105  134.1372 C   0  0  0  0  0  0  0  0  0  0  0  0
  214.2729  131.6059  133.6390 C   0  0  0  0  0  0  0  0  0  0  0  0
  213.8796  130.4827  132.9464 C   0  0  0  0  0  0  0  0  0  0  0  0
  212.5325  130.2453  132.7404 C   0  0  0  0  0  0  0  0  0  0  0  0
  212.0667  129.1393  132.0546 O   0  0  0  0  0  0  0  0  0  0  0  0
  212.9643  128.5375  131.1145 C   0  0  0  0  0  0  0  0  0  0  0  0
  211.0287  133.1898  134.4373 C   0  0  0  0  0  0  0  0  0  0  0  0
  211.3366  134.2267  135.0727 O   0  0  0  0  0  0  0  0  0  0  0  0
  203.9566  134.4251  135.8562 C   0  0  0  0  0  0  0  0  0  0  0  0
  202.9621  133.9876  136.9001 C   0  0  0  0  0  0  0  0  0  0  0  0
  203.6494  135.4614  135.1895 N   0  0  0  0  0  0  0  0  0  0  0  0
  203.3157  135.3693  133.8421 N   0  0  0  0  0  0  0  0  0  0  0  0
  204.0806  136.0649  132.8935 C   0  0  0  0  0  0  0  0  0  0  0  0
  205.1052  135.4869  132.3958 O   0  0  0  0  0  0  0  0  0  0  0  0
  203.7885  137.4134  132.4285 C   0  0  0  0  0  0  0  0  0  0  0  0
  204.4057  137.9519  131.3185 C   0  0  0  0  0  0  0  0  0  0  0  0
  204.1117  139.2482  130.8879 C   0  0  0  0  0  0  0  0  0  0  0  0
  203.1906  140.0420  131.5559 C   0  0  0  0  0  0  0  0  0  0  0  0
  202.5782  139.5017  132.6607 C   0  0  0  0  0  0  0  0  0  0  0  0
  202.8696  138.2245  133.0842 C   0  0  0  0  0  0  0  0  0  0  0  0
  205.0382  131.0949  132.9856 O   0  0  0  0  0  0  0  0  0  0  0  0
  204.3134  130.1937  133.7615 C   0  0  1  0  0  0  0  0  0  0  0  0
  203.9429  130.7301  135.1030 C   0  0  0  0  0  0  0  0  0  0  0  0
  202.7810  130.0469  135.7474 C   0  0  2  0  0  0  0  0  0  0  0  0
  203.2869  128.8935  136.4939 N   0  0  0  0  0  0  0  0  0  0  0  0
  201.7319  129.5661  134.7870 C   0  0  2  0  0  0  0  0  0  0  0  0
  200.7921  128.7774  135.4006 O   0  0  0  0  0  0  0  0  0  0  0  0
  202.3617  128.9330  133.5836 C   0  0  2  0  0  0  0  0  0  0  0  0
  202.9103  127.5573  133.8449 C   0  0  0  0  0  0  0  0  0  0  0  0
  203.2373  129.8040  132.9972 O   0  0  0  0  0  0  0  0  0  0  0  0
  1  2  1  0
  2  3  1  0
  3  4  1  1
  3  5  1  0
  5  6  1  0
  6  7  2  0
  7  8  1  0
  7  9  1  0
  9 10  2  0
 10 11  1  0
 11 12  1  0
 11 13  2  0
 10 14  1  0
 14 15  2  0
 14 16  1  0
 16 17  2  0
 17 18  1  0
 18 19  2  0
 19 20  1  0
 20 21  2  0
 21 22  1  0
 22 23  1  0
 17 24  1  0
 24 25  2  0
  3 26  1  0
 26 27  1  0
 26 28  2  3
 28 29  1  0
 29 30  1  0
 30 31  2  0
 30 32  1  0
 32 33  2  0
 33 34  1  0
 34 35  2  0
 35 36  1  0
 36 37  2  0
  1 38  1  1
 39 38  1  6
 39 40  1  0
 40 41  1  0
 41 42  1  6
 41 43  1  0
 43 44  1  1
 43 45  1  0
 45 46  1  1
 45 47  1  0
 13  1  1  0
 21 16  1  0
 37 32  1  0
 47 39  1  0
 13  6  1  0
 24  9  1  0
M  END
$$$$
