
     RDKit          3D

 47 52  0  0  0  0  0  0  0  0999 V2000
  165.0054  146.5978  123.4412 C   0  0  1  0  0  0  0  0  0  0  0  0
  163.6092  146.3660  124.0015 C   0  0  0  0  0  0  0  0  0  0  0  0
  163.3143  147.3295  125.0984 C   0  0  1  0  0  0  0  0  0  0  0  0
  162.8234  146.6149  126.2175 O   0  0  0  0  0  0  0  0  0  0  0  0
  164.4919  148.1089  125.5963 C   0  0  0  0  0  0  0  0  0  0  0  0
  165.6602  147.2031  125.6989 C   0  0  0  0  0  0  0  0  0  0  0  0
  166.4415  147.1303  126.8313 C   0  0  0  0  0  0  0  0  0  0  0  0
  166.1512  147.9054  127.9439 O   0  0  0  0  0  0  0  0  0  0  0  0
  167.5249  146.2864  126.8779 C   0  0  0  0  0  0  0  0  0  0  0  0
  167.8031  145.5223  125.7654 C   0  0  0  0  0  0  0  0  0  0  0  0
  167.0080  145.5973  124.6149 C   0  0  0  0  0  0  0  0  0  0  0  0
  167.2894  144.8302  123.4971 O   0  0  0  0  0  0  0  0  0  0  0  0
  165.9414  146.4268  124.5687 C   0  0  0  0  0  0  0  0  0  0  0  0
  168.9449  144.6123  125.7773 C   0  0  0  0  0  0  0  0  0  0  0  0
  169.2134  143.9081  124.7723 O   0  0  0  0  0  0  0  0  0  0  0  0
  169.7679  144.5427  126.9911 C   0  0  0  0  0  0  0  0  0  0  0  0
  169.4977  145.2993  128.1002 C   0  0  0  0  0  0  0  0  0  0  0  0
  170.2822  145.2279  129.2548 C   0  0  0  0  0  0  0  0  0  0  0  0
  171.3528  144.3591  129.2411 C   0  0  0  0  0  0  0  0  0  0  0  0
  171.6485  143.5878  128.1394 C   0  0  0  0  0  0  0  0  0  0  0  0
  170.8548  143.6787  127.0102 C   0  0  0  0  0  0  0  0  0  0  0  0
  171.0930  142.9350  125.8696 O   0  0  0  0  0  0  0  0  0  0  0  0
  172.4282  142.4520  125.6812 C   0  0  0  0  0  0  0  0  0  0  0  0
  168.3617  146.2097  128.1008 C   0  0  0  0  0  0  0  0  0  0  0  0
  168.0522  146.9332  129.0778 O   0  0  0  0  0  0  0  0  0  0  0  0
  162.2458  148.2639  124.6469 C   0  0  0  0  0  0  0  0  0  0  0  0
  161.0052  148.3915  125.4924 C   0  0  0  0  0  0  0  0  0  0  0  0
  162.2794  148.9699  123.5918 N   0  0  0  0  0  0  0  0  0  0  0  0
  161.1073  149.3099  122.9239 N   0  0  0  0  0  0  0  0  0  0  0  0
  160.3478  150.3997  123.3758 C   0  0  0  0  0  0  0  0  0  0  0  0
  160.6324  150.9105  124.5114 O   0  0  0  0  0  0  0  0  0  0  0  0
  159.2458  150.9988  122.6364 C   0  0  0  0  0  0  0  0  0  0  0  0
  158.5354  152.0735  123.1297 C   0  0  0  0  0  0  0  0  0  0  0  0
  157.4810  152.6347  122.4046 C   0  0  0  0  0  0  0  0  0  0  0  0
  157.1085  152.1364  121.1646 C   0  0  0  0  0  0  0  0  0  0  0  0
  157.8187  151.0662  120.6771 C   0  0  0  0  0  0  0  0  0  0  0  0
  158.8569  150.5138  121.3931 C   0  0  0  0  0  0  0  0  0  0  0  0
  165.2909  145.8010  122.3750 O   0  0  0  0  0  0  0  0  0  0  0  0
  164.6079  144.5872  122.3643 C   0  0  1  0  0  0  0  0  0  0  0  0
  164.9963  143.6782  123.4813 C   0  0  0  0  0  0  0  0  0  0  0  0
  163.9825  142.6327  123.8142 C   0  0  2  0  0  0  0  0  0  0  0  0
  164.2278  141.4706  122.9580 N   0  0  0  0  0  0  0  0  0  0  0  0
  162.5574  143.0667  123.6266 C   0  0  2  0  0  0  0  0  0  0  0  0
  161.6782  142.0211  123.7514 O   0  0  0  0  0  0  0  0  0  0  0  0
  162.4001  143.8417  122.3537 C   0  0  2  0  0  0  0  0  0  0  0  0
  162.4168  142.9822  121.1197 C   0  0  0  0  0  0  0  0  0  0  0  0
  163.2676  144.8983  122.3354 O   0  0  0  0  0  0  0  0  0  0  0  0
  1  2  1  0
  2  3  1  0
  3  4  1  1
  3  5  1  0
  5  6  1  0
  6  7  2  0
  7  8  1  0
  7  9  1  0
  9 10  2  0
 10 11  1  0
 11 12  1  0
 11 13  2  0
 10 14  1  0
 14 15  2  0
 14 16  1  0
 16 17  2  0
 17 18  1  0
 18 19  2  0
 19 20  1  0
 20 21  2  0
 21 22  1  0
 22 23  1  0
 17 24  1  0
 24 25  2  0
  3 26  1  0
 26 27  1  0
 26 28  2  3
 28 29  1  0
 29 30  1  0
 30 31  2  0
 30 32  1  0
 32 33  2  0
 33 34  1  0
 34 35  2  0
 35 36  1  0
 36 37  2  0
  1 38  1  6
 39 38  1  1
 39 40  1  0
 40 41  1  0
 41 42  1  6
 41 43  1  0
 43 44  1  6
 43 45  1  0
 45 46  1  6
 45 47  1  0
 13  1  1  0
 21 16  1  0
 37 32  1  0
 47 39  1  0
 13  6  1  0
 24  9  1  0
M  END
$$$$
