
     RDKit          3D

 47 52  0  0  0  0  0  0  0  0999 V2000
  128.3050  144.4646  133.0512 C   0  0  1  0  0  0  0  0  0  0  0  0
  129.0028  144.3434  134.3986 C   0  0  0  0  0  0  0  0  0  0  0  0
  130.2489  143.5366  134.2766 C   0  0  1  0  0  0  0  0  0  0  0  0
  130.2513  142.5407  135.2827 O   0  0  0  0  0  0  0  0  0  0  0  0
  130.4116  142.8067  132.9794 C   0  0  0  0  0  0  0  0  0  0  0  0
  129.1074  142.2206  132.5898 C   0  0  0  0  0  0  0  0  0  0  0  0
  128.9726  140.9017  132.2148 C   0  0  0  0  0  0  0  0  0  0  0  0
  130.0691  140.0531  132.2007 O   0  0  0  0  0  0  0  0  0  0  0  0
  127.7460  140.4033  131.8472 C   0  0  0  0  0  0  0  0  0  0  0  0
  126.6646  141.2573  131.8646 C   0  0  0  0  0  0  0  0  0  0  0  0
  126.8032  142.5977  132.2460 C   0  0  0  0  0  0  0  0  0  0  0  0
  125.7162  143.4552  132.2617 O   0  0  0  0  0  0  0  0  0  0  0  0
  128.0096  143.0885  132.6088 C   0  0  0  0  0  0  0  0  0  0  0  0
  125.3446  140.7642  131.4822 C   0  0  0  0  0  0  0  0  0  0  0  0
  124.3476  141.5283  131.4922 O   0  0  0  0  0  0  0  0  0  0  0  0
  125.2143  139.3562  131.0869 C   0  0  0  0  0  0  0  0  0  0  0  0
  126.2845  138.5019  131.0668 C   0  0  0  0  0  0  0  0  0  0  0  0
  126.1555  137.1615  130.6925 C   0  0  0  0  0  0  0  0  0  0  0  0
  124.8981  136.7204  130.3384 C   0  0  0  0  0  0  0  0  0  0  0  0
  123.8049  137.5576  130.3480 C   0  0  0  0  0  0  0  0  0  0  0  0
  123.9617  138.8798  130.7230 C   0  0  0  0  0  0  0  0  0  0  0  0
  122.9093  139.7754  130.7555 O   0  0  0  0  0  0  0  0  0  0  0  0
  121.6053  139.2492  130.4831 C   0  0  0  0  0  0  0  0  0  0  0  0
  127.6055  138.9816  131.4466 C   0  0  0  0  0  0  0  0  0  0  0  0
  128.6311  138.2592  131.4530 O   0  0  0  0  0  0  0  0  0  0  0  0
  131.4234  144.4233  134.5069 C   0  0  0  0  0  0  0  0  0  0  0  0
  131.1994  145.9131  134.5296 C   0  0  0  0  0  0  0  0  0  0  0  0
  132.6198  144.0342  134.6805 N   0  0  0  0  0  0  0  0  0  0  0  0
  132.9014  142.9286  135.4765 N   0  0  0  0  0  0  0  0  0  0  0  0
  132.0966  142.6611  136.5943 C   0  0  0  0  0  0  0  0  0  0  0  0
  131.2327  143.5342  136.9450 O   0  0  0  0  0  0  0  0  0  0  0  0
  132.1740  141.4464  137.3933 C   0  0  0  0  0  0  0  0  0  0  0  0
  133.0417  140.4209  137.0794 C   0  0  0  0  0  0  0  0  0  0  0  0
  133.1014  139.2628  137.8590 C   0  0  0  0  0  0  0  0  0  0  0  0
  132.2945  139.0990  138.9756 C   0  0  0  0  0  0  0  0  0  0  0  0
  131.4320  140.1227  139.2847 C   0  0  0  0  0  0  0  0  0  0  0  0
  131.3738  141.2628  138.5150 C   0  0  0  0  0  0  0  0  0  0  0  0
  127.2069  145.2682  133.0901 O   0  0  0  0  0  0  0  0  0  0  0  0
  126.6898  145.4750  134.3667 C   0  0  1  0  0  0  0  0  0  0  0  0
  126.6524  144.2378  135.1990 C   0  0  0  0  0  0  0  0  0  0  0  0
  126.6001  144.4801  136.6723 C   0  0  2  0  0  0  0  0  0  0  0  0
  125.1961  144.6261  137.0607 N   0  0  0  0  0  0  0  0  0  0  0  0
  127.3470  145.7000  137.1285 C   0  0  2  0  0  0  0  0  0  0  0  0
  127.1065  145.9899  138.4476 O   0  0  0  0  0  0  0  0  0  0  0  0
  127.1028  146.8515  136.2011 C   0  0  2  0  0  0  0  0  0  0  0  0
  125.7482  147.4827  136.3687 C   0  0  0  0  0  0  0  0  0  0  0  0
  127.4234  146.4999  134.9193 O   0  0  0  0  0  0  0  0  0  0  0  0
  1  2  1  0
  2  3  1  0
  3  4  1  1
  3  5  1  0
  5  6  1  0
  6  7  2  0
  7  8  1  0
  7  9  1  0
  9 10  2  0
 10 11  1  0
 11 12  1  0
 11 13  2  0
 10 14  1  0
 14 15  2  0
 14 16  1  0
 16 17  2  0
 17 18  1  0
 18 19  2  0
 19 20  1  0
 20 21  2  0
 21 22  1  0
 22 23  1  0
 17 24  1  0
 24 25  2  0
  3 26  1  0
 26 27  1  0
 26 28  2  3
 28 29  1  0
 29 30  1  0
 30 31  2  0
 30 32  1  0
 32 33  2  0
 33 34  1  0
 34 35  2  0
 35 36  1  0
 36 37  2  0
  1 38  1  1
 39 38  1  6
 39 40  1  0
 40 41  1  0
 41 42  1  6
 41 43  1  0
 43 44  1  1
 43 45  1  0
 45 46  1  6
 45 47  1  0
 13  1  1  0
 21 16  1  0
 37 32  1  0
 47 39  1  0
 13  6  1  0
 24  9  1  0
M  END
$$$$
