
     RDKit          3D

 47 52  0  0  0  0  0  0  0  0999 V2000
  127.7818  163.5394  149.6556 C   0  0  1  0  0  0  0  0  0  0  0  0
  126.5995  164.4740  149.8694 C   0  0  0  0  0  0  0  0  0  0  0  0
  126.0724  164.9646  148.5656 C   0  0  1  0  0  0  0  0  0  0  0  0
  125.9462  166.3735  148.6223 O   0  0  0  0  0  0  0  0  0  0  0  0
  126.9403  164.6799  147.3791 C   0  0  0  0  0  0  0  0  0  0  0  0
  128.3546  164.9256  147.7471 C   0  0  0  0  0  0  0  0  0  0  0  0
  129.1958  165.6963  146.9747 C   0  0  0  0  0  0  0  0  0  0  0  0
  128.7396  166.2940  145.8097 O   0  0  0  0  0  0  0  0  0  0  0  0
  130.5050  165.8862  147.3463 C   0  0  0  0  0  0  0  0  0  0  0  0
  130.9461  165.2859  148.5057 C   0  0  0  0  0  0  0  0  0  0  0  0
  130.0898  164.5028  149.2899 C   0  0  0  0  0  0  0  0  0  0  0  0
  130.5345  163.8990  150.4538 O   0  0  0  0  0  0  0  0  0  0  0  0
  128.8014  164.3163  148.9253 C   0  0  0  0  0  0  0  0  0  0  0  0
  132.3302  165.4658  148.9345 C   0  0  0  0  0  0  0  0  0  0  0  0
  132.7496  164.9263  149.9885 O   0  0  0  0  0  0  0  0  0  0  0  0
  133.2155  166.2913  148.1035 C   0  0  0  0  0  0  0  0  0  0  0  0
  132.7842  166.8905  146.9501 C   0  0  0  0  0  0  0  0  0  0  0  0
  133.6296  167.6778  146.1634 C   0  0  0  0  0  0  0  0  0  0  0  0
  134.9309  167.8338  146.5917 C   0  0  0  0  0  0  0  0  0  0  0  0
  135.3917  167.2418  147.7463 C   0  0  0  0  0  0  0  0  0  0  0  0
  134.5328  166.4678  148.5056 C   0  0  0  0  0  0  0  0  0  0  0  0
  134.9274  165.8443  149.6746 O   0  0  0  0  0  0  0  0  0  0  0  0
  136.2474  165.2887  149.6960 C   0  0  0  0  0  0  0  0  0  0  0  0
  131.4063  166.7191  146.5125 C   0  0  0  0  0  0  0  0  0  0  0  0
  130.9398  167.2363  145.4691 O   0  0  0  0  0  0  0  0  0  0  0  0
  124.7151  164.3916  148.3464 C   0  0  0  0  0  0  0  0  0  0  0  0
  123.8108  165.0616  147.3446 C   0  0  0  0  0  0  0  0  0  0  0  0
  124.2365  163.3773  148.9422 N   0  0  0  0  0  0  0  0  0  0  0  0
  124.8941  162.1520  148.9040 N   0  0  0  0  0  0  0  0  0  0  0  0
  125.9206  161.8916  149.8245 C   0  0  0  0  0  0  0  0  0  0  0  0
  126.4122  160.7135  149.8706 O   0  0  0  0  0  0  0  0  0  0  0  0
  126.4740  162.8777  150.7419 C   0  0  0  0  0  0  0  0  0  0  0  0
  127.7847  162.8221  151.1686 C   0  0  0  0  0  0  0  0  0  0  0  0
  128.2972  163.7781  152.0494 C   0  0  0  0  0  0  0  0  0  0  0  0
  127.5123  164.8174  152.5273 C   0  0  0  0  0  0  0  0  0  0  0  0
  126.2077  164.8690  152.0996 C   0  0  0  0  0  0  0  0  0  0  0  0
  125.7039  163.9257  151.2325 C   0  0  0  0  0  0  0  0  0  0  0  0
  128.2446  162.9921  150.8130 O   0  0  0  0  0  0  0  0  0  0  0  0
  127.8065  163.6339  151.9688 C   0  0  1  0  0  0  0  0  0  0  0  0
  126.5201  164.3671  151.7888 C   0  0  0  0  0  0  0  0  0  0  0  0
  125.7693  164.6267  153.0540 C   0  0  2  0  0  0  0  0  0  0  0  0
  126.2553  165.8853  153.6225 N   0  0  0  0  0  0  0  0  0  0  0  0
  125.9113  163.5519  154.0927 C   0  0  2  0  0  0  0  0  0  0  0  0
  125.3730  163.9242  155.2983 O   0  0  0  0  0  0  0  0  0  0  0  0
  127.3315  163.0826  154.1825 C   0  0  2  0  0  0  0  0  0  0  0  0
  128.2398  164.0458  154.8960 C   0  0  0  0  0  0  0  0  0  0  0  0
  127.7710  162.6738  152.9541 O   0  0  0  0  0  0  0  0  0  0  0  0
  1  2  1  0
  2  3  1  0
  3  4  1  1
  3  5  1  0
  5  6  1  0
  6  7  2  0
  7  8  1  0
  7  9  1  0
  9 10  2  0
 10 11  1  0
 11 12  1  0
 11 13  2  0
 10 14  1  0
 14 15  2  0
 14 16  1  0
 16 17  2  0
 17 18  1  0
 18 19  2  0
 19 20  1  0
 20 21  2  0
 21 22  1  0
 22 23  1  0
 17 24  1  0
 24 25  2  0
  3 26  1  0
 26 27  1  0
 26 28  2  3
 28 29  1  0
 29 30  1  0
 30 31  2  0
 30 32  1  0
 32 33  2  0
 33 34  1  0
 34 35  2  0
 35 36  1  0
 36 37  2  0
  1 38  1  1
 39 38  1  6
 39 40  1  0
 40 41  1  0
 41 42  1  1
 41 43  1  0
 43 44  1  1
 43 45  1  0
 45 46  1  6
 45 47  1  0
 13  1  1  0
 21 16  1  0
 37 32  1  0
 47 39  1  0
 13  6  1  0
 24  9  1  0
M  END
$$$$
