
     RDKit          3D

 43 50  0  0  0  0  0  0  0  0999 V2000
  120.6291  142.1849  162.0515 C   0  0  2  0  0  0  0  0  0  0  0  0
  120.9984  142.2245  163.5398 C   0  0  0  0  0  0  0  0  0  0  0  0
  122.1957  141.3052  163.5751 C   0  0  0  0  0  0  0  0  0  0  0  0
  122.7211  141.2302  162.1468 C   0  0  0  0  0  0  0  0  0  0  0  0
  121.9314  142.2254  161.4430 N   0  0  0  0  0  0  0  0  0  0  0  0
  122.2824  143.0902  160.3807 C   0  0  0  0  0  0  0  0  0  0  0  0
  123.2489  142.7809  159.6417 O   0  0  0  0  0  0  0  0  0  0  0  0
  121.4769  144.3342  160.1956 C   0  0  2  0  0  0  0  0  0  0  0  0
  122.0331  145.3683  161.1513 C   0  0  0  0  0  0  0  0  0  0  0  0
  121.6764  146.7430  160.7446 C   0  0  0  0  0  0  0  0  0  0  0  0
  122.5217  147.4294  159.9105 C   0  0  0  0  0  0  0  0  0  0  0  0
  122.2472  148.7135  159.4945 C   0  0  0  0  0  0  0  0  0  0  0  0
  121.1023  149.3181  159.9247 C   0  0  0  0  0  0  0  0  0  0  0  0
  120.2219  148.6435  160.7750 C   0  0  0  0  0  0  0  0  0  0  0  0
  120.5245  147.3550  161.1758 C   0  0  0  0  0  0  0  0  0  0  0  0
  120.1064  144.0094  160.4802 N   0  0  0  0  0  0  0  0  0  0  0  0
  118.8731  144.2276  159.7767 C   0  0  0  0  0  0  0  0  0  0  0  0
  118.6721  145.0963  158.8780 O   0  0  0  0  0  0  0  0  0  0  0  0
  117.9395  143.2215  160.3463 C   0  0  2  0  0  0  0  0  0  0  0  0
  118.0701  141.9723  159.4991 C   0  0  0  0  0  0  0  0  0  0  0  0
  116.5755  143.6954  160.4031 N   0  0  0  0  0  0  0  0  0  0  0  0
  116.1754  145.0012  160.0900 C   0  0  0  0  0  0  0  0  0  0  0  0
  114.9509  145.2115  159.8918 O   0  0  0  0  0  0  0  0  0  0  0  0
  117.1069  146.1509  159.9777 C   0  0  1  0  0  0  0  0  0  0  0  0
  116.8684  147.0043  158.7734 C   0  0  0  0  0  0  0  0  0  0  0  0
  115.7276  147.8491  158.8699 N   0  0  0  0  0  0  0  0  0  0  0  0
  115.9223  148.9547  157.9209 C   0  0  0  0  0  0  0  0  0  0  0  0
  115.4691  148.3519  160.2121 C   0  0  2  0  0  0  0  0  0  0  0  0
  114.6657  149.5998  160.1656 C   0  0  0  0  0  0  0  0  0  0  0  0
  114.6270  150.2691  161.4804 C   0  0  0  0  0  0  0  0  0  0  0  0
  113.8055  151.2060  162.1198 C   0  0  0  0  0  0  0  0  0  0  0  0
  114.3065  151.4454  163.3581 N   0  0  0  0  0  0  0  0  0  0  0  0
  115.4173  150.7189  163.5790 C   0  0  0  0  0  0  0  0  0  0  0  0
  116.3212  150.5521  164.6063 C   0  0  0  0  0  0  0  0  0  0  0  0
  117.3719  149.6849  164.4507 C   0  0  0  0  0  0  0  0  0  0  0  0
  117.5479  148.9583  163.2600 C   0  0  0  0  0  0  0  0  0  0  0  0
  116.6353  149.1391  162.2484 C   0  0  0  0  0  0  0  0  0  0  0  0
  115.5978  149.9971  162.4032 C   0  0  0  0  0  0  0  0  0  0  0  0
  116.7499  148.3924  160.9665 C   0  0  1  0  0  0  0  0  0  0  0  0
  117.1547  146.9369  161.2534 C   0  0  0  0  0  0  0  0  0  0  0  0
  118.4312  142.9456  161.5900 O   0  0  0  0  0  0  0  0  0  0  0  0
  119.7405  143.3268  161.6766 C   0  0  1  0  0  0  0  0  0  0  0  0
  119.8227  144.2683  162.7298 O   0  0  0  0  0  0  0  0  0  0  0  0
  1  2  1  1
  2  3  1  0
  3  4  1  0
  4  5  1  0
  5  6  1  0
  6  7  2  0
  6  8  1  0
  8  9  1  1
  9 10  1  0
 10 11  2  0
 11 12  1  0
 12 13  2  0
 13 14  1  0
 14 15  2  0
  8 16  1  0
 16 17  1  0
 17 18  2  0
 17 19  1  0
 19 20  1  6
 19 21  1  0
 21 22  1  0
 22 23  2  0
 24 22  1  1
 24 25  1  0
 25 26  1  0
 26 27  1  0
 26 28  1  0
 28 29  1  6
 29 30  1  0
 30 31  2  0
 31 32  1  0
 32 33  1  0
 33 34  2  0
 34 35  1  0
 35 36  2  0
 36 37  1  0
 37 38  2  0
 37 39  1  0
 39 40  1  1
 19 41  1  0
 41 42  1  0
 42 43  1  1
  5  1  1  0
 15 10  1  0
 42 16  1  0
 42  1  1  0
 40 24  1  0
 39 28  1  0
 38 30  1  0
 38 33  1  0
M  END
$$$$
