
     RDKit          3D

 43 50  0  0  0  0  0  0  0  0999 V2000
  190.5471  158.0744  126.0725 C   0  0  2  0  0  0  0  0  0  0  0  0
  192.0344  157.8832  125.7496 C   0  0  0  0  0  0  0  0  0  0  0  0
  191.9651  156.9561  124.5599 C   0  0  0  0  0  0  0  0  0  0  0  0
  190.5584  157.0933  123.9906 C   0  0  0  0  0  0  0  0  0  0  0  0
  189.9911  158.1926  124.7516 N   0  0  0  0  0  0  0  0  0  0  0  0
  189.0839  159.2049  124.3620 C   0  0  0  0  0  0  0  0  0  0  0  0
  188.3356  159.0008  123.3749 O   0  0  0  0  0  0  0  0  0  0  0  0
  189.0664  160.4714  125.1535 C   0  0  2  0  0  0  0  0  0  0  0  0
  190.1846  161.3420  124.6208 C   0  0  0  0  0  0  0  0  0  0  0  0
  189.9608  161.7258  123.2118 C   0  0  0  0  0  0  0  0  0  0  0  0
  188.7792  162.3316  122.8681 C   0  0  0  0  0  0  0  0  0  0  0  0
  188.5089  162.7138  121.5726 C   0  0  0  0  0  0  0  0  0  0  0  0
  189.4431  162.4827  120.6057 C   0  0  0  0  0  0  0  0  0  0  0  0
  190.6563  161.8671  120.9261 C   0  0  0  0  0  0  0  0  0  0  0  0
  190.8992  161.4946  122.2355 C   0  0  0  0  0  0  0  0  0  0  0  0
  189.2571  160.1222  126.5342 N   0  0  0  0  0  0  0  0  0  0  0  0
  188.5585  160.4585  127.7435 C   0  0  0  0  0  0  0  0  0  0  0  0
  187.7970  161.4559  127.9108 O   0  0  0  0  0  0  0  0  0  0  0  0
  188.9401  159.3879  128.7009 C   0  0  2  0  0  0  0  0  0  0  0  0
  187.9167  158.2807  128.5518 C   0  0  0  0  0  0  0  0  0  0  0  0
  189.0276  159.8627  130.0629 N   0  0  0  0  0  0  0  0  0  0  0  0
  189.4306  161.1538  130.4289 C   0  0  0  0  0  0  0  0  0  0  0  0
  190.4914  161.6055  129.9257 O   0  0  0  0  0  0  0  0  0  0  0  0
  188.6832  162.0207  131.3734 C   0  0  1  0  0  0  0  0  0  0  0  0
  188.0988  163.2411  130.7375 C   0  0  0  0  0  0  0  0  0  0  0  0
  186.9445  162.9931  129.9434 N   0  0  0  0  0  0  0  0  0  0  0  0
  186.2025  164.2582  129.8457 C   0  0  0  0  0  0  0  0  0  0  0  0
  186.0921  161.9249  130.4467 C   0  0  2  0  0  0  0  0  0  0  0  0
  184.7029  162.0730  129.9435 C   0  0  0  0  0  0  0  0  0  0  0  0
  183.7710  161.1738  130.6515 C   0  0  0  0  0  0  0  0  0  0  0  0
  182.5057  160.6254  130.4075 C   0  0  0  0  0  0  0  0  0  0  0  0
  182.1547  159.8594  131.4713 N   0  0  0  0  0  0  0  0  0  0  0  0
  183.1176  159.8671  132.4112 C   0  0  0  0  0  0  0  0  0  0  0  0
  183.3146  159.3013  133.6527 C   0  0  0  0  0  0  0  0  0  0  0  0
  184.4753  159.5555  134.3371 C   0  0  0  0  0  0  0  0  0  0  0  0
  185.4739  160.3848  133.7970 C   0  0  0  0  0  0  0  0  0  0  0  0
  185.2577  160.9386  132.5579 C   0  0  0  0  0  0  0  0  0  0  0  0
  184.1098  160.6872  131.8829 C   0  0  0  0  0  0  0  0  0  0  0  0
  186.2769  161.8136  131.9180 C   0  0  1  0  0  0  0  0  0  0  0  0
  187.6793  161.2297  132.1571 C   0  0  0  0  0  0  0  0  0  0  0  0
  190.1414  158.9207  128.2500 O   0  0  0  0  0  0  0  0  0  0  0  0
  190.3241  159.2698  126.9417 C   0  0  1  0  0  0  0  0  0  0  0  0
  191.5104  160.0393  126.8864 O   0  0  0  0  0  0  0  0  0  0  0  0
  1  2  1  6
  2  3  1  0
  3  4  1  0
  4  5  1  0
  5  6  1  0
  6  7  2  0
  6  8  1  0
  8  9  1  6
  9 10  1  0
 10 11  2  0
 11 12  1  0
 12 13  2  0
 13 14  1  0
 14 15  2  0
  8 16  1  0
 16 17  1  0
 17 18  2  0
 17 19  1  0
 19 20  1  1
 19 21  1  0
 21 22  1  0
 22 23  2  0
 24 22  1  6
 24 25  1  0
 25 26  1  0
 26 27  1  0
 26 28  1  0
 28 29  1  1
 29 30  1  0
 30 31  2  0
 31 32  1  0
 32 33  1  0
 33 34  2  0
 34 35  1  0
 35 36  2  0
 36 37  1  0
 37 38  2  0
 37 39  1  0
 39 40  1  6
 19 41  1  0
 41 42  1  0
 42 43  1  1
  5  1  1  0
 15 10  1  0
 42 16  1  0
 42  1  1  0
 40 24  1  0
 39 28  1  0
 38 30  1  0
 38 33  1  0
M  END
$$$$
