
     RDKit          3D

 43 50  0  0  0  0  0  0  0  0999 V2000
  128.9181  143.8430  133.2588 C   0  0  2  0  0  0  0  0  0  0  0  0
  128.5053  144.9931  132.3316 C   0  0  0  0  0  0  0  0  0  0  0  0
  129.3035  146.1398  132.9042 C   0  0  0  0  0  0  0  0  0  0  0  0
  130.4345  145.5142  133.7111 C   0  0  0  0  0  0  0  0  0  0  0  0
  130.3256  144.0986  133.4054 N   0  0  0  0  0  0  0  0  0  0  0  0
  131.3285  143.1119  133.2633 C   0  0  0  0  0  0  0  0  0  0  0  0
  132.4427  143.2970  133.8114 O   0  0  0  0  0  0  0  0  0  0  0  0
  131.0035  141.8939  132.4622 C   0  0  2  0  0  0  0  0  0  0  0  0
  131.2217  142.2499  131.0069 C   0  0  0  0  0  0  0  0  0  0  0  0
  132.5117  141.7369  130.5015 C   0  0  0  0  0  0  0  0  0  0  0  0
  132.6114  140.4124  130.1590 C   0  0  0  0  0  0  0  0  0  0  0  0
  133.7851  139.8721  129.6817 C   0  0  0  0  0  0  0  0  0  0  0  0
  134.8778  140.6776  129.5465 C   0  0  0  0  0  0  0  0  0  0  0  0
  134.8062  142.0312  129.8874 C   0  0  0  0  0  0  0  0  0  0  0  0
  133.6140  142.5451  130.3639 C   0  0  0  0  0  0  0  0  0  0  0  0
  129.6377  141.5444  132.7397 N   0  0  0  0  0  0  0  0  0  0  0  0
  128.9894  140.3207  133.1215 C   0  0  0  0  0  0  0  0  0  0  0  0
  129.4466  139.1521  132.9539 O   0  0  0  0  0  0  0  0  0  0  0  0
  127.7074  140.7568  133.7336 C   0  0  2  0  0  0  0  0  0  0  0  0
  127.9700  140.9468  135.2136 C   0  0  0  0  0  0  0  0  0  0  0  0
  126.6286  139.8262  133.4915 N   0  0  0  0  0  0  0  0  0  0  0  0
  126.7711  138.6022  132.8246 C   0  0  0  0  0  0  0  0  0  0  0  0
  126.3597  138.5255  131.6382 O   0  0  0  0  0  0  0  0  0  0  0  0
  127.3770  137.3912  133.4317 C   0  0  1  0  0  0  0  0  0  0  0  0
  126.4148  136.5722  134.2310 C   0  0  0  0  0  0  0  0  0  0  0  0
  125.5037  135.8087  133.4490 N   0  0  0  0  0  0  0  0  0  0  0  0
  125.0244  134.7043  134.2923 C   0  0  0  0  0  0  0  0  0  0  0  0
  126.0625  135.3084  132.2005 C   0  0  2  0  0  0  0  0  0  0  0  0
  125.3109  134.1209  131.7211 C   0  0  0  0  0  0  0  0  0  0  0  0
  126.0189  133.4393  130.6200 C   0  0  0  0  0  0  0  0  0  0  0  0
  125.6807  132.5547  129.5883 C   0  0  0  0  0  0  0  0  0  0  0  0
  126.8032  132.2648  128.8829 N   0  0  0  0  0  0  0  0  0  0  0  0
  127.8714  132.9083  129.3883 C   0  0  0  0  0  0  0  0  0  0  0  0
  129.2175  132.9979  129.1047 C   0  0  0  0  0  0  0  0  0  0  0  0
  130.0225  133.7908  129.8815 C   0  0  0  0  0  0  0  0  0  0  0  0
  129.5021  134.5182  130.9661 C   0  0  0  0  0  0  0  0  0  0  0  0
  128.1575  134.4151  131.2315 C   0  0  0  0  0  0  0  0  0  0  0  0
  127.3631  133.6306  130.4635 C   0  0  0  0  0  0  0  0  0  0  0  0
  127.5350  135.1681  132.3537 C   0  0  1  0  0  0  0  0  0  0  0  0
  128.1235  136.5877  132.4097 C   0  0  0  0  0  0  0  0  0  0  0  0
  127.4515  141.9813  133.1861 O   0  0  0  0  0  0  0  0  0  0  0  0
  128.5948  142.5126  132.6593 C   0  0  1  0  0  0  0  0  0  0  0  0
  128.3453  142.7363  131.2845 O   0  0  0  0  0  0  0  0  0  0  0  0
  1  2  1  6
  2  3  1  0
  3  4  1  0
  4  5  1  0
  5  6  1  0
  6  7  2  0
  6  8  1  0
  8  9  1  6
  9 10  1  0
 10 11  2  0
 11 12  1  0
 12 13  2  0
 13 14  1  0
 14 15  2  0
  8 16  1  0
 16 17  1  0
 17 18  2  0
 17 19  1  0
 19 20  1  1
 19 21  1  0
 21 22  1  0
 22 23  2  0
 24 22  1  6
 24 25  1  0
 25 26  1  0
 26 27  1  0
 26 28  1  0
 28 29  1  1
 29 30  1  0
 30 31  2  0
 31 32  1  0
 32 33  1  0
 33 34  2  0
 34 35  1  0
 35 36  2  0
 36 37  1  0
 37 38  2  0
 37 39  1  0
 39 40  1  6
 19 41  1  0
 41 42  1  0
 42 43  1  6
  5  1  1  0
 15 10  1  0
 42 16  1  0
 42  1  1  0
 40 24  1  0
 39 28  1  0
 38 30  1  0
 38 33  1  0
M  END
$$$$
