
     RDKit          3D

 43 50  0  0  0  0  0  0  0  0999 V2000
  127.0789  149.4750  135.2056 C   0  0  2  0  0  0  0  0  0  0  0  0
  126.2813  150.0278  134.0176 C   0  0  0  0  0  0  0  0  0  0  0  0
  126.7443  151.4647  133.9896 C   0  0  0  0  0  0  0  0  0  0  0  0
  128.0633  151.5051  134.7514 C   0  0  0  0  0  0  0  0  0  0  0  0
  128.3552  150.1039  134.9974 N   0  0  0  0  0  0  0  0  0  0  0  0
  129.5918  149.4194  135.0414 C   0  0  0  0  0  0  0  0  0  0  0  0
  130.6375  150.0721  135.2788 O   0  0  0  0  0  0  0  0  0  0  0  0
  129.5847  147.9453  134.8011 C   0  0  2  0  0  0  0  0  0  0  0  0
  129.5854  147.7412  133.3009 C   0  0  0  0  0  0  0  0  0  0  0  0
  129.9209  146.3501  132.9341 C   0  0  0  0  0  0  0  0  0  0  0  0
  131.0477  145.7763  133.4657 C   0  0  0  0  0  0  0  0  0  0  0  0
  131.4161  144.4837  133.1640 C   0  0  0  0  0  0  0  0  0  0  0  0
  130.6377  143.7553  132.3126 C   0  0  0  0  0  0  0  0  0  0  0  0
  129.4838  144.3134  131.7555 C   0  0  0  0  0  0  0  0  0  0  0  0
  129.1396  145.6135  132.0772 C   0  0  0  0  0  0  0  0  0  0  0  0
  128.4056  147.4103  135.4241 N   0  0  0  0  0  0  0  0  0  0  0  0
  128.1754  146.3176  136.3277 C   0  0  0  0  0  0  0  0  0  0  0  0
  128.9438  145.3281  136.5109 O   0  0  0  0  0  0  0  0  0  0  0  0
  126.8682  146.6309  136.9614 C   0  0  2  0  0  0  0  0  0  0  0  0
  127.1665  147.4462  138.2030 C   0  0  0  0  0  0  0  0  0  0  0  0
  126.0974  145.4468  137.2650 N   0  0  0  0  0  0  0  0  0  0  0  0
  126.3394  144.1802  136.7169 C   0  0  0  0  0  0  0  0  0  0  0  0
  125.6453  143.8218  135.7308 O   0  0  0  0  0  0  0  0  0  0  0  0
  127.3637  143.2359  137.2281 C   0  0  1  0  0  0  0  0  0  0  0  0
  126.8641  142.3330  138.3101 C   0  0  0  0  0  0  0  0  0  0  0  0
  126.0220  141.2808  137.8538 N   0  0  0  0  0  0  0  0  0  0  0  0
  126.0589  140.2206  138.8712 C   0  0  0  0  0  0  0  0  0  0  0  0
  126.3775  140.7584  136.5416 C   0  0  2  0  0  0  0  0  0  0  0  0
  125.8661  139.3757  136.3647 C   0  0  0  0  0  0  0  0  0  0  0  0
  126.4430  138.7331  135.1679 C   0  0  0  0  0  0  0  0  0  0  0  0
  126.1092  137.6626  134.3288 C   0  0  0  0  0  0  0  0  0  0  0  0
  127.0674  137.5468  133.3748 N   0  0  0  0  0  0  0  0  0  0  0  0
  128.0218  138.4822  133.5322 C   0  0  0  0  0  0  0  0  0  0  0  0
  129.1917  138.8411  132.8974 C   0  0  0  0  0  0  0  0  0  0  0  0
  129.9256  139.8964  133.3745 C   0  0  0  0  0  0  0  0  0  0  0  0
  129.5086  140.6243  134.5027 C   0  0  0  0  0  0  0  0  0  0  0  0
  128.3392  140.2503  135.1206 C   0  0  0  0  0  0  0  0  0  0  0  0
  127.6152  139.2066  134.6485 C   0  0  0  0  0  0  0  0  0  0  0  0
  127.8289  140.9843  136.3100 C   0  0  1  0  0  0  0  0  0  0  0  0
  128.0270  142.4955  136.1059 C   0  0  0  0  0  0  0  0  0  0  0  0
  126.2249  147.4376  136.0669 O   0  0  0  0  0  0  0  0  0  0  0  0
  127.1208  147.9809  135.1900 C   0  0  1  0  0  0  0  0  0  0  0  0
  126.7204  147.5768  133.8943 O   0  0  0  0  0  0  0  0  0  0  0  0
  1  2  1  6
  2  3  1  0
  3  4  1  0
  4  5  1  0
  5  6  1  0
  6  7  2  0
  6  8  1  0
  8  9  1  6
  9 10  1  0
 10 11  2  0
 11 12  1  0
 12 13  2  0
 13 14  1  0
 14 15  2  0
  8 16  1  0
 16 17  1  0
 17 18  2  0
 17 19  1  0
 19 20  1  1
 19 21  1  0
 21 22  1  0
 22 23  2  0
 24 22  1  6
 24 25  1  0
 25 26  1  0
 26 27  1  0
 26 28  1  0
 28 29  1  1
 29 30  1  0
 30 31  2  0
 31 32  1  0
 32 33  1  0
 33 34  2  0
 34 35  1  0
 35 36  2  0
 36 37  1  0
 37 38  2  0
 37 39  1  0
 39 40  1  6
 19 41  1  0
 41 42  1  0
 42 43  1  6
  5  1  1  0
 15 10  1  0
 42 16  1  0
 42  1  1  0
 40 24  1  0
 39 28  1  0
 38 30  1  0
 38 33  1  0
M  END
$$$$
