
     RDKit          3D

 43 50  0  0  0  0  0  0  0  0999 V2000
  118.4037  163.8415  144.0311 C   0  0  2  0  0  0  0  0  0  0  0  0
  119.7141  163.5125  144.7574 C   0  0  0  0  0  0  0  0  0  0  0  0
  120.1347  162.2439  144.0548 C   0  0  0  0  0  0  0  0  0  0  0  0
  119.3895  162.2224  142.7260 C   0  0  0  0  0  0  0  0  0  0  0  0
  118.7551  163.5277  142.6725 N   0  0  0  0  0  0  0  0  0  0  0  0
  118.4972  164.3769  141.5716 C   0  0  0  0  0  0  0  0  0  0  0  0
  118.4321  163.8761  140.4222 O   0  0  0  0  0  0  0  0  0  0  0  0
  118.3148  165.8349  141.8399 C   0  0  2  0  0  0  0  0  0  0  0  0
  119.6974  166.4466  141.9202 C   0  0  0  0  0  0  0  0  0  0  0  0
  119.6928  167.8720  141.5320 C   0  0  0  0  0  0  0  0  0  0  0  0
  119.5257  168.8247  142.5045 C   0  0  0  0  0  0  0  0  0  0  0  0
  119.5120  170.1700  142.2087 C   0  0  0  0  0  0  0  0  0  0  0  0
  119.6690  170.5642  140.9120 C   0  0  0  0  0  0  0  0  0  0  0  0
  119.8412  169.6161  139.8997 C   0  0  0  0  0  0  0  0  0  0  0  0
  119.8506  168.2726  140.2275 C   0  0  0  0  0  0  0  0  0  0  0  0
  117.5897  165.9610  143.0739 N   0  0  0  0  0  0  0  0  0  0  0  0
  116.4207  166.7005  143.4613 C   0  0  0  0  0  0  0  0  0  0  0  0
  115.9528  167.7173  142.8697 O   0  0  0  0  0  0  0  0  0  0  0  0
  115.9256  166.0003  144.6750 C   0  0  2  0  0  0  0  0  0  0  0  0
  114.9567  164.9355  144.2029 C   0  0  0  0  0  0  0  0  0  0  0  0
  115.3172  166.8996  145.6287 N   0  0  0  0  0  0  0  0  0  0  0  0
  115.8658  168.1268  146.0240 C   0  0  0  0  0  0  0  0  0  0  0  0
  115.0766  169.0339  146.3941 O   0  0  0  0  0  0  0  0  0  0  0  0
  117.3201  168.4221  146.0328 C   0  0  1  0  0  0  0  0  0  0  0  0
  117.6955  169.6250  145.2280 C   0  0  0  0  0  0  0  0  0  0  0  0
  117.3694  170.8665  145.8419 N   0  0  0  0  0  0  0  0  0  0  0  0
  118.2371  171.8904  145.2425 C   0  0  0  0  0  0  0  0  0  0  0  0
  117.4893  170.8642  147.2934 C   0  0  2  0  0  0  0  0  0  0  0  0
  117.6819  172.2422  147.8119 C   0  0  0  0  0  0  0  0  0  0  0  0
  118.0774  172.2363  149.2338 C   0  0  0  0  0  0  0  0  0  0  0  0
  118.0516  173.1446  150.2994 C   0  0  0  0  0  0  0  0  0  0  0  0
  118.5820  172.5419  151.3934 N   0  0  0  0  0  0  0  0  0  0  0  0
  118.9599  171.2808  151.1150 C   0  0  0  0  0  0  0  0  0  0  0  0
  119.5368  170.2308  151.7970 C   0  0  0  0  0  0  0  0  0  0  0  0
  119.7799  169.0500  151.1436 C   0  0  0  0  0  0  0  0  0  0  0  0
  119.4516  168.8862  149.7865 C   0  0  0  0  0  0  0  0  0  0  0  0
  118.8771  169.9453  149.1252 C   0  0  0  0  0  0  0  0  0  0  0  0
  118.6379  171.1119  149.7719 C   0  0  0  0  0  0  0  0  0  0  0  0
  118.4894  169.8387  147.6927 C   0  0  1  0  0  0  0  0  0  0  0  0
  117.8572  168.4614  147.4319 C   0  0  0  0  0  0  0  0  0  0  0  0
  117.0225  165.3764  145.1967 O   0  0  0  0  0  0  0  0  0  0  0  0
  117.9992  165.2640  144.2478 C   0  0  1  0  0  0  0  0  0  0  0  0
  119.1371  165.9378  144.7512 O   0  0  0  0  0  0  0  0  0  0  0  0
  1  2  1  1
  2  3  1  0
  3  4  1  0
  4  5  1  0
  5  6  1  0
  6  7  2  0
  6  8  1  0
  8  9  1  1
  9 10  1  0
 10 11  2  0
 11 12  1  0
 12 13  2  0
 13 14  1  0
 14 15  2  0
  8 16  1  0
 16 17  1  0
 17 18  2  0
 17 19  1  0
 19 20  1  6
 19 21  1  0
 21 22  1  0
 22 23  2  0
 24 22  1  1
 24 25  1  0
 25 26  1  0
 26 27  1  0
 26 28  1  0
 28 29  1  6
 29 30  1  0
 30 31  2  0
 31 32  1  0
 32 33  1  0
 33 34  2  0
 34 35  1  0
 35 36  2  0
 36 37  1  0
 37 38  2  0
 37 39  1  0
 39 40  1  1
 19 41  1  0
 41 42  1  0
 42 43  1  1
  5  1  1  0
 15 10  1  0
 42 16  1  0
 42  1  1  0
 40 24  1  0
 39 28  1  0
 38 30  1  0
 38 33  1  0
M  END
$$$$
