
     RDKit          3D

 43 50  0  0  0  0  0  0  0  0999 V2000
  189.4979  162.2055  135.8857 C   0  0  2  0  0  0  0  0  0  0  0  0
  189.2213  163.5142  136.6366 C   0  0  0  0  0  0  0  0  0  0  0  0
  190.5659  164.1962  136.5535 C   0  0  0  0  0  0  0  0  0  0  0  0
  191.3098  163.5381  135.3981 C   0  0  0  0  0  0  0  0  0  0  0  0
  190.3062  162.6792  134.7947 N   0  0  0  0  0  0  0  0  0  0  0  0
  190.0940  162.3280  133.4414 C   0  0  0  0  0  0  0  0  0  0  0  0
  191.0522  162.4161  132.6352 O   0  0  0  0  0  0  0  0  0  0  0  0
  188.7299  161.8681  133.0433 C   0  0  2  0  0  0  0  0  0  0  0  0
  187.8985  163.1091  132.7967 C   0  0  0  0  0  0  0  0  0  0  0  0
  187.8060  163.4337  131.3584 C   0  0  0  0  0  0  0  0  0  0  0  0
  188.5587  164.4668  130.8609 C   0  0  0  0  0  0  0  0  0  0  0  0
  188.5180  164.8198  129.5301 C   0  0  0  0  0  0  0  0  0  0  0  0
  187.7061  164.1218  128.6846 C   0  0  0  0  0  0  0  0  0  0  0  0
  186.9275  163.0642  129.1629 C   0  0  0  0  0  0  0  0  0  0  0  0
  186.9896  162.7330  130.5042 C   0  0  0  0  0  0  0  0  0  0  0  0
  188.2112  161.0685  134.1186 N   0  0  0  0  0  0  0  0  0  0  0  0
  187.6102  159.7651  134.1792 C   0  0  0  0  0  0  0  0  0  0  0  0
  187.0658  159.1506  133.2155 O   0  0  0  0  0  0  0  0  0  0  0  0
  187.7829  159.3438  135.5938 C   0  0  2  0  0  0  0  0  0  0  0  0
  189.1072  158.6123  135.6753 C   0  0  0  0  0  0  0  0  0  0  0  0
  186.6871  158.5319  136.0718 N   0  0  0  0  0  0  0  0  0  0  0  0
  185.3338  158.8733  135.9484 C   0  0  0  0  0  0  0  0  0  0  0  0
  184.7944  159.4990  136.8972 O   0  0  0  0  0  0  0  0  0  0  0  0
  184.4980  158.5422  134.7678 C   0  0  1  0  0  0  0  0  0  0  0  0
  183.9704  157.1432  134.7765 C   0  0  0  0  0  0  0  0  0  0  0  0
  182.8962  156.9270  135.6841 N   0  0  0  0  0  0  0  0  0  0  0  0
  182.1613  155.7432  135.2160 C   0  0  0  0  0  0  0  0  0  0  0  0
  182.0049  158.0688  135.8367 C   0  0  2  0  0  0  0  0  0  0  0  0
  180.6681  157.6377  136.3184 C   0  0  0  0  0  0  0  0  0  0  0  0
  179.6780  158.7274  136.2174 C   0  0  0  0  0  0  0  0  0  0  0  0
  178.4432  159.0356  136.8018 C   0  0  0  0  0  0  0  0  0  0  0  0
  177.9977  160.2057  136.2782 N   0  0  0  0  0  0  0  0  0  0  0  0
  178.8687  160.6944  135.3764 C   0  0  0  0  0  0  0  0  0  0  0  0
  178.9515  161.7984  134.5551 C   0  0  0  0  0  0  0  0  0  0  0  0
  180.0423  161.9562  133.7393 C   0  0  0  0  0  0  0  0  0  0  0  0
  181.0835  161.0116  133.7226 C   0  0  0  0  0  0  0  0  0  0  0  0
  180.9814  159.9184  134.5493 C   0  0  0  0  0  0  0  0  0  0  0  0
  179.9026  159.7633  135.3545 C   0  0  0  0  0  0  0  0  0  0  0  0
  182.0523  158.8864  134.5956 C   0  0  1  0  0  0  0  0  0  0  0  0
  183.4287  159.5710  134.5544 C   0  0  0  0  0  0  0  0  0  0  0  0
  187.8954  160.5075  136.2992 O   0  0  0  0  0  0  0  0  0  0  0  0
  188.2293  161.5366  135.4646 C   0  0  1  0  0  0  0  0  0  0  0  0
  187.2028  162.5039  135.5783 O   0  0  0  0  0  0  0  0  0  0  0  0
  1  2  1  1
  2  3  1  0
  3  4  1  0
  4  5  1  0
  5  6  1  0
  6  7  2  0
  6  8  1  0
  8  9  1  1
  9 10  1  0
 10 11  2  0
 11 12  1  0
 12 13  2  0
 13 14  1  0
 14 15  2  0
  8 16  1  0
 16 17  1  0
 17 18  2  0
 17 19  1  0
 19 20  1  6
 19 21  1  0
 21 22  1  0
 22 23  2  0
 24 22  1  1
 24 25  1  0
 25 26  1  0
 26 27  1  0
 26 28  1  0
 28 29  1  6
 29 30  1  0
 30 31  2  0
 31 32  1  0
 32 33  1  0
 33 34  2  0
 34 35  1  0
 35 36  2  0
 36 37  1  0
 37 38  2  0
 37 39  1  0
 39 40  1  1
 19 41  1  0
 41 42  1  0
 42 43  1  6
  5  1  1  0
 15 10  1  0
 42 16  1  0
 42  1  1  0
 40 24  1  0
 39 28  1  0
 38 30  1  0
 38 33  1  0
M  END
$$$$
