
     RDKit          3D

 43 50  0  0  0  0  0  0  0  0999 V2000
  206.1520  134.6568  134.8964 C   0  0  2  0  0  0  0  0  0  0  0  0
  206.8228  134.1618  136.1840 C   0  0  0  0  0  0  0  0  0  0  0  0
  207.2456  135.4642  136.8203 C   0  0  0  0  0  0  0  0  0  0  0  0
  206.3903  136.5512  136.1814 C   0  0  0  0  0  0  0  0  0  0  0  0
  205.4346  135.8042  135.3827 N   0  0  0  0  0  0  0  0  0  0  0  0
  204.0766  136.0706  135.0920 C   0  0  0  0  0  0  0  0  0  0  0  0
  203.6591  137.2515  135.1769 O   0  0  0  0  0  0  0  0  0  0  0  0
  203.2071  134.9223  134.6967 C   0  0  2  0  0  0  0  0  0  0  0  0
  202.7476  134.2541  135.9752 C   0  0  0  0  0  0  0  0  0  0  0  0
  201.7048  135.0415  136.6646 C   0  0  0  0  0  0  0  0  0  0  0  0
  201.4472  136.3195  136.2384 C   0  0  0  0  0  0  0  0  0  0  0  0
  200.4882  137.1057  136.8382 C   0  0  0  0  0  0  0  0  0  0  0  0
  199.7757  136.5977  137.8849 C   0  0  0  0  0  0  0  0  0  0  0  0
  200.0162  135.2987  138.3410 C   0  0  0  0  0  0  0  0  0  0  0  0
  200.9854  134.5333  137.7188 C   0  0  0  0  0  0  0  0  0  0  0  0
  203.9947  134.0452  133.8751 N   0  0  0  0  0  0  0  0  0  0  0  0
  203.7791  133.4349  132.5927 C   0  0  0  0  0  0  0  0  0  0  0  0
  202.6575  133.2487  132.0357 O   0  0  0  0  0  0  0  0  0  0  0  0
  205.1432  133.0947  132.1110 C   0  0  2  0  0  0  0  0  0  0  0  0
  205.6443  134.2924  131.3302 C   0  0  0  0  0  0  0  0  0  0  0  0
  205.1703  131.8851  131.3209 N   0  0  0  0  0  0  0  0  0  0  0  0
  204.6446  130.6542  131.7358 C   0  0  0  0  0  0  0  0  0  0  0  0
  203.5473  130.2853  131.2434 O   0  0  0  0  0  0  0  0  0  0  0  0
  205.3026  129.7595  132.7200 C   0  0  1  0  0  0  0  0  0  0  0  0
  204.3929  128.7194  133.2910 C   0  0  0  0  0  0  0  0  0  0  0  0
  204.1015  127.6448  132.4052 N   0  0  0  0  0  0  0  0  0  0  0  0
  203.6837  126.5015  133.2291 C   0  0  0  0  0  0  0  0  0  0  0  0
  205.2041  127.2802  131.5262 C   0  0  2  0  0  0  0  0  0  0  0  0
  205.0631  125.8806  131.0507 C   0  0  0  0  0  0  0  0  0  0  0  0
  206.2946  125.4055  130.3907 C   0  0  0  0  0  0  0  0  0  0  0  0
  206.6365  124.3929  129.4856 C   0  0  0  0  0  0  0  0  0  0  0  0
  207.9729  124.4509  129.2574 N   0  0  0  0  0  0  0  0  0  0  0  0
  208.5407  125.4474  129.9612 C   0  0  0  0  0  0  0  0  0  0  0  0
  209.8075  125.9648  130.1282 C   0  0  0  0  0  0  0  0  0  0  0  0
  209.9989  127.0311  130.9687 C   0  0  0  0  0  0  0  0  0  0  0  0
  208.9255  127.6112  131.6673 C   0  0  0  0  0  0  0  0  0  0  0  0
  207.6708  127.0804  131.4865 C   0  0  0  0  0  0  0  0  0  0  0  0
  207.4830  126.0261  130.6561 C   0  0  0  0  0  0  0  0  0  0  0  0
  206.4860  127.6527  132.1812 C   0  0  1  0  0  0  0  0  0  0  0  0
  206.5739  129.1879  132.1683 C   0  0  0  0  0  0  0  0  0  0  0  0
  205.8995  132.9772  133.2419 O   0  0  0  0  0  0  0  0  0  0  0  0
  205.2842  133.6017  134.2899 C   0  0  1  0  0  0  0  0  0  0  0  0
  205.0808  132.6196  135.2881 O   0  0  0  0  0  0  0  0  0  0  0  0
  1  2  1  1
  2  3  1  0
  3  4  1  0
  4  5  1  0
  5  6  1  0
  6  7  2  0
  6  8  1  0
  8  9  1  1
  9 10  1  0
 10 11  2  0
 11 12  1  0
 12 13  2  0
 13 14  1  0
 14 15  2  0
  8 16  1  0
 16 17  1  0
 17 18  2  0
 17 19  1  0
 19 20  1  6
 19 21  1  0
 21 22  1  0
 22 23  2  0
 24 22  1  6
 24 25  1  0
 25 26  1  0
 26 27  1  0
 26 28  1  0
 28 29  1  1
 29 30  1  0
 30 31  2  0
 31 32  1  0
 32 33  1  0
 33 34  2  0
 34 35  1  0
 35 36  2  0
 36 37  1  0
 37 38  2  0
 37 39  1  0
 39 40  1  6
 19 41  1  0
 41 42  1  0
 42 43  1  1
  5  1  1  0
 15 10  1  0
 42 16  1  0
 42  1  1  0
 40 24  1  0
 39 28  1  0
 38 30  1  0
 38 33  1  0
M  END
$$$$
