
     RDKit          3D

 43 50  0  0  0  0  0  0  0  0999 V2000
  125.9544  150.3103  134.3368 C   0  0  2  0  0  0  0  0  0  0  0  0
  125.3629  150.8719  133.0377 C   0  0  0  0  0  0  0  0  0  0  0  0
  125.2079  152.3326  133.3869 C   0  0  0  0  0  0  0  0  0  0  0  0
  126.1388  152.5930  134.5648 C   0  0  0  0  0  0  0  0  0  0  0  0
  126.8814  151.3513  134.6902 N   0  0  0  0  0  0  0  0  0  0  0  0
  128.2239  151.1206  135.0700 C   0  0  0  0  0  0  0  0  0  0  0  0
  128.8171  151.9884  135.7563 O   0  0  0  0  0  0  0  0  0  0  0  0
  128.8668  149.8465  134.6296 C   0  0  2  0  0  0  0  0  0  0  0  0
  129.3600  150.0652  133.2150 C   0  0  0  0  0  0  0  0  0  0  0  0
  130.8331  149.9961  133.1281 C   0  0  0  0  0  0  0  0  0  0  0  0
  131.4071  149.0459  132.3224 C   0  0  0  0  0  0  0  0  0  0  0  0
  132.7739  148.9289  132.1976 C   0  0  0  0  0  0  0  0  0  0  0  0
  133.5777  149.7824  132.8951 C   0  0  0  0  0  0  0  0  0  0  0  0
  133.0214  150.7607  133.7239 C   0  0  0  0  0  0  0  0  0  0  0  0
  131.6457  150.8538  133.8290 C   0  0  0  0  0  0  0  0  0  0  0  0
  127.8739  148.8107  134.7075 N   0  0  0  0  0  0  0  0  0  0  0  0
  127.8563  147.5020  135.2998 C   0  0  0  0  0  0  0  0  0  0  0  0
  128.8708  146.8054  135.5969 O   0  0  0  0  0  0  0  0  0  0  0  0
  126.4128  147.1909  135.4661 C   0  0  2  0  0  0  0  0  0  0  0  0
  126.0108  147.6931  136.8379 C   0  0  0  0  0  0  0  0  0  0  0  0
  126.1222  145.7852  135.2991 N   0  0  0  0  0  0  0  0  0  0  0  0
  127.0934  144.7867  135.1468 C   0  0  0  0  0  0  0  0  0  0  0  0
  126.7640  143.5997  135.4019 O   0  0  0  0  0  0  0  0  0  0  0  0
  128.4860  145.0435  134.7034 C   0  0  1  0  0  0  0  0  0  0  0  0
  129.5175  144.7081  135.7325 C   0  0  0  0  0  0  0  0  0  0  0  0
  129.7527  143.3142  135.8946 N   0  0  0  0  0  0  0  0  0  0  0  0
  131.0889  143.1636  136.4884 C   0  0  0  0  0  0  0  0  0  0  0  0
  129.6373  142.5425  134.6648 C   0  0  2  0  0  0  0  0  0  0  0  0
  130.3992  141.2717  134.7624 C   0  0  0  0  0  0  0  0  0  0  0  0
  130.5232  140.6115  133.4483 C   0  0  0  0  0  0  0  0  0  0  0  0
  130.7858  139.3172  132.9823 C   0  0  0  0  0  0  0  0  0  0  0  0
  130.7829  139.3380  131.6254 N   0  0  0  0  0  0  0  0  0  0  0  0
  130.5324  140.5760  131.1615 C   0  0  0  0  0  0  0  0  0  0  0  0
  130.4124  141.1823  129.9293 C   0  0  0  0  0  0  0  0  0  0  0  0
  130.1416  142.5246  129.8577 C   0  0  0  0  0  0  0  0  0  0  0  0
  129.9826  143.2997  131.0198 C   0  0  0  0  0  0  0  0  0  0  0  0
  130.1060  142.6758  132.2381 C   0  0  0  0  0  0  0  0  0  0  0  0
  130.3743  141.3493  132.3075 C   0  0  0  0  0  0  0  0  0  0  0  0
  129.9352  143.4299  133.5094 C   0  0  1  0  0  0  0  0  0  0  0  0
  128.7573  144.4090  133.3725 C   0  0  0  0  0  0  0  0  0  0  0  0
  125.7754  147.9538  134.5300 O   0  0  0  0  0  0  0  0  0  0  0  0
  126.5864  148.9735  134.1184 C   0  0  1  0  0  0  0  0  0  0  0  0
  126.7511  148.8254  132.7207 O   0  0  0  0  0  0  0  0  0  0  0  0
  1  2  1  6
  2  3  1  0
  3  4  1  0
  4  5  1  0
  5  6  1  0
  6  7  2  0
  6  8  1  0
  8  9  1  6
  9 10  1  0
 10 11  2  0
 11 12  1  0
 12 13  2  0
 13 14  1  0
 14 15  2  0
  8 16  1  0
 16 17  1  0
 17 18  2  0
 17 19  1  0
 19 20  1  1
 19 21  1  0
 21 22  1  0
 22 23  2  0
 24 22  1  1
 24 25  1  0
 25 26  1  0
 26 27  1  0
 26 28  1  0
 28 29  1  1
 29 30  1  0
 30 31  2  0
 31 32  1  0
 32 33  1  0
 33 34  2  0
 34 35  1  0
 35 36  2  0
 36 37  1  0
 37 38  2  0
 37 39  1  0
 39 40  1  6
 19 41  1  0
 41 42  1  0
 42 43  1  6
  5  1  1  0
 15 10  1  0
 42 16  1  0
 42  1  1  0
 40 24  1  0
 39 28  1  0
 38 30  1  0
 38 33  1  0
M  END
$$$$
