
     RDKit          3D

 43 50  0  0  0  0  0  0  0  0999 V2000
  206.6377  134.8715  136.7204 C   0  0  2  0  0  0  0  0  0  0  0  0
  205.4745  134.6925  137.7044 C   0  0  0  0  0  0  0  0  0  0  0  0
  205.7522  135.7942  138.6988 C   0  0  0  0  0  0  0  0  0  0  0  0
  206.6651  136.7891  137.9929 C   0  0  0  0  0  0  0  0  0  0  0  0
  206.6991  136.3050  136.6240 N   0  0  0  0  0  0  0  0  0  0  0  0
  206.7752  137.0139  135.4028 C   0  0  0  0  0  0  0  0  0  0  0  0
  207.2479  138.1769  135.4057 O   0  0  0  0  0  0  0  0  0  0  0  0
  206.2847  136.3336  134.1669 C   0  0  2  0  0  0  0  0  0  0  0  0
  204.7834  136.5239  134.1228 C   0  0  0  0  0  0  0  0  0  0  0  0
  204.2361  136.2785  132.7728 C   0  0  0  0  0  0  0  0  0  0  0  0
  204.5389  137.1567  131.7636 C   0  0  0  0  0  0  0  0  0  0  0  0
  204.0607  136.9848  130.4833 C   0  0  0  0  0  0  0  0  0  0  0  0
  203.2639  135.9109  130.2130 C   0  0  0  0  0  0  0  0  0  0  0  0
  202.9384  134.9992  131.2211 C   0  0  0  0  0  0  0  0  0  0  0  0
  203.4336  135.1982  132.4969 C   0  0  0  0  0  0  0  0  0  0  0  0
  206.6569  134.9487  134.2578 N   0  0  0  0  0  0  0  0  0  0  0  0
  207.3231  134.0443  133.3624 C   0  0  0  0  0  0  0  0  0  0  0  0
  207.4251  134.1789  132.1077 O   0  0  0  0  0  0  0  0  0  0  0  0
  207.8364  132.9631  134.2432 C   0  0  2  0  0  0  0  0  0  0  0  0
  209.2273  133.3759  134.6796 C   0  0  0  0  0  0  0  0  0  0  0  0
  207.8343  131.6699  133.5983 N   0  0  0  0  0  0  0  0  0  0  0  0
  206.7280  131.1108  132.9449 C   0  0  0  0  0  0  0  0  0  0  0  0
  206.5851  131.3490  131.7180 O   0  0  0  0  0  0  0  0  0  0  0  0
  205.7150  130.2553  133.6113 C   0  0  1  0  0  0  0  0  0  0  0  0
  204.3037  130.6465  133.3098 C   0  0  0  0  0  0  0  0  0  0  0  0
  203.8585  130.2800  132.0091 N   0  0  0  0  0  0  0  0  0  0  0  0
  202.3901  130.2280  132.0494 C   0  0  0  0  0  0  0  0  0  0  0  0
  204.4127  129.0250  131.5202 C   0  0  2  0  0  0  0  0  0  0  0  0
  203.5420  128.4326  130.4735 C   0  0  0  0  0  0  0  0  0  0  0  0
  203.9335  127.0436  130.1646 C   0  0  0  0  0  0  0  0  0  0  0  0
  203.7529  126.1494  129.1021 C   0  0  0  0  0  0  0  0  0  0  0  0
  204.3566  124.9757  129.4180 N   0  0  0  0  0  0  0  0  0  0  0  0
  204.9302  125.0391  130.6336 C   0  0  0  0  0  0  0  0  0  0  0  0
  205.6521  124.1944  131.4494 C   0  0  0  0  0  0  0  0  0  0  0  0
  206.0830  124.6382  132.6731 C   0  0  0  0  0  0  0  0  0  0  0  0
  205.8032  125.9430  133.1159 C   0  0  0  0  0  0  0  0  0  0  0  0
  205.0823  126.7690  132.2871 C   0  0  0  0  0  0  0  0  0  0  0  0
  204.6564  126.3289  131.0782 C   0  0  0  0  0  0  0  0  0  0  0  0
  204.7623  128.1670  132.6833 C   0  0  1  0  0  0  0  0  0  0  0  0
  205.9860  128.8015  133.3649 C   0  0  0  0  0  0  0  0  0  0  0  0
  207.0229  132.9828  135.3397 O   0  0  0  0  0  0  0  0  0  0  0  0
  206.3694  134.1798  135.4229 C   0  0  1  0  0  0  0  0  0  0  0  0
  204.9843  133.8916  135.3949 O   0  0  0  0  0  0  0  0  0  0  0  0
  1  2  1  1
  2  3  1  0
  3  4  1  0
  4  5  1  0
  5  6  1  0
  6  7  2  0
  6  8  1  0
  8  9  1  1
  9 10  1  0
 10 11  2  0
 11 12  1  0
 12 13  2  0
 13 14  1  0
 14 15  2  0
  8 16  1  0
 16 17  1  0
 17 18  2  0
 17 19  1  0
 19 20  1  1
 19 21  1  0
 21 22  1  0
 22 23  2  0
 24 22  1  6
 24 25  1  0
 25 26  1  0
 26 27  1  0
 26 28  1  0
 28 29  1  6
 29 30  1  0
 30 31  2  0
 31 32  1  0
 32 33  1  0
 33 34  2  0
 34 35  1  0
 35 36  2  0
 36 37  1  0
 37 38  2  0
 37 39  1  0
 39 40  1  6
 19 41  1  0
 41 42  1  0
 42 43  1  1
  5  1  1  0
 15 10  1  0
 42 16  1  0
 42  1  1  0
 40 24  1  0
 39 28  1  0
 38 30  1  0
 38 33  1  0
M  END
$$$$
