
     RDKit          3D

 43 50  0  0  0  0  0  0  0  0999 V2000
  186.1783  161.8490  133.6578 C   0  0  2  0  0  0  0  0  0  0  0  0
  185.3625  163.1307  133.4464 C   0  0  0  0  0  0  0  0  0  0  0  0
  185.7437  163.4977  132.0322 C   0  0  0  0  0  0  0  0  0  0  0  0
  186.2833  162.2258  131.3898 C   0  0  0  0  0  0  0  0  0  0  0  0
  186.0114  161.2027  132.3841 N   0  0  0  0  0  0  0  0  0  0  0  0
  185.6539  159.8436  132.2266 C   0  0  0  0  0  0  0  0  0  0  0  0
  185.9433  159.2615  131.1527 O   0  0  0  0  0  0  0  0  0  0  0  0
  184.9459  159.1707  133.3565 C   0  0  2  0  0  0  0  0  0  0  0  0
  183.4776  159.5171  133.2280 C   0  0  0  0  0  0  0  0  0  0  0  0
  182.6106  158.3534  133.5048 C   0  0  0  0  0  0  0  0  0  0  0  0
  182.6069  157.8128  134.7655 C   0  0  0  0  0  0  0  0  0  0  0  0
  181.8216  156.7281  135.0883 C   0  0  0  0  0  0  0  0  0  0  0  0
  181.0260  156.1773  134.1266 C   0  0  0  0  0  0  0  0  0  0  0  0
  181.0088  156.7067  132.8332 C   0  0  0  0  0  0  0  0  0  0  0  0
  181.8082  157.7962  132.5390 C   0  0  0  0  0  0  0  0  0  0  0  0
  185.5174  159.6618  134.5800 N   0  0  0  0  0  0  0  0  0  0  0  0
  186.0345  159.0194  135.7562 C   0  0  0  0  0  0  0  0  0  0  0  0
  185.7724  157.8408  136.1371 O   0  0  0  0  0  0  0  0  0  0  0  0
  186.9127  160.0426  136.3806 C   0  0  2  0  0  0  0  0  0  0  0  0
  188.2985  159.8443  135.8011 C   0  0  0  0  0  0  0  0  0  0  0  0
  186.9153  159.9699  137.8238 N   0  0  0  0  0  0  0  0  0  0  0  0
  185.8484  160.3676  138.6404 C   0  0  0  0  0  0  0  0  0  0  0  0
  186.1118  161.0477  139.6655 O   0  0  0  0  0  0  0  0  0  0  0  0
  184.4274  160.0359  138.3704 C   0  0  1  0  0  0  0  0  0  0  0  0
  184.0890  158.5987  138.6061 C   0  0  0  0  0  0  0  0  0  0  0  0
  183.9843  158.2382  139.9785 N   0  0  0  0  0  0  0  0  0  0  0  0
  183.1571  157.0252  140.0488 C   0  0  0  0  0  0  0  0  0  0  0  0
  183.4457  159.2883  140.8320 C   0  0  2  0  0  0  0  0  0  0  0  0
  182.8575  158.7164  142.0697 C   0  0  0  0  0  0  0  0  0  0  0  0
  182.0699  159.7212  142.8101 C   0  0  0  0  0  0  0  0  0  0  0  0
  181.6127  159.8873  144.1234 C   0  0  0  0  0  0  0  0  0  0  0  0
  180.9055  161.0436  144.1913 N   0  0  0  0  0  0  0  0  0  0  0  0
  180.8666  161.6574  142.9945 C   0  0  0  0  0  0  0  0  0  0  0  0
  180.3198  162.8108  142.4739 C   0  0  0  0  0  0  0  0  0  0  0  0
  180.5025  163.1093  141.1482 C   0  0  0  0  0  0  0  0  0  0  0  0
  181.2395  162.2602  140.3041 C   0  0  0  0  0  0  0  0  0  0  0  0
  181.7764  161.1156  140.8431 C   0  0  0  0  0  0  0  0  0  0  0  0
  181.5945  160.8214  142.1534 C   0  0  0  0  0  0  0  0  0  0  0  0
  182.5807  160.1784  140.0132 C   0  0  1  0  0  0  0  0  0  0  0  0
  183.5053  160.9799  139.0818 C   0  0  0  0  0  0  0  0  0  0  0  0
  186.4329  161.2411  135.9355 O   0  0  0  0  0  0  0  0  0  0  0  0
  185.6667  161.0589  134.8189 C   0  0  1  0  0  0  0  0  0  0  0  0
  184.3800  161.5653  135.1196 O   0  0  0  0  0  0  0  0  0  0  0  0
  1  2  1  6
  2  3  1  0
  3  4  1  0
  4  5  1  0
  5  6  1  0
  6  7  2  0
  6  8  1  0
  8  9  1  1
  9 10  1  0
 10 11  2  0
 11 12  1  0
 12 13  2  0
 13 14  1  0
 14 15  2  0
  8 16  1  0
 16 17  1  0
 17 18  2  0
 17 19  1  0
 19 20  1  6
 19 21  1  0
 21 22  1  0
 22 23  2  0
 24 22  1  1
 24 25  1  0
 25 26  1  0
 26 27  1  0
 26 28  1  0
 28 29  1  1
 29 30  1  0
 30 31  2  0
 31 32  1  0
 32 33  1  0
 33 34  2  0
 34 35  1  0
 35 36  2  0
 36 37  1  0
 37 38  2  0
 37 39  1  0
 39 40  1  6
 19 41  1  0
 41 42  1  0
 42 43  1  1
  5  1  1  0
 15 10  1  0
 42 16  1  0
 42  1  1  0
 40 24  1  0
 39 28  1  0
 38 30  1  0
 38 33  1  0
M  END
$$$$
