
     RDKit          3D

 43 50  0  0  0  0  0  0  0  0999 V2000
  127.9546  144.8938  135.4542 C   0  0  2  0  0  0  0  0  0  0  0  0
  126.5277  144.6573  135.9651 C   0  0  0  0  0  0  0  0  0  0  0  0
  126.2178  145.9861  136.6117 C   0  0  0  0  0  0  0  0  0  0  0  0
  127.1921  146.9924  136.0120 C   0  0  0  0  0  0  0  0  0  0  0  0
  127.8506  146.2398  134.9589 N   0  0  0  0  0  0  0  0  0  0  0  0
  128.3211  146.6558  133.6919 C   0  0  0  0  0  0  0  0  0  0  0  0
  128.5847  147.8699  133.5122 O   0  0  0  0  0  0  0  0  0  0  0  0
  128.4794  145.6185  132.6290 C   0  0  2  0  0  0  0  0  0  0  0  0
  127.1174  145.4186  131.9988 C   0  0  0  0  0  0  0  0  0  0  0  0
  126.6729  146.6157  131.2559 C   0  0  0  0  0  0  0  0  0  0  0  0
  127.2621  146.9069  130.0519 C   0  0  0  0  0  0  0  0  0  0  0  0
  126.8932  148.0075  129.3102 C   0  0  0  0  0  0  0  0  0  0  0  0
  125.9148  148.8297  129.7875 C   0  0  0  0  0  0  0  0  0  0  0  0
  125.2964  148.5583  131.0112 C   0  0  0  0  0  0  0  0  0  0  0  0
  125.6880  147.4458  131.7334 C   0  0  0  0  0  0  0  0  0  0  0  0
  128.9700  144.4239  133.2590 N   0  0  0  0  0  0  0  0  0  0  0  0
  130.0629  143.5356  132.9761 C   0  0  0  0  0  0  0  0  0  0  0  0
  130.6501  143.4088  131.8617 O   0  0  0  0  0  0  0  0  0  0  0  0
  130.3150  142.8378  134.2637 C   0  0  2  0  0  0  0  0  0  0  0  0
  131.3330  143.6667  135.0200 C   0  0  0  0  0  0  0  0  0  0  0  0
  130.7567  141.4739  134.0819 N   0  0  0  0  0  0  0  0  0  0  0  0
  130.5329  140.7147  132.9257 C   0  0  0  0  0  0  0  0  0  0  0  0
  129.5066  139.9882  132.8866 O   0  0  0  0  0  0  0  0  0  0  0  0
  131.4319  140.7150  131.7451 C   0  0  1  0  0  0  0  0  0  0  0  0
  132.7793  140.1250  132.0137 C   0  0  0  0  0  0  0  0  0  0  0  0
  132.7897  138.7053  132.1079 N   0  0  0  0  0  0  0  0  0  0  0  0
  134.1635  138.2602  131.8335 C   0  0  0  0  0  0  0  0  0  0  0  0
  131.8394  138.0417  131.2261 C   0  0  2  0  0  0  0  0  0  0  0  0
  132.2545  136.6418  130.9562 C   0  0  0  0  0  0  0  0  0  0  0  0
  131.4670  136.0444  129.8602 C   0  0  0  0  0  0  0  0  0  0  0  0
  131.1561  134.7519  129.4198 C   0  0  0  0  0  0  0  0  0  0  0  0
  130.3750  134.8485  128.3143 N   0  0  0  0  0  0  0  0  0  0  0  0
  130.1482  136.1356  127.9938 C   0  0  0  0  0  0  0  0  0  0  0  0
  129.4593  136.8215  127.0163 C   0  0  0  0  0  0  0  0  0  0  0  0
  129.4628  138.1927  127.0200 C   0  0  0  0  0  0  0  0  0  0  0  0
  130.1570  138.9178  128.0042 C   0  0  0  0  0  0  0  0  0  0  0  0
  130.8371  138.2147  128.9697 C   0  0  0  0  0  0  0  0  0  0  0  0
  130.8334  136.8596  128.9646 C   0  0  0  0  0  0  0  0  0  0  0  0
  131.5809  138.9155  130.0511 C   0  0  1  0  0  0  0  0  0  0  0  0
  130.7566  140.1146  130.5489 C   0  0  0  0  0  0  0  0  0  0  0  0
  129.1296  142.8999  134.9387 O   0  0  0  0  0  0  0  0  0  0  0  0
  128.3402  143.8867  134.4192 C   0  0  1  0  0  0  0  0  0  0  0  0
  127.1428  143.2676  133.9888 O   0  0  0  0  0  0  0  0  0  0  0  0
  1  2  1  6
  2  3  1  0
  3  4  1  0
  4  5  1  0
  5  6  1  0
  6  7  2  0
  6  8  1  0
  8  9  1  1
  9 10  1  0
 10 11  2  0
 11 12  1  0
 12 13  2  0
 13 14  1  0
 14 15  2  0
  8 16  1  0
 16 17  1  0
 17 18  2  0
 17 19  1  0
 19 20  1  1
 19 21  1  0
 21 22  1  0
 22 23  2  0
 24 22  1  1
 24 25  1  0
 25 26  1  0
 26 27  1  0
 26 28  1  0
 28 29  1  6
 29 30  1  0
 30 31  2  0
 31 32  1  0
 32 33  1  0
 33 34  2  0
 34 35  1  0
 35 36  2  0
 36 37  1  0
 37 38  2  0
 37 39  1  0
 39 40  1  1
 19 41  1  0
 41 42  1  0
 42 43  1  6
  5  1  1  0
 15 10  1  0
 42 16  1  0
 42  1  1  0
 40 24  1  0
 39 28  1  0
 38 30  1  0
 38 33  1  0
M  END
$$$$
