
     RDKit          3D

 43 50  0  0  0  0  0  0  0  0999 V2000
  165.9426  152.6204  125.8924 C   0  0  2  0  0  0  0  0  0  0  0  0
  167.1089  153.4991  125.4229 C   0  0  0  0  0  0  0  0  0  0  0  0
  166.5314  154.8827  125.6019 C   0  0  0  0  0  0  0  0  0  0  0  0
  165.3747  154.7409  126.5835 C   0  0  0  0  0  0  0  0  0  0  0  0
  165.4789  153.3637  127.0327 N   0  0  0  0  0  0  0  0  0  0  0  0
  165.2057  152.7884  128.2952 C   0  0  0  0  0  0  0  0  0  0  0  0
  164.4238  153.3840  129.0761 O   0  0  0  0  0  0  0  0  0  0  0  0
  165.8684  151.4929  128.6322 C   0  0  2  0  0  0  0  0  0  0  0  0
  167.2549  151.8242  129.1421 C   0  0  0  0  0  0  0  0  0  0  0  0
  167.2091  152.6158  130.3886 C   0  0  0  0  0  0  0  0  0  0  0  0
  167.8576  153.8237  130.4326 C   0  0  0  0  0  0  0  0  0  0  0  0
  167.8533  154.6096  131.5639 C   0  0  0  0  0  0  0  0  0  0  0  0
  167.1851  154.1733  132.6704 C   0  0  0  0  0  0  0  0  0  0  0  0
  166.5151  152.9467  132.6552 C   0  0  0  0  0  0  0  0  0  0  0  0
  166.5373  152.1797  131.5047 C   0  0  0  0  0  0  0  0  0  0  0  0
  165.9024  150.6993  127.4348 N   0  0  0  0  0  0  0  0  0  0  0  0
  165.5188  149.3480  127.1344 C   0  0  0  0  0  0  0  0  0  0  0  0
  165.3829  148.4087  127.9723 O   0  0  0  0  0  0  0  0  0  0  0  0
  165.3316  149.3357  125.6602 C   0  0  2  0  0  0  0  0  0  0  0  0
  163.8808  149.6854  125.3992 C   0  0  0  0  0  0  0  0  0  0  0  0
  165.6989  148.0727  125.0617 N   0  0  0  0  0  0  0  0  0  0  0  0
  166.8836  147.3778  125.3390 C   0  0  0  0  0  0  0  0  0  0  0  0
  166.8976  146.1349  125.1451 O   0  0  0  0  0  0  0  0  0  0  0  0
  168.1222  148.0178  125.8474 C   0  0  1  0  0  0  0  0  0  0  0  0
  168.6901  147.3525  127.0600 C   0  0  0  0  0  0  0  0  0  0  0  0
  169.3519  146.1206  126.7974 N   0  0  0  0  0  0  0  0  0  0  0  0
  170.2787  145.8773  127.9120 C   0  0  0  0  0  0  0  0  0  0  0  0
  170.0489  146.0782  125.5193 C   0  0  2  0  0  0  0  0  0  0  0  0
  171.1273  145.0576  125.5368 C   0  0  0  0  0  0  0  0  0  0  0  0
  172.0148  145.1864  124.3647 C   0  0  0  0  0  0  0  0  0  0  0  0
  172.9159  144.3637  123.6772 C   0  0  0  0  0  0  0  0  0  0  0  0
  173.4553  145.0742  122.6545 N   0  0  0  0  0  0  0  0  0  0  0  0
  172.9627  146.3259  122.6228 C   0  0  0  0  0  0  0  0  0  0  0  0
  173.1309  147.4528  121.8467 C   0  0  0  0  0  0  0  0  0  0  0  0
  172.4226  148.5896  122.1398 C   0  0  0  0  0  0  0  0  0  0  0  0
  171.5237  148.6310  123.2200 C   0  0  0  0  0  0  0  0  0  0  0  0
  171.3707  147.4967  123.9809 C   0  0  0  0  0  0  0  0  0  0  0  0
  172.0718  146.3740  123.6906 C   0  0  0  0  0  0  0  0  0  0  0  0
  170.4258  147.4629  125.1298 C   0  0  1  0  0  0  0  0  0  0  0  0
  169.1291  148.1976  124.7513 C   0  0  0  0  0  0  0  0  0  0  0  0
  166.1064  150.3598  125.1959 O   0  0  0  0  0  0  0  0  0  0  0  0
  166.3953  151.2312  126.2078 C   0  0  1  0  0  0  0  0  0  0  0  0
  167.8055  151.2782  126.3161 O   0  0  0  0  0  0  0  0  0  0  0  0
  1  2  1  1
  2  3  1  0
  3  4  1  0
  4  5  1  0
  5  6  1  0
  6  7  2  0
  6  8  1  0
  8  9  1  6
  9 10  1  0
 10 11  2  0
 11 12  1  0
 12 13  2  0
 13 14  1  0
 14 15  2  0
  8 16  1  0
 16 17  1  0
 17 18  2  0
 17 19  1  0
 19 20  1  1
 19 21  1  0
 21 22  1  0
 22 23  2  0
 24 22  1  6
 24 25  1  0
 25 26  1  0
 26 27  1  0
 26 28  1  0
 28 29  1  1
 29 30  1  0
 30 31  2  0
 31 32  1  0
 32 33  1  0
 33 34  2  0
 34 35  1  0
 35 36  2  0
 36 37  1  0
 37 38  2  0
 37 39  1  0
 39 40  1  6
 19 41  1  0
 41 42  1  0
 42 43  1  1
  5  1  1  0
 15 10  1  0
 42 16  1  0
 42  1  1  0
 40 24  1  0
 39 28  1  0
 38 30  1  0
 38 33  1  0
M  END
$$$$
