
     RDKit          3D

 43 50  0  0  0  0  0  0  0  0999 V2000
  128.7519  142.2391  131.8048 C   0  0  2  0  0  0  0  0  0  0  0  0
  127.3377  141.6787  131.6073 C   0  0  0  0  0  0  0  0  0  0  0  0
  127.6185  140.4394  130.7918 C   0  0  0  0  0  0  0  0  0  0  0  0
  129.0883  140.1043  131.0132 C   0  0  0  0  0  0  0  0  0  0  0  0
  129.4942  141.0328  132.0536 N   0  0  0  0  0  0  0  0  0  0  0  0
  130.4110  140.8727  133.1183 C   0  0  0  0  0  0  0  0  0  0  0  0
  131.3054  139.9972  133.0212 O   0  0  0  0  0  0  0  0  0  0  0  0
  130.2627  141.7618  134.3092 C   0  0  2  0  0  0  0  0  0  0  0  0
  129.2049  141.1407  135.1966 C   0  0  0  0  0  0  0  0  0  0  0  0
  129.7794  140.1461  136.1257 C   0  0  0  0  0  0  0  0  0  0  0  0
  130.5619  140.5820  137.1646 C   0  0  0  0  0  0  0  0  0  0  0  0
  131.1269  139.7064  138.0654 C   0  0  0  0  0  0  0  0  0  0  0  0
  130.9012  138.3689  137.9190 C   0  0  0  0  0  0  0  0  0  0  0  0
  130.1082  137.8953  136.8701 C   0  0  0  0  0  0  0  0  0  0  0  0
  129.5543  138.7987  135.9815 C   0  0  0  0  0  0  0  0  0  0  0  0
  129.8811  143.0629  133.8338 N   0  0  0  0  0  0  0  0  0  0  0  0
  130.3782  144.3885  134.0776 C   0  0  0  0  0  0  0  0  0  0  0  0
  131.0684  144.7533  135.0743 O   0  0  0  0  0  0  0  0  0  0  0  0
  129.8981  145.1827  132.9171 C   0  0  2  0  0  0  0  0  0  0  0  0
  130.9728  145.0980  131.8526 C   0  0  0  0  0  0  0  0  0  0  0  0
  129.5905  146.5508  133.2663 N   0  0  0  0  0  0  0  0  0  0  0  0
  128.8936  146.9383  134.4185 C   0  0  0  0  0  0  0  0  0  0  0  0
  129.4820  147.6880  135.2396 O   0  0  0  0  0  0  0  0  0  0  0  0
  127.5046  146.5185  134.7295 C   0  0  1  0  0  0  0  0  0  0  0  0
  127.2687  146.2445  136.1803 C   0  0  0  0  0  0  0  0  0  0  0  0
  127.1709  147.4109  136.9892 N   0  0  0  0  0  0  0  0  0  0  0  0
  126.4335  147.0380  138.2048 C   0  0  0  0  0  0  0  0  0  0  0  0
  126.5448  148.5464  136.3259 C   0  0  2  0  0  0  0  0  0  0  0  0
  125.9821  149.4966  137.3185 C   0  0  0  0  0  0  0  0  0  0  0  0
  125.1128  150.5010  136.6755 C   0  0  0  0  0  0  0  0  0  0  0  0
  124.6258  151.7752  136.9923 C   0  0  0  0  0  0  0  0  0  0  0  0
  123.8352  152.2006  135.9746 N   0  0  0  0  0  0  0  0  0  0  0  0
  123.7688  151.2790  134.9964 C   0  0  0  0  0  0  0  0  0  0  0  0
  123.1468  151.1558  133.7723 C   0  0  0  0  0  0  0  0  0  0  0  0
  123.3263  150.0154  133.0325 C   0  0  0  0  0  0  0  0  0  0  0  0
  124.1354  148.9639  133.4976 C   0  0  0  0  0  0  0  0  0  0  0  0
  124.7466  149.1071  134.7202 C   0  0  0  0  0  0  0  0  0  0  0  0
  124.5678  150.2343  135.4508 C   0  0  0  0  0  0  0  0  0  0  0  0
  125.6290  148.0419  135.2686 C   0  0  1  0  0  0  0  0  0  0  0  0
  126.5060  147.4699  134.1423 C   0  0  0  0  0  0  0  0  0  0  0  0
  128.7960  144.5165  132.4631 O   0  0  0  0  0  0  0  0  0  0  0  0
  128.7977  143.2299  132.9229 C   0  0  1  0  0  0  0  0  0  0  0  0
  127.6052  143.0600  133.6654 O   0  0  0  0  0  0  0  0  0  0  0  0
  1  2  1  1
  2  3  1  0
  3  4  1  0
  4  5  1  0
  5  6  1  0
  6  7  2  0
  6  8  1  0
  8  9  1  1
  9 10  1  0
 10 11  2  0
 11 12  1  0
 12 13  2  0
 13 14  1  0
 14 15  2  0
  8 16  1  0
 16 17  1  0
 17 18  2  0
 17 19  1  0
 19 20  1  6
 19 21  1  0
 21 22  1  0
 22 23  2  0
 24 22  1  1
 24 25  1  0
 25 26  1  0
 26 27  1  0
 26 28  1  0
 28 29  1  1
 29 30  1  0
 30 31  2  0
 31 32  1  0
 32 33  1  0
 33 34  2  0
 34 35  1  0
 35 36  2  0
 36 37  1  0
 37 38  2  0
 37 39  1  0
 39 40  1  6
 19 41  1  0
 41 42  1  0
 42 43  1  1
  5  1  1  0
 15 10  1  0
 42 16  1  0
 42  1  1  0
 40 24  1  0
 39 28  1  0
 38 30  1  0
 38 33  1  0
M  END
$$$$
