
     RDKit          3D

 43 50  0  0  0  0  0  0  0  0999 V2000
  162.5206  148.3874  124.7361 C   0  0  2  0  0  0  0  0  0  0  0  0
  162.5294  149.9198  124.8045 C   0  0  0  0  0  0  0  0  0  0  0  0
  161.1543  150.2504  124.2758 C   0  0  0  0  0  0  0  0  0  0  0  0
  160.3190  148.9858  124.4328 C   0  0  0  0  0  0  0  0  0  0  0  0
  161.1863  148.0989  125.1882 N   0  0  0  0  0  0  0  0  0  0  0  0
  160.8753  147.1321  126.1721 C   0  0  0  0  0  0  0  0  0  0  0  0
  159.7187  146.6448  126.1986 O   0  0  0  0  0  0  0  0  0  0  0  0
  161.9496  146.7412  127.1334 C   0  0  2  0  0  0  0  0  0  0  0  0
  161.9591  147.7811  128.2337 C   0  0  0  0  0  0  0  0  0  0  0  0
  161.4653  147.2334  129.5138 C   0  0  0  0  0  0  0  0  0  0  0  0
  162.1005  146.1478  130.0609 C   0  0  0  0  0  0  0  0  0  0  0  0
  161.6897  145.5897  131.2514 C   0  0  0  0  0  0  0  0  0  0  0  0
  160.6214  146.1328  131.9033 C   0  0  0  0  0  0  0  0  0  0  0  0
  159.9544  147.2392  131.3700 C   0  0  0  0  0  0  0  0  0  0  0  0
  160.3899  147.7777  130.1730 C   0  0  0  0  0  0  0  0  0  0  0  0
  163.1887  146.7041  126.4068 N   0  0  0  0  0  0  0  0  0  0  0  0
  164.2365  145.7284  126.2904 C   0  0  0  0  0  0  0  0  0  0  0  0
  164.4759  144.7917  127.1078 O   0  0  0  0  0  0  0  0  0  0  0  0
  164.9333  146.0829  125.0266 C   0  0  2  0  0  0  0  0  0  0  0  0
  164.2477  145.3128  123.9166 C   0  0  0  0  0  0  0  0  0  0  0  0
  166.3517  145.8112  125.0764 N   0  0  0  0  0  0  0  0  0  0  0  0
  167.2679  146.5179  125.8666 C   0  0  0  0  0  0  0  0  0  0  0  0
  167.3695  146.1997  127.0794 O   0  0  0  0  0  0  0  0  0  0  0  0
  168.1253  147.6184  125.3607 C   0  0  1  0  0  0  0  0  0  0  0  0
  167.3702  148.8639  125.0230 C   0  0  0  0  0  0  0  0  0  0  0  0
  166.9486  149.6188  126.1530 N   0  0  0  0  0  0  0  0  0  0  0  0
  166.7270  150.9987  125.6974 C   0  0  0  0  0  0  0  0  0  0  0  0
  167.8761  149.5816  127.2753 C   0  0  2  0  0  0  0  0  0  0  0  0
  167.6889  150.7613  128.1575 C   0  0  0  0  0  0  0  0  0  0  0  0
  168.7874  150.8871  129.1350 C   0  0  0  0  0  0  0  0  0  0  0  0
  168.9821  151.5206  130.3688 C   0  0  0  0  0  0  0  0  0  0  0  0
  170.2494  151.2730  130.7861 N   0  0  0  0  0  0  0  0  0  0  0  0
  170.9102  150.5085  129.8975 C   0  0  0  0  0  0  0  0  0  0  0  0
  172.1702  149.9608  129.7839 C   0  0  0  0  0  0  0  0  0  0  0  0
  172.4852  149.2081  128.6820 C   0  0  0  0  0  0  0  0  0  0  0  0
  171.5462  148.9815  127.6605 C   0  0  0  0  0  0  0  0  0  0  0  0
  170.2959  149.5364  127.7934 C   0  0  0  0  0  0  0  0  0  0  0  0
  169.9860  150.2807  128.8826 C   0  0  0  0  0  0  0  0  0  0  0  0
  169.2470  149.3259  126.7593 C   0  0  1  0  0  0  0  0  0  0  0  0
  169.2861  147.8664  126.2764 C   0  0  0  0  0  0  0  0  0  0  0  0
  164.6791  147.4119  124.8424 O   0  0  0  0  0  0  0  0  0  0  0  0
  163.5982  147.7946  125.5854 C   0  0  1  0  0  0  0  0  0  0  0  0
  164.0419  148.8203  126.4534 O   0  0  0  0  0  0  0  0  0  0  0  0
  1  2  1  1
  2  3  1  0
  3  4  1  0
  4  5  1  0
  5  6  1  0
  6  7  2  0
  6  8  1  0
  8  9  1  1
  9 10  1  0
 10 11  2  0
 11 12  1  0
 12 13  2  0
 13 14  1  0
 14 15  2  0
  8 16  1  0
 16 17  1  0
 17 18  2  0
 17 19  1  0
 19 20  1  6
 19 21  1  0
 21 22  1  0
 22 23  2  0
 24 22  1  1
 24 25  1  0
 25 26  1  0
 26 27  1  0
 26 28  1  0
 28 29  1  6
 29 30  1  0
 30 31  2  0
 31 32  1  0
 32 33  1  0
 33 34  2  0
 34 35  1  0
 35 36  2  0
 36 37  1  0
 37 38  2  0
 37 39  1  0
 39 40  1  1
 19 41  1  0
 41 42  1  0
 42 43  1  1
  5  1  1  0
 15 10  1  0
 42 16  1  0
 42  1  1  0
 40 24  1  0
 39 28  1  0
 38 30  1  0
 38 33  1  0
M  END
$$$$
