
     RDKit          3D

 43 50  0  0  0  0  0  0  0  0999 V2000
  125.7911  149.8360  135.1737 C   0  0  2  0  0  0  0  0  0  0  0  0
  124.9692  149.9899  133.8877 C   0  0  0  0  0  0  0  0  0  0  0  0
  124.4437  151.3976  134.0358 C   0  0  0  0  0  0  0  0  0  0  0  0
  125.3539  152.0917  135.0415 C   0  0  0  0  0  0  0  0  0  0  0  0
  126.4184  151.1273  135.2563 N   0  0  0  0  0  0  0  0  0  0  0  0
  127.7974  151.3236  135.5004 C   0  0  0  0  0  0  0  0  0  0  0  0
  128.1784  152.4213  135.9756 O   0  0  0  0  0  0  0  0  0  0  0  0
  128.7318  150.2043  135.1765 C   0  0  2  0  0  0  0  0  0  0  0  0
  129.0349  150.2948  133.6959 C   0  0  0  0  0  0  0  0  0  0  0  0
  129.8627  151.4754  133.3741 C   0  0  0  0  0  0  0  0  0  0  0  0
  129.3629  152.4236  132.5182 C   0  0  0  0  0  0  0  0  0  0  0  0
  130.0839  153.5469  132.1778 C   0  0  0  0  0  0  0  0  0  0  0  0
  131.3293  153.7197  132.7072 C   0  0  0  0  0  0  0  0  0  0  0  0
  131.8647  152.7703  133.5820 C   0  0  0  0  0  0  0  0  0  0  0  0
  131.1171  151.6527  133.9053 C   0  0  0  0  0  0  0  0  0  0  0  0
  128.0731  148.9755  135.5246 N   0  0  0  0  0  0  0  0  0  0  0  0
  128.4637  147.8308  136.2996 C   0  0  0  0  0  0  0  0  0  0  0  0
  129.6510  147.4847  136.5704 O   0  0  0  0  0  0  0  0  0  0  0  0
  127.1797  147.1884  136.6832 C   0  0  2  0  0  0  0  0  0  0  0  0
  126.7613  147.7989  138.0052 C   0  0  0  0  0  0  0  0  0  0  0  0
  127.2773  145.7487  136.7599 N   0  0  0  0  0  0  0  0  0  0  0  0
  128.0818  144.9622  135.9248 C   0  0  0  0  0  0  0  0  0  0  0  0
  129.1693  144.5316  136.3882 O   0  0  0  0  0  0  0  0  0  0  0  0
  127.7301  144.6062  134.5278 C   0  0  1  0  0  0  0  0  0  0  0  0
  128.7631  145.0095  133.5249 C   0  0  0  0  0  0  0  0  0  0  0  0
  129.9240  144.1870  133.5154 N   0  0  0  0  0  0  0  0  0  0  0  0
  130.5594  144.3447  132.1993 C   0  0  0  0  0  0  0  0  0  0  0  0
  129.6635  142.7836  133.8051 C   0  0  2  0  0  0  0  0  0  0  0  0
  130.7410  141.9202  133.2589 C   0  0  0  0  0  0  0  0  0  0  0  0
  130.3649  140.4936  133.2978 C   0  0  0  0  0  0  0  0  0  0  0  0
  131.0361  139.2648  133.2702 C   0  0  0  0  0  0  0  0  0  0  0  0
  130.1159  138.2689  133.3241 N   0  0  0  0  0  0  0  0  0  0  0  0
  128.8675  138.7671  133.3863 C   0  0  0  0  0  0  0  0  0  0  0  0
  127.5863  138.2627  133.4546 C   0  0  0  0  0  0  0  0  0  0  0  0
  126.5205  139.1239  133.5040 C   0  0  0  0  0  0  0  0  0  0  0  0
  126.7070  140.5172  133.4869 C   0  0  0  0  0  0  0  0  0  0  0  0
  127.9923  140.9993  133.4188 C   0  0  0  0  0  0  0  0  0  0  0  0
  129.0448  140.1471  133.3692 C   0  0  0  0  0  0  0  0  0  0  0  0
  128.2659  142.4618  133.4123 C   0  0  1  0  0  0  0  0  0  0  0  0
  127.3379  143.1634  134.4180 C   0  0  0  0  0  0  0  0  0  0  0  0
  126.2862  147.5847  135.7297 O   0  0  0  0  0  0  0  0  0  0  0  0
  126.7494  148.6929  135.0782 C   0  0  1  0  0  0  0  0  0  0  0  0
  126.8406  148.3525  133.7078 O   0  0  0  0  0  0  0  0  0  0  0  0
  1  2  1  6
  2  3  1  0
  3  4  1  0
  4  5  1  0
  5  6  1  0
  6  7  2  0
  6  8  1  0
  8  9  1  6
  9 10  1  0
 10 11  2  0
 11 12  1  0
 12 13  2  0
 13 14  1  0
 14 15  2  0
  8 16  1  0
 16 17  1  0
 17 18  2  0
 17 19  1  0
 19 20  1  1
 19 21  1  0
 21 22  1  0
 22 23  2  0
 24 22  1  1
 24 25  1  0
 25 26  1  0
 26 27  1  0
 26 28  1  0
 28 29  1  6
 29 30  1  0
 30 31  2  0
 31 32  1  0
 32 33  1  0
 33 34  2  0
 34 35  1  0
 35 36  2  0
 36 37  1  0
 37 38  2  0
 37 39  1  0
 39 40  1  1
 19 41  1  0
 41 42  1  0
 42 43  1  6
  5  1  1  0
 15 10  1  0
 42 16  1  0
 42  1  1  0
 40 24  1  0
 39 28  1  0
 38 30  1  0
 38 33  1  0
M  END
$$$$
