
     RDKit          3D

 43 50  0  0  0  0  0  0  0  0999 V2000
  126.2643  148.2501  134.7196 C   0  0  2  0  0  0  0  0  0  0  0  0
  125.1715  148.9779  133.9265 C   0  0  0  0  0  0  0  0  0  0  0  0
  124.4783  149.7569  135.0184 C   0  0  0  0  0  0  0  0  0  0  0  0
  125.4646  149.8420  136.1768 C   0  0  0  0  0  0  0  0  0  0  0  0
  126.6867  149.2868  135.6222 N   0  0  0  0  0  0  0  0  0  0  0  0
  128.0384  149.6279  135.8594 C   0  0  0  0  0  0  0  0  0  0  0  0
  128.3377  150.2082  136.9316 O   0  0  0  0  0  0  0  0  0  0  0  0
  129.0433  149.2756  134.8120 C   0  0  2  0  0  0  0  0  0  0  0  0
  129.0032  150.3754  133.7723 C   0  0  0  0  0  0  0  0  0  0  0  0
  130.1558  151.2914  133.8943 C   0  0  0  0  0  0  0  0  0  0  0  0
  131.2966  151.0222  133.1818 C   0  0  0  0  0  0  0  0  0  0  0  0
  132.4056  151.8362  133.2515 C   0  0  0  0  0  0  0  0  0  0  0  0
  132.3669  152.9405  134.0518 C   0  0  0  0  0  0  0  0  0  0  0  0
  131.2183  153.2403  134.7896 C   0  0  0  0  0  0  0  0  0  0  0  0
  130.1205  152.4042  134.6991 C   0  0  0  0  0  0  0  0  0  0  0  0
  128.6735  147.9976  134.2691 N   0  0  0  0  0  0  0  0  0  0  0  0
  129.3941  146.7764  134.0392 C   0  0  0  0  0  0  0  0  0  0  0  0
  130.6509  146.6611  133.9383 O   0  0  0  0  0  0  0  0  0  0  0  0
  128.3381  145.7343  133.9540 C   0  0  2  0  0  0  0  0  0  0  0  0
  128.1242  145.2105  135.3594 C   0  0  0  0  0  0  0  0  0  0  0  0
  128.6719  144.6762  133.0282 N   0  0  0  0  0  0  0  0  0  0  0  0
  128.8448  143.3329  133.3871 C   0  0  0  0  0  0  0  0  0  0  0  0
  127.8424  142.5745  133.3348 O   0  0  0  0  0  0  0  0  0  0  0  0
  130.1373  142.7501  133.8253 C   0  0  1  0  0  0  0  0  0  0  0  0
  129.9898  141.5491  134.7036 C   0  0  0  0  0  0  0  0  0  0  0  0
  129.6089  140.3630  134.0161 N   0  0  0  0  0  0  0  0  0  0  0  0
  130.0189  139.2246  134.8508 C   0  0  0  0  0  0  0  0  0  0  0  0
  130.1578  140.2498  132.6719 C   0  0  2  0  0  0  0  0  0  0  0  0
  130.2016  138.8315  132.2344 C   0  0  0  0  0  0  0  0  0  0  0  0
  130.9986  138.6683  131.0030 C   0  0  0  0  0  0  0  0  0  0  0  0
  131.1033  137.7188  129.9789 C   0  0  0  0  0  0  0  0  0  0  0  0
  132.0533  138.1321  129.1024 N   0  0  0  0  0  0  0  0  0  0  0  0
  132.5875  139.3058  129.4865 C   0  0  0  0  0  0  0  0  0  0  0  0
  133.5513  140.1728  129.0175 C   0  0  0  0  0  0  0  0  0  0  0  0
  133.8304  141.3188  129.7168 C   0  0  0  0  0  0  0  0  0  0  0  0
  133.1512  141.6304  130.9077 C   0  0  0  0  0  0  0  0  0  0  0  0
  132.1940  140.7528  131.3577 C   0  0  0  0  0  0  0  0  0  0  0  0
  131.9196  139.6202  130.6660 C   0  0  0  0  0  0  0  0  0  0  0  0
  131.4248  141.0251  132.6018 C   0  0  1  0  0  0  0  0  0  0  0  0
  131.0496  142.5154  132.6590 C   0  0  0  0  0  0  0  0  0  0  0  0
  127.2102  146.4029  133.5728 O   0  0  0  0  0  0  0  0  0  0  0  0
  127.3450  147.7395  133.8221 C   0  0  1  0  0  0  0  0  0  0  0  0
  127.1911  148.4037  132.5822 O   0  0  0  0  0  0  0  0  0  0  0  0
  1  2  1  6
  2  3  1  0
  3  4  1  0
  4  5  1  0
  5  6  1  0
  6  7  2  0
  6  8  1  0
  8  9  1  6
  9 10  1  0
 10 11  2  0
 11 12  1  0
 12 13  2  0
 13 14  1  0
 14 15  2  0
  8 16  1  0
 16 17  1  0
 17 18  2  0
 17 19  1  0
 19 20  1  1
 19 21  1  0
 21 22  1  0
 22 23  2  0
 24 22  1  6
 24 25  1  0
 25 26  1  0
 26 27  1  0
 26 28  1  0
 28 29  1  1
 29 30  1  0
 30 31  2  0
 31 32  1  0
 32 33  1  0
 33 34  2  0
 34 35  1  0
 35 36  2  0
 36 37  1  0
 37 38  2  0
 37 39  1  0
 39 40  1  6
 19 41  1  0
 41 42  1  0
 42 43  1  6
  5  1  1  0
 15 10  1  0
 42 16  1  0
 42  1  1  0
 40 24  1  0
 39 28  1  0
 38 30  1  0
 38 33  1  0
M  END
$$$$
