
     RDKit          3D

 43 50  0  0  0  0  0  0  0  0999 V2000
  167.9881  149.8836  127.5798 C   0  0  2  0  0  0  0  0  0  0  0  0
  168.4725  149.4128  128.9569 C   0  0  0  0  0  0  0  0  0  0  0  0
  169.5934  150.3872  129.2285 C   0  0  0  0  0  0  0  0  0  0  0  0
  169.3501  151.5852  128.3190 C   0  0  0  0  0  0  0  0  0  0  0  0
  168.0465  151.3114  127.7402 N   0  0  0  0  0  0  0  0  0  0  0  0
  167.0002  152.1921  127.3805 C   0  0  0  0  0  0  0  0  0  0  0  0
  167.2739  153.3949  127.1470 O   0  0  0  0  0  0  0  0  0  0  0  0
  165.6159  151.6375  127.2975 C   0  0  2  0  0  0  0  0  0  0  0  0
  165.0562  151.6317  128.7042 C   0  0  0  0  0  0  0  0  0  0  0  0
  164.6877  152.9890  129.1563 C   0  0  0  0  0  0  0  0  0  0  0  0
  163.6818  153.6560  128.5045 C   0  0  0  0  0  0  0  0  0  0  0  0
  163.2906  154.9232  128.8765 C   0  0  0  0  0  0  0  0  0  0  0  0
  163.9218  155.5305  129.9225 C   0  0  0  0  0  0  0  0  0  0  0  0
  164.9502  154.8755  130.6056 C   0  0  0  0  0  0  0  0  0  0  0  0
  165.3210  153.6036  130.2090 C   0  0  0  0  0  0  0  0  0  0  0  0
  165.7113  150.3155  126.7426 N   0  0  0  0  0  0  0  0  0  0  0  0
  165.0365  149.6452  125.6661 C   0  0  0  0  0  0  0  0  0  0  0  0
  163.9178  149.9709  125.1709 O   0  0  0  0  0  0  0  0  0  0  0  0
  165.9436  148.5263  125.3007 C   0  0  2  0  0  0  0  0  0  0  0  0
  166.8820  149.0526  124.2340 C   0  0  0  0  0  0  0  0  0  0  0  0
  165.2292  147.3503  124.8592 N   0  0  0  0  0  0  0  0  0  0  0  0
  164.3971  146.5738  125.6765 C   0  0  0  0  0  0  0  0  0  0  0  0
  163.1530  146.7202  125.5603 O   0  0  0  0  0  0  0  0  0  0  0  0
  164.8931  145.5897  126.6703 C   0  0  1  0  0  0  0  0  0  0  0  0
  163.8354  145.0867  127.5997 C   0  0  0  0  0  0  0  0  0  0  0  0
  162.9390  144.1488  127.0156 N   0  0  0  0  0  0  0  0  0  0  0  0
  162.3437  143.3728  128.1129 C   0  0  0  0  0  0  0  0  0  0  0  0
  163.5528  143.2716  126.0282 C   0  0  2  0  0  0  0  0  0  0  0  0
  162.7715  142.0185  125.8731 C   0  0  0  0  0  0  0  0  0  0  0  0
  163.5140  141.0096  125.0929 C   0  0  0  0  0  0  0  0  0  0  0  0
  163.1985  139.8617  124.3552 C   0  0  0  0  0  0  0  0  0  0  0  0
  164.3486  139.3338  123.8651 N   0  0  0  0  0  0  0  0  0  0  0  0
  165.4138  140.0676  124.2360 C   0  0  0  0  0  0  0  0  0  0  0  0
  166.7789  140.0233  124.0491 C   0  0  0  0  0  0  0  0  0  0  0  0
  167.5718  140.9909  124.6107 C   0  0  0  0  0  0  0  0  0  0  0  0
  167.0197  142.0325  125.3767 C   0  0  0  0  0  0  0  0  0  0  0  0
  165.6566  142.0583  125.5505 C   0  0  0  0  0  0  0  0  0  0  0  0
  164.8742  141.1010  124.9956 C   0  0  0  0  0  0  0  0  0  0  0  0
  165.0016  143.1390  126.3360 C   0  0  1  0  0  0  0  0  0  0  0  0
  165.6620  144.4878  126.0054 C   0  0  0  0  0  0  0  0  0  0  0  0
  166.6750  148.2805  126.4273 O   0  0  0  0  0  0  0  0  0  0  0  0
  166.6247  149.3560  127.2685 C   0  0  1  0  0  0  0  0  0  0  0  0
  166.0792  148.8940  128.4897 O   0  0  0  0  0  0  0  0  0  0  0  0
  1  2  1  1
  2  3  1  0
  3  4  1  0
  4  5  1  0
  5  6  1  0
  6  7  2  0
  6  8  1  0
  8  9  1  1
  9 10  1  0
 10 11  2  0
 11 12  1  0
 12 13  2  0
 13 14  1  0
 14 15  2  0
  8 16  1  0
 16 17  1  0
 17 18  2  0
 17 19  1  0
 19 20  1  6
 19 21  1  0
 21 22  1  0
 22 23  2  0
 24 22  1  6
 24 25  1  0
 25 26  1  0
 26 27  1  0
 26 28  1  0
 28 29  1  1
 29 30  1  0
 30 31  2  0
 31 32  1  0
 32 33  1  0
 33 34  2  0
 34 35  1  0
 35 36  2  0
 36 37  1  0
 37 38  2  0
 37 39  1  0
 39 40  1  6
 19 41  1  0
 41 42  1  0
 42 43  1  1
  5  1  1  0
 15 10  1  0
 42 16  1  0
 42  1  1  0
 40 24  1  0
 39 28  1  0
 38 30  1  0
 38 33  1  0
M  END
$$$$
