
     RDKit          3D

 43 50  0  0  0  0  0  0  0  0999 V2000
  128.1724  147.9161  133.8110 C   0  0  2  0  0  0  0  0  0  0  0  0
  129.2886  148.8799  134.2330 C   0  0  0  0  0  0  0  0  0  0  0  0
  128.5001  150.1250  134.5610 C   0  0  0  0  0  0  0  0  0  0  0  0
  127.0656  149.6726  134.8043 C   0  0  0  0  0  0  0  0  0  0  0  0
  127.1598  148.2234  134.7847 N   0  0  0  0  0  0  0  0  0  0  0  0
  126.4517  147.2489  135.5253 C   0  0  0  0  0  0  0  0  0  0  0  0
  125.3327  147.5498  136.0083 O   0  0  0  0  0  0  0  0  0  0  0  0
  127.0800  145.9043  135.6931 C   0  0  2  0  0  0  0  0  0  0  0  0
  128.0459  146.0087  136.8543 C   0  0  0  0  0  0  0  0  0  0  0  0
  127.3490  145.9679  138.1562 C   0  0  0  0  0  0  0  0  0  0  0  0
  126.5532  144.8900  138.4502 C   0  0  0  0  0  0  0  0  0  0  0  0
  125.8764  144.7914  139.6458 C   0  0  0  0  0  0  0  0  0  0  0  0
  126.0021  145.7943  140.5622 C   0  0  0  0  0  0  0  0  0  0  0  0
  126.8060  146.9049  140.2906 C   0  0  0  0  0  0  0  0  0  0  0  0
  127.4732  146.9758  139.0813 C   0  0  0  0  0  0  0  0  0  0  0  0
  127.7421  145.5785  134.4601 N   0  0  0  0  0  0  0  0  0  0  0  0
  127.7233  144.4253  133.6038 C   0  0  0  0  0  0  0  0  0  0  0  0
  127.3731  143.2554  133.9379 O   0  0  0  0  0  0  0  0  0  0  0  0
  128.1970  144.9325  132.2899 C   0  0  2  0  0  0  0  0  0  0  0  0
  126.9691  145.3806  131.5238 C   0  0  0  0  0  0  0  0  0  0  0  0
  128.9630  143.9511  131.5562 N   0  0  0  0  0  0  0  0  0  0  0  0
  129.1759  142.6324  131.9794 C   0  0  0  0  0  0  0  0  0  0  0  0
  128.2294  141.8131  131.8554 O   0  0  0  0  0  0  0  0  0  0  0  0
  130.4489  142.1433  132.5647 C   0  0  1  0  0  0  0  0  0  0  0  0
  130.2808  140.9728  133.4796 C   0  0  0  0  0  0  0  0  0  0  0  0
  130.0322  139.7396  132.8148 N   0  0  0  0  0  0  0  0  0  0  0  0
  130.4190  138.6618  133.7364 C   0  0  0  0  0  0  0  0  0  0  0  0
  130.7146  139.6033  131.5354 C   0  0  2  0  0  0  0  0  0  0  0  0
  130.8763  138.1731  131.1701 C   0  0  0  0  0  0  0  0  0  0  0  0
  131.7968  138.0057  130.0288 C   0  0  0  0  0  0  0  0  0  0  0  0
  132.0512  137.0226  129.0643 C   0  0  0  0  0  0  0  0  0  0  0  0
  133.0586  137.4537  128.2637 N   0  0  0  0  0  0  0  0  0  0  0  0
  133.4896  138.6709  128.6421 C   0  0  0  0  0  0  0  0  0  0  0  0
  134.4469  139.5719  128.2271 C   0  0  0  0  0  0  0  0  0  0  0  0
  134.5952  140.7596  128.8959 C   0  0  0  0  0  0  0  0  0  0  0  0
  133.7877  141.0801  130.0013 C   0  0  0  0  0  0  0  0  0  0  0  0
  132.8393  140.1682  130.3985 C   0  0  0  0  0  0  0  0  0  0  0  0
  132.6943  138.9944  129.7371 C   0  0  0  0  0  0  0  0  0  0  0  0
  131.9393  140.4466  131.5501 C   0  0  1  0  0  0  0  0  0  0  0  0
  131.4814  141.9139  131.5023 C   0  0  0  0  0  0  0  0  0  0  0  0
  128.9418  146.0385  132.5844 O   0  0  0  0  0  0  0  0  0  0  0  0
  128.6365  146.4955  133.8353 C   0  0  1  0  0  0  0  0  0  0  0  0
  129.8379  146.4733  134.5826 O   0  0  0  0  0  0  0  0  0  0  0  0
  1  2  1  1
  2  3  1  0
  3  4  1  0
  4  5  1  0
  5  6  1  0
  6  7  2  0
  6  8  1  0
  8  9  1  1
  9 10  1  0
 10 11  2  0
 11 12  1  0
 12 13  2  0
 13 14  1  0
 14 15  2  0
  8 16  1  0
 16 17  1  0
 17 18  2  0
 17 19  1  0
 19 20  1  6
 19 21  1  0
 21 22  1  0
 22 23  2  0
 24 22  1  6
 24 25  1  0
 25 26  1  0
 26 27  1  0
 26 28  1  0
 28 29  1  1
 29 30  1  0
 30 31  2  0
 31 32  1  0
 32 33  1  0
 33 34  2  0
 34 35  1  0
 35 36  2  0
 36 37  1  0
 37 38  2  0
 37 39  1  0
 39 40  1  6
 19 41  1  0
 41 42  1  0
 42 43  1  1
  5  1  1  0
 15 10  1  0
 42 16  1  0
 42  1  1  0
 40 24  1  0
 39 28  1  0
 38 30  1  0
 38 33  1  0
M  END
$$$$
