
     RDKit          3D

 43 50  0  0  0  0  0  0  0  0999 V2000
  191.1525  163.3017  132.4202 C   0  0  2  0  0  0  0  0  0  0  0  0
  192.1237  164.4887  132.3937 C   0  0  0  0  0  0  0  0  0  0  0  0
  192.5687  164.5429  133.8355 C   0  0  0  0  0  0  0  0  0  0  0  0
  192.2685  163.1719  134.4287 C   0  0  0  0  0  0  0  0  0  0  0  0
  191.8576  162.3876  133.2776 N   0  0  0  0  0  0  0  0  0  0  0  0
  192.0615  161.0202  132.9801 C   0  0  0  0  0  0  0  0  0  0  0  0
  192.2853  160.2219  133.9227 O   0  0  0  0  0  0  0  0  0  0  0  0
  191.9987  160.5985  131.5487 C   0  0  2  0  0  0  0  0  0  0  0  0
  193.3584  160.8783  130.9445 C   0  0  0  0  0  0  0  0  0  0  0  0
  194.3057  159.7698  131.1818 C   0  0  0  0  0  0  0  0  0  0  0  0
  195.4871  160.0324  131.8273 C   0  0  0  0  0  0  0  0  0  0  0  0
  196.4125  159.0437  132.0792 C   0  0  0  0  0  0  0  0  0  0  0  0
  196.1453  157.7684  131.6748 C   0  0  0  0  0  0  0  0  0  0  0  0
  194.9498  157.4708  131.0148 C   0  0  0  0  0  0  0  0  0  0  0  0
  194.0399  158.4845  130.7761 C   0  0  0  0  0  0  0  0  0  0  0  0
  190.9546  161.3583  130.9185 N   0  0  0  0  0  0  0  0  0  0  0  0
  189.8306  161.0012  130.0983 C   0  0  0  0  0  0  0  0  0  0  0  0
  189.7030  159.9303  129.4351 O   0  0  0  0  0  0  0  0  0  0  0  0
  188.9014  162.1543  130.2219 C   0  0  2  0  0  0  0  0  0  0  0  0
  187.9921  161.8612  131.3978 C   0  0  0  0  0  0  0  0  0  0  0  0
  188.1543  162.4012  129.0098 N   0  0  0  0  0  0  0  0  0  0  0  0
  188.7217  162.4875  127.7315 C   0  0  0  0  0  0  0  0  0  0  0  0
  188.8157  163.6254  127.2035 O   0  0  0  0  0  0  0  0  0  0  0  0
  189.2182  161.3193  126.9627 C   0  0  1  0  0  0  0  0  0  0  0  0
  188.1303  160.4650  126.3953 C   0  0  0  0  0  0  0  0  0  0  0  0
  187.4784  161.0225  125.2602 N   0  0  0  0  0  0  0  0  0  0  0  0
  186.8611  159.9112  124.5223 C   0  0  0  0  0  0  0  0  0  0  0  0
  188.3512  161.8036  124.3945 C   0  0  2  0  0  0  0  0  0  0  0  0
  187.8000  161.8833  123.0180 C   0  0  0  0  0  0  0  0  0  0  0  0
  188.7898  162.4276  122.0682 C   0  0  0  0  0  0  0  0  0  0  0  0
  188.7599  163.0385  120.8084 C   0  0  0  0  0  0  0  0  0  0  0  0
  190.0343  163.3125  120.4310 N   0  0  0  0  0  0  0  0  0  0  0  0
  190.9123  162.9173  121.3710 C   0  0  0  0  0  0  0  0  0  0  0  0
  192.2807  162.9315  121.5375 C   0  0  0  0  0  0  0  0  0  0  0  0
  192.8298  162.4126  122.6817 C   0  0  0  0  0  0  0  0  0  0  0  0
  192.0233  161.8637  123.6941 C   0  0  0  0  0  0  0  0  0  0  0  0
  190.6616  161.8597  123.5084 C   0  0  0  0  0  0  0  0  0  0  0  0
  190.1201  162.3722  122.3768 C   0  0  0  0  0  0  0  0  0  0  0  0
  189.7457  161.3093  124.5438 C   0  0  1  0  0  0  0  0  0  0  0  0
  190.2319  161.7347  125.9393 C   0  0  0  0  0  0  0  0  0  0  0  0
  189.6951  163.2154  130.5518 O   0  0  0  0  0  0  0  0  0  0  0  0
  190.8912  162.7765  131.0454 C   0  0  1  0  0  0  0  0  0  0  0  0
  191.8991  163.3106  130.2081 O   0  0  0  0  0  0  0  0  0  0  0  0
  1  2  1  6
  2  3  1  0
  3  4  1  0
  4  5  1  0
  5  6  1  0
  6  7  2  0
  6  8  1  0
  8  9  1  6
  9 10  1  0
 10 11  2  0
 11 12  1  0
 12 13  2  0
 13 14  1  0
 14 15  2  0
  8 16  1  0
 16 17  1  0
 17 18  2  0
 17 19  1  0
 19 20  1  1
 19 21  1  0
 21 22  1  0
 22 23  2  0
 24 22  1  6
 24 25  1  0
 25 26  1  0
 26 27  1  0
 26 28  1  0
 28 29  1  6
 29 30  1  0
 30 31  2  0
 31 32  1  0
 32 33  1  0
 33 34  2  0
 34 35  1  0
 35 36  2  0
 36 37  1  0
 37 38  2  0
 37 39  1  0
 39 40  1  1
 19 41  1  0
 41 42  1  0
 42 43  1  6
  5  1  1  0
 15 10  1  0
 42 16  1  0
 42  1  1  0
 40 24  1  0
 39 28  1  0
 38 30  1  0
 38 33  1  0
M  END
$$$$
