
     RDKit          3D

 43 50  0  0  0  0  0  0  0  0999 V2000
  138.3997  185.9567  148.3825 C   0  0  2  0  0  0  0  0  0  0  0  0
  138.6019  186.2914  146.8993 C   0  0  0  0  0  0  0  0  0  0  0  0
  140.1076  186.3605  146.8112 C   0  0  0  0  0  0  0  0  0  0  0  0
  140.6432  185.5971  148.0162 C   0  0  0  0  0  0  0  0  0  0  0  0
  139.4525  185.0005  148.5955 N   0  0  0  0  0  0  0  0  0  0  0  0
  139.2738  183.7578  149.2460 C   0  0  0  0  0  0  0  0  0  0  0  0
  140.2699  183.1963  149.7642 O   0  0  0  0  0  0  0  0  0  0  0  0
  137.8980  183.1773  149.2806 C   0  0  2  0  0  0  0  0  0  0  0  0
  137.6873  182.4590  147.9646 C   0  0  0  0  0  0  0  0  0  0  0  0
  138.4184  181.1762  147.9137 C   0  0  0  0  0  0  0  0  0  0  0  0
  139.2671  180.9366  146.8631 C   0  0  0  0  0  0  0  0  0  0  0  0
  139.9776  179.7614  146.7569 C   0  0  0  0  0  0  0  0  0  0  0  0
  139.8322  178.8102  147.7240 C   0  0  0  0  0  0  0  0  0  0  0  0
  138.9746  179.0262  148.8063 C   0  0  0  0  0  0  0  0  0  0  0  0
  138.2745  180.2162  148.8857 C   0  0  0  0  0  0  0  0  0  0  0  0
  136.9743  184.2626  149.4639 N   0  0  0  0  0  0  0  0  0  0  0  0
  135.8868  184.4907  150.3743 C   0  0  0  0  0  0  0  0  0  0  0  0
  135.2538  183.6016  151.0160 O   0  0  0  0  0  0  0  0  0  0  0  0
  135.7041  185.9655  150.3701 C   0  0  2  0  0  0  0  0  0  0  0  0
  136.5896  186.5205  151.4670 C   0  0  0  0  0  0  0  0  0  0  0  0
  134.3236  186.3571  150.5403 N   0  0  0  0  0  0  0  0  0  0  0  0
  133.2248  185.5343  150.2592 C   0  0  0  0  0  0  0  0  0  0  0  0
  132.6007  185.7304  149.1846 O   0  0  0  0  0  0  0  0  0  0  0  0
  132.7523  184.4464  151.1509 C   0  0  1  0  0  0  0  0  0  0  0  0
  131.7390  184.8895  152.1571 C   0  0  0  0  0  0  0  0  0  0  0  0
  130.4390  185.1098  151.6224 N   0  0  0  0  0  0  0  0  0  0  0  0
  129.4857  185.0039  152.7362 C   0  0  0  0  0  0  0  0  0  0  0  0
  130.0785  184.2063  150.5384 C   0  0  2  0  0  0  0  0  0  0  0  0
  128.6035  184.1011  150.4037 C   0  0  0  0  0  0  0  0  0  0  0  0
  128.2185  182.9944  149.5065 C   0  0  0  0  0  0  0  0  0  0  0  0
  127.0926  182.6436  148.7511 C   0  0  0  0  0  0  0  0  0  0  0  0
  127.3431  181.4664  148.1240 N   0  0  0  0  0  0  0  0  0  0  0  0
  128.5751  181.0135  148.4202 C   0  0  0  0  0  0  0  0  0  0  0  0
  129.3487  179.9197  148.0954 C   0  0  0  0  0  0  0  0  0  0  0  0
  130.6103  179.8020  148.6195 C   0  0  0  0  0  0  0  0  0  0  0  0
  131.1346  180.7780  149.4851 C   0  0  0  0  0  0  0  0  0  0  0  0
  130.3471  181.8606  149.7957 C   0  0  0  0  0  0  0  0  0  0  0  0
  129.1001  181.9754  149.2777 C   0  0  0  0  0  0  0  0  0  0  0  0
  130.8420  182.9397  150.6927 C   0  0  1  0  0  0  0  0  0  0  0  0
  132.3110  183.2509  150.3613 C   0  0  0  0  0  0  0  0  0  0  0  0
  136.2034  186.3811  149.1690 O   0  0  0  0  0  0  0  0  0  0  0  0
  137.0267  185.4261  148.6425 C   0  0  1  0  0  0  0  0  0  0  0  0
  136.4848  185.0678  147.3854 O   0  0  0  0  0  0  0  0  0  0  0  0
  1  2  1  6
  2  3  1  0
  3  4  1  0
  4  5  1  0
  5  6  1  0
  6  7  2  0
  6  8  1  0
  8  9  1  6
  9 10  1  0
 10 11  2  0
 11 12  1  0
 12 13  2  0
 13 14  1  0
 14 15  2  0
  8 16  1  0
 16 17  1  0
 17 18  2  0
 17 19  1  0
 19 20  1  1
 19 21  1  0
 21 22  1  0
 22 23  2  0
 24 22  1  6
 24 25  1  0
 25 26  1  0
 26 27  1  0
 26 28  1  0
 28 29  1  1
 29 30  1  0
 30 31  2  0
 31 32  1  0
 32 33  1  0
 33 34  2  0
 34 35  1  0
 35 36  2  0
 36 37  1  0
 37 38  2  0
 37 39  1  0
 39 40  1  6
 19 41  1  0
 41 42  1  0
 42 43  1  6
  5  1  1  0
 15 10  1  0
 42 16  1  0
 42  1  1  0
 40 24  1  0
 39 28  1  0
 38 30  1  0
 38 33  1  0
M  END
$$$$
