
     RDKit          3D

 43 50  0  0  0  0  0  0  0  0999 V2000
  128.9171  142.5339  133.6302 C   0  0  2  0  0  0  0  0  0  0  0  0
  128.5587  143.6753  132.6702 C   0  0  0  0  0  0  0  0  0  0  0  0
  129.0962  144.8730  133.4161 C   0  0  0  0  0  0  0  0  0  0  0  0
  130.1174  144.3357  134.4111 C   0  0  0  0  0  0  0  0  0  0  0  0
  130.2322  142.9327  134.0538 N   0  0  0  0  0  0  0  0  0  0  0  0
  131.3505  142.0678  134.0840 C   0  0  0  0  0  0  0  0  0  0  0  0
  132.3114  142.3459  134.8426 O   0  0  0  0  0  0  0  0  0  0  0  0
  131.3261  140.8612  133.2041 C   0  0  2  0  0  0  0  0  0  0  0  0
  131.7746  141.3071  131.8285 C   0  0  0  0  0  0  0  0  0  0  0  0
  133.2283  141.1265  131.6373 C   0  0  0  0  0  0  0  0  0  0  0  0
  133.6853  139.9578  131.0835 C   0  0  0  0  0  0  0  0  0  0  0  0
  135.0278  139.7273  130.8787 C   0  0  0  0  0  0  0  0  0  0  0  0
  135.9267  140.6890  131.2370 C   0  0  0  0  0  0  0  0  0  0  0  0
  135.4906  141.8899  131.8035 C   0  0  0  0  0  0  0  0  0  0  0  0
  134.1363  142.0926  131.9969 C   0  0  0  0  0  0  0  0  0  0  0  0
  129.9818  140.3535  133.2019 N   0  0  0  0  0  0  0  0  0  0  0  0
  129.4179  139.0503  133.4191 C   0  0  0  0  0  0  0  0  0  0  0  0
  130.0300  137.9471  133.3136 O   0  0  0  0  0  0  0  0  0  0  0  0
  128.0015  139.3160  133.7815 C   0  0  2  0  0  0  0  0  0  0  0  0
  127.9543  139.4630  135.2887 C   0  0  0  0  0  0  0  0  0  0  0  0
  127.1027  138.2870  133.3108 N   0  0  0  0  0  0  0  0  0  0  0  0
  127.3071  137.5233  132.1539 C   0  0  0  0  0  0  0  0  0  0  0  0
  127.2064  138.1004  131.0406 O   0  0  0  0  0  0  0  0  0  0  0  0
  127.6348  136.0760  132.1614 C   0  0  1  0  0  0  0  0  0  0  0  0
  126.4632  135.1945  132.4547 C   0  0  0  0  0  0  0  0  0  0  0  0
  125.5503  135.0529  131.3726 N   0  0  0  0  0  0  0  0  0  0  0  0
  124.8017  133.8074  131.5939 C   0  0  0  0  0  0  0  0  0  0  0  0
  126.1773  135.0592  130.0581 C   0  0  2  0  0  0  0  0  0  0  0  0
  125.3161  134.3813  129.0562 C   0  0  0  0  0  0  0  0  0  0  0  0
  126.0422  134.1344  127.7954 C   0  0  0  0  0  0  0  0  0  0  0  0
  125.7031  133.8849  126.4597 C   0  0  0  0  0  0  0  0  0  0  0  0
  126.8465  133.7236  125.7468 N   0  0  0  0  0  0  0  0  0  0  0  0
  127.9297  133.8521  126.5348 C   0  0  0  0  0  0  0  0  0  0  0  0
  129.2981  133.7915  126.3799 C   0  0  0  0  0  0  0  0  0  0  0  0
  130.1125  133.9820  127.4664 C   0  0  0  0  0  0  0  0  0  0  0  0
  129.5793  134.2393  128.7415 C   0  0  0  0  0  0  0  0  0  0  0  0
  128.2124  134.2959  128.8742 C   0  0  0  0  0  0  0  0  0  0  0  0
  127.4087  134.1067  127.7997 C   0  0  0  0  0  0  0  0  0  0  0  0
  127.5785  134.5791  130.1902 C   0  0  1  0  0  0  0  0  0  0  0  0
  128.3697  135.6798  130.9162 C   0  0  0  0  0  0  0  0  0  0  0  0
  127.7152  140.5303  133.2263 O   0  0  0  0  0  0  0  0  0  0  0  0
  128.8689  141.2062  132.9454 C   0  0  1  0  0  0  0  0  0  0  0  0
  128.8613  141.4665  131.5545 O   0  0  0  0  0  0  0  0  0  0  0  0
  1  2  1  6
  2  3  1  0
  3  4  1  0
  4  5  1  0
  5  6  1  0
  6  7  2  0
  6  8  1  0
  8  9  1  6
  9 10  1  0
 10 11  2  0
 11 12  1  0
 12 13  2  0
 13 14  1  0
 14 15  2  0
  8 16  1  0
 16 17  1  0
 17 18  2  0
 17 19  1  0
 19 20  1  1
 19 21  1  0
 21 22  1  0
 22 23  2  0
 24 22  1  6
 24 25  1  0
 25 26  1  0
 26 27  1  0
 26 28  1  0
 28 29  1  6
 29 30  1  0
 30 31  2  0
 31 32  1  0
 32 33  1  0
 33 34  2  0
 34 35  1  0
 35 36  2  0
 36 37  1  0
 37 38  2  0
 37 39  1  0
 39 40  1  6
 19 41  1  0
 41 42  1  0
 42 43  1  6
  5  1  1  0
 15 10  1  0
 42 16  1  0
 42  1  1  0
 40 24  1  0
 39 28  1  0
 38 30  1  0
 38 33  1  0
M  END
$$$$
