
     RDKit          3D

 43 50  0  0  0  0  0  0  0  0999 V2000
  163.6261  148.0733  125.6614 C   0  0  2  0  0  0  0  0  0  0  0  0
  164.4468  147.4496  124.5254 C   0  0  0  0  0  0  0  0  0  0  0  0
  163.3859  147.2366  123.4724 C   0  0  0  0  0  0  0  0  0  0  0  0
  162.2320  148.1642  123.8324 C   0  0  0  0  0  0  0  0  0  0  0  0
  162.7647  148.9587  124.9252 N   0  0  0  0  0  0  0  0  0  0  0  0
  162.5412  150.3123  125.2680 C   0  0  0  0  0  0  0  0  0  0  0  0
  161.4925  150.8737  124.8669 O   0  0  0  0  0  0  0  0  0  0  0  0
  163.5742  151.0045  126.0954 C   0  0  2  0  0  0  0  0  0  0  0  0
  164.6561  151.4779  125.1480 C   0  0  0  0  0  0  0  0  0  0  0  0
  165.1910  152.7986  125.5381 C   0  0  0  0  0  0  0  0  0  0  0  0
  166.2260  153.3357  124.8159 C   0  0  0  0  0  0  0  0  0  0  0  0
  166.7697  154.5623  125.1279 C   0  0  0  0  0  0  0  0  0  0  0  0
  166.2637  155.2612  126.1846 C   0  0  0  0  0  0  0  0  0  0  0  0
  165.2091  154.7392  126.9389 C   0  0  0  0  0  0  0  0  0  0  0  0
  164.6839  153.5052  126.6016 C   0  0  0  0  0  0  0  0  0  0  0  0
  164.0668  150.0561  127.0560 N   0  0  0  0  0  0  0  0  0  0  0  0
  164.2491  150.0971  128.4803 C   0  0  0  0  0  0  0  0  0  0  0  0
  164.3455  151.1419  129.1890 O   0  0  0  0  0  0  0  0  0  0  0  0
  164.2933  148.6690  128.8887 C   0  0  2  0  0  0  0  0  0  0  0  0
  162.8685  148.2564  129.1970 C   0  0  0  0  0  0  0  0  0  0  0  0
  165.1773  148.4359  130.0079 N   0  0  0  0  0  0  0  0  0  0  0  0
  166.5754  148.5022  129.9422 C   0  0  0  0  0  0  0  0  0  0  0  0
  167.2377  147.6860  130.6334 O   0  0  0  0  0  0  0  0  0  0  0  0
  167.3223  149.4758  129.1077 C   0  0  1  0  0  0  0  0  0  0  0  0
  168.1727  150.4185  129.8974 C   0  0  0  0  0  0  0  0  0  0  0  0
  169.3659  149.8403  130.4133 N   0  0  0  0  0  0  0  0  0  0  0  0
  170.3074  150.9395  130.6703 C   0  0  0  0  0  0  0  0  0  0  0  0
  169.9631  148.8322  129.5482 C   0  0  2  0  0  0  0  0  0  0  0  0
  171.4116  148.6772  129.8355 C   0  0  0  0  0  0  0  0  0  0  0  0
  172.0869  147.8724  128.7990 C   0  0  0  0  0  0  0  0  0  0  0  0
  173.2689  147.1278  128.7006 C   0  0  0  0  0  0  0  0  0  0  0  0
  173.3507  146.6111  127.4484 N   0  0  0  0  0  0  0  0  0  0  0  0
  172.2872  146.9708  126.7066 C   0  0  0  0  0  0  0  0  0  0  0  0
  171.8418  146.7586  125.4194 C   0  0  0  0  0  0  0  0  0  0  0  0
  170.6576  147.3166  125.0113 C   0  0  0  0  0  0  0  0  0  0  0  0
  169.8839  148.1041  125.8819 C   0  0  0  0  0  0  0  0  0  0  0  0
  170.3459  148.3029  127.1609 C   0  0  0  0  0  0  0  0  0  0  0  0
  171.5167  147.7515  127.5628 C   0  0  0  0  0  0  0  0  0  0  0  0
  169.5724  149.1121  128.1410 C   0  0  1  0  0  0  0  0  0  0  0  0
  168.0755  148.7847  128.0111 C   0  0  0  0  0  0  0  0  0  0  0  0
  164.7002  147.9938  127.7738 O   0  0  0  0  0  0  0  0  0  0  0  0
  164.5031  148.7587  126.6589 C   0  0  1  0  0  0  0  0  0  0  0  0
  165.7680  148.9194  126.0452 O   0  0  0  0  0  0  0  0  0  0  0  0
  1  2  1  6
  2  3  1  0
  3  4  1  0
  4  5  1  0
  5  6  1  0
  6  7  2  0
  6  8  1  0
  8  9  1  6
  9 10  1  0
 10 11  2  0
 11 12  1  0
 12 13  2  0
 13 14  1  0
 14 15  2  0
  8 16  1  0
 16 17  1  0
 17 18  2  0
 17 19  1  0
 19 20  1  1
 19 21  1  0
 21 22  1  0
 22 23  2  0
 24 22  1  1
 24 25  1  0
 25 26  1  0
 26 27  1  0
 26 28  1  0
 28 29  1  6
 29 30  1  0
 30 31  2  0
 31 32  1  0
 32 33  1  0
 33 34  2  0
 34 35  1  0
 35 36  2  0
 36 37  1  0
 37 38  2  0
 37 39  1  0
 39 40  1  1
 19 41  1  0
 41 42  1  0
 42 43  1  6
  5  1  1  0
 15 10  1  0
 42 16  1  0
 42  1  1  0
 40 24  1  0
 39 28  1  0
 38 30  1  0
 38 33  1  0
M  END
$$$$
