
     RDKit          3D

 43 50  0  0  0  0  0  0  0  0999 V2000
  203.1405  140.8596  131.7913 C   0  0  2  0  0  0  0  0  0  0  0  0
  203.3722  141.2503  133.2565 C   0  0  0  0  0  0  0  0  0  0  0  0
  204.3285  142.4095  133.1089 C   0  0  0  0  0  0  0  0  0  0  0  0
  204.1757  142.9120  131.6786 C   0  0  0  0  0  0  0  0  0  0  0  0
  203.0449  142.1541  131.1725 N   0  0  0  0  0  0  0  0  0  0  0  0
  202.0236  142.5258  130.2678 C   0  0  0  0  0  0  0  0  0  0  0  0
  202.2372  143.4688  129.4671 O   0  0  0  0  0  0  0  0  0  0  0  0
  200.7368  141.7691  130.3156 C   0  0  2  0  0  0  0  0  0  0  0  0
  199.9049  142.3799  131.4233 C   0  0  0  0  0  0  0  0  0  0  0  0
  199.3671  143.7024  131.0435 C   0  0  0  0  0  0  0  0  0  0  0  0
  198.3643  144.2538  131.7997 C   0  0  0  0  0  0  0  0  0  0  0  0
  197.8198  145.4828  131.4990 C   0  0  0  0  0  0  0  0  0  0  0  0
  198.2921  146.1697  130.4189 C   0  0  0  0  0  0  0  0  0  0  0  0
  199.3133  145.6330  129.6299 C   0  0  0  0  0  0  0  0  0  0  0  0
  199.8401  144.3968  129.9566 C   0  0  0  0  0  0  0  0  0  0  0  0
  201.0538  140.3905  130.5679 N   0  0  0  0  0  0  0  0  0  0  0  0
  200.6710  139.1578  129.9376 C   0  0  0  0  0  0  0  0  0  0  0  0
  199.6532  138.9802  129.2059 O   0  0  0  0  0  0  0  0  0  0  0  0
  201.7242  138.1917  130.3448 C   0  0  2  0  0  0  0  0  0  0  0  0
  202.8125  138.2599  129.2929 C   0  0  0  0  0  0  0  0  0  0  0  0
  201.2160  136.8491  130.5098 N   0  0  0  0  0  0  0  0  0  0  0  0
  200.9414  136.2509  131.7469 C   0  0  0  0  0  0  0  0  0  0  0  0
  199.7368  136.1243  132.0864 O   0  0  0  0  0  0  0  0  0  0  0  0
  201.9841  135.7581  132.6807 C   0  0  1  0  0  0  0  0  0  0  0  0
  201.5921  135.8438  134.1210 C   0  0  0  0  0  0  0  0  0  0  0  0
  200.6565  134.8546  134.5341 N   0  0  0  0  0  0  0  0  0  0  0  0
  200.7812  134.7184  135.9923 C   0  0  0  0  0  0  0  0  0  0  0  0
  200.8186  133.5669  133.8732 C   0  0  2  0  0  0  0  0  0  0  0  0
  200.2334  132.4738  134.6902 C   0  0  0  0  0  0  0  0  0  0  0  0
  200.6250  131.1457  134.1794 C   0  0  0  0  0  0  0  0  0  0  0  0
  200.1430  129.8348  134.2827 C   0  0  0  0  0  0  0  0  0  0  0  0
  200.9648  129.0159  133.5786 N   0  0  0  0  0  0  0  0  0  0  0  0
  201.9685  129.7099  133.0114 C   0  0  0  0  0  0  0  0  0  0  0  0
  203.0604  129.4305  132.2176 C   0  0  0  0  0  0  0  0  0  0  0  0
  203.8917  130.4481  131.8257 C   0  0  0  0  0  0  0  0  0  0  0  0
  203.6531  131.7770  132.2177 C   0  0  0  0  0  0  0  0  0  0  0  0
  202.5590  132.0339  133.0087 C   0  0  0  0  0  0  0  0  0  0  0  0
  201.7386  131.0272  133.3960 C   0  0  0  0  0  0  0  0  0  0  0  0
  202.2360  133.4180  133.4489 C   0  0  1  0  0  0  0  0  0  0  0  0
  202.4670  134.3954  132.2843 C   0  0  0  0  0  0  0  0  0  0  0  0
  202.2290  138.6886  131.5122 O   0  0  0  0  0  0  0  0  0  0  0  0
  201.9182  140.0133  131.6365 C   0  0  1  0  0  0  0  0  0  0  0  0
  201.1764  140.1481  132.8339 O   0  0  0  0  0  0  0  0  0  0  0  0
  1  2  1  1
  2  3  1  0
  3  4  1  0
  4  5  1  0
  5  6  1  0
  6  7  2  0
  6  8  1  0
  8  9  1  1
  9 10  1  0
 10 11  2  0
 11 12  1  0
 12 13  2  0
 13 14  1  0
 14 15  2  0
  8 16  1  0
 16 17  1  0
 17 18  2  0
 17 19  1  0
 19 20  1  6
 19 21  1  0
 21 22  1  0
 22 23  2  0
 24 22  1  6
 24 25  1  0
 25 26  1  0
 26 27  1  0
 26 28  1  0
 28 29  1  1
 29 30  1  0
 30 31  2  0
 31 32  1  0
 32 33  1  0
 33 34  2  0
 34 35  1  0
 35 36  2  0
 36 37  1  0
 37 38  2  0
 37 39  1  0
 39 40  1  6
 19 41  1  0
 41 42  1  0
 42 43  1  1
  5  1  1  0
 15 10  1  0
 42 16  1  0
 42  1  1  0
 40 24  1  0
 39 28  1  0
 38 30  1  0
 38 33  1  0
M  END
$$$$
