
     RDKit          3D

 42 47  0  0  0  0  0  0  0  0999 V2000
  130.6683  146.5666  140.1220 C   0  0  0  0  0  0  0  0  0  0  0  0
  129.6666  147.2388  139.1712 C   0  0  0  0  0  0  0  0  0  0  0  0
  129.4094  148.6388  139.6463 C   0  0  0  0  0  0  0  0  0  0  0  0
  128.4650  146.3686  139.1224 C   0  0  0  0  0  0  0  0  0  0  0  0
  127.7563  146.3903  137.7556 C   0  0  0  0  0  0  0  0  0  0  0  0
  128.6021  145.7720  136.6682 C   0  0  0  0  0  0  0  0  0  0  0  0
  130.0054  145.8203  137.2269 C   0  0  0  0  0  0  0  0  0  0  0  0
  130.3087  147.2101  137.8088 C   0  0  0  0  0  0  0  0  0  0  0  0
  128.2207  144.3999  136.5872 N   0  0  0  0  0  0  0  0  0  0  0  0
  127.5358  144.0805  135.4007 C   0  0  2  0  0  0  0  0  0  0  0  0
  127.9140  145.1885  134.4955 C   0  0  2  0  0  0  0  0  0  0  0  0
  128.8261  144.6705  133.4567 C   0  0  0  0  0  0  0  0  0  0  0  0
  128.4267  144.4424  132.1444 C   0  0  0  0  0  0  0  0  0  0  0  0
  127.1653  144.7384  131.7431 F   0  0  0  0  0  0  0  0  0  0  0  0
  129.2776  143.9348  131.1850 C   0  0  0  0  0  0  0  0  0  0  0  0
  128.6933  143.6720  129.5371 Cl  0  0  0  0  0  0  0  0  0  0  0  0
  130.5527  143.6438  131.5195 N   0  0  0  0  0  0  0  0  0  0  0  0
  130.9985  143.8440  132.7747 C   0  0  0  0  0  0  0  0  0  0  0  0
  130.1609  144.3486  133.7393 C   0  0  0  0  0  0  0  0  0  0  0  0
  128.4396  146.3485  135.3236 C   0  0  2  0  0  0  0  0  0  0  0  0
  129.5828  146.8889  134.6682 C   0  0  0  0  0  0  0  0  0  0  0  0
  130.7431  146.4055  134.3788 O   0  0  0  0  0  0  0  0  0  0  0  0
  129.3294  148.2190  134.2866 N   0  0  0  0  0  0  0  0  0  0  0  0
  127.9763  148.4819  134.6405 C   0  0  0  0  0  0  0  0  0  0  0  0
  127.2032  149.6505  134.4431 C   0  0  0  0  0  0  0  0  0  0  0  0
  125.8843  149.6750  134.8297 C   0  0  0  0  0  0  0  0  0  0  0  0
  124.9338  151.1303  134.5799 Cl  0  0  0  0  0  0  0  0  0  0  0  0
  125.3341  148.5495  135.4081 C   0  0  0  0  0  0  0  0  0  0  0  0
  126.0440  147.3984  135.6189 C   0  0  0  0  0  0  0  0  0  0  0  0
  127.3991  147.4005  135.2128 C   0  0  0  0  0  0  0  0  0  0  0  0
  126.1130  143.7392  135.5043 C   0  0  0  0  0  0  0  0  0  0  0  0
  125.2931  144.7113  135.5177 O   0  0  0  0  0  0  0  0  0  0  0  0
  125.6702  142.3975  135.5861 N   0  0  0  0  0  0  0  0  0  0  0  0
  125.8451  141.5293  134.4707 C   0  0  2  0  0  0  0  0  0  0  0  0
  127.1949  141.7457  133.8138 C   0  0  0  0  0  0  0  0  0  0  0  0
  127.1076  141.8981  132.3298 C   0  0  0  0  0  0  0  0  0  0  0  0
  126.1221  140.9655  131.6899 C   0  0  2  0  0  0  0  0  0  0  0  0
  124.9996  140.7224  132.4434 O   0  0  0  0  0  0  0  0  0  0  0  0
  124.8049  141.7270  133.3903 C   0  0  0  0  0  0  0  0  0  0  0  0
  126.7880  139.6855  131.2574 C   0  0  0  0  0  0  0  0  0  0  0  0
  126.8526  139.3439  129.8858 N   0  0  0  0  0  0  0  0  0  0  0  0
  127.2682  138.9616  132.1645 O   0  0  0  0  0  0  0  0  0  0  0  0
  1  2  1  0
  2  3  1  0
  2  4  1  0
  4  5  1  0
  5  6  1  0
  6  7  1  0
  7  8  1  0
  6  9  1  0
  9 10  1  0
 10 11  1  0
 11 12  1  6
 12 13  2  0
 13 14  1  0
 13 15  1  0
 15 16  1  0
 15 17  2  0
 17 18  1  0
 18 19  2  0
 11 20  1  0
 20 21  1  0
 21 22  2  0
 21 23  1  0
 23 24  1  0
 24 25  2  0
 25 26  1  0
 26 27  1  0
 26 28  2  0
 28 29  1  0
 29 30  2  0
 10 31  1  1
 31 32  2  0
 31 33  1  0
 34 33  1  1
 34 35  1  0
 35 36  1  0
 36 37  1  0
 37 38  1  0
 38 39  1  0
 37 40  1  1
 40 41  1  0
 40 42  2  0
  8  2  1  0
 19 12  1  0
 30 20  1  0
 39 34  1  0
 20  6  1  1
 30 24  1  0
M  END
$$$$
