
     RDKit          3D

 42 47  0  0  0  0  0  0  0  0999 V2000
  127.6509  157.9059  150.4917 C   0  0  0  0  0  0  0  0  0  0  0  0
  126.2574  158.0090  149.8539 C   0  0  0  0  0  0  0  0  0  0  0  0
  125.5986  159.2720  150.3262 C   0  0  0  0  0  0  0  0  0  0  0  0
  125.5298  156.7621  150.1992 C   0  0  0  0  0  0  0  0  0  0  0  0
  124.5452  156.3121  149.1043 C   0  0  0  0  0  0  0  0  0  0  0  0
  125.2562  155.8886  147.8412 C   0  0  0  0  0  0  0  0  0  0  0  0
  126.6179  156.5337  147.9564 C   0  0  0  0  0  0  0  0  0  0  0  0
  126.4848  158.0093  148.3648 C   0  0  0  0  0  0  0  0  0  0  0  0
  125.4421  154.4772  147.9332 N   0  0  0  0  0  0  0  0  0  0  0  0
  124.6597  153.7507  147.0173 C   0  0  2  0  0  0  0  0  0  0  0  0
  124.3222  154.7673  145.9960 C   0  0  2  0  0  0  0  0  0  0  0  0
  125.0644  154.4674  144.7557 C   0  0  0  0  0  0  0  0  0  0  0  0
  124.4382  154.2416  143.5348 C   0  0  0  0  0  0  0  0  0  0  0  0
  123.0901  154.3367  143.4201 F   0  0  0  0  0  0  0  0  0  0  0  0
  125.1365  153.9375  142.3851 C   0  0  0  0  0  0  0  0  0  0  0  0
  124.2665  153.6629  140.8705 Cl  0  0  0  0  0  0  0  0  0  0  0  0
  126.4831  153.8531  142.4322 N   0  0  0  0  0  0  0  0  0  0  0  0
  127.1465  154.0622  143.5858 C   0  0  0  0  0  0  0  0  0  0  0  0
  126.4625  154.3655  144.7377 C   0  0  0  0  0  0  0  0  0  0  0  0
  124.5393  156.1514  146.5828 C   0  0  2  0  0  0  0  0  0  0  0  0
  125.1650  156.9664  145.5965 C   0  0  0  0  0  0  0  0  0  0  0  0
  126.3050  156.9044  144.9962 O   0  0  0  0  0  0  0  0  0  0  0  0
  124.3172  158.0351  145.2529 N   0  0  0  0  0  0  0  0  0  0  0  0
  123.1111  157.8340  145.9810 C   0  0  0  0  0  0  0  0  0  0  0  0
  121.9163  158.5919  145.9739 C   0  0  0  0  0  0  0  0  0  0  0  0
  120.8431  158.1896  146.7328 C   0  0  0  0  0  0  0  0  0  0  0  0
  119.3649  159.1376  146.7166 Cl  0  0  0  0  0  0  0  0  0  0  0  0
  120.9520  157.0438  147.4939 C   0  0  0  0  0  0  0  0  0  0  0  0
  122.0875  156.2807  147.5317 C   0  0  0  0  0  0  0  0  0  0  0  0
  123.1771  156.7177  146.7424 C   0  0  0  0  0  0  0  0  0  0  0  0
  123.5670  152.9313  147.5519 C   0  0  0  0  0  0  0  0  0  0  0  0
  123.6244  152.6412  148.7888 O   0  0  0  0  0  0  0  0  0  0  0  0
  122.5007  152.4832  146.7363 N   0  0  0  0  0  0  0  0  0  0  0  0
  122.3105  151.0867  146.5307 C   0  0  2  0  0  0  0  0  0  0  0  0
  122.9065  150.2790  147.6675 C   0  0  0  0  0  0  0  0  0  0  0  0
  123.7672  149.1513  147.1979 C   0  0  0  0  0  0  0  0  0  0  0  0
  123.2142  148.4353  146.0012 C   0  0  2  0  0  0  0  0  0  0  0  0
  122.5614  149.2473  145.1061 O   0  0  0  0  0  0  0  0  0  0  0  0
  122.9519  150.5769  145.2591 C   0  0  0  0  0  0  0  0  0  0  0  0
  122.3596  147.2660  146.4152 C   0  0  0  0  0  0  0  0  0  0  0  0
  121.2209  146.9107  145.6541 N   0  0  0  0  0  0  0  0  0  0  0  0
  122.7112  146.6445  147.4485 O   0  0  0  0  0  0  0  0  0  0  0  0
  1  2  1  0
  2  3  1  0
  2  4  1  0
  4  5  1  0
  5  6  1  0
  6  7  1  0
  7  8  1  0
  6  9  1  0
  9 10  1  0
 10 11  1  0
 11 12  1  6
 12 13  2  0
 13 14  1  0
 13 15  1  0
 15 16  1  0
 15 17  2  0
 17 18  1  0
 18 19  2  0
 11 20  1  0
 20 21  1  0
 21 22  2  0
 21 23  1  0
 23 24  1  0
 24 25  2  0
 25 26  1  0
 26 27  1  0
 26 28  2  0
 28 29  1  0
 29 30  2  0
 10 31  1  1
 31 32  2  0
 31 33  1  0
 34 33  1  1
 34 35  1  0
 35 36  1  0
 36 37  1  0
 37 38  1  0
 38 39  1  0
 37 40  1  1
 40 41  1  0
 40 42  2  0
  8  2  1  0
 19 12  1  0
 30 20  1  0
 39 34  1  0
 20  6  1  1
 30 24  1  0
M  END
$$$$
