
     RDKit          3D

 42 47  0  0  0  0  0  0  0  0999 V2000
  129.3255  146.9387  139.9713 C   0  0  0  0  0  0  0  0  0  0  0  0
  128.4550  147.4627  138.8194 C   0  0  0  0  0  0  0  0  0  0  0  0
  127.8645  148.7835  139.2180 C   0  0  0  0  0  0  0  0  0  0  0  0
  127.4601  146.4047  138.5124 C   0  0  0  0  0  0  0  0  0  0  0  0
  127.0732  146.3505  137.0231 C   0  0  0  0  0  0  0  0  0  0  0  0
  128.2287  145.9186  136.1522 C   0  0  0  0  0  0  0  0  0  0  0  0
  129.4470  146.1845  137.0058 C   0  0  0  0  0  0  0  0  0  0  0  0
  129.3736  147.5861  137.6320 C   0  0  0  0  0  0  0  0  0  0  0  0
  128.1148  144.5051  135.9973 N   0  0  0  0  0  0  0  0  0  0  0  0
  127.7699  144.1131  134.6911 C   0  0  2  0  0  0  0  0  0  0  0  0
  128.1408  145.2975  133.8848 C   0  0  2  0  0  0  0  0  0  0  0  0
  129.3322  144.9739  133.0753 C   0  0  0  0  0  0  0  0  0  0  0  0
  129.2973  144.8585  131.6900 C   0  0  0  0  0  0  0  0  0  0  0  0
  128.1501  145.0907  131.0045 F   0  0  0  0  0  0  0  0  0  0  0  0
  130.4089  144.5315  130.9422 C   0  0  0  0  0  0  0  0  0  0  0  0
  130.2829  144.4031  129.1832 Cl  0  0  0  0  0  0  0  0  0  0  0  0
  131.5853  144.3127  131.5672 N   0  0  0  0  0  0  0  0  0  0  0  0
  131.6821  144.4105  132.9072 C   0  0  0  0  0  0  0  0  0  0  0  0
  130.5822  144.7350  133.6633 C   0  0  0  0  0  0  0  0  0  0  0  0
  128.2667  146.5022  134.8014 C   0  0  2  0  0  0  0  0  0  0  0  0
  129.4154  147.2481  134.4106 C   0  0  0  0  0  0  0  0  0  0  0  0
  130.6761  146.9764  134.3865 O   0  0  0  0  0  0  0  0  0  0  0  0
  129.0273  148.5281  133.9747 N   0  0  0  0  0  0  0  0  0  0  0  0
  127.6051  148.5480  134.0206 C   0  0  0  0  0  0  0  0  0  0  0  0
  126.7051  149.5754  133.6508 C   0  0  0  0  0  0  0  0  0  0  0  0
  125.3494  149.3651  133.7376 C   0  0  0  0  0  0  0  0  0  0  0  0
  124.2413  150.6469  133.2761 Cl  0  0  0  0  0  0  0  0  0  0  0  0
  124.8875  148.1451  134.1873 C   0  0  0  0  0  0  0  0  0  0  0  0
  125.7208  147.1239  134.5560 C   0  0  0  0  0  0  0  0  0  0  0  0
  127.1110  147.3671  134.4581 C   0  0  0  0  0  0  0  0  0  0  0  0
  126.4388  143.5341  134.4810 C   0  0  0  0  0  0  0  0  0  0  0  0
  125.5160  143.9276  135.2628 O   0  0  0  0  0  0  0  0  0  0  0  0
  126.1890  142.5847  133.4616 N   0  0  0  0  0  0  0  0  0  0  0  0
  126.3941  141.1999  133.7237 C   0  0  2  0  0  0  0  0  0  0  0  0
  127.3236  140.9972  134.9048 C   0  0  0  0  0  0  0  0  0  0  0  0
  128.4184  140.0184  134.6287 C   0  0  0  0  0  0  0  0  0  0  0  0
  127.9690  138.8262  133.8367 C   0  0  2  0  0  0  0  0  0  0  0  0
  127.0113  139.1018  132.8913 O   0  0  0  0  0  0  0  0  0  0  0  0
  127.0101  140.4559  132.5596 C   0  0  0  0  0  0  0  0  0  0  0  0
  127.5459  137.7002  134.7433 C   0  0  0  0  0  0  0  0  0  0  0  0
  127.7813  137.7800  136.1362 N   0  0  0  0  0  0  0  0  0  0  0  0
  126.9873  136.7148  134.2006 O   0  0  0  0  0  0  0  0  0  0  0  0
  1  2  1  0
  2  3  1  0
  2  4  1  0
  4  5  1  0
  5  6  1  0
  6  7  1  0
  7  8  1  0
  6  9  1  0
  9 10  1  0
 10 11  1  0
 11 12  1  1
 12 13  2  0
 13 14  1  0
 13 15  1  0
 15 16  1  0
 15 17  2  0
 17 18  1  0
 18 19  2  0
 11 20  1  0
 20 21  1  0
 21 22  2  0
 21 23  1  0
 23 24  1  0
 24 25  2  0
 25 26  1  0
 26 27  1  0
 26 28  2  0
 28 29  1  0
 29 30  2  0
 10 31  1  1
 31 32  2  0
 31 33  1  0
 34 33  1  6
 34 35  1  0
 35 36  1  0
 36 37  1  0
 37 38  1  0
 38 39  1  0
 37 40  1  1
 40 41  1  0
 40 42  2  0
  8  2  1  0
 19 12  1  0
 30 20  1  0
 39 34  1  0
 20  6  1  1
 30 24  1  0
M  END
$$$$
