
     RDKit          3D

 42 47  0  0  0  0  0  0  0  0999 V2000
  201.3060  132.7889  139.2919 C   0  0  0  0  0  0  0  0  0  0  0  0
  201.4284  133.7046  138.0648 C   0  0  0  0  0  0  0  0  0  0  0  0
  200.4178  134.8081  138.1787 C   0  0  0  0  0  0  0  0  0  0  0  0
  201.2758  132.8438  136.8651 C   0  0  0  0  0  0  0  0  0  0  0  0
  202.1033  133.3302  135.6612 C   0  0  0  0  0  0  0  0  0  0  0  0
  203.5883  133.2147  135.9097 C   0  0  0  0  0  0  0  0  0  0  0  0
  203.7003  133.1367  137.4147 C   0  0  0  0  0  0  0  0  0  0  0  0
  202.8420  134.2250  138.0785 C   0  0  0  0  0  0  0  0  0  0  0  0
  203.9913  131.9511  135.3844 N   0  0  0  0  0  0  0  0  0  0  0  0
  204.8026  132.0559  134.2401 C   0  0  2  0  0  0  0  0  0  0  0  0
  205.3131  133.4424  134.3261 C   0  0  2  0  0  0  0  0  0  0  0  0
  206.7493  133.4056  134.6654 C   0  0  0  0  0  0  0  0  0  0  0  0
  207.7400  133.8874  133.8167 C   0  0  0  0  0  0  0  0  0  0  0  0
  207.4165  134.4682  132.6344 F   0  0  0  0  0  0  0  0  0  0  0  0
  209.0818  133.8272  134.1293 C   0  0  0  0  0  0  0  0  0  0  0  0
  210.2815  134.4611  132.9957 Cl  0  0  0  0  0  0  0  0  0  0  0  0
  209.4632  133.2818  135.3039 N   0  0  0  0  0  0  0  0  0  0  0  0
  208.5498  132.7988  136.1680 C   0  0  0  0  0  0  0  0  0  0  0  0
  207.2104  132.8525  135.8682 C   0  0  0  0  0  0  0  0  0  0  0  0
  204.4275  134.2398  135.2681 C   0  0  2  0  0  0  0  0  0  0  0  0
  205.2596  135.0542  136.0883 C   0  0  0  0  0  0  0  0  0  0  0  0
  206.1660  134.7852  136.9658 O   0  0  0  0  0  0  0  0  0  0  0  0
  204.9876  136.4125  135.8437 N   0  0  0  0  0  0  0  0  0  0  0  0
  204.0260  136.4415  134.7951 C   0  0  0  0  0  0  0  0  0  0  0  0
  203.4396  137.5500  134.1395 C   0  0  0  0  0  0  0  0  0  0  0  0
  202.5516  137.3481  133.1098 C   0  0  0  0  0  0  0  0  0  0  0  0
  201.8298  138.7308  132.3030 Cl  0  0  0  0  0  0  0  0  0  0  0  0
  202.2462  136.0568  132.7312 C   0  0  0  0  0  0  0  0  0  0  0  0
  202.7884  134.9557  133.3370 C   0  0  0  0  0  0  0  0  0  0  0  0
  203.6982  135.1917  134.3942 C   0  0  0  0  0  0  0  0  0  0  0  0
  204.2383  131.6146  132.9602 C   0  0  0  0  0  0  0  0  0  0  0  0
  202.9789  131.4414  132.9218 O   0  0  0  0  0  0  0  0  0  0  0  0
  205.0501  131.3909  131.8228 N   0  0  0  0  0  0  0  0  0  0  0  0
  205.8441  130.2109  131.7455 C   0  0  2  0  0  0  0  0  0  0  0  0
  206.5095  129.9099  133.0747 C   0  0  0  0  0  0  0  0  0  0  0  0
  207.9706  129.6236  132.9478 C   0  0  0  0  0  0  0  0  0  0  0  0
  208.3145  128.7883  131.7502 C   0  0  2  0  0  0  0  0  0  0  0  0
  207.5446  129.0427  130.6414 O   0  0  0  0  0  0  0  0  0  0  0  0
  206.9531  130.3026  130.7209 C   0  0  0  0  0  0  0  0  0  0  0  0
  208.3232  127.3222  132.0952 C   0  0  0  0  0  0  0  0  0  0  0  0
  207.4608  126.4261  131.4203 N   0  0  0  0  0  0  0  0  0  0  0  0
  209.1209  126.9558  132.9935 O   0  0  0  0  0  0  0  0  0  0  0  0
  1  2  1  0
  2  3  1  0
  2  4  1  0
  4  5  1  0
  5  6  1  0
  6  7  1  0
  7  8  1  0
  6  9  1  0
  9 10  1  0
 10 11  1  0
 11 12  1  1
 12 13  2  0
 13 14  1  0
 13 15  1  0
 15 16  1  0
 15 17  2  0
 17 18  1  0
 18 19  2  0
 11 20  1  0
 20 21  1  0
 21 22  2  0
 21 23  1  0
 23 24  1  0
 24 25  2  0
 25 26  1  0
 26 27  1  0
 26 28  2  0
 28 29  1  0
 29 30  2  0
 10 31  1  6
 31 32  2  0
 31 33  1  0
 34 33  1  1
 34 35  1  0
 35 36  1  0
 36 37  1  0
 37 38  1  0
 38 39  1  0
 37 40  1  1
 40 41  1  0
 40 42  2  0
  8  2  1  0
 19 12  1  0
 30 20  1  0
 39 34  1  0
 20  6  1  1
 30 24  1  0
M  END
$$$$
