
     RDKit          3D

 42 47  0  0  0  0  0  0  0  0999 V2000
  121.8267  164.0907  143.2347 C   0  0  0  0  0  0  0  0  0  0  0  0
  121.4973  165.2457  142.2774 C   0  0  0  0  0  0  0  0  0  0  0  0
  122.7202  165.5732  141.4715 C   0  0  0  0  0  0  0  0  0  0  0  0
  120.9828  166.3633  143.1078 C   0  0  0  0  0  0  0  0  0  0  0  0
  119.9224  167.2157  142.3869 C   0  0  0  0  0  0  0  0  0  0  0  0
  118.6517  166.4416  142.1293 C   0  0  0  0  0  0  0  0  0  0  0  0
  119.0803  164.9958  142.2268 C   0  0  0  0  0  0  0  0  0  0  0  0
  120.3632  164.7558  141.4154 C   0  0  0  0  0  0  0  0  0  0  0  0
  117.7843  166.7061  143.2306 N   0  0  0  0  0  0  0  0  0  0  0  0
  116.6652  167.4849  142.8846 C   0  0  2  0  0  0  0  0  0  0  0  0
  116.5833  167.3074  141.4176 C   0  0  2  0  0  0  0  0  0  0  0  0
  115.4090  166.4714  141.0993 C   0  0  0  0  0  0  0  0  0  0  0  0
  114.2320  166.9897  140.5702 C   0  0  0  0  0  0  0  0  0  0  0  0
  114.1286  168.3090  140.2730 F   0  0  0  0  0  0  0  0  0  0  0  0
  113.1299  166.2065  140.2985 C   0  0  0  0  0  0  0  0  0  0  0  0
  111.6689  166.9414  139.6266 Cl  0  0  0  0  0  0  0  0  0  0  0  0
  113.1821  164.8813  140.5508 N   0  0  0  0  0  0  0  0  0  0  0  0
  114.2949  164.3208  141.0626 C   0  0  0  0  0  0  0  0  0  0  0  0
  115.3991  165.0900  141.3379 C   0  0  0  0  0  0  0  0  0  0  0  0
  117.9197  166.8001  140.9037 C   0  0  2  0  0  0  0  0  0  0  0  0
  117.6745  165.7876  139.9324 C   0  0  0  0  0  0  0  0  0  0  0  0
  117.1141  164.6274  139.9915 O   0  0  0  0  0  0  0  0  0  0  0  0
  118.1673  166.1983  138.6805 N   0  0  0  0  0  0  0  0  0  0  0  0
  118.6552  167.5228  138.8617 C   0  0  0  0  0  0  0  0  0  0  0  0
  119.2181  168.4137  137.9174 C   0  0  0  0  0  0  0  0  0  0  0  0
  119.5894  169.6796  138.3038 C   0  0  0  0  0  0  0  0  0  0  0  0
  120.2869  170.7773  137.1238 Cl  0  0  0  0  0  0  0  0  0  0  0  0
  119.4043  170.0613  139.6168 C   0  0  0  0  0  0  0  0  0  0  0  0
  118.8647  169.2332  140.5635 C   0  0  0  0  0  0  0  0  0  0  0  0
  118.4923  167.9359  140.1396 C   0  0  0  0  0  0  0  0  0  0  0  0
  116.5953  168.8519  143.4117 C   0  0  0  0  0  0  0  0  0  0  0  0
  116.2226  169.7574  142.6001 O   0  0  0  0  0  0  0  0  0  0  0  0
  116.9253  169.1530  144.7545 N   0  0  0  0  0  0  0  0  0  0  0  0
  116.7699  168.1547  145.7585 C   0  0  2  0  0  0  0  0  0  0  0  0
  115.5363  168.4130  146.6022 C   0  0  0  0  0  0  0  0  0  0  0  0
  115.8034  168.3379  148.0704 C   0  0  0  0  0  0  0  0  0  0  0  0
  116.7330  167.2243  148.4530 C   0  0  2  0  0  0  0  0  0  0  0  0
  117.7286  166.9777  147.5392 O   0  0  0  0  0  0  0  0  0  0  0  0
  117.9383  168.0834  146.7165 C   0  0  0  0  0  0  0  0  0  0  0  0
  115.9687  165.9716  148.7925 C   0  0  0  0  0  0  0  0  0  0  0  0
  116.2689  164.7539  148.1373 N   0  0  0  0  0  0  0  0  0  0  0  0
  115.0742  166.0730  149.6684 O   0  0  0  0  0  0  0  0  0  0  0  0
  1  2  1  0
  2  3  1  0
  2  4  1  0
  4  5  1  0
  5  6  1  0
  6  7  1  0
  7  8  1  0
  6  9  1  0
  9 10  1  0
 10 11  1  0
 11 12  1  1
 12 13  2  0
 13 14  1  0
 13 15  1  0
 15 16  1  0
 15 17  2  0
 17 18  1  0
 18 19  2  0
 11 20  1  0
 20 21  1  0
 21 22  2  0
 21 23  1  0
 23 24  1  0
 24 25  2  0
 25 26  1  0
 26 27  1  0
 26 28  2  0
 28 29  1  0
 29 30  2  0
 10 31  1  6
 31 32  2  0
 31 33  1  0
 34 33  1  6
 34 35  1  0
 35 36  1  0
 36 37  1  0
 37 38  1  0
 38 39  1  0
 37 40  1  6
 40 41  1  0
 40 42  2  0
  8  2  1  0
 19 12  1  0
 30 20  1  0
 39 34  1  0
 20  6  1  1
 30 24  1  0
M  END
$$$$
