
     RDKit          3D

 42 47  0  0  0  0  0  0  0  0999 V2000
  126.9792  165.8048  151.1667 C   0  0  0  0  0  0  0  0  0  0  0  0
  126.9699  165.2902  152.6139 C   0  0  0  0  0  0  0  0  0  0  0  0
  125.8809  165.9909  153.3722 C   0  0  0  0  0  0  0  0  0  0  0  0
  128.3363  165.4969  153.1558 C   0  0  0  0  0  0  0  0  0  0  0  0
  128.7536  164.4201  154.1742 C   0  0  0  0  0  0  0  0  0  0  0  0
  128.9020  163.0607  153.5337 C   0  0  0  0  0  0  0  0  0  0  0  0
  128.1083  163.1735  152.2527 C   0  0  0  0  0  0  0  0  0  0  0  0
  126.7334  163.8054  152.5217 C   0  0  0  0  0  0  0  0  0  0  0  0
  130.2764  162.9281  153.1753 N   0  0  0  0  0  0  0  0  0  0  0  0
  130.9638  161.9722  153.9451 C   0  0  2  0  0  0  0  0  0  0  0  0
  129.8676  161.1403  154.4897 C   0  0  2  0  0  0  0  0  0  0  0  0
  129.8936  159.8195  153.8309 C   0  0  0  0  0  0  0  0  0  0  0  0
  129.8860  158.6214  154.5367 C   0  0  0  0  0  0  0  0  0  0  0  0
  129.8044  158.6159  155.8906 F   0  0  0  0  0  0  0  0  0  0  0  0
  129.9356  157.3912  153.9154 C   0  0  0  0  0  0  0  0  0  0  0  0
  129.9230  155.9120  154.8839 Cl  0  0  0  0  0  0  0  0  0  0  0  0
  129.9933  157.3329  152.5679 N   0  0  0  0  0  0  0  0  0  0  0  0
  130.0028  158.4594  151.8294 C   0  0  0  0  0  0  0  0  0  0  0  0
  129.9542  159.6907  152.4362 C   0  0  0  0  0  0  0  0  0  0  0  0
  128.5620  161.9097  154.3858 C   0  0  2  0  0  0  0  0  0  0  0  0
  127.5439  161.0137  153.9509 C   0  0  0  0  0  0  0  0  0  0  0  0
  127.3738  160.3312  152.8697 O   0  0  0  0  0  0  0  0  0  0  0  0
  126.5567  160.8943  154.9460 N   0  0  0  0  0  0  0  0  0  0  0  0
  127.0115  161.6683  156.0503 C   0  0  0  0  0  0  0  0  0  0  0  0
  126.4211  161.8591  157.3220 C   0  0  0  0  0  0  0  0  0  0  0  0
  127.0604  162.6241  158.2683 C   0  0  0  0  0  0  0  0  0  0  0  0
  126.3189  162.8544  159.8434 Cl  0  0  0  0  0  0  0  0  0  0  0  0
  128.2770  163.1964  157.9577 C   0  0  0  0  0  0  0  0  0  0  0  0
  128.8844  163.0393  156.7413 C   0  0  0  0  0  0  0  0  0  0  0  0
  128.2046  162.2484  155.7856 C   0  0  0  0  0  0  0  0  0  0  0  0
  131.9841  162.4552  154.8816 C   0  0  0  0  0  0  0  0  0  0  0  0
  132.0816  161.8354  155.9879 O   0  0  0  0  0  0  0  0  0  0  0  0
  132.8198  163.5553  154.5744 N   0  0  0  0  0  0  0  0  0  0  0  0
  133.3640  163.6817  153.2643 C   0  0  2  0  0  0  0  0  0  0  0  0
  132.2855  163.5439  152.2070 C   0  0  0  0  0  0  0  0  0  0  0  0
  132.6514  162.5903  151.1163 C   0  0  0  0  0  0  0  0  0  0  0  0
  134.0864  162.6907  150.6907 C   0  0  2  0  0  0  0  0  0  0  0  0
  134.9626  162.9678  151.7117 O   0  0  0  0  0  0  0  0  0  0  0  0
  134.4111  162.6366  152.9485 C   0  0  0  0  0  0  0  0  0  0  0  0
  134.2467  163.6553  149.5449 C   0  0  0  0  0  0  0  0  0  0  0  0
  135.3821  164.4967  149.4752 N   0  0  0  0  0  0  0  0  0  0  0  0
  133.3355  163.6652  148.6805 O   0  0  0  0  0  0  0  0  0  0  0  0
  1  2  1  0
  2  3  1  0
  2  4  1  0
  4  5  1  0
  5  6  1  0
  6  7  1  0
  7  8  1  0
  6  9  1  0
  9 10  1  0
 10 11  1  0
 11 12  1  6
 12 13  2  0
 13 14  1  0
 13 15  1  0
 15 16  1  0
 15 17  2  0
 17 18  1  0
 18 19  2  0
 11 20  1  0
 20 21  1  0
 21 22  2  0
 21 23  1  0
 23 24  1  0
 24 25  2  0
 25 26  1  0
 26 27  1  0
 26 28  2  0
 28 29  1  0
 29 30  2  0
 10 31  1  1
 31 32  2  0
 31 33  1  0
 34 33  1  1
 34 35  1  0
 35 36  1  0
 36 37  1  0
 37 38  1  0
 38 39  1  0
 37 40  1  6
 40 41  1  0
 40 42  2  0
  8  2  1  0
 19 12  1  0
 30 20  1  0
 39 34  1  0
 20  6  1  6
 30 24  1  0
M  END
$$$$
