
     RDKit          3D

 42 47  0  0  0  0  0  0  0  0999 V2000
  170.2580  145.1507  127.1576 C   0  0  0  0  0  0  0  0  0  0  0  0
  169.7650  146.1469  128.2177 C   0  0  0  0  0  0  0  0  0  0  0  0
  170.5489  145.9408  129.4807 C   0  0  0  0  0  0  0  0  0  0  0  0
  168.3010  145.9441  128.3550 C   0  0  0  0  0  0  0  0  0  0  0  0
  167.5390  147.2385  128.6935 C   0  0  0  0  0  0  0  0  0  0  0  0
  167.5849  148.2364  127.5612 C   0  0  0  0  0  0  0  0  0  0  0  0
  168.7678  147.7920  126.7323 C   0  0  0  0  0  0  0  0  0  0  0  0
  169.9845  147.5164  127.6298 C   0  0  0  0  0  0  0  0  0  0  0  0
  166.4103  148.0203  126.7810 N   0  0  0  0  0  0  0  0  0  0  0  0
  165.4812  149.0728  126.8687 C   0  0  2  0  0  0  0  0  0  0  0  0
  166.3088  150.2014  127.3500 C   0  0  2  0  0  0  0  0  0  0  0  0
  166.4769  151.1758  126.2539 C   0  0  0  0  0  0  0  0  0  0  0  0
  165.7873  152.3822  126.2013 C   0  0  0  0  0  0  0  0  0  0  0  0
  164.9473  152.7437  127.2030 F   0  0  0  0  0  0  0  0  0  0  0  0
  165.9307  153.2768  125.1616 C   0  0  0  0  0  0  0  0  0  0  0  0
  165.0172  154.7906  125.1673 Cl  0  0  0  0  0  0  0  0  0  0  0  0
  166.7718  152.9826  124.1474 N   0  0  0  0  0  0  0  0  0  0  0  0
  167.4681  151.8295  124.1425 C   0  0  0  0  0  0  0  0  0  0  0  0
  167.3339  150.9301  125.1719 C   0  0  0  0  0  0  0  0  0  0  0  0
  167.5898  149.6544  127.9559 C   0  0  2  0  0  0  0  0  0  0  0  0
  168.6741  150.4774  127.5369 C   0  0  0  0  0  0  0  0  0  0  0  0
  169.1844  150.7420  126.3822 O   0  0  0  0  0  0  0  0  0  0  0  0
  169.2631  151.0958  128.6548 N   0  0  0  0  0  0  0  0  0  0  0  0
  168.4793  150.7119  129.7788 C   0  0  0  0  0  0  0  0  0  0  0  0
  168.6086  151.0841  131.1379 C   0  0  0  0  0  0  0  0  0  0  0  0
  167.7044  150.6235  132.0652 C   0  0  0  0  0  0  0  0  0  0  0  0
  167.8741  151.0916  133.7492 Cl  0  0  0  0  0  0  0  0  0  0  0  0
  166.6783  149.7998  131.6496 C   0  0  0  0  0  0  0  0  0  0  0  0
  166.5151  149.4140  130.3466 C   0  0  0  0  0  0  0  0  0  0  0  0
  167.4599  149.9012  129.4133 C   0  0  0  0  0  0  0  0  0  0  0  0
  164.2155  148.8103  127.5619 C   0  0  0  0  0  0  0  0  0  0  0  0
  163.6597  149.8035  128.1295 O   0  0  0  0  0  0  0  0  0  0  0  0
  163.6382  147.5187  127.6004 N   0  0  0  0  0  0  0  0  0  0  0  0
  163.1395  146.9345  126.4010 C   0  0  2  0  0  0  0  0  0  0  0  0
  163.3596  147.8503  125.2123 C   0  0  0  0  0  0  0  0  0  0  0  0
  162.1343  148.0316  124.3765 C   0  0  0  0  0  0  0  0  0  0  0  0
  161.3433  146.7702  124.1933 C   0  0  2  0  0  0  0  0  0  0  0  0
  161.3363  145.9412  125.2886 O   0  0  0  0  0  0  0  0  0  0  0  0
  161.6559  146.6431  126.4499 C   0  0  0  0  0  0  0  0  0  0  0  0
  161.7682  146.0391  122.9468 C   0  0  0  0  0  0  0  0  0  0  0  0
  161.3151  144.7208  122.7043 N   0  0  0  0  0  0  0  0  0  0  0  0
  162.5279  146.6556  122.1592 O   0  0  0  0  0  0  0  0  0  0  0  0
  1  2  1  0
  2  3  1  0
  2  4  1  0
  4  5  1  0
  5  6  1  0
  6  7  1  0
  7  8  1  0
  6  9  1  0
  9 10  1  0
 10 11  1  0
 11 12  1  6
 12 13  2  0
 13 14  1  0
 13 15  1  0
 15 16  1  0
 15 17  2  0
 17 18  1  0
 18 19  2  0
 11 20  1  0
 20 21  1  0
 21 22  2  0
 21 23  1  0
 23 24  1  0
 24 25  2  0
 25 26  1  0
 26 27  1  0
 26 28  2  0
 28 29  1  0
 29 30  2  0
 10 31  1  1
 31 32  2  0
 31 33  1  0
 34 33  1  1
 34 35  1  0
 35 36  1  0
 36 37  1  0
 37 38  1  0
 38 39  1  0
 37 40  1  6
 40 41  1  0
 40 42  2  0
  8  2  1  0
 19 12  1  0
 30 20  1  0
 39 34  1  0
 20  6  1  1
 30 24  1  0
M  END
$$$$
