
     RDKit          3D

 42 47  0  0  0  0  0  0  0  0999 V2000
  173.0916  159.9377  114.7095 C   0  0  0  0  0  0  0  0  0  0  0  0
  173.9434  161.1935  114.4719 C   0  0  0  0  0  0  0  0  0  0  0  0
  174.9666  161.3010  115.5644 C   0  0  0  0  0  0  0  0  0  0  0  0
  173.0068  162.3416  114.3827 C   0  0  0  0  0  0  0  0  0  0  0  0
  173.4894  163.4442  113.4224 C   0  0  0  0  0  0  0  0  0  0  0  0
  173.5082  162.9776  111.9864 C   0  0  0  0  0  0  0  0  0  0  0  0
  173.5246  161.4703  112.0939 C   0  0  0  0  0  0  0  0  0  0  0  0
  174.5760  161.0120  113.1168 C   0  0  0  0  0  0  0  0  0  0  0  0
  172.2535  163.3527  111.4207 N   0  0  0  0  0  0  0  0  0  0  0  0
  172.3586  164.3730  110.4580 C   0  0  2  0  0  0  0  0  0  0  0  0
  173.7843  164.3084  110.0663 C   0  0  2  0  0  0  0  0  0  0  0  0
  173.8826  163.7645  108.6974 C   0  0  0  0  0  0  0  0  0  0  0  0
  174.4264  164.4798  107.6361 C   0  0  0  0  0  0  0  0  0  0  0  0
  174.9449  165.7181  107.8292 F   0  0  0  0  0  0  0  0  0  0  0  0
  174.4924  163.9749  106.3545 C   0  0  0  0  0  0  0  0  0  0  0  0
  175.1985  164.9476  105.0578 Cl  0  0  0  0  0  0  0  0  0  0  0  0
  174.0141  162.7371  106.1060 N   0  0  0  0  0  0  0  0  0  0  0  0
  173.4762  161.9954  107.0934 C   0  0  0  0  0  0  0  0  0  0  0  0
  173.4043  162.4870  108.3740 C   0  0  0  0  0  0  0  0  0  0  0  0
  174.5596  163.5597  111.1366 C   0  0  2  0  0  0  0  0  0  0  0  0
  175.4835  162.6854  110.4958 C   0  0  0  0  0  0  0  0  0  0  0  0
  175.3384  161.6706  109.7130 O   0  0  0  0  0  0  0  0  0  0  0  0
  176.7995  163.0579  110.8248 N   0  0  0  0  0  0  0  0  0  0  0  0
  176.6917  164.2335  111.6196 C   0  0  0  0  0  0  0  0  0  0  0  0
  177.7105  165.0400  112.1798 C   0  0  0  0  0  0  0  0  0  0  0  0
  177.3799  166.1707  112.8882 C   0  0  0  0  0  0  0  0  0  0  0  0
  178.6521  167.1646  113.5791 Cl  0  0  0  0  0  0  0  0  0  0  0  0
  176.0489  166.5010  113.0411 C   0  0  0  0  0  0  0  0  0  0  0  0
  175.0310  165.7504  112.5176 C   0  0  0  0  0  0  0  0  0  0  0  0
  175.3989  164.5918  111.7941 C   0  0  0  0  0  0  0  0  0  0  0  0
  171.8016  165.6878  110.7929 C   0  0  0  0  0  0  0  0  0  0  0  0
  170.5975  165.7096  111.2018 O   0  0  0  0  0  0  0  0  0  0  0  0
  172.5615  166.8752  110.6685 N   0  0  0  0  0  0  0  0  0  0  0  0
  172.2013  167.8419  109.6865 C   0  0  2  0  0  0  0  0  0  0  0  0
  170.8710  167.5004  109.0431 C   0  0  0  0  0  0  0  0  0  0  0  0
  170.9093  167.5578  107.5504 C   0  0  0  0  0  0  0  0  0  0  0  0
  171.7072  168.7106  107.0165 C   0  0  2  0  0  0  0  0  0  0  0  0
  172.8137  169.0294  107.7654 O   0  0  0  0  0  0  0  0  0  0  0  0
  173.2063  167.9544  108.5615 C   0  0  0  0  0  0  0  0  0  0  0  0
  170.8319  169.9134  106.7801 C   0  0  0  0  0  0  0  0  0  0  0  0
  171.1252  171.1439  107.4140 N   0  0  0  0  0  0  0  0  0  0  0  0
  169.8538  169.7598  106.0073 O   0  0  0  0  0  0  0  0  0  0  0  0
  1  2  1  0
  2  3  1  0
  2  4  1  0
  4  5  1  0
  5  6  1  0
  6  7  1  0
  7  8  1  0
  6  9  1  0
  9 10  1  0
 10 11  1  0
 11 12  1  6
 12 13  2  0
 13 14  1  0
 13 15  1  0
 15 16  1  0
 15 17  2  0
 17 18  1  0
 18 19  2  0
 11 20  1  0
 20 21  1  0
 21 22  2  0
 21 23  1  0
 23 24  1  0
 24 25  2  0
 25 26  1  0
 26 27  1  0
 26 28  2  0
 28 29  1  0
 29 30  2  0
 10 31  1  1
 31 32  2  0
 31 33  1  0
 34 33  1  1
 34 35  1  0
 35 36  1  0
 36 37  1  0
 37 38  1  0
 38 39  1  0
 37 40  1  1
 40 41  1  0
 40 42  2  0
  8  2  1  0
 19 12  1  0
 30 20  1  0
 39 34  1  0
 20  6  1  1
 30 24  1  0
M  END
$$$$
