
     RDKit          3D

 42 47  0  0  0  0  0  0  0  0999 V2000
  112.7024  167.9688  145.4601 C   0  0  0  0  0  0  0  0  0  0  0  0
  113.0167  167.3804  144.0765 C   0  0  0  0  0  0  0  0  0  0  0  0
  111.7835  167.4553  143.2247 C   0  0  0  0  0  0  0  0  0  0  0  0
  113.5367  166.0078  144.2975 C   0  0  0  0  0  0  0  0  0  0  0  0
  114.5857  165.5819  143.2541 C   0  0  0  0  0  0  0  0  0  0  0  0
  115.8561  166.3907  143.3641 C   0  0  0  0  0  0  0  0  0  0  0  0
  115.4338  167.6308  144.1173 C   0  0  0  0  0  0  0  0  0  0  0  0
  114.1425  168.2128  143.5208 C   0  0  0  0  0  0  0  0  0  0  0  0
  116.7351  165.6535  144.2120 N   0  0  0  0  0  0  0  0  0  0  0  0
  117.8474  165.1216  143.5348 C   0  0  2  0  0  0  0  0  0  0  0  0
  117.9131  165.9508  142.3106 C   0  0  2  0  0  0  0  0  0  0  0  0
  119.0867  166.8422  142.3962 C   0  0  0  0  0  0  0  0  0  0  0  0
  120.1114  166.8366  141.4562 C   0  0  0  0  0  0  0  0  0  0  0  0
  120.0505  166.0261  140.3703 F   0  0  0  0  0  0  0  0  0  0  0  0
  121.2172  167.6547  141.5557 C   0  0  0  0  0  0  0  0  0  0  0  0
  122.4789  167.5878  140.3190 Cl  0  0  0  0  0  0  0  0  0  0  0  0
  121.3216  168.5008  142.6026 N   0  0  0  0  0  0  0  0  0  0  0  0
  120.3606  168.5524  143.5451 C   0  0  0  0  0  0  0  0  0  0  0  0
  119.2547  167.7425  143.4576 C   0  0  0  0  0  0  0  0  0  0  0  0
  116.5727  166.6342  142.1016 C   0  0  2  0  0  0  0  0  0  0  0  0
  116.8103  167.9794  141.6984 C   0  0  0  0  0  0  0  0  0  0  0  0
  117.3755  168.9852  142.2750 O   0  0  0  0  0  0  0  0  0  0  0  0
  116.3018  168.1859  140.4032 N   0  0  0  0  0  0  0  0  0  0  0  0
  115.8112  166.9242  139.9641 C   0  0  0  0  0  0  0  0  0  0  0  0
  115.2343  166.5628  138.7236 C   0  0  0  0  0  0  0  0  0  0  0  0
  114.8630  165.2597  138.4924 C   0  0  0  0  0  0  0  0  0  0  0  0
  114.1481  164.8220  136.9493 Cl  0  0  0  0  0  0  0  0  0  0  0  0
  115.0618  164.3199  139.4830 C   0  0  0  0  0  0  0  0  0  0  0  0
  115.6152  164.6244  140.6973 C   0  0  0  0  0  0  0  0  0  0  0  0
  115.9873  165.9726  140.9094 C   0  0  0  0  0  0  0  0  0  0  0  0
  117.9185  163.6651  143.3772 C   0  0  0  0  0  0  0  0  0  0  0  0
  116.9261  163.1035  142.8141 O   0  0  0  0  0  0  0  0  0  0  0  0
  119.0328  162.9180  143.8279 N   0  0  0  0  0  0  0  0  0  0  0  0
  119.8806  163.4577  144.8372 C   0  0  2  0  0  0  0  0  0  0  0  0
  119.0706  164.0632  145.9674 C   0  0  0  0  0  0  0  0  0  0  0  0
  119.5252  165.4355  146.3454 C   0  0  0  0  0  0  0  0  0  0  0  0
  121.0172  165.5919  146.3474 C   0  0  2  0  0  0  0  0  0  0  0  0
  121.6635  164.8770  145.3686 O   0  0  0  0  0  0  0  0  0  0  0  0
  120.7935  164.5516  144.3290 C   0  0  0  0  0  0  0  0  0  0  0  0
  121.5908  165.3093  147.7112 C   0  0  0  0  0  0  0  0  0  0  0  0
  121.3455  166.1970  148.7854 N   0  0  0  0  0  0  0  0  0  0  0  0
  122.2805  164.2666  147.8313 O   0  0  0  0  0  0  0  0  0  0  0  0
  1  2  1  0
  2  3  1  0
  2  4  1  0
  4  5  1  0
  5  6  1  0
  6  7  1  0
  7  8  1  0
  6  9  1  0
  9 10  1  0
 10 11  1  0
 11 12  1  1
 12 13  2  0
 13 14  1  0
 13 15  1  0
 15 16  1  0
 15 17  2  0
 17 18  1  0
 18 19  2  0
 11 20  1  0
 20 21  1  0
 21 22  2  0
 21 23  1  0
 23 24  1  0
 24 25  2  0
 25 26  1  0
 26 27  1  0
 26 28  2  0
 28 29  1  0
 29 30  2  0
 10 31  1  6
 31 32  2  0
 31 33  1  0
 34 33  1  6
 34 35  1  0
 35 36  1  0
 36 37  1  0
 37 38  1  0
 38 39  1  0
 37 40  1  1
 40 41  1  0
 40 42  2  0
  8  2  1  0
 19 12  1  0
 30 20  1  0
 39 34  1  0
 20  6  1  1
 30 24  1  0
M  END
$$$$
