
     RDKit          3D

 42 47  0  0  0  0  0  0  0  0999 V2000
  199.7044  134.5302  137.3335 C   0  0  0  0  0  0  0  0  0  0  0  0
  200.3187  135.0216  136.0142 C   0  0  0  0  0  0  0  0  0  0  0  0
  199.4957  136.1616  135.4894 C   0  0  0  0  0  0  0  0  0  0  0  0
  200.4006  133.8468  135.1105 C   0  0  0  0  0  0  0  0  0  0  0  0
  201.6094  133.8980  134.1582 C   0  0  0  0  0  0  0  0  0  0  0  0
  202.9202  133.7818  134.8987 C   0  0  0  0  0  0  0  0  0  0  0  0
  202.5701  134.1586  136.3196 C   0  0  0  0  0  0  0  0  0  0  0  0
  201.7262  135.4428  136.3467 C   0  0  0  0  0  0  0  0  0  0  0  0
  203.2673  132.3981  134.8960 N   0  0  0  0  0  0  0  0  0  0  0  0
  204.3864  132.1054  134.0956 C   0  0  2  0  0  0  0  0  0  0  0  0
  205.0494  133.4221  133.9650 C   0  0  2  0  0  0  0  0  0  0  0  0
  206.2992  133.4110  134.7505 C   0  0  0  0  0  0  0  0  0  0  0  0
  207.5570  133.5472  134.1734 C   0  0  0  0  0  0  0  0  0  0  0  0
  207.6882  133.7484  132.8385 F   0  0  0  0  0  0  0  0  0  0  0  0
  208.7220  133.5110  134.9106 C   0  0  0  0  0  0  0  0  0  0  0  0
  210.2841  133.6909  134.1021 Cl  0  0  0  0  0  0  0  0  0  0  0  0
  208.6533  133.3377  136.2477 N   0  0  0  0  0  0  0  0  0  0  0  0
  207.4635  133.2007  136.8643 C   0  0  0  0  0  0  0  0  0  0  0  0
  206.2961  133.2345  136.1413 C   0  0  0  0  0  0  0  0  0  0  0  0
  204.0544  134.5155  134.3139 C   0  0  2  0  0  0  0  0  0  0  0  0
  204.7189  135.4935  135.1080 C   0  0  0  0  0  0  0  0  0  0  0  0
  205.2752  135.4542  136.2711 O   0  0  0  0  0  0  0  0  0  0  0  0
  204.7368  136.7261  134.4303 N   0  0  0  0  0  0  0  0  0  0  0  0
  204.1432  136.4881  133.1590 C   0  0  0  0  0  0  0  0  0  0  0  0
  203.9485  137.3756  132.0742 C   0  0  0  0  0  0  0  0  0  0  0  0
  203.3844  136.9197  130.9066 C   0  0  0  0  0  0  0  0  0  0  0  0
  203.1474  138.0294  129.5664 Cl  0  0  0  0  0  0  0  0  0  0  0  0
  203.0154  135.5933  130.8132 C   0  0  0  0  0  0  0  0  0  0  0  0
  203.1843  134.7002  131.8366 C   0  0  0  0  0  0  0  0  0  0  0  0
  203.7660  135.1957  133.0271 C   0  0  0  0  0  0  0  0  0  0  0  0
  204.1659  131.3279  132.8716 C   0  0  0  0  0  0  0  0  0  0  0  0
  203.8187  131.9803  131.8366 O   0  0  0  0  0  0  0  0  0  0  0  0
  204.3296  129.9225  132.8391 N   0  0  0  0  0  0  0  0  0  0  0  0
  205.5801  129.3684  132.4420 C   0  0  2  0  0  0  0  0  0  0  0  0
  206.4906  129.1578  133.6365 C   0  0  0  0  0  0  0  0  0  0  0  0
  207.8683  129.6969  133.4264 C   0  0  0  0  0  0  0  0  0  0  0  0
  208.4020  129.4525  132.0459 C   0  0  2  0  0  0  0  0  0  0  0  0
  207.4564  129.5210  131.0520 O   0  0  0  0  0  0  0  0  0  0  0  0
  206.3408  130.2444  131.4712 C   0  0  0  0  0  0  0  0  0  0  0  0
  209.1792  128.1636  131.9846 C   0  0  0  0  0  0  0  0  0  0  0  0
  208.5669  126.9438  132.3580 N   0  0  0  0  0  0  0  0  0  0  0  0
  210.3701  128.2377  131.5926 O   0  0  0  0  0  0  0  0  0  0  0  0
  1  2  1  0
  2  3  1  0
  2  4  1  0
  4  5  1  0
  5  6  1  0
  6  7  1  0
  7  8  1  0
  6  9  1  0
  9 10  1  0
 10 11  1  0
 11 12  1  1
 12 13  2  0
 13 14  1  0
 13 15  1  0
 15 16  1  0
 15 17  2  0
 17 18  1  0
 18 19  2  0
 11 20  1  0
 20 21  1  0
 21 22  2  0
 21 23  1  0
 23 24  1  0
 24 25  2  0
 25 26  1  0
 26 27  1  0
 26 28  2  0
 28 29  1  0
 29 30  2  0
 10 31  1  6
 31 32  2  0
 31 33  1  0
 34 33  1  1
 34 35  1  0
 35 36  1  0
 36 37  1  0
 37 38  1  0
 38 39  1  0
 37 40  1  1
 40 41  1  0
 40 42  2  0
  8  2  1  0
 19 12  1  0
 30 20  1  0
 39 34  1  0
 20  6  1  1
 30 24  1  0
M  END
$$$$
