
     RDKit          3D

 42 47  0  0  0  0  0  0  0  0999 V2000
  185.4042  154.0858  126.4056 C   0  0  0  0  0  0  0  0  0  0  0  0
  186.6858  154.2162  125.5692 C   0  0  0  0  0  0  0  0  0  0  0  0
  186.6931  153.1432  124.5200 C   0  0  0  0  0  0  0  0  0  0  0  0
  187.8279  154.1669  126.5162 C   0  0  0  0  0  0  0  0  0  0  0  0
  189.0260  155.0226  126.0656 C   0  0  0  0  0  0  0  0  0  0  0  0
  188.7061  156.4983  126.0790 C   0  0  0  0  0  0  0  0  0  0  0  0
  187.1959  156.5435  126.0489 C   0  0  0  0  0  0  0  0  0  0  0  0
  186.6476  155.5974  124.9691 C   0  0  0  0  0  0  0  0  0  0  0  0
  189.1239  156.9932  127.3501 N   0  0  0  0  0  0  0  0  0  0  0  0
  190.2366  157.8506  127.2765 C   0  0  2  0  0  0  0  0  0  0  0  0
  190.2257  158.2809  125.8605 C   0  0  2  0  0  0  0  0  0  0  0  0
  189.8230  159.6995  125.7922 C   0  0  0  0  0  0  0  0  0  0  0  0
  190.5748  160.6689  125.1374 C   0  0  0  0  0  0  0  0  0  0  0  0
  191.7120  160.3347  124.4780 F   0  0  0  0  0  0  0  0  0  0  0  0
  190.2053  161.9970  125.0988 C   0  0  0  0  0  0  0  0  0  0  0  0
  191.2162  163.1700  124.2454 Cl  0  0  0  0  0  0  0  0  0  0  0  0
  189.0696  162.3855  125.7168 N   0  0  0  0  0  0  0  0  0  0  0  0
  188.2989  161.4923  126.3669 C   0  0  0  0  0  0  0  0  0  0  0  0
  188.6562  160.1669  126.4130 C   0  0  0  0  0  0  0  0  0  0  0  0
  189.3810  157.3102  125.0533 C   0  0  2  0  0  0  0  0  0  0  0  0
  188.5845  158.0576  124.1392 C   0  0  0  0  0  0  0  0  0  0  0  0
  187.6521  158.9349  124.2963 O   0  0  0  0  0  0  0  0  0  0  0  0
  188.9350  157.7244  122.8182 N   0  0  0  0  0  0  0  0  0  0  0  0
  190.0237  156.8130  122.9150 C   0  0  0  0  0  0  0  0  0  0  0  0
  190.7799  156.1991  121.8885 C   0  0  0  0  0  0  0  0  0  0  0  0
  191.8303  155.3727  122.2098 C   0  0  0  0  0  0  0  0  0  0  0  0
  192.7623  154.6160  120.9281 Cl  0  0  0  0  0  0  0  0  0  0  0  0
  192.1306  155.1556  123.5390 C   0  0  0  0  0  0  0  0  0  0  0  0
  191.4264  155.7275  124.5639 C   0  0  0  0  0  0  0  0  0  0  0  0
  190.3499  156.5725  124.2056 C   0  0  0  0  0  0  0  0  0  0  0  0
  191.5057  157.3718  127.8346 C   0  0  0  0  0  0  0  0  0  0  0  0
  191.6884  156.1132  127.8376 O   0  0  0  0  0  0  0  0  0  0  0  0
  192.4805  158.2614  128.3457 N   0  0  0  0  0  0  0  0  0  0  0  0
  192.1085  159.2264  129.3249 C   0  0  2  0  0  0  0  0  0  0  0  0
  190.7333  158.9303  129.8918 C   0  0  0  0  0  0  0  0  0  0  0  0
  189.8373  160.1259  129.9126 C   0  0  0  0  0  0  0  0  0  0  0  0
  190.5376  161.3912  130.3117 C   0  0  2  0  0  0  0  0  0  0  0  0
  191.8339  161.4861  129.8672 O   0  0  0  0  0  0  0  0  0  0  0  0
  192.0550  160.6378  128.7832 C   0  0  0  0  0  0  0  0  0  0  0  0
  190.4424  161.6189  131.7976 C   0  0  0  0  0  0  0  0  0  0  0  0
  190.7039  162.8991  132.3405 N   0  0  0  0  0  0  0  0  0  0  0  0
  190.1255  160.6296  132.5036 O   0  0  0  0  0  0  0  0  0  0  0  0
  1  2  1  0
  2  3  1  0
  2  4  1  0
  4  5  1  0
  5  6  1  0
  6  7  1  0
  7  8  1  0
  6  9  1  0
  9 10  1  0
 10 11  1  0
 11 12  1  1
 12 13  2  0
 13 14  1  0
 13 15  1  0
 15 16  1  0
 15 17  2  0
 17 18  1  0
 18 19  2  0
 11 20  1  0
 20 21  1  0
 21 22  2  0
 21 23  1  0
 23 24  1  0
 24 25  2  0
 25 26  1  0
 26 27  1  0
 26 28  2  0
 28 29  1  0
 29 30  2  0
 10 31  1  6
 31 32  2  0
 31 33  1  0
 34 33  1  6
 34 35  1  0
 35 36  1  0
 36 37  1  0
 37 38  1  0
 38 39  1  0
 37 40  1  1
 40 41  1  0
 40 42  2  0
  8  2  1  0
 19 12  1  0
 30 20  1  0
 39 34  1  0
 20  6  1  1
 30 24  1  0
M  END
$$$$
