
     RDKit          3D

 42 47  0  0  0  0  0  0  0  0999 V2000
  199.3851  131.3551  135.6039 C   0  0  0  0  0  0  0  0  0  0  0  0
  200.7457  132.0183  135.8650 C   0  0  0  0  0  0  0  0  0  0  0  0
  201.5083  131.1896  136.8570 C   0  0  0  0  0  0  0  0  0  0  0  0
  200.4725  133.4113  136.2989 C   0  0  0  0  0  0  0  0  0  0  0  0
  201.5592  134.4081  135.8560 C   0  0  0  0  0  0  0  0  0  0  0  0
  201.5964  134.5773  134.3559 C   0  0  0  0  0  0  0  0  0  0  0  0
  200.8986  133.3431  133.8331 C   0  0  0  0  0  0  0  0  0  0  0  0
  201.4364  132.0821  134.5278 C   0  0  0  0  0  0  0  0  0  0  0  0
  200.7679  135.6983  134.0526 N   0  0  0  0  0  0  0  0  0  0  0  0
  201.4877  136.8151  133.5909 C   0  0  2  0  0  0  0  0  0  0  0  0
  202.7658  136.2188  133.1425 C   0  0  2  0  0  0  0  0  0  0  0  0
  202.8258  136.2630  131.6681 C   0  0  0  0  0  0  0  0  0  0  0  0
  203.8601  136.8777  130.9709 C   0  0  0  0  0  0  0  0  0  0  0  0
  204.9059  137.4338  131.6317 F   0  0  0  0  0  0  0  0  0  0  0  0
  203.8970  136.9369  129.5936 C   0  0  0  0  0  0  0  0  0  0  0  0
  205.2474  137.7379  128.7804 Cl  0  0  0  0  0  0  0  0  0  0  0  0
  202.8954  136.3790  128.8807 N   0  0  0  0  0  0  0  0  0  0  0  0
  201.8665  135.7685  129.4995 C   0  0  0  0  0  0  0  0  0  0  0  0
  201.8179  135.7032  130.8707 C   0  0  0  0  0  0  0  0  0  0  0  0
  202.9213  134.8458  133.7735 C   0  0  2  0  0  0  0  0  0  0  0  0
  203.4295  133.9516  132.7883 C   0  0  0  0  0  0  0  0  0  0  0  0
  202.9639  133.5214  131.6649 O   0  0  0  0  0  0  0  0  0  0  0  0
  204.6949  133.4787  133.1807 N   0  0  0  0  0  0  0  0  0  0  0  0
  205.0119  134.1540  134.3927 C   0  0  0  0  0  0  0  0  0  0  0  0
  206.1801  134.0794  135.1877 C   0  0  0  0  0  0  0  0  0  0  0  0
  206.2964  134.8606  136.3127 C   0  0  0  0  0  0  0  0  0  0  0  0
  207.7505  134.7604  137.2921 Cl  0  0  0  0  0  0  0  0  0  0  0  0
  205.2626  135.7106  136.6486 C   0  0  0  0  0  0  0  0  0  0  0  0
  204.1150  135.8148  135.9100 C   0  0  0  0  0  0  0  0  0  0  0  0
  204.0208  134.9991  134.7580 C   0  0  0  0  0  0  0  0  0  0  0  0
  201.5527  137.9933  134.4621 C   0  0  0  0  0  0  0  0  0  0  0  0
  202.2517  137.8831  135.5189 O   0  0  0  0  0  0  0  0  0  0  0  0
  200.8734  139.1943  134.1472 N   0  0  0  0  0  0  0  0  0  0  0  0
  201.1352  139.8471  132.9087 C   0  0  2  0  0  0  0  0  0  0  0  0
  202.6189  139.8521  132.5944 C   0  0  0  0  0  0  0  0  0  0  0  0
  203.1295  141.1984  132.1947 C   0  0  0  0  0  0  0  0  0  0  0  0
  202.1890  141.9543  131.3034 C   0  0  2  0  0  0  0  0  0  0  0  0
  200.8591  141.7570  131.5851 O   0  0  0  0  0  0  0  0  0  0  0  0
  200.6869  141.2917  132.8880 C   0  0  0  0  0  0  0  0  0  0  0  0
  202.4925  141.6965  129.8507 C   0  0  0  0  0  0  0  0  0  0  0  0
  201.6903  142.2784  128.8409 N   0  0  0  0  0  0  0  0  0  0  0  0
  203.4741  140.9541  129.5997 O   0  0  0  0  0  0  0  0  0  0  0  0
  1  2  1  0
  2  3  1  0
  2  4  1  0
  4  5  1  0
  5  6  1  0
  6  7  1  0
  7  8  1  0
  6  9  1  0
  9 10  1  0
 10 11  1  0
 11 12  1  6
 12 13  2  0
 13 14  1  0
 13 15  1  0
 15 16  1  0
 15 17  2  0
 17 18  1  0
 18 19  2  0
 11 20  1  0
 20 21  1  0
 21 22  2  0
 21 23  1  0
 23 24  1  0
 24 25  2  0
 25 26  1  0
 26 27  1  0
 26 28  2  0
 28 29  1  0
 29 30  2  0
 10 31  1  1
 31 32  2  0
 31 33  1  0
 34 33  1  1
 34 35  1  0
 35 36  1  0
 36 37  1  0
 37 38  1  0
 38 39  1  0
 37 40  1  6
 40 41  1  0
 40 42  2  0
  8  2  1  0
 19 12  1  0
 30 20  1  0
 39 34  1  0
 20  6  1  1
 30 24  1  0
M  END
$$$$
