
     RDKit          3D

 42 47  0  0  0  0  0  0  0  0999 V2000
  170.3912  151.5393  131.2955 C   0  0  0  0  0  0  0  0  0  0  0  0
  169.1514  150.6328  131.3041 C   0  0  0  0  0  0  0  0  0  0  0  0
  168.7559  150.3631  132.7265 C   0  0  0  0  0  0  0  0  0  0  0  0
  169.4936  149.4234  130.5145 C   0  0  0  0  0  0  0  0  0  0  0  0
  168.2889  148.8312  129.7603 C   0  0  0  0  0  0  0  0  0  0  0  0
  167.7921  149.7527  128.6721 C   0  0  0  0  0  0  0  0  0  0  0  0
  168.3418  151.1054  129.0618 C   0  0  0  0  0  0  0  0  0  0  0  0
  168.0855  151.3851  130.5510 C   0  0  0  0  0  0  0  0  0  0  0  0
  168.4490  149.3538  127.4703 N   0  0  0  0  0  0  0  0  0  0  0  0
  167.5837  148.7640  126.5311 C   0  0  2  0  0  0  0  0  0  0  0  0
  166.2518  149.2368  126.9704 C   0  0  2  0  0  0  0  0  0  0  0  0
  165.7457  150.2222  125.9947 C   0  0  0  0  0  0  0  0  0  0  0  0
  164.6514  149.9790  125.1718 C   0  0  0  0  0  0  0  0  0  0  0  0
  163.9580  148.8172  125.2672 F   0  0  0  0  0  0  0  0  0  0  0  0
  164.1991  150.8945  124.2449 C   0  0  0  0  0  0  0  0  0  0  0  0
  162.8002  150.5099  123.2342 Cl  0  0  0  0  0  0  0  0  0  0  0  0
  164.8345  152.0792  124.1213 N   0  0  0  0  0  0  0  0  0  0  0  0
  165.9001  152.3730  124.8911 C   0  0  0  0  0  0  0  0  0  0  0  0
  166.3606  151.4695  125.8176 C   0  0  0  0  0  0  0  0  0  0  0  0
  166.3443  149.7133  128.4098 C   0  0  2  0  0  0  0  0  0  0  0  0
  165.5932  150.9169  128.5355 C   0  0  0  0  0  0  0  0  0  0  0  0
  165.7108  152.0880  128.0079 O   0  0  0  0  0  0  0  0  0  0  0  0
  164.5243  150.7209  129.4288 N   0  0  0  0  0  0  0  0  0  0  0  0
  164.5663  149.3482  129.8020 C   0  0  0  0  0  0  0  0  0  0  0  0
  163.6979  148.6161  130.6459 C   0  0  0  0  0  0  0  0  0  0  0  0
  163.9009  147.2703  130.8390 C   0  0  0  0  0  0  0  0  0  0  0  0
  162.8173  146.3712  131.8883 Cl  0  0  0  0  0  0  0  0  0  0  0  0
  164.9570  146.6531  130.2003 C   0  0  0  0  0  0  0  0  0  0  0  0
  165.8217  147.3214  129.3764 C   0  0  0  0  0  0  0  0  0  0  0  0
  165.5908  148.7054  129.1960 C   0  0  0  0  0  0  0  0  0  0  0  0
  167.7442  147.3315  126.2601 C   0  0  0  0  0  0  0  0  0  0  0  0
  166.7549  146.7382  125.7247 O   0  0  0  0  0  0  0  0  0  0  0  0
  168.9376  146.6399  126.5770 N   0  0  0  0  0  0  0  0  0  0  0  0
  168.8660  145.3623  127.2025 C   0  0  2  0  0  0  0  0  0  0  0  0
  167.5115  145.1435  127.8488 C   0  0  0  0  0  0  0  0  0  0  0  0
  167.6056  144.6466  129.2549 C   0  0  0  0  0  0  0  0  0  0  0  0
  168.6878  143.6277  129.4579 C   0  0  2  0  0  0  0  0  0  0  0  0
  169.8173  143.8428  128.7065 O   0  0  0  0  0  0  0  0  0  0  0  0
  169.8977  145.1716  128.2923 C   0  0  0  0  0  0  0  0  0  0  0  0
  168.1581  142.2295  129.2757 C   0  0  0  0  0  0  0  0  0  0  0  0
  166.7728  141.9702  129.4011 N   0  0  0  0  0  0  0  0  0  0  0  0
  168.9991  141.3344  129.0130 O   0  0  0  0  0  0  0  0  0  0  0  0
  1  2  1  0
  2  3  1  0
  2  4  1  0
  4  5  1  0
  5  6  1  0
  6  7  1  0
  7  8  1  0
  6  9  1  0
  9 10  1  0
 10 11  1  0
 11 12  1  6
 12 13  2  0
 13 14  1  0
 13 15  1  0
 15 16  1  0
 15 17  2  0
 17 18  1  0
 18 19  2  0
 11 20  1  0
 20 21  1  0
 21 22  2  0
 21 23  1  0
 23 24  1  0
 24 25  2  0
 25 26  1  0
 26 27  1  0
 26 28  2  0
 28 29  1  0
 29 30  2  0
 10 31  1  1
 31 32  2  0
 31 33  1  0
 34 33  1  1
 34 35  1  0
 35 36  1  0
 36 37  1  0
 37 38  1  0
 38 39  1  0
 37 40  1  6
 40 41  1  0
 40 42  2  0
  8  2  1  0
 19 12  1  0
 30 20  1  0
 39 34  1  0
 20  6  1  1
 30 24  1  0
M  END
$$$$
