
     RDKit          3D

 42 47  0  0  0  0  0  0  0  0999 V2000
  177.8462  166.2913  111.7580 C   0  0  0  0  0  0  0  0  0  0  0  0
  176.9705  165.1028  112.1817 C   0  0  0  0  0  0  0  0  0  0  0  0
  177.6859  164.3276  113.2492 C   0  0  0  0  0  0  0  0  0  0  0  0
  176.6649  164.3298  110.9518 C   0  0  0  0  0  0  0  0  0  0  0  0
  175.2787  163.6604  110.9856 C   0  0  0  0  0  0  0  0  0  0  0  0
  174.1590  164.6734  110.9730 C   0  0  0  0  0  0  0  0  0  0  0  0
  174.8202  165.9522  111.4323 C   0  0  0  0  0  0  0  0  0  0  0  0
  175.6801  165.6989  112.6806 C   0  0  0  0  0  0  0  0  0  0  0  0
  173.7867  164.8506  109.6074 N   0  0  0  0  0  0  0  0  0  0  0  0
  172.5130  164.3357  109.3053 C   0  0  2  0  0  0  0  0  0  0  0  0
  171.8693  164.2522  110.6353 C   0  0  2  0  0  0  0  0  0  0  0  0
  170.8214  165.2879  110.7281 C   0  0  0  0  0  0  0  0  0  0  0  0
  169.5698  165.0504  111.2855 C   0  0  0  0  0  0  0  0  0  0  0  0
  169.2693  163.8419  111.8230 F   0  0  0  0  0  0  0  0  0  0  0  0
  168.5868  166.0157  111.3464 C   0  0  0  0  0  0  0  0  0  0  0  0
  167.0195  165.6350  112.0707 Cl  0  0  0  0  0  0  0  0  0  0  0  0
  168.8365  167.2458  110.8493 N   0  0  0  0  0  0  0  0  0  0  0  0
  170.0304  167.5366  110.2975 C   0  0  0  0  0  0  0  0  0  0  0  0
  171.0175  166.5838  110.2305 C   0  0  0  0  0  0  0  0  0  0  0  0
  172.9424  164.2938  111.7095 C   0  0  2  0  0  0  0  0  0  0  0  0
  172.4911  165.1364  112.7655 C   0  0  0  0  0  0  0  0  0  0  0  0
  172.2018  166.3918  112.8285 O   0  0  0  0  0  0  0  0  0  0  0  0
  172.3552  164.3872  113.9484 N   0  0  0  0  0  0  0  0  0  0  0  0
  172.6507  163.0394  113.6001 C   0  0  0  0  0  0  0  0  0  0  0  0
  172.6248  161.8741  114.4024 C   0  0  0  0  0  0  0  0  0  0  0  0
  172.9090  160.6501  113.8452 C   0  0  0  0  0  0  0  0  0  0  0  0
  172.8739  159.2103  114.8499 Cl  0  0  0  0  0  0  0  0  0  0  0  0
  173.2167  160.5800  112.5019 C   0  0  0  0  0  0  0  0  0  0  0  0
  173.2542  161.6802  111.6887 C   0  0  0  0  0  0  0  0  0  0  0  0
  172.9588  162.9273  112.2876 C   0  0  0  0  0  0  0  0  0  0  0  0
  172.4419  163.1555  108.4373 C   0  0  0  0  0  0  0  0  0  0  0  0
  171.3774  162.4626  108.5033 O   0  0  0  0  0  0  0  0  0  0  0  0
  173.5018  162.8012  107.5690 N   0  0  0  0  0  0  0  0  0  0  0  0
  173.8121  163.6380  106.4590 C   0  0  2  0  0  0  0  0  0  0  0  0
  173.8707  162.8402  105.1705 C   0  0  0  0  0  0  0  0  0  0  0  0
  175.0979  163.1172  104.3642 C   0  0  0  0  0  0  0  0  0  0  0  0
  175.4884  164.5656  104.3479 C   0  0  2  0  0  0  0  0  0  0  0  0
  175.2514  165.2300  105.5266 O   0  0  0  0  0  0  0  0  0  0  0  0
  175.1468  164.3374  106.5923 C   0  0  0  0  0  0  0  0  0  0  0  0
  174.8724  165.2808  103.1741 C   0  0  0  0  0  0  0  0  0  0  0  0
  174.0039  166.3779  103.3839 N   0  0  0  0  0  0  0  0  0  0  0  0
  175.1697  164.8544  102.0307 O   0  0  0  0  0  0  0  0  0  0  0  0
  1  2  1  0
  2  3  1  0
  2  4  1  0
  4  5  1  0
  5  6  1  0
  6  7  1  0
  7  8  1  0
  6  9  1  0
  9 10  1  0
 10 11  1  0
 11 12  1  1
 12 13  2  0
 13 14  1  0
 13 15  1  0
 15 16  1  0
 15 17  2  0
 17 18  1  0
 18 19  2  0
 11 20  1  0
 20 21  1  0
 21 22  2  0
 21 23  1  0
 23 24  1  0
 24 25  2  0
 25 26  1  0
 26 27  1  0
 26 28  2  0
 28 29  1  0
 29 30  2  0
 10 31  1  1
 31 32  2  0
 31 33  1  0
 34 33  1  1
 34 35  1  0
 35 36  1  0
 36 37  1  0
 37 38  1  0
 38 39  1  0
 37 40  1  6
 40 41  1  0
 40 42  2  0
  8  2  1  0
 19 12  1  0
 30 20  1  0
 39 34  1  0
 20  6  1  6
 30 24  1  0
M  END
$$$$
