
     RDKit          3D

 42 47  0  0  0  0  0  0  0  0999 V2000
  198.4985  134.2119  136.4166 C   0  0  0  0  0  0  0  0  0  0  0  0
  198.8280  133.8915  134.9511 C   0  0  0  0  0  0  0  0  0  0  0  0
  197.9276  132.7871  134.4803 C   0  0  0  0  0  0  0  0  0  0  0  0
  200.2779  133.5790  134.8915 C   0  0  0  0  0  0  0  0  0  0  0  0
  200.9354  134.0036  133.5656 C   0  0  0  0  0  0  0  0  0  0  0  0
  200.9586  135.5042  133.3988 C   0  0  0  0  0  0  0  0  0  0  0  0
  199.8923  135.9927  134.3517 C   0  0  0  0  0  0  0  0  0  0  0  0
  198.6036  135.1714  134.1889 C   0  0  0  0  0  0  0  0  0  0  0  0
  202.2176  135.9494  133.9007 N   0  0  0  0  0  0  0  0  0  0  0  0
  203.0792  136.4300  132.8980 C   0  0  2  0  0  0  0  0  0  0  0  0
  202.1510  136.7336  131.7860 C   0  0  2  0  0  0  0  0  0  0  0  0
  202.0503  138.1981  131.6302 C   0  0  0  0  0  0  0  0  0  0  0  0
  203.0246  138.9603  130.9950 C   0  0  0  0  0  0  0  0  0  0  0  0
  204.1108  138.3701  130.4370 F   0  0  0  0  0  0  0  0  0  0  0  0
  202.9359  140.3314  130.8748 C   0  0  0  0  0  0  0  0  0  0  0  0
  204.2178  141.2301  130.0531 Cl  0  0  0  0  0  0  0  0  0  0  0  0
  201.8649  140.9723  131.3894 N   0  0  0  0  0  0  0  0  0  0  0  0
  200.8880  140.2881  132.0155 C   0  0  0  0  0  0  0  0  0  0  0  0
  200.9647  138.9226  132.1420 C   0  0  0  0  0  0  0  0  0  0  0  0
  200.8423  135.9978  132.0170 C   0  0  2  0  0  0  0  0  0  0  0  0
  199.7683  136.8750  131.6921 C   0  0  0  0  0  0  0  0  0  0  0  0
  199.3690  137.9987  132.1836 O   0  0  0  0  0  0  0  0  0  0  0  0
  199.0358  136.3521  130.6109 N   0  0  0  0  0  0  0  0  0  0  0  0
  199.7159  135.1691  130.2067 C   0  0  0  0  0  0  0  0  0  0  0  0
  199.4270  134.2813  129.1434 C   0  0  0  0  0  0  0  0  0  0  0  0
  200.2510  133.2080  128.9015 C   0  0  0  0  0  0  0  0  0  0  0  0
  199.8833  132.1125  127.5792 Cl  0  0  0  0  0  0  0  0  0  0  0  0
  201.3544  133.0148  129.7072 C   0  0  0  0  0  0  0  0  0  0  0  0
  201.6719  133.8470  130.7465 C   0  0  0  0  0  0  0  0  0  0  0  0
  200.8068  134.9429  130.9741 C   0  0  0  0  0  0  0  0  0  0  0  0
  204.2770  135.6409  132.5911 C   0  0  0  0  0  0  0  0  0  0  0  0
  204.2671  134.4234  132.9585 O   0  0  0  0  0  0  0  0  0  0  0  0
  205.3901  136.2018  131.9207 N   0  0  0  0  0  0  0  0  0  0  0  0
  206.7079  135.8896  132.3617 C   0  0  2  0  0  0  0  0  0  0  0  0
  206.6934  135.2998  133.7588 C   0  0  0  0  0  0  0  0  0  0  0  0
  207.6821  135.9417  134.6771 C   0  0  0  0  0  0  0  0  0  0  0  0
  208.9978  136.2434  134.0226 C   0  0  2  0  0  0  0  0  0  0  0  0
  208.9020  136.6262  132.7068 O   0  0  0  0  0  0  0  0  0  0  0  0
  207.6219  137.0939  132.4133 C   0  0  0  0  0  0  0  0  0  0  0  0
  209.9664  135.1035  134.1997 C   0  0  0  0  0  0  0  0  0  0  0  0
  210.7764  135.0300  135.3575 N   0  0  0  0  0  0  0  0  0  0  0  0
  210.0083  134.2474  133.2817 O   0  0  0  0  0  0  0  0  0  0  0  0
  1  2  1  0
  2  3  1  0
  2  4  1  0
  4  5  1  0
  5  6  1  0
  6  7  1  0
  7  8  1  0
  6  9  1  0
  9 10  1  0
 10 11  1  0
 11 12  1  1
 12 13  2  0
 13 14  1  0
 13 15  1  0
 15 16  1  0
 15 17  2  0
 17 18  1  0
 18 19  2  0
 11 20  1  0
 20 21  1  0
 21 22  2  0
 21 23  1  0
 23 24  1  0
 24 25  2  0
 25 26  1  0
 26 27  1  0
 26 28  2  0
 28 29  1  0
 29 30  2  0
 10 31  1  6
 31 32  2  0
 31 33  1  0
 34 33  1  1
 34 35  1  0
 35 36  1  0
 36 37  1  0
 37 38  1  0
 38 39  1  0
 37 40  1  6
 40 41  1  0
 40 42  2  0
  8  2  1  0
 19 12  1  0
 30 20  1  0
 39 34  1  0
 20  6  1  1
 30 24  1  0
M  END
$$$$
