
     RDKit          3D

 42 47  0  0  0  0  0  0  0  0999 V2000
  118.0740  167.8538  149.2475 C   0  0  0  0  0  0  0  0  0  0  0  0
  119.0105  167.0989  148.2923 C   0  0  0  0  0  0  0  0  0  0  0  0
  120.0654  166.3987  149.0979 C   0  0  0  0  0  0  0  0  0  0  0  0
  119.5293  168.0926  147.3193 C   0  0  0  0  0  0  0  0  0  0  0  0
  119.7859  167.4965  145.9230 C   0  0  0  0  0  0  0  0  0  0  0  0
  118.5060  167.0715  145.2437 C   0  0  0  0  0  0  0  0  0  0  0  0
  117.5196  166.9327  146.3801 C   0  0  0  0  0  0  0  0  0  0  0  0
  118.1366  166.1316  147.5375 C   0  0  0  0  0  0  0  0  0  0  0  0
  118.0847  168.1748  144.4436 N   0  0  0  0  0  0  0  0  0  0  0  0
  118.1886  167.9335  143.0617 C   0  0  2  0  0  0  0  0  0  0  0  0
  118.2337  166.4560  142.9895 C   0  0  2  0  0  0  0  0  0  0  0  0
  116.9637  165.9636  142.4204 C   0  0  0  0  0  0  0  0  0  0  0  0
  116.9064  165.0086  141.4112 C   0  0  0  0  0  0  0  0  0  0  0  0
  118.0405  164.4416  140.9294 F   0  0  0  0  0  0  0  0  0  0  0  0
  115.7171  164.5713  140.8669 C   0  0  0  0  0  0  0  0  0  0  0  0
  115.7280  163.3539  139.5848 Cl  0  0  0  0  0  0  0  0  0  0  0  0
  114.5537  165.0819  141.3234 N   0  0  0  0  0  0  0  0  0  0  0  0
  114.5447  166.0094  142.3003 C   0  0  0  0  0  0  0  0  0  0  0  0
  115.7225  166.4534  142.8503 C   0  0  0  0  0  0  0  0  0  0  0  0
  118.6096  165.9037  144.3537 C   0  0  2  0  0  0  0  0  0  0  0  0
  117.7947  164.7663  144.6199 C   0  0  0  0  0  0  0  0  0  0  0  0
  116.5230  164.6085  144.7667 O   0  0  0  0  0  0  0  0  0  0  0  0
  118.6003  163.6188  144.7350 N   0  0  0  0  0  0  0  0  0  0  0  0
  119.9309  164.0392  144.4557 C   0  0  0  0  0  0  0  0  0  0  0  0
  121.1230  163.2791  144.3954 C   0  0  0  0  0  0  0  0  0  0  0  0
  122.3096  163.8878  144.0622 C   0  0  0  0  0  0  0  0  0  0  0  0
  123.7831  162.9352  143.9902 Cl  0  0  0  0  0  0  0  0  0  0  0  0
  122.3161  165.2405  143.7903 C   0  0  0  0  0  0  0  0  0  0  0  0
  121.1882  166.0145  143.8371 C   0  0  0  0  0  0  0  0  0  0  0  0
  119.9810  165.3633  144.1835 C   0  0  0  0  0  0  0  0  0  0  0  0
  119.2007  168.6847  142.3116 C   0  0  0  0  0  0  0  0  0  0  0  0
  120.3462  168.7953  142.8530 O   0  0  0  0  0  0  0  0  0  0  0  0
  118.9214  169.2597  141.0489 N   0  0  0  0  0  0  0  0  0  0  0  0
  117.6137  169.7521  140.7734 C   0  0  2  0  0  0  0  0  0  0  0  0
  117.6398  171.2379  140.4703 C   0  0  0  0  0  0  0  0  0  0  0  0
  116.6167  172.0112  141.2371 C   0  0  0  0  0  0  0  0  0  0  0  0
  115.2957  171.3090  141.3481 C   0  0  2  0  0  0  0  0  0  0  0  0
  115.3876  169.9438  141.4689 O   0  0  0  0  0  0  0  0  0  0  0  0
  116.6498  169.5653  141.9242 C   0  0  0  0  0  0  0  0  0  0  0  0
  114.3739  171.7057  140.2247 C   0  0  0  0  0  0  0  0  0  0  0  0
  114.8197  172.5928  139.2166 N   0  0  0  0  0  0  0  0  0  0  0  0
  113.2184  171.2137  140.2390 O   0  0  0  0  0  0  0  0  0  0  0  0
  1  2  1  0
  2  3  1  0
  2  4  1  0
  4  5  1  0
  5  6  1  0
  6  7  1  0
  7  8  1  0
  6  9  1  0
  9 10  1  0
 10 11  1  0
 11 12  1  1
 12 13  2  0
 13 14  1  0
 13 15  1  0
 15 16  1  0
 15 17  2  0
 17 18  1  0
 18 19  2  0
 11 20  1  0
 20 21  1  0
 21 22  2  0
 21 23  1  0
 23 24  1  0
 24 25  2  0
 25 26  1  0
 26 27  1  0
 26 28  2  0
 28 29  1  0
 29 30  2  0
 10 31  1  1
 31 32  2  0
 31 33  1  0
 34 33  1  1
 34 35  1  0
 35 36  1  0
 36 37  1  0
 37 38  1  0
 38 39  1  0
 37 40  1  6
 40 41  1  0
 40 42  2  0
  8  2  1  0
 19 12  1  0
 30 20  1  0
 39 34  1  0
 20  6  1  1
 30 24  1  0
M  END
$$$$
