
     RDKit          3D

 42 47  0  0  0  0  0  0  0  0999 V2000
  126.1265  140.5035  138.0676 C   0  0  0  0  0  0  0  0  0  0  0  0
  127.4753  140.7993  137.3951 C   0  0  0  0  0  0  0  0  0  0  0  0
  128.4090  139.6529  137.6527 C   0  0  0  0  0  0  0  0  0  0  0  0
  127.9411  142.1090  137.9160 C   0  0  0  0  0  0  0  0  0  0  0  0
  128.7506  142.9177  136.8858 C   0  0  0  0  0  0  0  0  0  0  0  0
  127.9018  143.3594  135.7177 C   0  0  0  0  0  0  0  0  0  0  0  0
  126.7143  142.4256  135.7571 C   0  0  0  0  0  0  0  0  0  0  0  0
  127.1761  140.9698  135.9286 C   0  0  0  0  0  0  0  0  0  0  0  0
  127.4279  144.6678  136.0314 N   0  0  0  0  0  0  0  0  0  0  0  0
  127.9911  145.6733  135.2247 C   0  0  2  0  0  0  0  0  0  0  0  0
  128.4816  144.9159  134.0517 C   0  0  2  0  0  0  0  0  0  0  0  0
  127.6295  145.2281  132.8873 C   0  0  0  0  0  0  0  0  0  0  0  0
  126.2545  145.4126  132.9836 C   0  0  0  0  0  0  0  0  0  0  0  0
  125.6313  145.3591  134.1871 F   0  0  0  0  0  0  0  0  0  0  0  0
  125.4609  145.6796  131.8877 C   0  0  0  0  0  0  0  0  0  0  0  0
  123.7187  145.9008  132.0925 Cl  0  0  0  0  0  0  0  0  0  0  0  0
  126.0287  145.7690  130.6662 N   0  0  0  0  0  0  0  0  0  0  0  0
  127.3560  145.6006  130.5095 C   0  0  0  0  0  0  0  0  0  0  0  0
  128.1571  145.3339  131.5929 C   0  0  0  0  0  0  0  0  0  0  0  0
  128.5916  143.4464  134.4203 C   0  0  2  0  0  0  0  0  0  0  0  0
  128.1011  142.6703  133.3314 C   0  0  0  0  0  0  0  0  0  0  0  0
  126.9440  142.5726  132.7698 O   0  0  0  0  0  0  0  0  0  0  0  0
  129.1359  141.8728  132.8099 N   0  0  0  0  0  0  0  0  0  0  0  0
  130.3088  142.2199  133.5373 C   0  0  0  0  0  0  0  0  0  0  0  0
  131.6344  141.7475  133.3897 C   0  0  0  0  0  0  0  0  0  0  0  0
  132.6368  142.2556  134.1814 C   0  0  0  0  0  0  0  0  0  0  0  0
  134.2785  141.6624  133.9899 Cl  0  0  0  0  0  0  0  0  0  0  0  0
  132.3288  143.2256  135.1132 C   0  0  0  0  0  0  0  0  0  0  0  0
  131.0615  143.7112  135.2908 C   0  0  0  0  0  0  0  0  0  0  0  0
  130.0488  143.1706  134.4640 C   0  0  0  0  0  0  0  0  0  0  0  0
  128.9130  146.6213  135.8593 C   0  0  0  0  0  0  0  0  0  0  0  0
  130.1536  146.4399  135.6456 O   0  0  0  0  0  0  0  0  0  0  0  0
  128.4504  147.6853  136.6696 N   0  0  0  0  0  0  0  0  0  0  0  0
  127.8516  148.8251  136.0606 C   0  0  2  0  0  0  0  0  0  0  0  0
  128.4581  149.1008  134.6981 C   0  0  0  0  0  0  0  0  0  0  0  0
  128.8522  150.5297  134.5095 C   0  0  0  0  0  0  0  0  0  0  0  0
  127.8651  151.5030  135.0829 C   0  0  2  0  0  0  0  0  0  0  0  0
  127.2630  151.0825  136.2437 O   0  0  0  0  0  0  0  0  0  0  0  0
  128.0190  150.0923  136.8696 C   0  0  0  0  0  0  0  0  0  0  0  0
  126.8501  151.9187  134.0505 C   0  0  0  0  0  0  0  0  0  0  0  0
  125.9157  152.9408  134.3408 N   0  0  0  0  0  0  0  0  0  0  0  0
  126.8845  151.3183  132.9478 O   0  0  0  0  0  0  0  0  0  0  0  0
  1  2  1  0
  2  3  1  0
  2  4  1  0
  4  5  1  0
  5  6  1  0
  6  7  1  0
  7  8  1  0
  6  9  1  0
  9 10  1  0
 10 11  1  0
 11 12  1  6
 12 13  2  0
 13 14  1  0
 13 15  1  0
 15 16  1  0
 15 17  2  0
 17 18  1  0
 18 19  2  0
 11 20  1  0
 20 21  1  0
 21 22  2  0
 21 23  1  0
 23 24  1  0
 24 25  2  0
 25 26  1  0
 26 27  1  0
 26 28  2  0
 28 29  1  0
 29 30  2  0
 10 31  1  1
 31 32  2  0
 31 33  1  0
 34 33  1  1
 34 35  1  0
 35 36  1  0
 36 37  1  0
 37 38  1  0
 38 39  1  0
 37 40  1  6
 40 41  1  0
 40 42  2  0
  8  2  1  0
 19 12  1  0
 30 20  1  0
 39 34  1  0
 20  6  1  1
 30 24  1  0
M  END
$$$$
