
     RDKit          3D

 42 47  0  0  0  0  0  0  0  0999 V2000
  186.4586  162.0979  118.4703 C   0  0  0  0  0  0  0  0  0  0  0  0
  187.6028  161.2007  117.9754 C   0  0  0  0  0  0  0  0  0  0  0  0
  187.4584  161.0003  116.4952 C   0  0  0  0  0  0  0  0  0  0  0  0
  187.5538  159.9535  118.7789 C   0  0  0  0  0  0  0  0  0  0  0  0
  188.9424  159.3344  119.0223 C   0  0  0  0  0  0  0  0  0  0  0  0
  189.8066  160.2072  119.9005 C   0  0  0  0  0  0  0  0  0  0  0  0
  189.1684  161.5731  119.7968 C   0  0  0  0  0  0  0  0  0  0  0  0
  188.8760  161.9238  118.3293 C   0  0  0  0  0  0  0  0  0  0  0  0
  189.6206  159.7484  121.2384 N   0  0  0  0  0  0  0  0  0  0  0  0
  190.7590  159.1209  121.7761 C   0  0  2  0  0  0  0  0  0  0  0  0
  191.8494  159.6222  120.9101 C   0  0  2  0  0  0  0  0  0  0  0  0
  192.6828  160.5640  121.6832 C   0  0  0  0  0  0  0  0  0  0  0  0
  194.0685  160.4696  121.7494 C   0  0  0  0  0  0  0  0  0  0  0  0
  194.7316  159.5141  121.0515 F   0  0  0  0  0  0  0  0  0  0  0  0
  194.8390  161.3382  122.4938 C   0  0  0  0  0  0  0  0  0  0  0  0
  196.5968  161.1514  122.5276 Cl  0  0  0  0  0  0  0  0  0  0  0  0
  194.2366  162.3252  123.1905 N   0  0  0  0  0  0  0  0  0  0  0  0
  192.8974  162.4681  123.1651 C   0  0  0  0  0  0  0  0  0  0  0  0
  192.1190  161.6094  122.4280 C   0  0  0  0  0  0  0  0  0  0  0  0
  191.2516  160.1648  119.6234 C   0  0  2  0  0  0  0  0  0  0  0  0
  191.9205  161.3777  119.2917 C   0  0  0  0  0  0  0  0  0  0  0  0
  192.0128  162.5221  119.8796 O   0  0  0  0  0  0  0  0  0  0  0  0
  192.5953  161.2305  118.0662 N   0  0  0  0  0  0  0  0  0  0  0  0
  192.4073  159.8765  117.6704 C   0  0  0  0  0  0  0  0  0  0  0  0
  192.9068  159.1902  116.5383 C   0  0  0  0  0  0  0  0  0  0  0  0
  192.6335  157.8537  116.3694 C   0  0  0  0  0  0  0  0  0  0  0  0
  193.2585  157.0114  114.9609 Cl  0  0  0  0  0  0  0  0  0  0  0  0
  191.8705  157.2005  117.3156 C   0  0  0  0  0  0  0  0  0  0  0  0
  191.3664  157.8241  118.4249 C   0  0  0  0  0  0  0  0  0  0  0  0
  191.6617  159.1996  118.5737 C   0  0  0  0  0  0  0  0  0  0  0  0
  190.6909  157.6762  122.0206 C   0  0  0  0  0  0  0  0  0  0  0  0
  191.2684  156.9264  121.1711 O   0  0  0  0  0  0  0  0  0  0  0  0
  190.0173  157.1391  123.1434 N   0  0  0  0  0  0  0  0  0  0  0  0
  190.4421  157.4943  124.4556 C   0  0  2  0  0  0  0  0  0  0  0  0
  191.9249  157.2350  124.6408 C   0  0  0  0  0  0  0  0  0  0  0  0
  192.2369  156.4812  125.8927 C   0  0  0  0  0  0  0  0  0  0  0  0
  191.4156  156.9133  127.0714 C   0  0  2  0  0  0  0  0  0  0  0  0
  190.1253  157.2700  126.7632 O   0  0  0  0  0  0  0  0  0  0  0  0
  189.7315  156.7205  125.5440 C   0  0  0  0  0  0  0  0  0  0  0  0
  192.1169  157.9911  127.8559 C   0  0  0  0  0  0  0  0  0  0  0  0
  192.3808  157.8119  129.2344 N   0  0  0  0  0  0  0  0  0  0  0  0
  192.4430  159.0286  127.2276 O   0  0  0  0  0  0  0  0  0  0  0  0
  1  2  1  0
  2  3  1  0
  2  4  1  0
  4  5  1  0
  5  6  1  0
  6  7  1  0
  7  8  1  0
  6  9  1  0
  9 10  1  0
 10 11  1  0
 11 12  1  1
 12 13  2  0
 13 14  1  0
 13 15  1  0
 15 16  1  0
 15 17  2  0
 17 18  1  0
 18 19  2  0
 11 20  1  0
 20 21  1  0
 21 22  2  0
 21 23  1  0
 23 24  1  0
 24 25  2  0
 25 26  1  0
 26 27  1  0
 26 28  2  0
 28 29  1  0
 29 30  2  0
 10 31  1  6
 31 32  2  0
 31 33  1  0
 34 33  1  6
 34 35  1  0
 35 36  1  0
 36 37  1  0
 37 38  1  0
 38 39  1  0
 37 40  1  6
 40 41  1  0
 40 42  2  0
  8  2  1  0
 19 12  1  0
 30 20  1  0
 39 34  1  0
 20  6  1  1
 30 24  1  0
M  END
$$$$
