
     RDKit          3D

 42 47  0  0  0  0  0  0  0  0999 V2000
  135.1716  136.9458  134.9375 C   0  0  0  0  0  0  0  0  0  0  0  0
  133.9604  137.8827  134.8174 C   0  0  0  0  0  0  0  0  0  0  0  0
  133.7064  138.5226  136.1509 C   0  0  0  0  0  0  0  0  0  0  0  0
  132.8342  137.0697  134.2938 C   0  0  0  0  0  0  0  0  0  0  0  0
  131.8726  137.8721  133.3981 C   0  0  0  0  0  0  0  0  0  0  0  0
  132.5299  138.3128  132.1121 C   0  0  0  0  0  0  0  0  0  0  0  0
  134.0086  138.2303  132.4124 C   0  0  0  0  0  0  0  0  0  0  0  0
  134.3247  138.8940  133.7621 C   0  0  0  0  0  0  0  0  0  0  0  0
  132.2340  137.3113  131.1404 N   0  0  0  0  0  0  0  0  0  0  0  0
  131.3540  137.7521  130.1353 C   0  0  2  0  0  0  0  0  0  0  0  0
  131.4724  139.2250  130.2190 C   0  0  2  0  0  0  0  0  0  0  0  0
  132.1971  139.7172  129.0309 C   0  0  0  0  0  0  0  0  0  0  0  0
  131.6314  140.5883  128.1063 C   0  0  0  0  0  0  0  0  0  0  0  0
  130.3767  141.0707  128.2873 F   0  0  0  0  0  0  0  0  0  0  0  0
  132.3058  141.0246  126.9853 C   0  0  0  0  0  0  0  0  0  0  0  0
  131.5164  142.1323  125.8557 Cl  0  0  0  0  0  0  0  0  0  0  0  0
  133.5672  140.5974  126.7645 N   0  0  0  0  0  0  0  0  0  0  0  0
  134.1693  139.7536  127.6248 C   0  0  0  0  0  0  0  0  0  0  0  0
  133.5081  139.3115  128.7446 C   0  0  0  0  0  0  0  0  0  0  0  0
  132.0694  139.5992  131.5646 C   0  0  2  0  0  0  0  0  0  0  0  0
  133.0235  140.6371  131.3617 C   0  0  0  0  0  0  0  0  0  0  0  0
  134.1351  140.6970  130.7102 O   0  0  0  0  0  0  0  0  0  0  0  0
  132.6109  141.8022  132.0335 N   0  0  0  0  0  0  0  0  0  0  0  0
  131.3382  141.5052  132.5968 C   0  0  0  0  0  0  0  0  0  0  0  0
  130.4639  142.3353  133.3377 C   0  0  0  0  0  0  0  0  0  0  0  0
  129.2473  141.8513  133.7561 C   0  0  0  0  0  0  0  0  0  0  0  0
  128.1698  142.8899  134.6749 Cl  0  0  0  0  0  0  0  0  0  0  0  0
  128.8981  140.5536  133.4428 C   0  0  0  0  0  0  0  0  0  0  0  0
  129.7119  139.7156  132.7295 C   0  0  0  0  0  0  0  0  0  0  0  0
  130.9584  140.2384  132.3122 C   0  0  0  0  0  0  0  0  0  0  0  0
  130.0053  137.1762  130.1079 C   0  0  0  0  0  0  0  0  0  0  0  0
  129.1313  137.7361  130.8429 O   0  0  0  0  0  0  0  0  0  0  0  0
  129.6879  136.0540  129.3061 N   0  0  0  0  0  0  0  0  0  0  0  0
  129.9859  136.0769  127.9135 C   0  0  2  0  0  0  0  0  0  0  0  0
  131.1147  137.0434  127.6102 C   0  0  0  0  0  0  0  0  0  0  0  0
  130.8072  137.9676  126.4770 C   0  0  0  0  0  0  0  0  0  0  0  0
  130.0868  137.3026  125.3416 C   0  0  2  0  0  0  0  0  0  0  0  0
  129.1923  136.3340  125.7273 O   0  0  0  0  0  0  0  0  0  0  0  0
  128.8135  136.5036  127.0582 C   0  0  0  0  0  0  0  0  0  0  0  0
  131.0568  136.7839  124.3125 C   0  0  0  0  0  0  0  0  0  0  0  0
  130.5916  136.3558  123.0467 N   0  0  0  0  0  0  0  0  0  0  0  0
  132.2692  136.7562  124.6395 O   0  0  0  0  0  0  0  0  0  0  0  0
  1  2  1  0
  2  3  1  0
  2  4  1  0
  4  5  1  0
  5  6  1  0
  6  7  1  0
  7  8  1  0
  6  9  1  0
  9 10  1  0
 10 11  1  0
 11 12  1  6
 12 13  2  0
 13 14  1  0
 13 15  1  0
 15 16  1  0
 15 17  2  0
 17 18  1  0
 18 19  2  0
 11 20  1  0
 20 21  1  0
 21 22  2  0
 21 23  1  0
 23 24  1  0
 24 25  2  0
 25 26  1  0
 26 27  1  0
 26 28  2  0
 28 29  1  0
 29 30  2  0
 10 31  1  1
 31 32  2  0
 31 33  1  0
 34 33  1  1
 34 35  1  0
 35 36  1  0
 36 37  1  0
 37 38  1  0
 38 39  1  0
 37 40  1  6
 40 41  1  0
 40 42  2  0
  8  2  1  0
 19 12  1  0
 30 20  1  0
 39 34  1  0
 20  6  1  1
 30 24  1  0
M  END
$$$$
