
     RDKit          3D

 42 47  0  0  0  0  0  0  0  0999 V2000
  128.9802  163.8393  158.9253 C   0  0  0  0  0  0  0  0  0  0  0  0
  129.7318  162.7371  158.1640 C   0  0  0  0  0  0  0  0  0  0  0  0
  129.1653  161.4034  158.5545 C   0  0  0  0  0  0  0  0  0  0  0  0
  131.1752  162.9108  158.4637 C   0  0  0  0  0  0  0  0  0  0  0  0
  132.0901  162.5069  157.2930 C   0  0  0  0  0  0  0  0  0  0  0  0
  131.9313  163.4263  156.1057 C   0  0  0  0  0  0  0  0  0  0  0  0
  130.5892  164.0833  156.3311 C   0  0  0  0  0  0  0  0  0  0  0  0
  129.5286  163.0345  156.7014 C   0  0  0  0  0  0  0  0  0  0  0  0
  132.9298  164.4364  156.2374 N   0  0  0  0  0  0  0  0  0  0  0  0
  133.9448  164.3472  155.2675 C   0  0  2  0  0  0  0  0  0  0  0  0
  133.3109  163.5371  154.2034 C   0  0  2  0  0  0  0  0  0  0  0  0
  133.0366  164.4026  153.0394 C   0  0  0  0  0  0  0  0  0  0  0  0
  133.7489  164.3171  151.8481 C   0  0  0  0  0  0  0  0  0  0  0  0
  134.7164  163.3805  151.6857 F   0  0  0  0  0  0  0  0  0  0  0  0
  133.5038  165.1456  150.7733 C   0  0  0  0  0  0  0  0  0  0  0  0
  134.4541  164.9745  149.2922 Cl  0  0  0  0  0  0  0  0  0  0  0  0
  132.5356  166.0817  150.8673 N   0  0  0  0  0  0  0  0  0  0  0  0
  131.8111  166.2125  151.9954 C   0  0  0  0  0  0  0  0  0  0  0  0
  132.0457  165.3937  153.0729 C   0  0  0  0  0  0  0  0  0  0  0  0
  132.1138  162.8043  154.7841 C   0  0  2  0  0  0  0  0  0  0  0  0
  131.0458  162.8694  153.8440 C   0  0  0  0  0  0  0  0  0  0  0  0
  130.3661  163.8475  153.3490 O   0  0  0  0  0  0  0  0  0  0  0  0
  130.7142  161.5735  153.4085 N   0  0  0  0  0  0  0  0  0  0  0  0
  131.6469  160.6960  154.0293 C   0  0  0  0  0  0  0  0  0  0  0  0
  131.7878  159.2937  153.9030 C   0  0  0  0  0  0  0  0  0  0  0  0
  132.7978  158.6420  154.5697 C   0  0  0  0  0  0  0  0  0  0  0  0
  132.9637  156.9015  154.4059 Cl  0  0  0  0  0  0  0  0  0  0  0  0
  133.6634  159.3741  155.3565 C   0  0  0  0  0  0  0  0  0  0  0  0
  133.5644  160.7307  155.5082 C   0  0  0  0  0  0  0  0  0  0  0  0
  132.5156  161.3763  154.8121 C   0  0  0  0  0  0  0  0  0  0  0  0
  135.2854  163.9560  155.7160 C   0  0  0  0  0  0  0  0  0  0  0  0
  136.2299  164.7708  155.4680 O   0  0  0  0  0  0  0  0  0  0  0  0
  135.5211  162.7344  156.3906 N   0  0  0  0  0  0  0  0  0  0  0  0
  136.0124  162.7518  157.7274 C   0  0  2  0  0  0  0  0  0  0  0  0
  135.2792  161.7462  158.5941 C   0  0  0  0  0  0  0  0  0  0  0  0
  134.8051  162.3226  159.8887 C   0  0  0  0  0  0  0  0  0  0  0  0
  135.7920  163.2565  160.5246 C   0  0  2  0  0  0  0  0  0  0  0  0
  136.5102  164.0155  159.6329 O   0  0  0  0  0  0  0  0  0  0  0  0
  135.8571  164.0959  158.4039 C   0  0  0  0  0  0  0  0  0  0  0  0
  136.6945  162.5230  161.4818 C   0  0  0  0  0  0  0  0  0  0  0  0
  137.8974  163.1204  161.9269 N   0  0  0  0  0  0  0  0  0  0  0  0
  136.3227  161.3810  161.8494 O   0  0  0  0  0  0  0  0  0  0  0  0
  1  2  1  0
  2  3  1  0
  2  4  1  0
  4  5  1  0
  5  6  1  0
  6  7  1  0
  7  8  1  0
  6  9  1  0
  9 10  1  0
 10 11  1  0
 11 12  1  6
 12 13  2  0
 13 14  1  0
 13 15  1  0
 15 16  1  0
 15 17  2  0
 17 18  1  0
 18 19  2  0
 11 20  1  0
 20 21  1  0
 21 22  2  0
 21 23  1  0
 23 24  1  0
 24 25  2  0
 25 26  1  0
 26 27  1  0
 26 28  2  0
 28 29  1  0
 29 30  2  0
 10 31  1  1
 31 32  2  0
 31 33  1  0
 34 33  1  6
 34 35  1  0
 35 36  1  0
 36 37  1  0
 37 38  1  0
 38 39  1  0
 37 40  1  6
 40 41  1  0
 40 42  2  0
  8  2  1  0
 19 12  1  0
 30 20  1  0
 39 34  1  0
 20  6  1  1
 30 24  1  0
M  END
$$$$
