
     RDKit          3D

 42 47  0  0  0  0  0  0  0  0999 V2000
  164.4963  155.1525  127.5050 C   0  0  0  0  0  0  0  0  0  0  0  0
  164.7278  153.8232  126.7712 C   0  0  0  0  0  0  0  0  0  0  0  0
  164.2447  153.9578  125.3568 C   0  0  0  0  0  0  0  0  0  0  0  0
  164.0473  152.7675  127.5623 C   0  0  0  0  0  0  0  0  0  0  0  0
  164.7625  151.4056  127.4972 C   0  0  0  0  0  0  0  0  0  0  0  0
  166.1138  151.4416  128.1701 C   0  0  0  0  0  0  0  0  0  0  0  0
  166.4606  152.9119  128.2113 C   0  0  0  0  0  0  0  0  0  0  0  0
  166.2103  153.5656  126.8431 C   0  0  0  0  0  0  0  0  0  0  0  0
  165.9098  151.0121  129.5150 N   0  0  0  0  0  0  0  0  0  0  0  0
  166.4779  149.7553  129.7914 C   0  0  2  0  0  0  0  0  0  0  0  0
  167.4781  149.6031  128.7113 C   0  0  2  0  0  0  0  0  0  0  0  0
  168.8313  149.7264  129.2884 C   0  0  0  0  0  0  0  0  0  0  0  0
  169.8351  148.7891  129.0708 C   0  0  0  0  0  0  0  0  0  0  0  0
  169.6222  147.7218  128.2613 F   0  0  0  0  0  0  0  0  0  0  0  0
  171.0896  148.8978  129.6333 C   0  0  0  0  0  0  0  0  0  0  0  0
  172.3125  147.6628  129.3088 Cl  0  0  0  0  0  0  0  0  0  0  0  0
  171.3683  149.9522  130.4290 N   0  0  0  0  0  0  0  0  0  0  0  0
  170.4371  150.8935  130.6765 C   0  0  0  0  0  0  0  0  0  0  0  0
  169.1839  150.7965  130.1226 C   0  0  0  0  0  0  0  0  0  0  0  0
  167.1445  150.5677  127.5863 C   0  0  2  0  0  0  0  0  0  0  0  0
  168.3560  151.1549  127.1215 C   0  0  0  0  0  0  0  0  0  0  0  0
  169.2384  151.9126  127.6790 O   0  0  0  0  0  0  0  0  0  0  0  0
  168.5743  150.7978  125.7784 N   0  0  0  0  0  0  0  0  0  0  0  0
  167.5203  149.9080  125.4285 C   0  0  0  0  0  0  0  0  0  0  0  0
  167.2843  149.2232  124.2129 C   0  0  0  0  0  0  0  0  0  0  0  0
  166.2139  148.3677  124.1031 C   0  0  0  0  0  0  0  0  0  0  0  0
  165.9302  147.5228  122.5900 Cl  0  0  0  0  0  0  0  0  0  0  0  0
  165.3824  148.1911  125.1900 C   0  0  0  0  0  0  0  0  0  0  0  0
  165.5721  148.8327  126.3841 C   0  0  0  0  0  0  0  0  0  0  0  0
  166.6801  149.7080  126.4697 C   0  0  0  0  0  0  0  0  0  0  0  0
  165.5661  148.6336  130.0403 C   0  0  0  0  0  0  0  0  0  0  0  0
  165.9586  147.4849  129.6608 O   0  0  0  0  0  0  0  0  0  0  0  0
  164.3118  148.8155  130.6700 N   0  0  0  0  0  0  0  0  0  0  0  0
  164.1017  148.3018  131.9817 C   0  0  2  0  0  0  0  0  0  0  0  0
  165.2184  148.7189  132.9194 C   0  0  0  0  0  0  0  0  0  0  0  0
  165.7746  147.5810  133.7122 C   0  0  0  0  0  0  0  0  0  0  0  0
  164.7277  146.6234  134.1995 C   0  0  2  0  0  0  0  0  0  0  0  0
  163.6824  146.4346  133.3285 O   0  0  0  0  0  0  0  0  0  0  0  0
  164.0424  146.7910  132.0296 C   0  0  0  0  0  0  0  0  0  0  0  0
  164.2428  147.0027  135.5742 C   0  0  0  0  0  0  0  0  0  0  0  0
  162.8703  147.2634  135.7991 N   0  0  0  0  0  0  0  0  0  0  0  0
  165.1083  147.0709  136.4819 O   0  0  0  0  0  0  0  0  0  0  0  0
  1  2  1  0
  2  3  1  0
  2  4  1  0
  4  5  1  0
  5  6  1  0
  6  7  1  0
  7  8  1  0
  6  9  1  0
  9 10  1  0
 10 11  1  0
 11 12  1  1
 12 13  2  0
 13 14  1  0
 13 15  1  0
 15 16  1  0
 15 17  2  0
 17 18  1  0
 18 19  2  0
 11 20  1  0
 20 21  1  0
 21 22  2  0
 21 23  1  0
 23 24  1  0
 24 25  2  0
 25 26  1  0
 26 27  1  0
 26 28  2  0
 28 29  1  0
 29 30  2  0
 10 31  1  6
 31 32  2  0
 31 33  1  0
 34 33  1  6
 34 35  1  0
 35 36  1  0
 36 37  1  0
 37 38  1  0
 38 39  1  0
 37 40  1  1
 40 41  1  0
 40 42  2  0
  8  2  1  0
 19 12  1  0
 30 20  1  0
 39 34  1  0
 20  6  1  1
 30 24  1  0
M  END
$$$$
