
     RDKit          3D

 42 47  0  0  0  0  0  0  0  0999 V2000
  194.6647  164.4863  122.8489 C   0  0  0  0  0  0  0  0  0  0  0  0
  194.0350  164.1036  121.5012 C   0  0  0  0  0  0  0  0  0  0  0  0
  193.8618  165.3447  120.6754 C   0  0  0  0  0  0  0  0  0  0  0  0
  192.7762  163.3768  121.8020 C   0  0  0  0  0  0  0  0  0  0  0  0
  192.4422  162.2886  120.7653 C   0  0  0  0  0  0  0  0  0  0  0  0
  193.4402  161.1556  120.7905 C   0  0  0  0  0  0  0  0  0  0  0  0
  194.6517  161.7530  121.4680 C   0  0  0  0  0  0  0  0  0  0  0  0
  194.9876  163.1258  120.8642 C   0  0  0  0  0  0  0  0  0  0  0  0
  192.9065  160.1632  121.6653 N   0  0  0  0  0  0  0  0  0  0  0  0
  192.5033  158.9915  120.9995 C   0  0  2  0  0  0  0  0  0  0  0  0
  193.2447  159.0694  119.7210 C   0  0  2  0  0  0  0  0  0  0  0  0
  194.3077  158.0451  119.7186 C   0  0  0  0  0  0  0  0  0  0  0  0
  194.4562  157.1109  118.6993 C   0  0  0  0  0  0  0  0  0  0  0  0
  193.6404  157.1327  117.6159 F   0  0  0  0  0  0  0  0  0  0  0  0
  195.4364  156.1409  118.7156 C   0  0  0  0  0  0  0  0  0  0  0  0
  195.5593  154.9877  117.3811 Cl  0  0  0  0  0  0  0  0  0  0  0  0
  196.2939  156.0850  119.7569 N   0  0  0  0  0  0  0  0  0  0  0  0
  196.2008  156.9633  120.7739 C   0  0  0  0  0  0  0  0  0  0  0  0
  195.2288  157.9338  120.7695 C   0  0  0  0  0  0  0  0  0  0  0  0
  193.7003  160.5012  119.4979 C   0  0  2  0  0  0  0  0  0  0  0  0
  195.0343  160.4775  118.9993 C   0  0  0  0  0  0  0  0  0  0  0  0
  196.1523  160.0656  119.4933 O   0  0  0  0  0  0  0  0  0  0  0  0
  195.0696  161.0285  117.7055 N   0  0  0  0  0  0  0  0  0  0  0  0
  193.7204  161.3258  117.3643 C   0  0  0  0  0  0  0  0  0  0  0  0
  193.1893  161.8566  116.1649 C   0  0  0  0  0  0  0  0  0  0  0  0
  191.8319  162.0270  116.0310 C   0  0  0  0  0  0  0  0  0  0  0  0
  191.1834  162.6865  114.5382 Cl  0  0  0  0  0  0  0  0  0  0  0  0
  191.0052  161.6739  117.0778 C   0  0  0  0  0  0  0  0  0  0  0  0
  191.4747  161.1579  118.2554 C   0  0  0  0  0  0  0  0  0  0  0  0
  192.8754  160.9939  118.3673 C   0  0  0  0  0  0  0  0  0  0  0  0
  191.0671  158.7003  120.9390 C   0  0  0  0  0  0  0  0  0  0  0  0
  190.3295  159.5804  120.3922 O   0  0  0  0  0  0  0  0  0  0  0  0
  190.5246  157.5023  121.4618 N   0  0  0  0  0  0  0  0  0  0  0  0
  190.3324  157.3708  122.8669 C   0  0  2  0  0  0  0  0  0  0  0  0
  190.4218  155.9198  123.2991 C   0  0  0  0  0  0  0  0  0  0  0  0
  189.2889  155.4985  124.1777 C   0  0  0  0  0  0  0  0  0  0  0  0
  188.8922  156.5394  125.1824 C   0  0  2  0  0  0  0  0  0  0  0  0
  188.9932  157.8323  124.7295 O   0  0  0  0  0  0  0  0  0  0  0  0
  188.9862  157.8767  123.3361 C   0  0  0  0  0  0  0  0  0  0  0  0
  189.6286  156.3478  126.4824 C   0  0  0  0  0  0  0  0  0  0  0  0
  190.4399  155.2056  126.6802 N   0  0  0  0  0  0  0  0  0  0  0  0
  189.4814  157.2399  127.3542 O   0  0  0  0  0  0  0  0  0  0  0  0
  1  2  1  0
  2  3  1  0
  2  4  1  0
  4  5  1  0
  5  6  1  0
  6  7  1  0
  7  8  1  0
  6  9  1  0
  9 10  1  0
 10 11  1  0
 11 12  1  1
 12 13  2  0
 13 14  1  0
 13 15  1  0
 15 16  1  0
 15 17  2  0
 17 18  1  0
 18 19  2  0
 11 20  1  0
 20 21  1  0
 21 22  2  0
 21 23  1  0
 23 24  1  0
 24 25  2  0
 25 26  1  0
 26 27  1  0
 26 28  2  0
 28 29  1  0
 29 30  2  0
 10 31  1  6
 31 32  2  0
 31 33  1  0
 34 33  1  6
 34 35  1  0
 35 36  1  0
 36 37  1  0
 37 38  1  0
 38 39  1  0
 37 40  1  1
 40 41  1  0
 40 42  2  0
  8  2  1  0
 19 12  1  0
 30 20  1  0
 39 34  1  0
 20  6  1  1
 30 24  1  0
M  END
$$$$
