
     RDKit          3D

 42 47  0  0  0  0  0  0  0  0999 V2000
  116.5801  165.8664  146.8014 C   0  0  0  0  0  0  0  0  0  0  0  0
  116.3864  167.0933  145.8978 C   0  0  0  0  0  0  0  0  0  0  0  0
  117.4852  168.0778  146.1723 C   0  0  0  0  0  0  0  0  0  0  0  0
  115.0162  167.6052  146.1504 C   0  0  0  0  0  0  0  0  0  0  0  0
  114.3654  168.2350  144.9052 C   0  0  0  0  0  0  0  0  0  0  0  0
  114.0951  167.2123  143.8277 C   0  0  0  0  0  0  0  0  0  0  0  0
  115.0116  166.0631  144.1786 C   0  0  0  0  0  0  0  0  0  0  0  0
  116.4283  166.5746  144.4841 C   0  0  0  0  0  0  0  0  0  0  0  0
  112.7543  166.7644  144.0197 N   0  0  0  0  0  0  0  0  0  0  0  0
  111.8764  167.1802  143.0023 C   0  0  2  0  0  0  0  0  0  0  0  0
  112.7955  167.5048  141.8886 C   0  0  2  0  0  0  0  0  0  0  0  0
  112.6527  166.4820  140.8338 C   0  0  0  0  0  0  0  0  0  0  0  0
  111.6103  166.4844  139.9135 C   0  0  0  0  0  0  0  0  0  0  0  0
  110.6859  167.4769  139.9170 F   0  0  0  0  0  0  0  0  0  0  0  0
  111.4692  165.5116  138.9462 C   0  0  0  0  0  0  0  0  0  0  0  0
  110.1146  165.5843  137.8122 Cl  0  0  0  0  0  0  0  0  0  0  0  0
  112.3730  164.5110  138.8779 N   0  0  0  0  0  0  0  0  0  0  0  0
  113.4053  164.4552  139.7415 C   0  0  0  0  0  0  0  0  0  0  0  0
  113.5566  165.4176  140.7096 C   0  0  0  0  0  0  0  0  0  0  0  0
  114.1968  167.6983  142.4420 C   0  0  2  0  0  0  0  0  0  0  0  0
  115.1207  167.0662  141.5615 C   0  0  0  0  0  0  0  0  0  0  0  0
  115.2964  165.8404  141.2007 O   0  0  0  0  0  0  0  0  0  0  0  0
  115.9867  168.0273  141.0088 N   0  0  0  0  0  0  0  0  0  0  0  0
  115.5404  169.2885  141.4939 C   0  0  0  0  0  0  0  0  0  0  0  0
  116.0312  170.5864  141.2168 C   0  0  0  0  0  0  0  0  0  0  0  0
  115.4160  171.6855  141.7675 C   0  0  0  0  0  0  0  0  0  0  0  0
  116.0332  173.2917  141.4170 Cl  0  0  0  0  0  0  0  0  0  0  0  0
  114.3216  171.5008  142.5873 C   0  0  0  0  0  0  0  0  0  0  0  0
  113.8134  170.2648  142.8830 C   0  0  0  0  0  0  0  0  0  0  0  0
  114.4658  169.1510  142.3042 C   0  0  0  0  0  0  0  0  0  0  0  0
  110.8484  168.1674  143.3487 C   0  0  0  0  0  0  0  0  0  0  0  0
  109.8023  168.1788  142.6255 O   0  0  0  0  0  0  0  0  0  0  0  0
  111.0082  169.0643  144.4317 N   0  0  0  0  0  0  0  0  0  0  0  0
  110.8597  170.4641  144.2142 C   0  0  2  0  0  0  0  0  0  0  0  0
  110.8667  170.7928  142.7337 C   0  0  0  0  0  0  0  0  0  0  0  0
  111.7913  171.9139  142.3859 C   0  0  0  0  0  0  0  0  0  0  0  0
  111.7768  173.0328  143.3850 C   0  0  2  0  0  0  0  0  0  0  0  0
  111.6143  172.6279  144.6875 O   0  0  0  0  0  0  0  0  0  0  0  0
  111.9628  171.2869  144.8422 C   0  0  0  0  0  0  0  0  0  0  0  0
  110.7729  174.0888  143.0029 C   0  0  0  0  0  0  0  0  0  0  0  0
  111.2092  175.3563  142.5500 N   0  0  0  0  0  0  0  0  0  0  0  0
  109.5594  173.7823  143.1087 O   0  0  0  0  0  0  0  0  0  0  0  0
  1  2  1  0
  2  3  1  0
  2  4  1  0
  4  5  1  0
  5  6  1  0
  6  7  1  0
  7  8  1  0
  6  9  1  0
  9 10  1  0
 10 11  1  0
 11 12  1  6
 12 13  2  0
 13 14  1  0
 13 15  1  0
 15 16  1  0
 15 17  2  0
 17 18  1  0
 18 19  2  0
 11 20  1  0
 20 21  1  0
 21 22  2  0
 21 23  1  0
 23 24  1  0
 24 25  2  0
 25 26  1  0
 26 27  1  0
 26 28  2  0
 28 29  1  0
 29 30  2  0
 10 31  1  1
 31 32  2  0
 31 33  1  0
 34 33  1  6
 34 35  1  0
 35 36  1  0
 36 37  1  0
 37 38  1  0
 38 39  1  0
 37 40  1  6
 40 41  1  0
 40 42  2  0
  8  2  1  0
 19 12  1  0
 30 20  1  0
 39 34  1  0
 20  6  1  1
 30 24  1  0
M  END
$$$$
