
     RDKit          3D

 42 47  0  0  0  0  0  0  0  0999 V2000
  148.6535  180.0380  152.1318 C   0  0  0  0  0  0  0  0  0  0  0  0
  147.9283  178.7607  151.6826 C   0  0  0  0  0  0  0  0  0  0  0  0
  146.8397  179.1327  150.7189 C   0  0  0  0  0  0  0  0  0  0  0  0
  147.4612  178.0726  152.9122 C   0  0  0  0  0  0  0  0  0  0  0  0
  147.4531  176.5384  152.7821 C   0  0  0  0  0  0  0  0  0  0  0  0
  148.8470  175.9730  152.6493 C   0  0  0  0  0  0  0  0  0  0  0  0
  149.6764  177.1523  152.1967 C   0  0  0  0  0  0  0  0  0  0  0  0
  148.9806  177.8926  151.0435 C   0  0  0  0  0  0  0  0  0  0  0  0
  149.2737  175.6301  153.9666 N   0  0  0  0  0  0  0  0  0  0  0  0
  149.3825  174.2431  154.1743 C   0  0  2  0  0  0  0  0  0  0  0  0
  149.4802  173.7120  152.7963 C   0  0  2  0  0  0  0  0  0  0  0  0
  150.8552  173.2276  152.5642 C   0  0  0  0  0  0  0  0  0  0  0  0
  151.1373  171.9591  152.0694 C   0  0  0  0  0  0  0  0  0  0  0  0
  150.1357  171.1112  151.7265 F   0  0  0  0  0  0  0  0  0  0  0  0
  152.4250  171.5040  151.8784 C   0  0  0  0  0  0  0  0  0  0  0  0
  152.7013  169.8764  151.2456 Cl  0  0  0  0  0  0  0  0  0  0  0  0
  153.4634  172.3127  152.1791 N   0  0  0  0  0  0  0  0  0  0  0  0
  153.2536  173.5529  152.6611 C   0  0  0  0  0  0  0  0  0  0  0  0
  151.9759  174.0177  152.8562 C   0  0  0  0  0  0  0  0  0  0  0  0
  148.9715  174.7613  151.8229 C   0  0  2  0  0  0  0  0  0  0  0  0
  149.8406  174.7890  150.6948 C   0  0  0  0  0  0  0  0  0  0  0  0
  151.0891  175.0796  150.5515 O   0  0  0  0  0  0  0  0  0  0  0  0
  149.1327  174.4150  149.5381 N   0  0  0  0  0  0  0  0  0  0  0  0
  147.8208  174.0719  149.9699 C   0  0  0  0  0  0  0  0  0  0  0  0
  146.7212  173.5917  149.2199 C   0  0  0  0  0  0  0  0  0  0  0  0
  145.5419  173.2791  149.8532 C   0  0  0  0  0  0  0  0  0  0  0  0
  144.1835  172.6839  148.9129 Cl  0  0  0  0  0  0  0  0  0  0  0  0
  145.4517  173.4407  151.2206 C   0  0  0  0  0  0  0  0  0  0  0  0
  146.4887  173.9023  151.9853 C   0  0  0  0  0  0  0  0  0  0  0  0
  147.6903  174.2175  151.3085 C   0  0  0  0  0  0  0  0  0  0  0  0
  148.4198  173.6110  155.0827 C   0  0  0  0  0  0  0  0  0  0  0  0
  147.2033  173.9601  154.9570 O   0  0  0  0  0  0  0  0  0  0  0  0
  148.8196  172.6606  156.0521 N   0  0  0  0  0  0  0  0  0  0  0  0
  148.0877  171.4467  156.1916 C   0  0  2  0  0  0  0  0  0  0  0  0
  147.2395  171.1738  154.9643 C   0  0  0  0  0  0  0  0  0  0  0  0
  145.8252  170.8226  155.2948 C   0  0  0  0  0  0  0  0  0  0  0  0
  145.6955  169.9250  156.4898 C   0  0  2  0  0  0  0  0  0  0  0  0
  146.6151  170.1649  157.4816 O   0  0  0  0  0  0  0  0  0  0  0  0
  147.1440  171.4503  157.3739 C   0  0  0  0  0  0  0  0  0  0  0  0
  145.6853  168.4753  156.0813 C   0  0  0  0  0  0  0  0  0  0  0  0
  145.0469  168.0769  154.8830 N   0  0  0  0  0  0  0  0  0  0  0  0
  146.2624  167.6658  156.8490 O   0  0  0  0  0  0  0  0  0  0  0  0
  1  2  1  0
  2  3  1  0
  2  4  1  0
  4  5  1  0
  5  6  1  0
  6  7  1  0
  7  8  1  0
  6  9  1  0
  9 10  1  0
 10 11  1  0
 11 12  1  6
 12 13  2  0
 13 14  1  0
 13 15  1  0
 15 16  1  0
 15 17  2  0
 17 18  1  0
 18 19  2  0
 11 20  1  0
 20 21  1  0
 21 22  2  0
 21 23  1  0
 23 24  1  0
 24 25  2  0
 25 26  1  0
 26 27  1  0
 26 28  2  0
 28 29  1  0
 29 30  2  0
 10 31  1  6
 31 32  2  0
 31 33  1  0
 34 33  1  6
 34 35  1  0
 35 36  1  0
 36 37  1  0
 37 38  1  0
 38 39  1  0
 37 40  1  6
 40 41  1  0
 40 42  2  0
  8  2  1  0
 19 12  1  0
 30 20  1  0
 39 34  1  0
 20  6  1  1
 30 24  1  0
M  END
$$$$
