
     RDKit          3D

 34 38  0  0  0  0  0  0  0  0999 V2000
  124.3463  150.4491  135.8335 C   0  0  0  0  0  0  0  0  0  0  0  0
  123.2225  150.7750  136.7216 N   0  0  0  0  0  0  0  0  0  0  0  0
  123.4008  151.0465  138.0842 C   0  0  0  0  0  0  0  0  0  0  0  0
  124.2038  151.9634  138.3925 O   0  0  0  0  0  0  0  0  0  0  0  0
  122.7048  150.3215  139.1470 C   0  0  0  0  0  0  0  0  0  0  0  0
  122.8899  150.6919  140.4666 C   0  0  0  0  0  0  0  0  0  0  0  0
  122.2795  150.0709  141.5316 C   0  0  0  0  0  0  0  0  0  0  0  0
  121.4414  149.0244  141.2473 C   0  0  0  0  0  0  0  0  0  0  0  0
  121.2148  148.6046  139.9344 C   0  0  0  0  0  0  0  0  0  0  0  0
  121.8560  149.2676  138.9104 C   0  0  0  0  0  0  0  0  0  0  0  0
  122.5286  150.5258  142.9172 C   0  0  0  0  0  0  0  0  0  0  0  0
  123.0856  151.7417  143.2224 C   0  0  0  0  0  0  0  0  0  0  0  0
  123.3255  152.1836  144.5068 C   0  0  0  0  0  0  0  0  0  0  0  0
  122.9879  151.3603  145.5552 C   0  0  0  0  0  0  0  0  0  0  0  0
  122.4240  150.1306  145.2162 C   0  0  0  0  0  0  0  0  0  0  0  0
  122.1022  149.3267  146.2645 N   0  0  0  0  0  0  0  0  0  0  0  0
  122.3004  149.6639  147.5427 C   0  0  0  0  0  0  0  0  0  0  0  0
  122.8487  150.8645  147.8256 N   0  0  0  0  0  0  0  0  0  0  0  0
  123.2035  151.7359  146.8614 C   0  0  0  0  0  0  0  0  0  0  0  0
  123.7640  153.0094  147.1736 N   0  0  0  0  0  0  0  0  0  0  0  0
  123.5968  153.6757  148.4503 C   0  0  0  0  0  0  0  0  0  0  0  0
  123.6259  155.1519  148.2054 C   0  0  0  0  0  0  0  0  0  0  0  0
  123.2323  155.5695  146.9679 O   0  0  0  0  0  0  0  0  0  0  0  0
  123.8642  155.0176  145.8899 C   0  0  0  0  0  0  0  0  0  0  0  0
  124.5715  153.7475  146.2081 C   0  0  2  0  0  0  0  0  0  0  0  0
  124.9342  152.9259  145.0182 C   0  0  0  0  0  0  0  0  0  0  0  0
  121.9296  148.7525  148.5570 N   0  0  0  0  0  0  0  0  0  0  0  0
  122.0202  149.0692  149.9730 C   0  0  0  0  0  0  0  0  0  0  0  0
  120.7525  148.5642  150.6288 C   0  0  0  0  0  0  0  0  0  0  0  0
  120.7280  147.1764  150.4604 O   0  0  0  0  0  0  0  0  0  0  0  0
  120.3607  146.9415  149.1181 C   0  0  0  0  0  0  0  0  0  0  0  0
  121.4377  147.4462  148.1837 C   0  0  2  0  0  0  0  0  0  0  0  0
  122.5598  146.4393  148.0436 C   0  0  0  0  0  0  0  0  0  0  0  0
  122.2044  149.7318  143.9534 N   0  0  0  0  0  0  0  0  0  0  0  0
  1  2  1  0
  2  3  1  0
  3  4  2  0
  3  5  1  0
  5  6  2  0
  6  7  1  0
  7  8  2  0
  8  9  1  0
  9 10  2  0
  7 11  1  0
 11 12  2  0
 12 13  1  0
 13 14  2  0
 14 15  1  0
 15 16  1  0
 16 17  2  0
 17 18  1  0
 18 19  2  0
 19 20  1  0
 20 21  1  0
 21 22  1  0
 22 23  1  0
 23 24  1  0
 24 25  1  0
 25 26  1  6
 17 27  1  0
 27 28  1  0
 28 29  1  0
 29 30  1  0
 30 31  1  0
 31 32  1  0
 32 33  1  1
 15 34  2  0
 10  5  1  0
 34 11  1  0
 19 14  1  0
 25 20  1  0
 32 27  1  0
M  END
$$$$
