
     RDKit          3D

 34 38  0  0  0  0  0  0  0  0999 V2000
  197.3694  131.9683  138.9006 C   0  0  0  0  0  0  0  0  0  0  0  0
  198.7980  131.6804  139.0854 N   0  0  0  0  0  0  0  0  0  0  0  0
  199.7780  132.1678  138.2112 C   0  0  0  0  0  0  0  0  0  0  0  0
  199.4020  132.9324  137.2868 O   0  0  0  0  0  0  0  0  0  0  0  0
  201.1970  131.8314  138.3249 C   0  0  0  0  0  0  0  0  0  0  0  0
  202.1377  132.5812  137.6425 C   0  0  0  0  0  0  0  0  0  0  0  0
  203.4915  132.3409  137.6881 C   0  0  0  0  0  0  0  0  0  0  0  0
  203.9135  131.2912  138.4617 C   0  0  0  0  0  0  0  0  0  0  0  0
  203.0107  130.4981  139.1738 C   0  0  0  0  0  0  0  0  0  0  0  0
  201.6665  130.7895  139.0873 C   0  0  0  0  0  0  0  0  0  0  0  0
  204.4366  133.1889  136.9287 C   0  0  0  0  0  0  0  0  0  0  0  0
  205.7771  133.2618  137.2104 C   0  0  0  0  0  0  0  0  0  0  0  0
  206.6737  134.0456  136.5145 C   0  0  0  0  0  0  0  0  0  0  0  0
  206.2036  134.8059  135.4696 C   0  0  0  0  0  0  0  0  0  0  0  0
  204.8374  134.7129  135.2056 C   0  0  0  0  0  0  0  0  0  0  0  0
  204.3886  135.4760  134.1735 N   0  0  0  0  0  0  0  0  0  0  0  0
  205.1780  136.2703  133.4436 C   0  0  0  0  0  0  0  0  0  0  0  0
  206.4950  136.3296  133.7336 N   0  0  0  0  0  0  0  0  0  0  0  0
  207.0416  135.6140  134.7356 C   0  0  0  0  0  0  0  0  0  0  0  0
  208.4378  135.6704  135.0198 N   0  0  0  0  0  0  0  0  0  0  0  0
  209.2763  136.8174  134.7312 C   0  0  0  0  0  0  0  0  0  0  0  0
  210.6577  136.3167  134.4468 C   0  0  0  0  0  0  0  0  0  0  0  0
  210.7543  135.0461  133.9600 O   0  0  0  0  0  0  0  0  0  0  0  0
  210.1570  134.0516  134.6812 C   0  0  0  0  0  0  0  0  0  0  0  0
  209.1376  134.5520  135.6431 C   0  0  2  0  0  0  0  0  0  0  0  0
  208.2055  133.5079  136.1563 C   0  0  0  0  0  0  0  0  0  0  0  0
  204.6083  137.0227  132.3918 N   0  0  0  0  0  0  0  0  0  0  0  0
  205.3943  137.8830  131.5225 C   0  0  0  0  0  0  0  0  0  0  0  0
  204.9084  137.6564  130.1068 C   0  0  0  0  0  0  0  0  0  0  0  0
  203.5671  138.0490  130.0651 O   0  0  0  0  0  0  0  0  0  0  0  0
  202.8289  137.0224  130.6920 C   0  0  0  0  0  0  0  0  0  0  0  0
  203.1845  136.9420  132.1599 C   0  0  2  0  0  0  0  0  0  0  0  0
  202.4219  137.9711  132.9672 C   0  0  0  0  0  0  0  0  0  0  0  0
  203.9921  133.9387  135.9043 N   0  0  0  0  0  0  0  0  0  0  0  0
  1  2  1  0
  2  3  1  0
  3  4  2  0
  3  5  1  0
  5  6  2  0
  6  7  1  0
  7  8  2  0
  8  9  1  0
  9 10  2  0
  7 11  1  0
 11 12  2  0
 12 13  1  0
 13 14  2  0
 14 15  1  0
 15 16  1  0
 16 17  2  0
 17 18  1  0
 18 19  2  0
 19 20  1  0
 20 21  1  0
 21 22  1  0
 22 23  1  0
 23 24  1  0
 24 25  1  0
 25 26  1  6
 17 27  1  0
 27 28  1  0
 28 29  1  0
 29 30  1  0
 30 31  1  0
 31 32  1  0
 32 33  1  1
 15 34  2  0
 10  5  1  0
 34 11  1  0
 19 14  1  0
 25 20  1  0
 32 27  1  0
M  END
$$$$
