
     RDKit          3D

 34 38  0  0  0  0  0  0  0  0999 V2000
  190.3087  160.5873  110.7888 C   0  0  0  0  0  0  0  0  0  0  0  0
  190.8621  159.5791  111.7026 N   0  0  0  0  0  0  0  0  0  0  0  0
  191.2474  159.8890  113.0131 C   0  0  0  0  0  0  0  0  0  0  0  0
  191.1042  161.0787  113.3936 O   0  0  0  0  0  0  0  0  0  0  0  0
  191.8002  158.9050  113.9435 C   0  0  0  0  0  0  0  0  0  0  0  0
  191.5213  159.0042  115.2945 C   0  0  0  0  0  0  0  0  0  0  0  0
  191.9952  158.1277  116.2430 C   0  0  0  0  0  0  0  0  0  0  0  0
  192.7896  157.1012  115.8029 C   0  0  0  0  0  0  0  0  0  0  0  0
  193.1060  156.9491  114.4509 C   0  0  0  0  0  0  0  0  0  0  0  0
  192.6004  157.8603  113.5490 C   0  0  0  0  0  0  0  0  0  0  0  0
  191.6523  158.3006  117.6718 C   0  0  0  0  0  0  0  0  0  0  0  0
  192.2461  157.5861  118.6810 C   0  0  0  0  0  0  0  0  0  0  0  0
  191.9405  157.7329  120.0180 C   0  0  0  0  0  0  0  0  0  0  0  0
  190.9808  158.6520  120.3721 C   0  0  0  0  0  0  0  0  0  0  0  0
  190.3935  159.3637  119.3264 C   0  0  0  0  0  0  0  0  0  0  0  0
  189.4425  160.2634  119.6938 N   0  0  0  0  0  0  0  0  0  0  0  0
  189.0743  160.4737  120.9615 C   0  0  0  0  0  0  0  0  0  0  0  0
  189.6694  159.7628  121.9426 N   0  0  0  0  0  0  0  0  0  0  0  0
  190.6235  158.8468  121.6867 C   0  0  0  0  0  0  0  0  0  0  0  0
  191.2585  158.1158  122.7336 N   0  0  0  0  0  0  0  0  0  0  0  0
  190.9695  158.3037  124.1418 C   0  0  0  0  0  0  0  0  0  0  0  0
  192.2166  157.9996  124.9113 C   0  0  0  0  0  0  0  0  0  0  0  0
  193.3964  158.1823  124.2515 O   0  0  0  0  0  0  0  0  0  0  0  0
  193.5512  157.5410  123.0553 C   0  0  0  0  0  0  0  0  0  0  0  0
  192.2645  157.0966  122.4541 C   0  0  2  0  0  0  0  0  0  0  0  0
  192.3440  156.7528  121.0056 C   0  0  0  0  0  0  0  0  0  0  0  0
  188.0737  161.4337  121.2339 N   0  0  0  0  0  0  0  0  0  0  0  0
  187.6036  161.7224  122.5789 C   0  0  0  0  0  0  0  0  0  0  0  0
  187.4857  163.2267  122.7010 C   0  0  0  0  0  0  0  0  0  0  0  0
  186.5265  163.6402  121.7713 O   0  0  0  0  0  0  0  0  0  0  0  0
  187.1490  163.5948  120.5055 C   0  0  0  0  0  0  0  0  0  0  0  0
  187.4847  162.1668  120.1369 C   0  0  2  0  0  0  0  0  0  0  0  0
  186.2814  161.4506  119.5610 C   0  0  0  0  0  0  0  0  0  0  0  0
  190.7154  159.1952  118.0341 N   0  0  0  0  0  0  0  0  0  0  0  0
  1  2  1  0
  2  3  1  0
  3  4  2  0
  3  5  1  0
  5  6  2  0
  6  7  1  0
  7  8  2  0
  8  9  1  0
  9 10  2  0
  7 11  1  0
 11 12  2  0
 12 13  1  0
 13 14  2  0
 14 15  1  0
 15 16  1  0
 16 17  2  0
 17 18  1  0
 18 19  2  0
 19 20  1  0
 20 21  1  0
 21 22  1  0
 22 23  1  0
 23 24  1  0
 24 25  1  0
 25 26  1  6
 17 27  1  0
 27 28  1  0
 28 29  1  0
 29 30  1  0
 30 31  1  0
 31 32  1  0
 32 33  1  1
 15 34  2  0
 10  5  1  0
 34 11  1  0
 19 14  1  0
 25 20  1  0
 32 27  1  0
M  END
$$$$
