
     RDKit          3D

 34 38  0  0  0  0  0  0  0  0999 V2000
  165.9770  150.0332  124.5080 C   0  0  0  0  0  0  0  0  0  0  0  0
  167.3558  149.6468  124.1803 N   0  0  0  0  0  0  0  0  0  0  0  0
  168.2150  149.0699  125.1243 C   0  0  0  0  0  0  0  0  0  0  0  0
  167.8729  149.1297  126.3326 O   0  0  0  0  0  0  0  0  0  0  0  0
  169.4727  148.4117  124.7715 C   0  0  0  0  0  0  0  0  0  0  0  0
  169.6758  147.9661  123.4781 C   0  0  0  0  0  0  0  0  0  0  0  0
  170.8234  147.3374  123.0535 C   0  0  0  0  0  0  0  0  0  0  0  0
  171.8132  147.1507  123.9829 C   0  0  0  0  0  0  0  0  0  0  0  0
  171.6660  147.5790  125.3043 C   0  0  0  0  0  0  0  0  0  0  0  0
  170.4923  148.2028  125.6682 C   0  0  0  0  0  0  0  0  0  0  0  0
  170.9659  146.8886  121.6509 C   0  0  0  0  0  0  0  0  0  0  0  0
  171.1941  145.5831  121.2970 C   0  0  0  0  0  0  0  0  0  0  0  0
  171.3296  145.1453  119.9961 C   0  0  0  0  0  0  0  0  0  0  0  0
  171.2310  146.0687  118.9819 C   0  0  0  0  0  0  0  0  0  0  0  0
  170.9993  147.3880  119.3702 C   0  0  0  0  0  0  0  0  0  0  0  0
  170.9109  148.2886  118.3553 N   0  0  0  0  0  0  0  0  0  0  0  0
  171.0332  147.9624  117.0648 C   0  0  0  0  0  0  0  0  0  0  0  0
  171.2565  146.6730  116.7338 N   0  0  0  0  0  0  0  0  0  0  0  0
  171.3605  145.7021  117.6619 C   0  0  0  0  0  0  0  0  0  0  0  0
  171.5773  144.3403  117.2985 N   0  0  0  0  0  0  0  0  0  0  0  0
  171.9323  143.9066  115.9615 C   0  0  0  0  0  0  0  0  0  0  0  0
  171.3694  142.5347  115.7588 C   0  0  0  0  0  0  0  0  0  0  0  0
  170.2636  142.2183  116.4921 O   0  0  0  0  0  0  0  0  0  0  0  0
  170.3448  142.3728  117.8469 C   0  0  0  0  0  0  0  0  0  0  0  0
  171.4607  143.2605  118.2729 C   0  0  2  0  0  0  0  0  0  0  0  0
  171.3533  143.7617  119.6728 C   0  0  0  0  0  0  0  0  0  0  0  0
  170.9247  148.9781  116.0883 N   0  0  0  0  0  0  0  0  0  0  0  0
  171.4023  148.8150  114.7249 C   0  0  0  0  0  0  0  0  0  0  0  0
  170.3451  149.3898  113.8063 C   0  0  0  0  0  0  0  0  0  0  0  0
  170.2381  150.7516  114.1048 O   0  0  0  0  0  0  0  0  0  0  0  0
  169.5163  150.8417  115.3143 C   0  0  0  0  0  0  0  0  0  0  0  0
  170.3148  150.2377  116.4479 C   0  0  2  0  0  0  0  0  0  0  0  0
  171.3297  151.2217  116.9905 C   0  0  0  0  0  0  0  0  0  0  0  0
  170.8724  147.7799  120.6478 N   0  0  0  0  0  0  0  0  0  0  0  0
  1  2  1  0
  2  3  1  0
  3  4  2  0
  3  5  1  0
  5  6  2  0
  6  7  1  0
  7  8  2  0
  8  9  1  0
  9 10  2  0
  7 11  1  0
 11 12  2  0
 12 13  1  0
 13 14  2  0
 14 15  1  0
 15 16  1  0
 16 17  2  0
 17 18  1  0
 18 19  2  0
 19 20  1  0
 20 21  1  0
 21 22  1  0
 22 23  1  0
 23 24  1  0
 24 25  1  0
 25 26  1  1
 17 27  1  0
 27 28  1  0
 28 29  1  0
 29 30  1  0
 30 31  1  0
 31 32  1  0
 32 33  1  6
 15 34  2  0
 10  5  1  0
 34 11  1  0
 19 14  1  0
 25 20  1  0
 32 27  1  0
M  END
$$$$
