
     RDKit          3D

 34 38  0  0  0  0  0  0  0  0999 V2000
  196.7919  154.7931  120.9673 C   0  0  0  0  0  0  0  0  0  0  0  0
  195.6568  155.4533  120.3089 N   0  0  0  0  0  0  0  0  0  0  0  0
  194.9366  156.4879  120.9199 C   0  0  0  0  0  0  0  0  0  0  0  0
  195.3438  156.8968  122.0368 O   0  0  0  0  0  0  0  0  0  0  0  0
  193.7506  157.1033  120.3248 C   0  0  0  0  0  0  0  0  0  0  0  0
  192.9540  157.9382  121.0871 C   0  0  0  0  0  0  0  0  0  0  0  0
  191.8216  158.5609  120.6153 C   0  0  0  0  0  0  0  0  0  0  0  0
  191.4789  158.3271  119.3090 C   0  0  0  0  0  0  0  0  0  0  0  0
  192.2442  157.4936  118.4901 C   0  0  0  0  0  0  0  0  0  0  0  0
  193.3680  156.8986  119.0214 C   0  0  0  0  0  0  0  0  0  0  0  0
  191.0202  159.4411  121.4938 C   0  0  0  0  0  0  0  0  0  0  0  0
  190.0531  160.2941  121.0259 C   0  0  0  0  0  0  0  0  0  0  0  0
  189.2959  161.1218  121.8283 C   0  0  0  0  0  0  0  0  0  0  0  0
  189.5166  161.0977  123.1853 C   0  0  0  0  0  0  0  0  0  0  0  0
  190.5053  160.2221  123.6333 C   0  0  0  0  0  0  0  0  0  0  0  0
  190.7148  160.2156  124.9768 N   0  0  0  0  0  0  0  0  0  0  0  0
  190.0359  160.9839  125.8345 C   0  0  0  0  0  0  0  0  0  0  0  0
  189.0870  161.8169  125.3575 N   0  0  0  0  0  0  0  0  0  0  0  0
  188.8006  161.9003  124.0437 C   0  0  0  0  0  0  0  0  0  0  0  0
  187.7823  162.7703  123.5540 N   0  0  0  0  0  0  0  0  0  0  0  0
  187.0255  163.6811  124.3904 C   0  0  0  0  0  0  0  0  0  0  0  0
  185.6669  163.8409  123.7834 C   0  0  0  0  0  0  0  0  0  0  0  0
  185.2126  162.7986  123.0299 O   0  0  0  0  0  0  0  0  0  0  0  0
  186.0107  162.3697  122.0076 C   0  0  0  0  0  0  0  0  0  0  0  0
  187.4258  162.8111  122.1398 C   0  0  2  0  0  0  0  0  0  0  0  0
  188.3903  162.0624  121.2844 C   0  0  0  0  0  0  0  0  0  0  0  0
  190.3336  160.8993  127.2134 N   0  0  0  0  0  0  0  0  0  0  0  0
  189.6753  161.7235  128.2139 C   0  0  0  0  0  0  0  0  0  0  0  0
  189.3434  160.8268  129.3876 C   0  0  0  0  0  0  0  0  0  0  0  0
  190.5557  160.3514  129.8969 O   0  0  0  0  0  0  0  0  0  0  0  0
  191.0004  159.3511  129.0062 C   0  0  0  0  0  0  0  0  0  0  0  0
  191.3333  159.9569  127.6609 C   0  0  2  0  0  0  0  0  0  0  0  0
  192.7209  160.5628  127.6593 C   0  0  0  0  0  0  0  0  0  0  0  0
  191.2246  159.4293  122.8232 N   0  0  0  0  0  0  0  0  0  0  0  0
  1  2  1  0
  2  3  1  0
  3  4  2  0
  3  5  1  0
  5  6  2  0
  6  7  1  0
  7  8  2  0
  8  9  1  0
  9 10  2  0
  7 11  1  0
 11 12  2  0
 12 13  1  0
 13 14  2  0
 14 15  1  0
 15 16  1  0
 16 17  2  0
 17 18  1  0
 18 19  2  0
 19 20  1  0
 20 21  1  0
 21 22  1  0
 22 23  1  0
 23 24  1  0
 24 25  1  0
 25 26  1  6
 17 27  1  0
 27 28  1  0
 28 29  1  0
 29 30  1  0
 30 31  1  0
 31 32  1  0
 32 33  1  1
 15 34  2  0
 10  5  1  0
 34 11  1  0
 19 14  1  0
 25 20  1  0
 32 27  1  0
M  END
$$$$
