
     RDKit          3D

 34 38  0  0  0  0  0  0  0  0999 V2000
  165.9428  155.8013  127.4714 C   0  0  0  0  0  0  0  0  0  0  0  0
  165.3808  155.1884  126.2605 N   0  0  0  0  0  0  0  0  0  0  0  0
  165.9874  154.0980  125.6239 C   0  0  0  0  0  0  0  0  0  0  0  0
  165.8411  153.9983  124.3793 O   0  0  0  0  0  0  0  0  0  0  0  0
  166.7711  153.0865  126.3326 C   0  0  0  0  0  0  0  0  0  0  0  0
  167.4273  152.1007  125.6182 C   0  0  0  0  0  0  0  0  0  0  0  0
  168.1863  151.1095  126.1961 C   0  0  0  0  0  0  0  0  0  0  0  0
  168.2861  151.1164  127.5630 C   0  0  0  0  0  0  0  0  0  0  0  0
  167.6461  152.0864  128.3381 C   0  0  0  0  0  0  0  0  0  0  0  0
  166.8999  153.0534  127.6999 C   0  0  0  0  0  0  0  0  0  0  0  0
  168.8587  150.0883  125.3630 C   0  0  0  0  0  0  0  0  0  0  0  0
  169.3734  150.3506  124.1188 C   0  0  0  0  0  0  0  0  0  0  0  0
  170.0034  149.4129  123.3275 C   0  0  0  0  0  0  0  0  0  0  0  0
  170.1288  148.1304  123.8075 C   0  0  0  0  0  0  0  0  0  0  0  0
  169.5964  147.8918  125.0743 C   0  0  0  0  0  0  0  0  0  0  0  0
  169.7234  146.6172  125.5307 N   0  0  0  0  0  0  0  0  0  0  0  0
  170.3129  145.6387  124.8365 C   0  0  0  0  0  0  0  0  0  0  0  0
  170.8150  145.9141  123.6141 N   0  0  0  0  0  0  0  0  0  0  0  0
  170.7419  147.1440  123.0693 C   0  0  0  0  0  0  0  0  0  0  0  0
  171.2933  147.4271  121.7851 N   0  0  0  0  0  0  0  0  0  0  0  0
  171.0844  146.5977  120.6144 C   0  0  0  0  0  0  0  0  0  0  0  0
  172.2961  146.7177  119.7442 C   0  0  0  0  0  0  0  0  0  0  0  0
  173.4668  147.0250  120.3732 O   0  0  0  0  0  0  0  0  0  0  0  0
  173.4814  148.1422  121.1591 C   0  0  0  0  0  0  0  0  0  0  0  0
  172.1223  148.6048  121.5509 C   0  0  2  0  0  0  0  0  0  0  0  0
  172.0992  149.5581  122.6968 C   0  0  0  0  0  0  0  0  0  0  0  0
  170.3914  144.3472  125.4046 N   0  0  0  0  0  0  0  0  0  0  0  0
  170.1917  144.0964  126.8226 C   0  0  0  0  0  0  0  0  0  0  0  0
  169.3245  142.8613  126.9431 C   0  0  0  0  0  0  0  0  0  0  0  0
  170.0389  141.8012  126.3765 O   0  0  0  0  0  0  0  0  0  0  0  0
  169.9550  141.9634  124.9770 C   0  0  0  0  0  0  0  0  0  0  0  0
  170.6822  143.2190  124.5500 C   0  0  2  0  0  0  0  0  0  0  0  0
  172.1712  142.9756  124.4236 C   0  0  0  0  0  0  0  0  0  0  0  0
  168.9887  148.8293  125.8184 N   0  0  0  0  0  0  0  0  0  0  0  0
  1  2  1  0
  2  3  1  0
  3  4  2  0
  3  5  1  0
  5  6  2  0
  6  7  1  0
  7  8  2  0
  8  9  1  0
  9 10  2  0
  7 11  1  0
 11 12  2  0
 12 13  1  0
 13 14  2  0
 14 15  1  0
 15 16  1  0
 16 17  2  0
 17 18  1  0
 18 19  2  0
 19 20  1  0
 20 21  1  0
 21 22  1  0
 22 23  1  0
 23 24  1  0
 24 25  1  0
 25 26  1  1
 17 27  1  0
 27 28  1  0
 28 29  1  0
 29 30  1  0
 30 31  1  0
 31 32  1  0
 32 33  1  1
 15 34  2  0
 10  5  1  0
 34 11  1  0
 19 14  1  0
 25 20  1  0
 32 27  1  0
M  END
$$$$
