
     RDKit          3D

 34 38  0  0  0  0  0  0  0  0999 V2000
  133.1032  143.8150  123.3941 C   0  0  0  0  0  0  0  0  0  0  0  0
  134.4121  144.2551  123.8948 N   0  0  0  0  0  0  0  0  0  0  0  0
  135.3630  144.8649  123.0664 C   0  0  0  0  0  0  0  0  0  0  0  0
  135.0090  145.1599  121.8968 O   0  0  0  0  0  0  0  0  0  0  0  0
  136.7279  145.1684  123.4958 C   0  0  0  0  0  0  0  0  0  0  0  0
  137.6169  145.7422  122.6051 C   0  0  0  0  0  0  0  0  0  0  0  0
  138.9178  146.0627  122.9173 C   0  0  0  0  0  0  0  0  0  0  0  0
  139.3392  145.7894  124.1925 C   0  0  0  0  0  0  0  0  0  0  0  0
  138.4873  145.2107  125.1361 C   0  0  0  0  0  0  0  0  0  0  0  0
  137.1948  144.9127  124.7622 C   0  0  0  0  0  0  0  0  0  0  0  0
  139.8093  146.6752  121.9079 C   0  0  0  0  0  0  0  0  0  0  0  0
  140.9262  147.4030  122.2317 C   0  0  0  0  0  0  0  0  0  0  0  0
  141.7693  147.9814  121.3059 C   0  0  0  0  0  0  0  0  0  0  0  0
  141.4808  147.8239  119.9707 C   0  0  0  0  0  0  0  0  0  0  0  0
  140.3400  147.0801  119.6703 C   0  0  0  0  0  0  0  0  0  0  0  0
  140.0661  146.9397  118.3459 N   0  0  0  0  0  0  0  0  0  0  0  0
  140.8195  147.4663  117.3754 C   0  0  0  0  0  0  0  0  0  0  0  0
  141.9156  148.1788  117.7112 N   0  0  0  0  0  0  0  0  0  0  0  0
  142.2765  148.3776  118.9939 C   0  0  0  0  0  0  0  0  0  0  0  0
  143.4476  149.1160  119.3355 N   0  0  0  0  0  0  0  0  0  0  0  0
  144.6241  149.2020  118.4928 C   0  0  0  0  0  0  0  0  0  0  0  0
  145.8162  149.3639  119.3831 C   0  0  0  0  0  0  0  0  0  0  0  0
  145.7059  148.8539  120.6434 O   0  0  0  0  0  0  0  0  0  0  0  0
  144.6421  149.2654  121.3951 C   0  0  0  0  0  0  0  0  0  0  0  0
  143.5444  149.8615  120.5861 C   0  0  2  0  0  0  0  0  0  0  0  0
  142.2370  149.9622  121.2953 C   0  0  0  0  0  0  0  0  0  0  0  0
  140.4442  147.2600  116.0287 N   0  0  0  0  0  0  0  0  0  0  0  0
  141.2082  147.7841  114.9084 C   0  0  0  0  0  0  0  0  0  0  0  0
  141.2916  146.6872  113.8684 C   0  0  0  0  0  0  0  0  0  0  0  0
  139.9843  146.4125  113.4555 O   0  0  0  0  0  0  0  0  0  0  0  0
  139.3875  145.6581  114.4882 C   0  0  0  0  0  0  0  0  0  0  0  0
  139.2519  146.4969  115.7395 C   0  0  2  0  0  0  0  0  0  0  0  0
  138.0199  147.3753  115.6813 C   0  0  0  0  0  0  0  0  0  0  0  0
  139.5403  146.5305  120.5980 N   0  0  0  0  0  0  0  0  0  0  0  0
  1  2  1  0
  2  3  1  0
  3  4  2  0
  3  5  1  0
  5  6  2  0
  6  7  1  0
  7  8  2  0
  8  9  1  0
  9 10  2  0
  7 11  1  0
 11 12  2  0
 12 13  1  0
 13 14  2  0
 14 15  1  0
 15 16  1  0
 16 17  2  0
 17 18  1  0
 18 19  2  0
 19 20  1  0
 20 21  1  0
 21 22  1  0
 22 23  1  0
 23 24  1  0
 24 25  1  0
 25 26  1  1
 17 27  1  0
 27 28  1  0
 28 29  1  0
 29 30  1  0
 30 31  1  0
 31 32  1  0
 32 33  1  6
 15 34  2  0
 10  5  1  0
 34 11  1  0
 19 14  1  0
 25 20  1  0
 32 27  1  0
M  END
$$$$
