
     RDKit          3D

 34 38  0  0  0  0  0  0  0  0999 V2000
  180.9874  156.9904  143.1080 C   0  0  0  0  0  0  0  0  0  0  0  0
  181.6454  156.3403  141.9669 N   0  0  0  0  0  0  0  0  0  0  0  0
  182.7746  156.8873  141.3441 C   0  0  0  0  0  0  0  0  0  0  0  0
  183.5836  156.0894  140.8061 O   0  0  0  0  0  0  0  0  0  0  0  0
  183.0493  158.3230  141.2931 C   0  0  0  0  0  0  0  0  0  0  0  0
  183.9484  158.8181  140.3661 C   0  0  0  0  0  0  0  0  0  0  0  0
  184.2700  160.1500  140.2433 C   0  0  0  0  0  0  0  0  0  0  0  0
  183.6518  161.0230  141.1001 C   0  0  0  0  0  0  0  0  0  0  0  0
  182.7348  160.5824  142.0573 C   0  0  0  0  0  0  0  0  0  0  0  0
  182.4545  159.2351  142.1306 C   0  0  0  0  0  0  0  0  0  0  0  0
  185.2431  160.6029  139.2251 C   0  0  0  0  0  0  0  0  0  0  0  0
  186.1901  161.5662  139.4638 C   0  0  0  0  0  0  0  0  0  0  0  0
  187.1055  162.0015  138.5284 C   0  0  0  0  0  0  0  0  0  0  0  0
  187.0754  161.4399  137.2735 C   0  0  0  0  0  0  0  0  0  0  0  0
  186.1027  160.4638  137.0585 C   0  0  0  0  0  0  0  0  0  0  0  0
  186.0829  159.9237  135.8107 N   0  0  0  0  0  0  0  0  0  0  0  0
  186.9247  160.2828  134.8364 C   0  0  0  0  0  0  0  0  0  0  0  0
  187.8512  161.2317  135.0884 N   0  0  0  0  0  0  0  0  0  0  0  0
  187.9562  161.8300  136.2908 C   0  0  0  0  0  0  0  0  0  0  0  0
  188.9518  162.8173  136.5505 N   0  0  0  0  0  0  0  0  0  0  0  0
  189.7712  163.4295  135.5230 C   0  0  0  0  0  0  0  0  0  0  0  0
  191.0904  163.7811  136.1362 C   0  0  0  0  0  0  0  0  0  0  0  0
  191.4832  163.0280  137.2036 O   0  0  0  0  0  0  0  0  0  0  0  0
  190.6167  162.9314  138.2552 C   0  0  0  0  0  0  0  0  0  0  0  0
  189.2183  163.2982  137.9020 C   0  0  2  0  0  0  0  0  0  0  0  0
  188.1924  162.8445  138.8839 C   0  0  0  0  0  0  0  0  0  0  0  0
  186.8176  159.6575  133.5737 N   0  0  0  0  0  0  0  0  0  0  0  0
  185.8854  158.5744  133.3070 C   0  0  0  0  0  0  0  0  0  0  0  0
  185.2492  158.8496  131.9611 C   0  0  0  0  0  0  0  0  0  0  0  0
  186.2744  158.8292  131.0105 O   0  0  0  0  0  0  0  0  0  0  0  0
  186.9742  160.0471  131.1489 C   0  0  0  0  0  0  0  0  0  0  0  0
  187.6657  160.1048  132.4928 C   0  0  2  0  0  0  0  0  0  0  0  0
  188.9841  159.3607  132.4648 C   0  0  0  0  0  0  0  0  0  0  0  0
  185.2261  160.0635  137.9930 N   0  0  0  0  0  0  0  0  0  0  0  0
  1  2  1  0
  2  3  1  0
  3  4  2  0
  3  5  1  0
  5  6  2  0
  6  7  1  0
  7  8  2  0
  8  9  1  0
  9 10  2  0
  7 11  1  0
 11 12  2  0
 12 13  1  0
 13 14  2  0
 14 15  1  0
 15 16  1  0
 16 17  2  0
 17 18  1  0
 18 19  2  0
 19 20  1  0
 20 21  1  0
 21 22  1  0
 22 23  1  0
 23 24  1  0
 24 25  1  0
 25 26  1  1
 17 27  1  0
 27 28  1  0
 28 29  1  0
 29 30  1  0
 30 31  1  0
 31 32  1  0
 32 33  1  6
 15 34  2  0
 10  5  1  0
 34 11  1  0
 19 14  1  0
 25 20  1  0
 32 27  1  0
M  END
$$$$
