
     RDKit          3D

 34 38  0  0  0  0  0  0  0  0999 V2000
  191.1246  162.1984  112.1454 C   0  0  0  0  0  0  0  0  0  0  0  0
  191.1156  162.5092  113.5811 N   0  0  0  0  0  0  0  0  0  0  0  0
  190.6667  163.7401  114.0767 C   0  0  0  0  0  0  0  0  0  0  0  0
  190.2170  164.5703  113.2465 O   0  0  0  0  0  0  0  0  0  0  0  0
  190.6977  164.0961  115.4951 C   0  0  0  0  0  0  0  0  0  0  0  0
  190.9212  163.1158  116.4448 C   0  0  0  0  0  0  0  0  0  0  0  0
  190.9676  163.3545  117.7988 C   0  0  0  0  0  0  0  0  0  0  0  0
  190.7787  164.6477  118.2116 C   0  0  0  0  0  0  0  0  0  0  0  0
  190.5489  165.6804  117.2995 C   0  0  0  0  0  0  0  0  0  0  0  0
  190.5138  165.3772  115.9555 C   0  0  0  0  0  0  0  0  0  0  0  0
  191.2117  162.2512  118.7539 C   0  0  0  0  0  0  0  0  0  0  0  0
  190.8263  162.2945  120.0696 C   0  0  0  0  0  0  0  0  0  0  0  0
  191.0445  161.2769  120.9749 C   0  0  0  0  0  0  0  0  0  0  0  0
  191.6884  160.1423  120.5403 C   0  0  0  0  0  0  0  0  0  0  0  0
  192.0693  160.1254  119.1988 C   0  0  0  0  0  0  0  0  0  0  0  0
  192.7103  158.9989  118.7876 N   0  0  0  0  0  0  0  0  0  0  0  0
  192.9717  157.9624  119.5903 C   0  0  0  0  0  0  0  0  0  0  0  0
  192.5847  158.0210  120.8821 N   0  0  0  0  0  0  0  0  0  0  0  0
  191.9427  159.0907  121.3907 C   0  0  0  0  0  0  0  0  0  0  0  0
  191.5218  159.1325  122.7525 N   0  0  0  0  0  0  0  0  0  0  0  0
  191.9055  158.1512  123.7482 C   0  0  0  0  0  0  0  0  0  0  0  0
  190.7928  158.0474  124.7437 C   0  0  0  0  0  0  0  0  0  0  0  0
  189.5442  158.3609  124.2929 O   0  0  0  0  0  0  0  0  0  0  0  0
  189.3796  159.5812  123.7014 C   0  0  0  0  0  0  0  0  0  0  0  0
  190.6587  160.1966  123.2542 C   0  0  2  0  0  0  0  0  0  0  0  0
  190.5009  161.3133  122.2793 C   0  0  0  0  0  0  0  0  0  0  0  0
  193.6449  156.8386  119.0605 N   0  0  0  0  0  0  0  0  0  0  0  0
  193.9109  156.6762  117.6405 C   0  0  0  0  0  0  0  0  0  0  0  0
  195.3318  156.1721  117.5040 C   0  0  0  0  0  0  0  0  0  0  0  0
  195.3880  154.9261  118.1360 O   0  0  0  0  0  0  0  0  0  0  0  0
  195.4034  155.1807  119.5241 C   0  0  0  0  0  0  0  0  0  0  0  0
  194.0932  155.7991  119.9584 C   0  0  2  0  0  0  0  0  0  0  0  0
  193.0309  154.7417  120.1730 C   0  0  0  0  0  0  0  0  0  0  0  0
  191.8408  161.1351  118.3442 N   0  0  0  0  0  0  0  0  0  0  0  0
  1  2  1  0
  2  3  1  0
  3  4  2  0
  3  5  1  0
  5  6  2  0
  6  7  1  0
  7  8  2  0
  8  9  1  0
  9 10  2  0
  7 11  1  0
 11 12  2  0
 12 13  1  0
 13 14  2  0
 14 15  1  0
 15 16  1  0
 16 17  2  0
 17 18  1  0
 18 19  2  0
 19 20  1  0
 20 21  1  0
 21 22  1  0
 22 23  1  0
 23 24  1  0
 24 25  1  0
 25 26  1  6
 17 27  1  0
 27 28  1  0
 28 29  1  0
 29 30  1  0
 30 31  1  0
 31 32  1  0
 32 33  1  6
 15 34  2  0
 10  5  1  0
 34 11  1  0
 19 14  1  0
 25 20  1  0
 32 27  1  0
M  END
$$$$
