
     RDKit          3D

 34 38  0  0  0  0  0  0  0  0999 V2000
  176.5342  147.7026  130.5527 C   0  0  0  0  0  0  0  0  0  0  0  0
  175.3913  148.6098  130.3834 N   0  0  0  0  0  0  0  0  0  0  0  0
  174.2166  148.2183  129.7285 C   0  0  0  0  0  0  0  0  0  0  0  0
  174.2074  147.0864  129.1815 O   0  0  0  0  0  0  0  0  0  0  0  0
  173.0194  149.0553  129.6543 C   0  0  0  0  0  0  0  0  0  0  0  0
  171.9761  148.6901  128.8231 C   0  0  0  0  0  0  0  0  0  0  0  0
  170.8131  149.4124  128.6874 C   0  0  0  0  0  0  0  0  0  0  0  0
  170.7006  150.5595  129.4288 C   0  0  0  0  0  0  0  0  0  0  0  0
  171.7207  150.9796  130.2857 C   0  0  0  0  0  0  0  0  0  0  0  0
  172.8619  150.2124  130.3778 C   0  0  0  0  0  0  0  0  0  0  0  0
  169.7407  148.9559  127.7760 C   0  0  0  0  0  0  0  0  0  0  0  0
  168.4121  149.2309  127.9784 C   0  0  0  0  0  0  0  0  0  0  0  0
  167.3983  148.8148  127.1408 C   0  0  0  0  0  0  0  0  0  0  0  0
  167.7304  148.0768  126.0291 C   0  0  0  0  0  0  0  0  0  0  0  0
  169.0876  147.8117  125.8482 C   0  0  0  0  0  0  0  0  0  0  0  0
  169.3974  147.0756  124.7477 N   0  0  0  0  0  0  0  0  0  0  0  0
  168.4863  146.6232  123.8805 C   0  0  0  0  0  0  0  0  0  0  0  0
  167.1833  146.9036  124.0940 N   0  0  0  0  0  0  0  0  0  0  0  0
  166.7694  147.6254  125.1535 C   0  0  0  0  0  0  0  0  0  0  0  0
  165.3917  147.9315  125.3577 N   0  0  0  0  0  0  0  0  0  0  0  0
  164.3022  147.0633  124.9564 C   0  0  0  0  0  0  0  0  0  0  0  0
  163.1243  147.9262  124.6278 C   0  0  0  0  0  0  0  0  0  0  0  0
  163.3995  149.1961  124.2127 O   0  0  0  0  0  0  0  0  0  0  0  0
  164.1874  149.9633  125.0231 C   0  0  0  0  0  0  0  0  0  0  0  0
  164.9708  149.1683  126.0074 C   0  0  2  0  0  0  0  0  0  0  0  0
  166.1081  149.9028  126.6316 C   0  0  0  0  0  0  0  0  0  0  0  0
  168.9166  145.8656  122.7678 N   0  0  0  0  0  0  0  0  0  0  0  0
  170.3188  145.7024  122.4201 C   0  0  0  0  0  0  0  0  0  0  0  0
  170.5256  144.2474  122.0567 C   0  0  0  0  0  0  0  0  0  0  0  0
  169.7320  143.9874  120.9352 O   0  0  0  0  0  0  0  0  0  0  0  0
  168.4029  143.8863  121.3989 C   0  0  0  0  0  0  0  0  0  0  0  0
  167.9303  145.2205  121.9319 C   0  0  2  0  0  0  0  0  0  0  0  0
  167.4613  146.1248  120.8117 C   0  0  0  0  0  0  0  0  0  0  0  0
  170.0494  148.2328  126.6847 N   0  0  0  0  0  0  0  0  0  0  0  0
  1  2  1  0
  2  3  1  0
  3  4  2  0
  3  5  1  0
  5  6  2  0
  6  7  1  0
  7  8  2  0
  8  9  1  0
  9 10  2  0
  7 11  1  0
 11 12  2  0
 12 13  1  0
 13 14  2  0
 14 15  1  0
 15 16  1  0
 16 17  2  0
 17 18  1  0
 18 19  2  0
 19 20  1  0
 20 21  1  0
 21 22  1  0
 22 23  1  0
 23 24  1  0
 24 25  1  0
 25 26  1  6
 17 27  1  0
 27 28  1  0
 28 29  1  0
 29 30  1  0
 30 31  1  0
 31 32  1  0
 32 33  1  6
 15 34  2  0
 10  5  1  0
 34 11  1  0
 19 14  1  0
 25 20  1  0
 32 27  1  0
M  END
$$$$
