
     RDKit          3D

 34 38  0  0  0  0  0  0  0  0999 V2000
  138.0318  171.1567  139.9153 C   0  0  0  0  0  0  0  0  0  0  0  0
  136.9849  171.8976  140.6314 N   0  0  0  0  0  0  0  0  0  0  0  0
  135.7300  171.3397  140.9075 C   0  0  0  0  0  0  0  0  0  0  0  0
  135.5064  170.1772  140.4842 O   0  0  0  0  0  0  0  0  0  0  0  0
  134.6852  172.0392  141.6548 C   0  0  0  0  0  0  0  0  0  0  0  0
  133.8094  171.3204  142.4481 C   0  0  0  0  0  0  0  0  0  0  0  0
  132.7973  171.8897  143.1858 C   0  0  0  0  0  0  0  0  0  0  0  0
  132.6653  173.2521  143.1174 C   0  0  0  0  0  0  0  0  0  0  0  0
  133.5196  174.0313  142.3336 C   0  0  0  0  0  0  0  0  0  0  0  0
  134.5145  173.4018  141.6173 C   0  0  0  0  0  0  0  0  0  0  0  0
  131.8996  171.0524  144.0116 C   0  0  0  0  0  0  0  0  0  0  0  0
  130.6562  171.4601  144.4231 C   0  0  0  0  0  0  0  0  0  0  0  0
  129.8050  170.6946  145.1926 C   0  0  0  0  0  0  0  0  0  0  0  0
  130.2201  169.4412  145.5766 C   0  0  0  0  0  0  0  0  0  0  0  0
  131.4880  169.0527  145.1448 C   0  0  0  0  0  0  0  0  0  0  0  0
  131.8849  167.8132  145.5387 N   0  0  0  0  0  0  0  0  0  0  0  0
  131.1341  167.0000  146.2882 C   0  0  0  0  0  0  0  0  0  0  0  0
  129.9126  167.4164  146.6839 N   0  0  0  0  0  0  0  0  0  0  0  0
  129.4238  168.6261  146.3482 C   0  0  0  0  0  0  0  0  0  0  0  0
  128.1238  169.0469  146.7562 N   0  0  0  0  0  0  0  0  0  0  0  0
  127.7483  170.4327  146.9573 C   0  0  0  0  0  0  0  0  0  0  0  0
  126.6953  170.4738  148.0200 C   0  0  0  0  0  0  0  0  0  0  0  0
  126.7072  169.4538  148.9257 O   0  0  0  0  0  0  0  0  0  0  0  0
  126.6677  168.1796  148.4350 C   0  0  0  0  0  0  0  0  0  0  0  0
  127.0507  168.0887  146.9998 C   0  0  2  0  0  0  0  0  0  0  0  0
  127.3946  166.7141  146.5366 C   0  0  0  0  0  0  0  0  0  0  0  0
  131.6434  165.7303  146.6424 N   0  0  0  0  0  0  0  0  0  0  0  0
  131.1170  164.9512  147.7511 C   0  0  0  0  0  0  0  0  0  0  0  0
  131.0032  163.5173  147.2791 C   0  0  0  0  0  0  0  0  0  0  0  0
  132.2962  163.0817  146.9734 O   0  0  0  0  0  0  0  0  0  0  0  0
  132.6353  163.6689  145.7356 C   0  0  0  0  0  0  0  0  0  0  0  0
  132.7343  165.1714  145.8774 C   0  0  2  0  0  0  0  0  0  0  0  0
  134.0818  165.5834  146.4318 C   0  0  0  0  0  0  0  0  0  0  0  0
  132.2914  169.8242  144.3956 N   0  0  0  0  0  0  0  0  0  0  0  0
  1  2  1  0
  2  3  1  0
  3  4  2  0
  3  5  1  0
  5  6  2  0
  6  7  1  0
  7  8  2  0
  8  9  1  0
  9 10  2  0
  7 11  1  0
 11 12  2  0
 12 13  1  0
 13 14  2  0
 14 15  1  0
 15 16  1  0
 16 17  2  0
 17 18  1  0
 18 19  2  0
 19 20  1  0
 20 21  1  0
 21 22  1  0
 22 23  1  0
 23 24  1  0
 24 25  1  0
 25 26  1  1
 17 27  1  0
 27 28  1  0
 28 29  1  0
 29 30  1  0
 30 31  1  0
 31 32  1  0
 32 33  1  1
 15 34  2  0
 10  5  1  0
 34 11  1  0
 19 14  1  0
 25 20  1  0
 32 27  1  0
M  END
$$$$
