
     RDKit          3D

 34 38  0  0  0  0  0  0  0  0999 V2000
  152.6967  170.3652  141.8910 C   0  0  0  0  0  0  0  0  0  0  0  0
  151.7078  169.7649  142.7962 N   0  0  0  0  0  0  0  0  0  0  0  0
  151.6248  170.1141  144.1503 C   0  0  0  0  0  0  0  0  0  0  0  0
  152.5957  169.8090  144.8883 O   0  0  0  0  0  0  0  0  0  0  0  0
  150.4764  170.8071  144.7337 C   0  0  0  0  0  0  0  0  0  0  0  0
  150.6448  171.5830  145.8662 C   0  0  0  0  0  0  0  0  0  0  0  0
  149.6263  172.2704  146.4847 C   0  0  0  0  0  0  0  0  0  0  0  0
  148.3771  172.1677  145.9303 C   0  0  0  0  0  0  0  0  0  0  0  0
  148.1452  171.3993  144.7871 C   0  0  0  0  0  0  0  0  0  0  0  0
  149.2071  170.7339  144.2135 C   0  0  0  0  0  0  0  0  0  0  0  0
  149.8859  173.0805  147.6952 C   0  0  0  0  0  0  0  0  0  0  0  0
  149.0237  174.0420  148.1576 C   0  0  0  0  0  0  0  0  0  0  0  0
  149.2477  174.8070  149.2833 C   0  0  0  0  0  0  0  0  0  0  0  0
  150.4062  174.5999  149.9945 C   0  0  0  0  0  0  0  0  0  0  0  0
  151.2645  173.6172  149.5019 C   0  0  0  0  0  0  0  0  0  0  0  0
  152.4079  173.4300  150.2135 N   0  0  0  0  0  0  0  0  0  0  0  0
  152.7161  174.1244  151.3133 C   0  0  0  0  0  0  0  0  0  0  0  0
  151.8561  175.0663  151.7553 N   0  0  0  0  0  0  0  0  0  0  0  0
  150.6956  175.3305  151.1242 C   0  0  0  0  0  0  0  0  0  0  0  0
  149.7863  176.3147  151.6120 N   0  0  0  0  0  0  0  0  0  0  0  0
  149.4399  176.4733  153.0109 C   0  0  0  0  0  0  0  0  0  0  0  0
  148.0378  176.9919  153.0811 C   0  0  0  0  0  0  0  0  0  0  0  0
  147.2235  176.6836  152.0311 O   0  0  0  0  0  0  0  0  0  0  0  0
  147.6624  177.0130  150.7801 C   0  0  0  0  0  0  0  0  0  0  0  0
  149.1285  177.2598  150.7159 C   0  0  2  0  0  0  0  0  0  0  0  0
  149.7007  177.2366  149.3395 C   0  0  0  0  0  0  0  0  0  0  0  0
  153.9326  173.8501  151.9781 N   0  0  0  0  0  0  0  0  0  0  0  0
  154.4337  174.6649  153.0728 C   0  0  0  0  0  0  0  0  0  0  0  0
  154.9510  173.7199  154.1365 C   0  0  0  0  0  0  0  0  0  0  0  0
  156.0063  172.9999  153.5681 O   0  0  0  0  0  0  0  0  0  0  0  0
  155.4225  172.0366  152.7177 C   0  0  0  0  0  0  0  0  0  0  0  0
  154.7217  172.7138  151.5611 C   0  0  2  0  0  0  0  0  0  0  0  0
  155.6990  173.0776  150.4633 C   0  0  0  0  0  0  0  0  0  0  0  0
  151.0148  172.8902  148.4013 N   0  0  0  0  0  0  0  0  0  0  0  0
  1  2  1  0
  2  3  1  0
  3  4  2  0
  3  5  1  0
  5  6  2  0
  6  7  1  0
  7  8  2  0
  8  9  1  0
  9 10  2  0
  7 11  1  0
 11 12  2  0
 12 13  1  0
 13 14  2  0
 14 15  1  0
 15 16  1  0
 16 17  2  0
 17 18  1  0
 18 19  2  0
 19 20  1  0
 20 21  1  0
 21 22  1  0
 22 23  1  0
 23 24  1  0
 24 25  1  0
 25 26  1  6
 17 27  1  0
 27 28  1  0
 28 29  1  0
 29 30  1  0
 30 31  1  0
 31 32  1  0
 32 33  1  6
 15 34  2  0
 10  5  1  0
 34 11  1  0
 19 14  1  0
 25 20  1  0
 32 27  1  0
M  END
$$$$
