
     RDKit          3D

 34 38  0  0  0  0  0  0  0  0999 V2000
  169.5906  143.4622  129.8827 C   0  0  0  0  0  0  0  0  0  0  0  0
  168.7730  142.8950  128.8022 N   0  0  0  0  0  0  0  0  0  0  0  0
  169.0697  143.1074  127.4498 C   0  0  0  0  0  0  0  0  0  0  0  0
  169.0265  142.1118  126.6834 O   0  0  0  0  0  0  0  0  0  0  0  0
  169.4222  144.4158  126.8991 C   0  0  0  0  0  0  0  0  0  0  0  0
  170.6677  144.6089  126.3297 C   0  0  0  0  0  0  0  0  0  0  0  0
  171.0879  145.8013  125.7874 C   0  0  0  0  0  0  0  0  0  0  0  0
  170.2049  146.8489  125.8230 C   0  0  0  0  0  0  0  0  0  0  0  0
  168.9331  146.7146  126.3849 C   0  0  0  0  0  0  0  0  0  0  0  0
  168.5709  145.4940  126.9123 C   0  0  0  0  0  0  0  0  0  0  0  0
  172.4378  145.9296  125.1956 C   0  0  0  0  0  0  0  0  0  0  0  0
  173.3425  146.8852  125.5828 C   0  0  0  0  0  0  0  0  0  0  0  0
  174.6049  147.0208  125.0437 C   0  0  0  0  0  0  0  0  0  0  0  0
  174.9907  146.1468  124.0546 C   0  0  0  0  0  0  0  0  0  0  0  0
  174.0515  145.1862  123.6804 C   0  0  0  0  0  0  0  0  0  0  0  0
  174.4471  144.3344  122.6970 N   0  0  0  0  0  0  0  0  0  0  0  0
  175.6469  144.3891  122.1102 C   0  0  0  0  0  0  0  0  0  0  0  0
  176.5256  145.3351  122.5038 N   0  0  0  0  0  0  0  0  0  0  0  0
  176.2337  146.2276  123.4697 C   0  0  0  0  0  0  0  0  0  0  0  0
  177.1778  147.2101  123.8902 N   0  0  0  0  0  0  0  0  0  0  0  0
  177.5405  148.3724  123.1032 C   0  0  0  0  0  0  0  0  0  0  0  0
  178.9588  148.7227  123.4278 C   0  0  0  0  0  0  0  0  0  0  0  0
  179.7542  147.6997  123.8536 O   0  0  0  0  0  0  0  0  0  0  0  0
  179.3158  146.9672  124.9200 C   0  0  0  0  0  0  0  0  0  0  0  0
  177.8578  147.1163  125.1778 C   0  0  2  0  0  0  0  0  0  0  0  0
  177.2739  146.0644  126.0582 C   0  0  0  0  0  0  0  0  0  0  0  0
  175.9568  143.4545  121.0965 N   0  0  0  0  0  0  0  0  0  0  0  0
  177.0942  143.6077  120.2042 C   0  0  0  0  0  0  0  0  0  0  0  0
  177.7564  142.2518  120.0828 C   0  0  0  0  0  0  0  0  0  0  0  0
  176.8210  141.3883  119.5044 O   0  0  0  0  0  0  0  0  0  0  0  0
  175.8943  141.0634  120.5182 C   0  0  0  0  0  0  0  0  0  0  0  0
  175.1146  142.2924  120.9295 C   0  0  2  0  0  0  0  0  0  0  0  0
  173.9671  142.5590  119.9783 C   0  0  0  0  0  0  0  0  0  0  0  0
  172.8297  145.0826  124.2269 N   0  0  0  0  0  0  0  0  0  0  0  0
  1  2  1  0
  2  3  1  0
  3  4  2  0
  3  5  1  0
  5  6  2  0
  6  7  1  0
  7  8  2  0
  8  9  1  0
  9 10  2  0
  7 11  1  0
 11 12  2  0
 12 13  1  0
 13 14  2  0
 14 15  1  0
 15 16  1  0
 16 17  2  0
 17 18  1  0
 18 19  2  0
 19 20  1  0
 20 21  1  0
 21 22  1  0
 22 23  1  0
 23 24  1  0
 24 25  1  0
 25 26  1  6
 17 27  1  0
 27 28  1  0
 28 29  1  0
 29 30  1  0
 30 31  1  0
 31 32  1  0
 32 33  1  6
 15 34  2  0
 10  5  1  0
 34 11  1  0
 19 14  1  0
 25 20  1  0
 32 27  1  0
M  END
$$$$
