
     RDKit          3D

 34 38  0  0  0  0  0  0  0  0999 V2000
  190.8205  203.9999  155.4942 C   0  0  0  0  0  0  0  0  0  0  0  0
  192.1958  203.4879  155.5572 N   0  0  0  0  0  0  0  0  0  0  0  0
  192.5463  202.2241  155.0649 C   0  0  0  0  0  0  0  0  0  0  0  0
  191.6465  201.5517  154.5005 O   0  0  0  0  0  0  0  0  0  0  0  0
  193.8919  201.6616  155.1771 C   0  0  0  0  0  0  0  0  0  0  0  0
  194.0545  200.3339  155.5287 C   0  0  0  0  0  0  0  0  0  0  0  0
  195.2778  199.7180  155.6586 C   0  0  0  0  0  0  0  0  0  0  0  0
  196.3901  200.4828  155.4213 C   0  0  0  0  0  0  0  0  0  0  0  0
  196.2892  201.8291  155.0629 C   0  0  0  0  0  0  0  0  0  0  0  0
  195.0349  202.3887  154.9489 C   0  0  0  0  0  0  0  0  0  0  0  0
  195.3701  198.2913  156.0390 C   0  0  0  0  0  0  0  0  0  0  0  0
  196.2203  197.8235  157.0086 C   0  0  0  0  0  0  0  0  0  0  0  0
  196.3208  196.4982  157.3773 C   0  0  0  0  0  0  0  0  0  0  0  0
  195.5217  195.5794  156.7384 C   0  0  0  0  0  0  0  0  0  0  0  0
  194.6675  196.0823  155.7572 C   0  0  0  0  0  0  0  0  0  0  0  0
  193.8893  195.1595  155.1313 N   0  0  0  0  0  0  0  0  0  0  0  0
  193.9183  193.8535  155.4149 C   0  0  0  0  0  0  0  0  0  0  0  0
  194.7600  193.4100  156.3724 N   0  0  0  0  0  0  0  0  0  0  0  0
  195.5735  194.2408  157.0531 C   0  0  0  0  0  0  0  0  0  0  0  0
  196.4444  193.7627  158.0759 N   0  0  0  0  0  0  0  0  0  0  0  0
  197.8297  194.1676  158.2132 C   0  0  0  0  0  0  0  0  0  0  0  0
  198.5852  193.0241  158.8144 C   0  0  0  0  0  0  0  0  0  0  0  0
  198.0800  191.7774  158.5884 O   0  0  0  0  0  0  0  0  0  0  0  0
  196.7750  191.5591  158.9279 C   0  0  0  0  0  0  0  0  0  0  0  0
  195.9896  192.8132  159.0862 C   0  0  2  0  0  0  0  0  0  0  0  0
  194.5110  192.6241  159.0695 C   0  0  0  0  0  0  0  0  0  0  0  0
  193.0665  192.9790  154.7031 N   0  0  0  0  0  0  0  0  0  0  0  0
  193.0713  191.5389  154.9019 C   0  0  0  0  0  0  0  0  0  0  0  0
  191.6274  191.0860  154.9446 C   0  0  0  0  0  0  0  0  0  0  0  0
  191.0664  191.3845  153.6991 O   0  0  0  0  0  0  0  0  0  0  0  0
  190.8344  192.7767  153.6869 C   0  0  0  0  0  0  0  0  0  0  0  0
  192.1466  193.5274  153.7332 C   0  0  2  0  0  0  0  0  0  0  0  0
  192.7708  193.6282  152.3574 C   0  0  0  0  0  0  0  0  0  0  0  0
  194.5954  197.3804  155.4230 N   0  0  0  0  0  0  0  0  0  0  0  0
  1  2  1  0
  2  3  1  0
  3  4  2  0
  3  5  1  0
  5  6  2  0
  6  7  1  0
  7  8  2  0
  8  9  1  0
  9 10  2  0
  7 11  1  0
 11 12  2  0
 12 13  1  0
 13 14  2  0
 14 15  1  0
 15 16  1  0
 16 17  2  0
 17 18  1  0
 18 19  2  0
 19 20  1  0
 20 21  1  0
 21 22  1  0
 22 23  1  0
 23 24  1  0
 24 25  1  0
 25 26  1  6
 17 27  1  0
 27 28  1  0
 28 29  1  0
 29 30  1  0
 30 31  1  0
 31 32  1  0
 32 33  1  6
 15 34  2  0
 10  5  1  0
 34 11  1  0
 19 14  1  0
 25 20  1  0
 32 27  1  0
M  END
$$$$
