
     RDKit          3D

 34 38  0  0  0  0  0  0  0  0999 V2000
  164.9560  141.8133  132.4937 C   0  0  0  0  0  0  0  0  0  0  0  0
  164.9010  142.7330  131.3497 N   0  0  0  0  0  0  0  0  0  0  0  0
  163.9388  143.7462  131.2505 C   0  0  0  0  0  0  0  0  0  0  0  0
  163.1600  143.9034  132.2248 O   0  0  0  0  0  0  0  0  0  0  0  0
  163.8027  144.6152  130.0819 C   0  0  0  0  0  0  0  0  0  0  0  0
  164.9129  144.9090  129.3112 C   0  0  0  0  0  0  0  0  0  0  0  0
  164.8827  145.7148  128.1965 C   0  0  0  0  0  0  0  0  0  0  0  0
  163.6704  146.2488  127.8449 C   0  0  0  0  0  0  0  0  0  0  0  0
  162.5143  145.9881  128.5843 C   0  0  0  0  0  0  0  0  0  0  0  0
  162.6095  145.1727  129.6913 C   0  0  0  0  0  0  0  0  0  0  0  0
  166.1149  145.9826  127.4227 C   0  0  0  0  0  0  0  0  0  0  0  0
  167.0370  145.0146  127.1154 C   0  0  0  0  0  0  0  0  0  0  0  0
  168.1909  145.2443  126.3955 C   0  0  0  0  0  0  0  0  0  0  0  0
  168.4419  146.5218  125.9528 C   0  0  0  0  0  0  0  0  0  0  0  0
  167.4884  147.4857  126.2795 C   0  0  0  0  0  0  0  0  0  0  0  0
  167.7554  148.7442  125.8394 N   0  0  0  0  0  0  0  0  0  0  0  0
  168.8478  149.0663  125.1397 C   0  0  0  0  0  0  0  0  0  0  0  0
  169.7447  148.1015  124.8451 N   0  0  0  0  0  0  0  0  0  0  0  0
  169.5757  146.8226  125.2332 C   0  0  0  0  0  0  0  0  0  0  0  0
  170.5209  145.8085  124.8992 N   0  0  0  0  0  0  0  0  0  0  0  0
  171.7737  146.0640  124.2156 C   0  0  0  0  0  0  0  0  0  0  0  0
  172.1115  144.8508  123.4069 C   0  0  0  0  0  0  0  0  0  0  0  0
  171.0615  144.0797  123.0024 O   0  0  0  0  0  0  0  0  0  0  0  0
  170.2017  143.6361  123.9667 C   0  0  0  0  0  0  0  0  0  0  0  0
  170.2913  144.4076  125.2361 C   0  0  2  0  0  0  0  0  0  0  0  0
  169.1330  144.2224  126.1562 C   0  0  0  0  0  0  0  0  0  0  0  0
  169.0287  150.4069  124.7307 N   0  0  0  0  0  0  0  0  0  0  0  0
  167.9517  151.3834  124.7317 C   0  0  0  0  0  0  0  0  0  0  0  0
  168.5123  152.6707  125.2979 C   0  0  0  0  0  0  0  0  0  0  0  0
  169.5259  153.0929  124.4322 O   0  0  0  0  0  0  0  0  0  0  0  0
  170.6408  152.2656  124.6861 C   0  0  0  0  0  0  0  0  0  0  0  0
  170.3356  150.8380  124.2905 C   0  0  2  0  0  0  0  0  0  0  0  0
  170.5286  150.6266  122.8037 C   0  0  0  0  0  0  0  0  0  0  0  0
  166.3747  147.2270  126.9830 N   0  0  0  0  0  0  0  0  0  0  0  0
  1  2  1  0
  2  3  1  0
  3  4  2  0
  3  5  1  0
  5  6  2  0
  6  7  1  0
  7  8  2  0
  8  9  1  0
  9 10  2  0
  7 11  1  0
 11 12  2  0
 12 13  1  0
 13 14  2  0
 14 15  1  0
 15 16  1  0
 16 17  2  0
 17 18  1  0
 18 19  2  0
 19 20  1  0
 20 21  1  0
 21 22  1  0
 22 23  1  0
 23 24  1  0
 24 25  1  0
 25 26  1  6
 17 27  1  0
 27 28  1  0
 28 29  1  0
 29 30  1  0
 30 31  1  0
 31 32  1  0
 32 33  1  6
 15 34  2  0
 10  5  1  0
 34 11  1  0
 19 14  1  0
 25 20  1  0
 32 27  1  0
M  END
$$$$
