
     RDKit          3D

 34 38  0  0  0  0  0  0  0  0999 V2000
  105.2789  159.6820  165.6572 C   0  0  0  0  0  0  0  0  0  0  0  0
  105.2590  161.1471  165.5542 N   0  0  0  0  0  0  0  0  0  0  0  0
  105.4420  161.8135  164.3358 C   0  0  0  0  0  0  0  0  0  0  0  0
  105.6435  161.1091  163.3142 O   0  0  0  0  0  0  0  0  0  0  0  0
  105.4095  163.2698  164.2022 C   0  0  0  0  0  0  0  0  0  0  0  0
  105.5298  163.8479  162.9516 C   0  0  0  0  0  0  0  0  0  0  0  0
  105.5105  165.2051  162.7277 C   0  0  0  0  0  0  0  0  0  0  0  0
  105.3623  166.0164  163.8224 C   0  0  0  0  0  0  0  0  0  0  0  0
  105.2362  165.4908  165.1104 C   0  0  0  0  0  0  0  0  0  0  0  0
  105.2630  164.1222  165.2695 C   0  0  0  0  0  0  0  0  0  0  0  0
  105.6453  165.7482  161.3581 C   0  0  0  0  0  0  0  0  0  0  0  0
  105.3170  167.0372  161.0230 C   0  0  0  0  0  0  0  0  0  0  0  0
  105.4356  167.5618  159.7529 C   0  0  0  0  0  0  0  0  0  0  0  0
  105.9129  166.7489  158.7517 C   0  0  0  0  0  0  0  0  0  0  0  0
  106.2384  165.4438  159.1202 C   0  0  0  0  0  0  0  0  0  0  0  0
  106.7027  164.6521  158.1169 N   0  0  0  0  0  0  0  0  0  0  0  0
  106.8481  165.0674  156.8547 C   0  0  0  0  0  0  0  0  0  0  0  0
  106.5213  166.3392  156.5422 N   0  0  0  0  0  0  0  0  0  0  0  0
  106.0525  167.2056  157.4611 C   0  0  0  0  0  0  0  0  0  0  0  0
  105.7289  168.5525  157.1225 N   0  0  0  0  0  0  0  0  0  0  0  0
  105.9005  169.1172  155.7983 C   0  0  0  0  0  0  0  0  0  0  0  0
  106.1896  170.5772  155.9553 C   0  0  0  0  0  0  0  0  0  0  0  0
  106.7768  170.9569  157.1265 O   0  0  0  0  0  0  0  0  0  0  0  0
  106.1555  170.5905  158.2866 C   0  0  0  0  0  0  0  0  0  0  0  0
  105.1821  169.4790  158.1081 C   0  0  2  0  0  0  0  0  0  0  0  0
  104.7806  168.7987  159.3724 C   0  0  0  0  0  0  0  0  0  0  0  0
  107.3395  164.1614  155.8879 N   0  0  0  0  0  0  0  0  0  0  0  0
  107.5815  164.5389  154.5050 C   0  0  0  0  0  0  0  0  0  0  0  0
  108.9069  163.9308  154.0981 C   0  0  0  0  0  0  0  0  0  0  0  0
  108.7661  162.5425  154.1864 O   0  0  0  0  0  0  0  0  0  0  0  0
  108.8165  162.2206  155.5596 C   0  0  0  0  0  0  0  0  0  0  0  0
  107.6174  162.7982  156.2781 C   0  0  2  0  0  0  0  0  0  0  0  0
  106.4025  161.9079  156.1231 C   0  0  0  0  0  0  0  0  0  0  0  0
  106.1102  164.9654  160.3679 N   0  0  0  0  0  0  0  0  0  0  0  0
  1  2  1  0
  2  3  1  0
  3  4  2  0
  3  5  1  0
  5  6  2  0
  6  7  1  0
  7  8  2  0
  8  9  1  0
  9 10  2  0
  7 11  1  0
 11 12  2  0
 12 13  1  0
 13 14  2  0
 14 15  1  0
 15 16  1  0
 16 17  2  0
 17 18  1  0
 18 19  2  0
 19 20  1  0
 20 21  1  0
 21 22  1  0
 22 23  1  0
 23 24  1  0
 24 25  1  0
 25 26  1  1
 17 27  1  0
 27 28  1  0
 28 29  1  0
 29 30  1  0
 30 31  1  0
 31 32  1  0
 32 33  1  6
 15 34  2  0
 10  5  1  0
 34 11  1  0
 19 14  1  0
 25 20  1  0
 32 27  1  0
M  END
$$$$
