
     RDKit          3D

 34 38  0  0  0  0  0  0  0  0999 V2000
  191.6110  167.2874  112.0692 C   0  0  0  0  0  0  0  0  0  0  0  0
  191.4463  166.3594  113.1960 N   0  0  0  0  0  0  0  0  0  0  0  0
  191.0900  166.7963  114.4784 C   0  0  0  0  0  0  0  0  0  0  0  0
  190.8851  168.0266  114.6357 O   0  0  0  0  0  0  0  0  0  0  0  0
  190.9484  165.8981  115.6240 C   0  0  0  0  0  0  0  0  0  0  0  0
  190.2883  166.3315  116.7595 C   0  0  0  0  0  0  0  0  0  0  0  0
  190.1062  165.5599  117.8838 C   0  0  0  0  0  0  0  0  0  0  0  0
  190.6167  164.2883  117.8576 C   0  0  0  0  0  0  0  0  0  0  0  0
  191.2929  163.7945  116.7395 C   0  0  0  0  0  0  0  0  0  0  0  0
  191.4430  164.6166  115.6436 C   0  0  0  0  0  0  0  0  0  0  0  0
  189.3881  166.0956  119.0612 C   0  0  0  0  0  0  0  0  0  0  0  0
  189.2268  165.3941  120.2289 C   0  0  0  0  0  0  0  0  0  0  0  0
  188.5613  165.8759  121.3367 C   0  0  0  0  0  0  0  0  0  0  0  0
  188.0217  167.1393  121.2770 C   0  0  0  0  0  0  0  0  0  0  0  0
  188.2001  167.8295  120.0784 C   0  0  0  0  0  0  0  0  0  0  0  0
  187.6549  169.0744  120.0344 N   0  0  0  0  0  0  0  0  0  0  0  0
  186.9882  169.6258  121.0534 C   0  0  0  0  0  0  0  0  0  0  0  0
  186.8395  168.9221  122.1956 N   0  0  0  0  0  0  0  0  0  0  0  0
  187.3410  167.6806  122.3435 C   0  0  0  0  0  0  0  0  0  0  0  0
  187.1939  166.9548  123.5621 N   0  0  0  0  0  0  0  0  0  0  0  0
  186.3672  167.3928  124.6697 C   0  0  0  0  0  0  0  0  0  0  0  0
  186.9851  166.8830  125.9339 C   0  0  0  0  0  0  0  0  0  0  0  0
  188.3321  166.6698  125.9079 O   0  0  0  0  0  0  0  0  0  0  0  0
  188.8194  165.8596  124.9220 C   0  0  0  0  0  0  0  0  0  0  0  0
  187.8771  165.6847  123.7836 C   0  0  2  0  0  0  0  0  0  0  0  0
  188.5003  165.1456  122.5412 C   0  0  0  0  0  0  0  0  0  0  0  0
  186.4606  170.9280  120.9021 N   0  0  0  0  0  0  0  0  0  0  0  0
  185.7151  171.6033  121.9517 C   0  0  0  0  0  0  0  0  0  0  0  0
  186.2072  173.0340  122.0036 C   0  0  0  0  0  0  0  0  0  0  0  0
  185.9077  173.6164  120.7682 O   0  0  0  0  0  0  0  0  0  0  0  0
  186.8551  173.1169  119.8490 C   0  0  0  0  0  0  0  0  0  0  0  0
  186.6640  171.6291  119.6552 C   0  0  2  0  0  0  0  0  0  0  0  0
  185.5599  171.3421  118.6596 C   0  0  0  0  0  0  0  0  0  0  0  0
  188.8543  167.3295  119.0182 N   0  0  0  0  0  0  0  0  0  0  0  0
  1  2  1  0
  2  3  1  0
  3  4  2  0
  3  5  1  0
  5  6  2  0
  6  7  1  0
  7  8  2  0
  8  9  1  0
  9 10  2  0
  7 11  1  0
 11 12  2  0
 12 13  1  0
 13 14  2  0
 14 15  1  0
 15 16  1  0
 16 17  2  0
 17 18  1  0
 18 19  2  0
 19 20  1  0
 20 21  1  0
 21 22  1  0
 22 23  1  0
 23 24  1  0
 24 25  1  0
 25 26  1  6
 17 27  1  0
 27 28  1  0
 28 29  1  0
 29 30  1  0
 30 31  1  0
 31 32  1  0
 32 33  1  6
 15 34  2  0
 10  5  1  0
 34 11  1  0
 19 14  1  0
 25 20  1  0
 32 27  1  0
M  END
$$$$
