
     RDKit          3D

 34 38  0  0  0  0  0  0  0  0999 V2000
  129.9557  140.4921  128.4844 C   0  0  0  0  0  0  0  0  0  0  0  0
  130.7773  141.0376  129.5730 N   0  0  0  0  0  0  0  0  0  0  0  0
  130.4174  142.1966  130.2727 C   0  0  0  0  0  0  0  0  0  0  0  0
  130.6060  143.3006  129.7017 O   0  0  0  0  0  0  0  0  0  0  0  0
  129.8410  142.1787  131.6169 C   0  0  0  0  0  0  0  0  0  0  0  0
  129.3737  143.3524  132.1798 C   0  0  0  0  0  0  0  0  0  0  0  0
  128.8167  143.4338  133.4351 C   0  0  0  0  0  0  0  0  0  0  0  0
  128.7284  142.2711  134.1554 C   0  0  0  0  0  0  0  0  0  0  0  0
  129.1833  141.0551  133.6400 C   0  0  0  0  0  0  0  0  0  0  0  0
  129.7318  141.0388  132.3758 C   0  0  0  0  0  0  0  0  0  0  0  0
  128.3391  144.7284  133.9686 C   0  0  0  0  0  0  0  0  0  0  0  0
  128.1625  145.8447  133.1912 C   0  0  0  0  0  0  0  0  0  0  0  0
  127.7183  147.0598  133.6696 C   0  0  0  0  0  0  0  0  0  0  0  0
  127.4313  147.1693  135.0099 C   0  0  0  0  0  0  0  0  0  0  0  0
  127.6202  146.0196  135.7765 C   0  0  0  0  0  0  0  0  0  0  0  0
  127.3377  146.1474  137.1004 N   0  0  0  0  0  0  0  0  0  0  0  0
  126.9071  147.2833  137.6581 C   0  0  0  0  0  0  0  0  0  0  0  0
  126.7376  148.3722  136.8786 N   0  0  0  0  0  0  0  0  0  0  0  0
  126.9885  148.3527  135.5551 C   0  0  0  0  0  0  0  0  0  0  0  0
  126.7871  149.5044  134.7387 N   0  0  0  0  0  0  0  0  0  0  0  0
  127.3549  150.8075  135.0241 C   0  0  0  0  0  0  0  0  0  0  0  0
  126.4175  151.8443  134.4890 C   0  0  0  0  0  0  0  0  0  0  0  0
  125.1039  151.4874  134.4017 O   0  0  0  0  0  0  0  0  0  0  0  0
  124.8087  150.3487  133.7073 C   0  0  0  0  0  0  0  0  0  0  0  0
  125.9805  149.4498  133.5241 C   0  0  2  0  0  0  0  0  0  0  0  0
  125.6346  148.0545  133.1288 C   0  0  0  0  0  0  0  0  0  0  0  0
  126.6429  147.3077  139.0462 N   0  0  0  0  0  0  0  0  0  0  0  0
  126.6210  146.1071  139.8656 C   0  0  0  0  0  0  0  0  0  0  0  0
  127.3572  146.4255  141.1496 C   0  0  0  0  0  0  0  0  0  0  0  0
  126.6435  147.4426  141.7908 O   0  0  0  0  0  0  0  0  0  0  0  0
  126.9353  148.6364  141.0968 C   0  0  0  0  0  0  0  0  0  0  0  0
  126.3818  148.5743  139.6906 C   0  0  2  0  0  0  0  0  0  0  0  0
  124.9099  148.9286  139.6633 C   0  0  0  0  0  0  0  0  0  0  0  0
  128.0546  144.8516  135.2775 N   0  0  0  0  0  0  0  0  0  0  0  0
  1  2  1  0
  2  3  1  0
  3  4  2  0
  3  5  1  0
  5  6  2  0
  6  7  1  0
  7  8  2  0
  8  9  1  0
  9 10  2  0
  7 11  1  0
 11 12  2  0
 12 13  1  0
 13 14  2  0
 14 15  1  0
 15 16  1  0
 16 17  2  0
 17 18  1  0
 18 19  2  0
 19 20  1  0
 20 21  1  0
 21 22  1  0
 22 23  1  0
 23 24  1  0
 24 25  1  0
 25 26  1  1
 17 27  1  0
 27 28  1  0
 28 29  1  0
 29 30  1  0
 30 31  1  0
 31 32  1  0
 32 33  1  1
 15 34  2  0
 10  5  1  0
 34 11  1  0
 19 14  1  0
 25 20  1  0
 32 27  1  0
M  END
$$$$
