
     RDKit          3D

 34 38  0  0  0  0  0  0  0  0999 V2000
  148.6829  165.9631  127.9455 C   0  0  0  0  0  0  0  0  0  0  0  0
  147.4636  165.9686  127.1263 N   0  0  0  0  0  0  0  0  0  0  0  0
  146.2764  166.5747  127.5570 C   0  0  0  0  0  0  0  0  0  0  0  0
  145.5950  165.9663  128.4207 O   0  0  0  0  0  0  0  0  0  0  0  0
  145.8024  167.8637  127.0538 C   0  0  0  0  0  0  0  0  0  0  0  0
  145.6203  168.9184  127.9298 C   0  0  0  0  0  0  0  0  0  0  0  0
  145.1790  170.1649  127.5501 C   0  0  0  0  0  0  0  0  0  0  0  0
  144.9090  170.3530  126.2196 C   0  0  0  0  0  0  0  0  0  0  0  0
  145.0738  169.3257  125.2876 C   0  0  0  0  0  0  0  0  0  0  0  0
  145.5191  168.0989  125.7303 C   0  0  0  0  0  0  0  0  0  0  0  0
  145.0089  171.2439  128.5480 C   0  0  0  0  0  0  0  0  0  0  0  0
  145.1240  172.5765  128.2438 C   0  0  0  0  0  0  0  0  0  0  0  0
  144.9688  173.5965  129.1592 C   0  0  0  0  0  0  0  0  0  0  0  0
  144.6798  173.2668  130.4625 C   0  0  0  0  0  0  0  0  0  0  0  0
  144.5689  171.9053  130.7437 C   0  0  0  0  0  0  0  0  0  0  0  0
  144.2892  171.5970  132.0382 N   0  0  0  0  0  0  0  0  0  0  0  0
  144.1261  172.5134  132.9976 C   0  0  0  0  0  0  0  0  0  0  0  0
  144.2418  173.8204  132.6810 N   0  0  0  0  0  0  0  0  0  0  0  0
  144.5166  174.2333  131.4285 C   0  0  0  0  0  0  0  0  0  0  0  0
  144.6172  175.6179  131.1025 N   0  0  0  0  0  0  0  0  0  0  0  0
  144.8376  176.6651  132.0806 C   0  0  0  0  0  0  0  0  0  0  0  0
  144.1745  177.9095  131.5787 C   0  0  0  0  0  0  0  0  0  0  0  0
  143.1121  177.7352  130.7412 O   0  0  0  0  0  0  0  0  0  0  0  0
  143.3093  176.9646  129.6307 C   0  0  0  0  0  0  0  0  0  0  0  0
  144.5094  176.0898  129.7261 C   0  0  2  0  0  0  0  0  0  0  0  0
  144.5446  174.9767  128.7349 C   0  0  0  0  0  0  0  0  0  0  0  0
  143.8378  172.0842  134.3128 N   0  0  0  0  0  0  0  0  0  0  0  0
  144.0434  172.9266  135.4797 C   0  0  0  0  0  0  0  0  0  0  0  0
  142.8327  172.7604  136.3732 C   0  0  0  0  0  0  0  0  0  0  0  0
  142.7929  171.4190  136.7657 O   0  0  0  0  0  0  0  0  0  0  0  0
  142.3177  170.6898  135.6547 C   0  0  0  0  0  0  0  0  0  0  0  0
  143.3157  170.7530  134.5200 C   0  0  2  0  0  0  0  0  0  0  0  0
  144.4216  169.7352  134.7037 C   0  0  0  0  0  0  0  0  0  0  0  0
  144.7264  170.9375  129.8269 N   0  0  0  0  0  0  0  0  0  0  0  0
  1  2  1  0
  2  3  1  0
  3  4  2  0
  3  5  1  0
  5  6  2  0
  6  7  1  0
  7  8  2  0
  8  9  1  0
  9 10  2  0
  7 11  1  0
 11 12  2  0
 12 13  1  0
 13 14  2  0
 14 15  1  0
 15 16  1  0
 16 17  2  0
 17 18  1  0
 18 19  2  0
 19 20  1  0
 20 21  1  0
 21 22  1  0
 22 23  1  0
 23 24  1  0
 24 25  1  0
 25 26  1  6
 17 27  1  0
 27 28  1  0
 28 29  1  0
 29 30  1  0
 30 31  1  0
 31 32  1  0
 32 33  1  1
 15 34  2  0
 10  5  1  0
 34 11  1  0
 19 14  1  0
 25 20  1  0
 32 27  1  0
M  END
$$$$
