
     RDKit          3D

 34 38  0  0  0  0  0  0  0  0999 V2000
  190.7259  170.1373  118.3062 C   0  0  0  0  0  0  0  0  0  0  0  0
  191.7702  169.1389  118.5715 N   0  0  0  0  0  0  0  0  0  0  0  0
  191.4690  167.8275  118.9611 C   0  0  0  0  0  0  0  0  0  0  0  0
  190.2632  167.5521  119.1867 O   0  0  0  0  0  0  0  0  0  0  0  0
  192.4796  166.7813  119.1145 C   0  0  0  0  0  0  0  0  0  0  0  0
  192.1010  165.4513  119.0907 C   0  0  0  0  0  0  0  0  0  0  0  0
  192.9782  164.4004  119.2267 C   0  0  0  0  0  0  0  0  0  0  0  0
  194.3026  164.7104  119.3948 C   0  0  0  0  0  0  0  0  0  0  0  0
  194.7453  166.0349  119.4270 C   0  0  0  0  0  0  0  0  0  0  0  0
  193.8172  167.0438  119.2852 C   0  0  0  0  0  0  0  0  0  0  0  0
  192.4956  163.0022  119.1908 C   0  0  0  0  0  0  0  0  0  0  0  0
  191.2817  162.6374  118.6663 C   0  0  0  0  0  0  0  0  0  0  0  0
  190.8144  161.3404  118.6235 C   0  0  0  0  0  0  0  0  0  0  0  0
  191.6087  160.3420  119.1365 C   0  0  0  0  0  0  0  0  0  0  0  0
  192.8368  160.7411  119.6634 C   0  0  0  0  0  0  0  0  0  0  0  0
  193.6066  159.7423  120.1720 N   0  0  0  0  0  0  0  0  0  0  0  0
  193.2391  158.4571  120.1806 C   0  0  0  0  0  0  0  0  0  0  0  0
  192.0417  158.1152  119.6597 N   0  0  0  0  0  0  0  0  0  0  0  0
  191.2031  159.0270  119.1304 C   0  0  0  0  0  0  0  0  0  0  0  0
  189.9490  158.6508  118.5655 N   0  0  0  0  0  0  0  0  0  0  0  0
  189.6782  157.3463  117.9939 C   0  0  0  0  0  0  0  0  0  0  0  0
  188.6635  157.5222  116.9078 C   0  0  0  0  0  0  0  0  0  0  0  0
  188.6313  158.7427  116.2996 O   0  0  0  0  0  0  0  0  0  0  0  0
  188.4873  159.8390  117.1018 C   0  0  0  0  0  0  0  0  0  0  0  0
  188.8191  159.5732  118.5280 C   0  0  2  0  0  0  0  0  0  0  0  0
  189.0512  160.7964  119.3480 C   0  0  0  0  0  0  0  0  0  0  0  0
  194.1160  157.4976  120.7350 N   0  0  0  0  0  0  0  0  0  0  0  0
  193.7024  156.1395  121.0478 C   0  0  0  0  0  0  0  0  0  0  0  0
  194.8055  155.2144  120.5797 C   0  0  0  0  0  0  0  0  0  0  0  0
  195.9506  155.5358  121.3148 O   0  0  0  0  0  0  0  0  0  0  0  0
  196.4554  156.7348  120.7675 C   0  0  0  0  0  0  0  0  0  0  0  0
  195.4853  157.8701  121.0073 C   0  0  2  0  0  0  0  0  0  0  0  0
  195.6475  158.4470  122.3978 C   0  0  0  0  0  0  0  0  0  0  0  0
  193.2608  162.0146  119.6890 N   0  0  0  0  0  0  0  0  0  0  0  0
  1  2  1  0
  2  3  1  0
  3  4  2  0
  3  5  1  0
  5  6  2  0
  6  7  1  0
  7  8  2  0
  8  9  1  0
  9 10  2  0
  7 11  1  0
 11 12  2  0
 12 13  1  0
 13 14  2  0
 14 15  1  0
 15 16  1  0
 16 17  2  0
 17 18  1  0
 18 19  2  0
 19 20  1  0
 20 21  1  0
 21 22  1  0
 22 23  1  0
 23 24  1  0
 24 25  1  0
 25 26  1  6
 17 27  1  0
 27 28  1  0
 28 29  1  0
 29 30  1  0
 30 31  1  0
 31 32  1  0
 32 33  1  1
 15 34  2  0
 10  5  1  0
 34 11  1  0
 19 14  1  0
 25 20  1  0
 32 27  1  0
M  END
$$$$
