
     RDKit          3D

 34 38  0  0  0  0  0  0  0  0999 V2000
  132.3454  176.9371  141.9477 C   0  0  0  0  0  0  0  0  0  0  0  0
  133.1195  177.3936  143.1097 N   0  0  0  0  0  0  0  0  0  0  0  0
  132.7418  178.5089  143.8683 C   0  0  0  0  0  0  0  0  0  0  0  0
  131.6748  179.0924  143.5498 O   0  0  0  0  0  0  0  0  0  0  0  0
  133.5220  179.0163  144.9967 C   0  0  0  0  0  0  0  0  0  0  0  0
  132.9556  179.9276  145.8693 C   0  0  0  0  0  0  0  0  0  0  0  0
  133.6101  180.4594  146.9563 C   0  0  0  0  0  0  0  0  0  0  0  0
  134.9001  180.0490  147.1704 C   0  0  0  0  0  0  0  0  0  0  0  0
  135.5256  179.1309  146.3236 C   0  0  0  0  0  0  0  0  0  0  0  0
  134.8168  178.6342  145.2511 C   0  0  0  0  0  0  0  0  0  0  0  0
  132.9355  181.4310  147.8449 C   0  0  0  0  0  0  0  0  0  0  0  0
  133.3700  181.7197  149.1136 C   0  0  0  0  0  0  0  0  0  0  0  0
  132.7554  182.6218  149.9567 C   0  0  0  0  0  0  0  0  0  0  0  0
  131.6349  183.2793  149.5058 C   0  0  0  0  0  0  0  0  0  0  0  0
  131.2153  182.9665  148.2131 C   0  0  0  0  0  0  0  0  0  0  0  0
  130.1026  183.6209  147.7858 N   0  0  0  0  0  0  0  0  0  0  0  0
  129.4353  184.5083  148.5302 C   0  0  0  0  0  0  0  0  0  0  0  0
  129.8769  184.7814  149.7761 N   0  0  0  0  0  0  0  0  0  0  0  0
  130.9695  184.1888  150.2957 C   0  0  0  0  0  0  0  0  0  0  0  0
  131.4373  184.5001  151.6062 N   0  0  0  0  0  0  0  0  0  0  0  0
  130.5689  184.8503  152.7131 C   0  0  0  0  0  0  0  0  0  0  0  0
  131.3223  185.7803  153.6117 C   0  0  0  0  0  0  0  0  0  0  0  0
  132.3018  186.5282  153.0270 O   0  0  0  0  0  0  0  0  0  0  0  0
  133.2617  185.8613  152.3200 C   0  0  0  0  0  0  0  0  0  0  0  0
  132.8586  184.4812  151.9359 C   0  0  2  0  0  0  0  0  0  0  0  0
  133.6883  183.8713  150.8580 C   0  0  0  0  0  0  0  0  0  0  0  0
  128.2887  185.1321  147.9886 N   0  0  0  0  0  0  0  0  0  0  0  0
  127.8081  184.8659  146.6427 C   0  0  0  0  0  0  0  0  0  0  0  0
  126.3028  184.7257  146.7222 C   0  0  0  0  0  0  0  0  0  0  0  0
  125.7989  185.9526  147.1648 O   0  0  0  0  0  0  0  0  0  0  0  0
  126.0627  186.0186  148.5497 C   0  0  0  0  0  0  0  0  0  0  0  0
  127.5536  186.0771  148.7975 C   0  0  2  0  0  0  0  0  0  0  0  0
  128.0821  187.4871  148.6387 C   0  0  0  0  0  0  0  0  0  0  0  0
  131.8383  182.0819  147.4186 N   0  0  0  0  0  0  0  0  0  0  0  0
  1  2  1  0
  2  3  1  0
  3  4  2  0
  3  5  1  0
  5  6  2  0
  6  7  1  0
  7  8  2  0
  8  9  1  0
  9 10  2  0
  7 11  1  0
 11 12  2  0
 12 13  1  0
 13 14  2  0
 14 15  1  0
 15 16  1  0
 16 17  2  0
 17 18  1  0
 18 19  2  0
 19 20  1  0
 20 21  1  0
 21 22  1  0
 22 23  1  0
 23 24  1  0
 24 25  1  0
 25 26  1  6
 17 27  1  0
 27 28  1  0
 28 29  1  0
 29 30  1  0
 30 31  1  0
 31 32  1  0
 32 33  1  6
 15 34  2  0
 10  5  1  0
 34 11  1  0
 19 14  1  0
 25 20  1  0
 32 27  1  0
M  END
$$$$
