
     RDKit          3D

 34 38  0  0  0  0  0  0  0  0999 V2000
  186.8491  158.4705  130.5011 C   0  0  0  0  0  0  0  0  0  0  0  0
  187.8387  159.3148  129.8189 N   0  0  0  0  0  0  0  0  0  0  0  0
  188.3577  158.9893  128.5591 C   0  0  0  0  0  0  0  0  0  0  0  0
  188.0083  157.8924  128.0539 O   0  0  0  0  0  0  0  0  0  0  0  0
  189.2736  159.8559  127.8177 C   0  0  0  0  0  0  0  0  0  0  0  0
  190.1107  160.7174  128.5031 C   0  0  0  0  0  0  0  0  0  0  0  0
  191.0036  161.5680  127.8934 C   0  0  0  0  0  0  0  0  0  0  0  0
  191.0517  161.5454  126.5239 C   0  0  0  0  0  0  0  0  0  0  0  0
  190.2310  160.6969  125.7771 C   0  0  0  0  0  0  0  0  0  0  0  0
  189.3569  159.8680  126.4465 C   0  0  0  0  0  0  0  0  0  0  0  0
  191.8669  162.4616  128.6967 C   0  0  0  0  0  0  0  0  0  0  0  0
  192.4984  163.5640  128.1794 C   0  0  0  0  0  0  0  0  0  0  0  0
  193.3064  164.4088  128.9115 C   0  0  0  0  0  0  0  0  0  0  0  0
  193.4971  164.1374  130.2460 C   0  0  0  0  0  0  0  0  0  0  0  0
  192.8438  163.0109  130.7452 C   0  0  0  0  0  0  0  0  0  0  0  0
  193.0483  162.7538  132.0647 N   0  0  0  0  0  0  0  0  0  0  0  0
  193.8169  163.5101  132.8546 C   0  0  0  0  0  0  0  0  0  0  0  0
  194.4304  164.5918  132.3298 N   0  0  0  0  0  0  0  0  0  0  0  0
  194.2940  164.9355  131.0344 C   0  0  0  0  0  0  0  0  0  0  0  0
  194.9318  166.0918  130.4962 N   0  0  0  0  0  0  0  0  0  0  0  0
  196.0574  166.7590  131.1206 C   0  0  0  0  0  0  0  0  0  0  0  0
  195.9813  168.2124  130.7717 C   0  0  0  0  0  0  0  0  0  0  0  0
  194.7390  168.7076  130.5030 O   0  0  0  0  0  0  0  0  0  0  0  0
  194.0056  168.0721  129.5415 C   0  0  0  0  0  0  0  0  0  0  0  0
  194.4897  166.6967  129.2442 C   0  0  2  0  0  0  0  0  0  0  0  0
  193.5140  165.8424  128.5089 C   0  0  0  0  0  0  0  0  0  0  0  0
  193.9625  163.1527  134.2141 N   0  0  0  0  0  0  0  0  0  0  0  0
  194.8468  163.8611  135.1249 C   0  0  0  0  0  0  0  0  0  0  0  0
  194.0972  164.0453  136.4273 C   0  0  0  0  0  0  0  0  0  0  0  0
  193.8309  162.7688  136.9319 O   0  0  0  0  0  0  0  0  0  0  0  0
  192.7663  162.2484  136.1653 C   0  0  0  0  0  0  0  0  0  0  0  0
  193.2053  162.0371  134.7334 C   0  0  2  0  0  0  0  0  0  0  0  0
  193.9484  160.7275  134.5740 C   0  0  0  0  0  0  0  0  0  0  0  0
  192.0635  162.2092  130.0032 N   0  0  0  0  0  0  0  0  0  0  0  0
  1  2  1  0
  2  3  1  0
  3  4  2  0
  3  5  1  0
  5  6  2  0
  6  7  1  0
  7  8  2  0
  8  9  1  0
  9 10  2  0
  7 11  1  0
 11 12  2  0
 12 13  1  0
 13 14  2  0
 14 15  1  0
 15 16  1  0
 16 17  2  0
 17 18  1  0
 18 19  2  0
 19 20  1  0
 20 21  1  0
 21 22  1  0
 22 23  1  0
 23 24  1  0
 24 25  1  0
 25 26  1  1
 17 27  1  0
 27 28  1  0
 28 29  1  0
 29 30  1  0
 30 31  1  0
 31 32  1  0
 32 33  1  1
 15 34  2  0
 10  5  1  0
 34 11  1  0
 19 14  1  0
 25 20  1  0
 32 27  1  0
M  END
$$$$
