
     RDKit          3D

 34 38  0  0  0  0  0  0  0  0999 V2000
  165.7169  166.2021  106.4957 C   0  0  0  0  0  0  0  0  0  0  0  0
  165.9638  165.5504  107.7888 N   0  0  0  0  0  0  0  0  0  0  0  0
  167.2104  165.0082  108.1267 C   0  0  0  0  0  0  0  0  0  0  0  0
  168.1436  165.1367  107.2942 O   0  0  0  0  0  0  0  0  0  0  0  0
  167.4697  164.3101  109.3857 C   0  0  0  0  0  0  0  0  0  0  0  0
  168.7696  164.1616  109.8340 C   0  0  0  0  0  0  0  0  0  0  0  0
  169.1105  163.5217  111.0031 C   0  0  0  0  0  0  0  0  0  0  0  0
  168.0864  163.0071  111.7547 C   0  0  0  0  0  0  0  0  0  0  0  0
  166.7537  163.1258  111.3536 C   0  0  0  0  0  0  0  0  0  0  0  0
  166.4765  163.7783  110.1718 C   0  0  0  0  0  0  0  0  0  0  0  0
  170.5264  163.4031  111.4158 C   0  0  0  0  0  0  0  0  0  0  0  0
  170.9157  162.9568  112.6531 C   0  0  0  0  0  0  0  0  0  0  0  0
  172.2294  162.8392  113.0564 C   0  0  0  0  0  0  0  0  0  0  0  0
  173.2196  163.1886  112.1685 C   0  0  0  0  0  0  0  0  0  0  0  0
  172.7956  163.6391  110.9185 C   0  0  0  0  0  0  0  0  0  0  0  0
  173.7873  163.9863  110.0555 N   0  0  0  0  0  0  0  0  0  0  0  0
  175.0878  163.9119  110.3553 C   0  0  0  0  0  0  0  0  0  0  0  0
  175.4537  163.4698  111.5771 N   0  0  0  0  0  0  0  0  0  0  0  0
  174.5508  163.1003  112.5061 C   0  0  0  0  0  0  0  0  0  0  0  0
  174.9503  162.6165  113.7866 N   0  0  0  0  0  0  0  0  0  0  0  0
  176.3317  162.4880  114.2077 C   0  0  0  0  0  0  0  0  0  0  0  0
  176.4137  161.3462  115.1718 C   0  0  0  0  0  0  0  0  0  0  0  0
  175.4686  160.3715  115.0397 O   0  0  0  0  0  0  0  0  0  0  0  0
  174.1595  160.7610  115.0604 C   0  0  0  0  0  0  0  0  0  0  0  0
  173.9724  162.2127  114.7913 C   0  0  2  0  0  0  0  0  0  0  0  0
  172.5805  162.5998  114.4235 C   0  0  0  0  0  0  0  0  0  0  0  0
  176.0380  164.2986  109.3834 N   0  0  0  0  0  0  0  0  0  0  0  0
  175.7361  165.2384  108.3161 C   0  0  0  0  0  0  0  0  0  0  0  0
  176.9140  166.1826  108.2018 C   0  0  0  0  0  0  0  0  0  0  0  0
  178.0251  165.4118  107.8461 O   0  0  0  0  0  0  0  0  0  0  0  0
  178.4321  164.7318  109.0140 C   0  0  0  0  0  0  0  0  0  0  0  0
  177.3706  163.7431  109.4421 C   0  0  2  0  0  0  0  0  0  0  0  0
  177.4777  162.4497  108.6623 C   0  0  0  0  0  0  0  0  0  0  0  0
  171.5063  163.7414  110.5588 N   0  0  0  0  0  0  0  0  0  0  0  0
  1  2  1  0
  2  3  1  0
  3  4  2  0
  3  5  1  0
  5  6  2  0
  6  7  1  0
  7  8  2  0
  8  9  1  0
  9 10  2  0
  7 11  1  0
 11 12  2  0
 12 13  1  0
 13 14  2  0
 14 15  1  0
 15 16  1  0
 16 17  2  0
 17 18  1  0
 18 19  2  0
 19 20  1  0
 20 21  1  0
 21 22  1  0
 22 23  1  0
 23 24  1  0
 24 25  1  0
 25 26  1  6
 17 27  1  0
 27 28  1  0
 28 29  1  0
 29 30  1  0
 30 31  1  0
 31 32  1  0
 32 33  1  6
 15 34  2  0
 10  5  1  0
 34 11  1  0
 19 14  1  0
 25 20  1  0
 32 27  1  0
M  END
$$$$
