
     RDKit          3D

 44 50  0  0  0  0  0  0  0  0999 V2000
  127.6465  155.2035  132.5229 N   0  0  0  0  0  0  0  0  0  0  0  0
  127.9215  153.8102  132.4555 C   0  0  0  0  0  0  0  0  0  0  0  0
  128.3407  153.2495  131.2994 N   0  0  0  0  0  0  0  0  0  0  0  0
  128.6058  151.9192  131.2262 C   0  0  0  0  0  0  0  0  0  0  0  0
  128.4637  151.1117  132.2902 N   0  0  0  0  0  0  0  0  0  0  0  0
  128.0458  151.6252  133.4735 C   0  0  0  0  0  0  0  0  0  0  0  0
  127.7796  152.9655  133.5442 C   0  0  0  0  0  0  0  0  0  0  0  0
  127.3924  153.2106  134.7960 N   0  0  0  0  0  0  0  0  0  0  0  0
  127.4169  152.0556  135.4848 C   0  0  0  0  0  0  0  0  0  0  0  0
  127.8143  151.0706  134.6945 N   0  0  0  0  0  0  0  0  0  0  0  0
  128.0053  149.6643  134.9434 C   0  0  2  0  0  0  0  0  0  0  0  0
  128.0867  148.9154  133.7653 O   0  0  0  0  0  0  0  0  0  0  0  0
  128.0795  147.6125  134.2331 C   0  0  2  0  0  0  0  0  0  0  0  0
  127.7427  146.6862  133.1105 C   0  0  0  0  0  0  0  0  0  0  0  0
  128.9233  146.0407  132.6952 O   0  0  0  0  0  0  0  0  0  0  0  0
  128.6457  144.4537  132.2502 P   0  0  2  0  0  5  0  0  0  0  0  0
  128.8696  144.2364  130.1663 S   0  0  0  0  0  0  0  0  0  0  0  0
  127.2070  144.1185  132.5952 O   0  0  0  0  0  0  0  0  0  0  0  0
  129.7142  143.3727  133.0130 O   0  0  0  0  0  0  0  0  0  0  0  0
  129.1764  143.0232  134.2181 C   0  0  2  0  0  0  0  0  0  0  0  0
  129.4961  144.0386  135.3249 C   0  0  2  0  0  0  0  0  0  0  0  0
  130.8438  144.3599  135.2316 O   0  0  0  0  0  0  0  0  0  0  0  0
  129.2755  143.1597  136.5375 C   0  0  1  0  0  0  0  0  0  0  0  0
  127.8145  143.3631  136.9588 C   0  0  0  0  0  0  0  0  0  0  0  0
  127.2261  144.4106  136.2708 O   0  0  0  0  0  0  0  0  0  0  0  0
  127.0417  145.7904  137.2420 P   0  0  2  0  0  5  0  0  0  0  0  0
  128.0012  145.4222  139.0929 S   0  0  0  0  0  0  0  0  0  0  0  0
  125.5577  145.9621  137.4778 O   0  0  0  0  0  0  0  0  0  0  0  0
  127.7433  147.1488  136.5569 O   0  0  0  0  0  0  0  0  0  0  0  0
  127.1031  147.5503  135.3811 C   0  0  1  0  0  0  0  0  0  0  0  0
  126.7618  149.0301  135.5801 C   0  0  1  0  0  0  0  0  0  0  0  0
  126.6789  149.3483  136.9243 O   0  0  0  0  0  0  0  0  0  0  0  0
  129.4174  141.8573  136.1519 O   0  0  0  0  0  0  0  0  0  0  0  0
  129.8135  141.7994  134.8435 C   0  0  1  0  0  0  0  0  0  0  0  0
  129.3891  140.5897  134.1720 N   0  0  0  0  0  0  0  0  0  0  0  0
  128.2378  139.9172  134.3809 C   0  0  0  0  0  0  0  0  0  0  0  0
  128.1721  138.8369  133.5819 N   0  0  0  0  0  0  0  0  0  0  0  0
  129.2931  138.7956  132.8367 C   0  0  0  0  0  0  0  0  0  0  0  0
  130.0386  139.8929  133.2165 C   0  0  0  0  0  0  0  0  0  0  0  0
  131.2399  140.0869  132.6033 N   0  0  0  0  0  0  0  0  0  0  0  0
  131.6463  139.2163  131.6672 C   0  0  0  0  0  0  0  0  0  0  0  0
  130.9090  138.1469  131.3039 N   0  0  0  0  0  0  0  0  0  0  0  0
  129.7149  137.8978  131.8696 C   0  0  0  0  0  0  0  0  0  0  0  0
  128.9333  136.7713  131.4901 N   0  0  0  0  0  0  0  0  0  0  0  0
  1  2  1  0
  2  3  2  0
  3  4  1  0
  4  5  2  0
  5  6  1  0
  6  7  2  0
  7  8  1  0
  8  9  2  0
  9 10  1  0
 11 10  1  6
 11 12  1  0
 12 13  1  0
 13 14  1  6
 14 15  1  0
 15 16  1  0
 16 17  1  6
 16 18  2  0
 16 19  1  0
 20 19  1  6
 20 21  1  0
 21 22  1  6
 21 23  1  0
 23 24  1  6
 24 25  1  0
 25 26  1  0
 26 27  1  1
 26 28  2  0
 26 29  1  0
 30 29  1  1
 30 31  1  0
 31 32  1  1
 23 33  1  0
 33 34  1  0
 34 35  1  6
 35 36  1  0
 36 37  2  0
 37 38  1  0
 38 39  2  0
 39 40  1  0
 40 41  2  0
 41 42  1  0
 42 43  2  0
 43 44  1  0
  7  2  1  0
 31 11  1  0
 39 35  1  0
 10  6  1  0
 30 13  1  0
 43 38  1  0
 34 20  1  0
M  END
$$$$
