
     RDKit          3D

 44 50  0  0  0  0  0  0  0  0999 V2000
  131.0226  135.5628  131.8834 N   0  0  0  0  0  0  0  0  0  0  0  0
  131.2085  136.9069  132.3076 C   0  0  0  0  0  0  0  0  0  0  0  0
  132.4527  137.4042  132.4840 N   0  0  0  0  0  0  0  0  0  0  0  0
  132.6392  138.6874  132.8891 C   0  0  0  0  0  0  0  0  0  0  0  0
  131.6042  139.5091  133.1295 N   0  0  0  0  0  0  0  0  0  0  0  0
  130.3356  139.0585  132.9673 C   0  0  0  0  0  0  0  0  0  0  0  0
  130.1508  137.7656  132.5592 C   0  0  0  0  0  0  0  0  0  0  0  0
  128.8337  137.5770  132.4783 N   0  0  0  0  0  0  0  0  0  0  0  0
  128.2162  138.7202  132.8263 C   0  0  0  0  0  0  0  0  0  0  0  0
  129.1169  139.6418  133.1300 N   0  0  0  0  0  0  0  0  0  0  0  0
  128.9760  141.0108  133.5566 C   0  0  2  0  0  0  0  0  0  0  0  0
  127.9424  141.6780  132.8918 O   0  0  0  0  0  0  0  0  0  0  0  0
  128.1083  142.9872  133.3098 C   0  0  2  0  0  0  0  0  0  0  0  0
  127.3648  143.8982  132.3884 C   0  0  0  0  0  0  0  0  0  0  0  0
  126.1908  144.3275  133.0367 O   0  0  0  0  0  0  0  0  0  0  0  0
  125.8168  145.9143  132.6684 P   0  0  2  0  0  5  0  0  0  0  0  0
  124.0940  145.9897  131.4575 S   0  0  0  0  0  0  0  0  0  0  0  0
  126.9682  146.4894  131.8654 O   0  0  0  0  0  0  0  0  0  0  0  0
  125.5277  146.8494  134.0592 O   0  0  0  0  0  0  0  0  0  0  0  0
  126.7241  147.3389  134.4981 C   0  0  2  0  0  0  0  0  0  0  0  0
  127.4797  146.3420  135.3889 C   0  0  2  0  0  0  0  0  0  0  0  0
  126.5727  145.8074  136.2941 O   0  0  0  0  0  0  0  0  0  0  0  0
  128.3983  147.3037  136.1119 C   0  0  1  0  0  0  0  0  0  0  0  0
  129.6977  147.3551  135.2979 C   0  0  0  0  0  0  0  0  0  0  0  0
  129.7225  146.3809  134.3144 O   0  0  0  0  0  0  0  0  0  0  0  0
  130.7602  145.0976  134.7113 P   0  0  2  0  0  5  0  0  0  0  0  0
  131.4509  145.4010  136.6894 S   0  0  0  0  0  0  0  0  0  0  0  0
  131.9325  145.1746  133.7590 O   0  0  0  0  0  0  0  0  0  0  0  0
  129.9857  143.6130  134.6558 O   0  0  0  0  0  0  0  0  0  0  0  0
  129.5909  143.2599  133.3624 C   0  0  1  0  0  0  0  0  0  0  0  0
  130.1731  141.8645  133.1183 C   0  0  1  0  0  0  0  0  0  0  0  0
  131.2694  141.6305  133.9297 O   0  0  0  0  0  0  0  0  0  0  0  0
  127.8337  148.5466  136.0688 O   0  0  0  0  0  0  0  0  0  0  0  0
  126.5957  148.4760  135.4906 C   0  0  1  0  0  0  0  0  0  0  0  0
  126.2038  149.7028  134.8303 N   0  0  0  0  0  0  0  0  0  0  0  0
  125.3933  149.8132  133.7568 C   0  0  0  0  0  0  0  0  0  0  0  0
  125.2462  151.1044  133.4089 N   0  0  0  0  0  0  0  0  0  0  0  0
  125.9680  151.8554  134.2627 C   0  0  0  0  0  0  0  0  0  0  0  0
  126.5569  150.9677  135.1399 C   0  0  0  0  0  0  0  0  0  0  0  0
  127.3534  151.4786  136.1203 N   0  0  0  0  0  0  0  0  0  0  0  0
  127.5322  152.8060  136.1944 C   0  0  0  0  0  0  0  0  0  0  0  0
  126.9513  153.6643  135.3313 N   0  0  0  0  0  0  0  0  0  0  0  0
  126.1541  153.2259  134.3412 C   0  0  0  0  0  0  0  0  0  0  0  0
  125.5391  154.1269  133.4281 N   0  0  0  0  0  0  0  0  0  0  0  0
  1  2  1  0
  2  3  2  0
  3  4  1  0
  4  5  2  0
  5  6  1  0
  6  7  2  0
  7  8  1  0
  8  9  2  0
  9 10  1  0
 11 10  1  6
 11 12  1  0
 12 13  1  0
 13 14  1  6
 14 15  1  0
 15 16  1  0
 16 17  1  6
 16 18  2  0
 16 19  1  0
 20 19  1  1
 20 21  1  0
 21 22  1  1
 21 23  1  0
 23 24  1  6
 24 25  1  0
 25 26  1  0
 26 27  1  1
 26 28  2  0
 26 29  1  0
 30 29  1  1
 30 31  1  0
 31 32  1  1
 23 33  1  0
 33 34  1  0
 34 35  1  6
 35 36  1  0
 36 37  2  0
 37 38  1  0
 38 39  2  0
 39 40  1  0
 40 41  2  0
 41 42  1  0
 42 43  2  0
 43 44  1  0
  7  2  1  0
 31 11  1  0
 39 35  1  0
 10  6  1  0
 30 13  1  0
 43 38  1  0
 34 20  1  0
M  END
$$$$
