
     RDKit          3D

 44 50  0  0  0  0  0  0  0  0999 V2000
  131.2961  135.4828  131.2719 N   0  0  0  0  0  0  0  0  0  0  0  0
  131.3804  136.6820  132.0309 C   0  0  0  0  0  0  0  0  0  0  0  0
  132.4521  136.9202  132.8193 N   0  0  0  0  0  0  0  0  0  0  0  0
  132.5406  138.0634  133.5478 C   0  0  0  0  0  0  0  0  0  0  0  0
  131.5756  138.9971  133.5159 N   0  0  0  0  0  0  0  0  0  0  0  0
  130.4797  138.8059  132.7406 C   0  0  0  0  0  0  0  0  0  0  0  0
  130.3932  137.6535  132.0079 C   0  0  0  0  0  0  0  0  0  0  0  0
  129.2387  137.7110  131.3441 N   0  0  0  0  0  0  0  0  0  0  0  0
  128.6241  138.8663  131.6548 C   0  0  0  0  0  0  0  0  0  0  0  0
  129.3663  139.5533  132.5091 N   0  0  0  0  0  0  0  0  0  0  0  0
  129.1600  140.8323  133.1396 C   0  0  2  0  0  0  0  0  0  0  0  0
  128.6644  141.7950  132.2546 O   0  0  0  0  0  0  0  0  0  0  0  0
  128.7211  142.9559  133.0065 C   0  0  2  0  0  0  0  0  0  0  0  0
  128.6264  144.1381  132.0981 C   0  0  0  0  0  0  0  0  0  0  0  0
  127.3316  144.6812  132.2060 O   0  0  0  0  0  0  0  0  0  0  0  0
  127.3422  146.3495  132.1050 P   0  0  2  0  0  5  0  0  0  0  0  0
  126.4704  146.9704  130.2899 S   0  0  0  0  0  0  0  0  0  0  0  0
  128.7887  146.8063  132.0998 O   0  0  0  0  0  0  0  0  0  0  0  0
  126.4860  147.0793  133.3804 O   0  0  0  0  0  0  0  0  0  0  0  0
  127.3428  147.2380  134.4311 C   0  0  2  0  0  0  0  0  0  0  0  0
  127.4552  145.9755  135.2982 C   0  0  2  0  0  0  0  0  0  0  0  0
  126.1718  145.4916  135.5143 O   0  0  0  0  0  0  0  0  0  0  0  0
  127.9752  146.5988  136.5759 C   0  0  1  0  0  0  0  0  0  0  0  0
  129.5056  146.5221  136.5028 C   0  0  0  0  0  0  0  0  0  0  0  0
  129.9271  145.7401  135.4409 O   0  0  0  0  0  0  0  0  0  0  0  0
  130.5023  144.2264  135.9499 P   0  0  2  0  0  5  0  0  0  0  0  0
  130.1374  144.0515  138.0279 S   0  0  0  0  0  0  0  0  0  0  0  0
  131.9949  144.2229  135.7061 O   0  0  0  0  0  0  0  0  0  0  0  0
  129.7240  142.9585  135.1795 O   0  0  0  0  0  0  0  0  0  0  0  0
  129.9972  142.9120  133.8096 C   0  0  1  0  0  0  0  0  0  0  0  0
  130.4898  141.4883  133.5337 C   0  0  1  0  0  0  0  0  0  0  0  0
  131.0067  140.9069  134.6781 O   0  0  0  0  0  0  0  0  0  0  0  0
  127.6269  147.9194  136.5787 O   0  0  0  0  0  0  0  0  0  0  0  0
  126.8429  148.1967  135.4922 C   0  0  1  0  0  0  0  0  0  0  0  0
  126.9501  149.5695  135.0468 N   0  0  0  0  0  0  0  0  0  0  0  0
  128.0853  150.2196  134.7150 C   0  0  0  0  0  0  0  0  0  0  0  0
  127.8128  151.4843  134.3461 N   0  0  0  0  0  0  0  0  0  0  0  0
  126.4821  151.6715  134.4354 C   0  0  0  0  0  0  0  0  0  0  0  0
  125.9613  150.4707  134.8725 C   0  0  0  0  0  0  0  0  0  0  0  0
  124.6124  150.3907  135.0482 N   0  0  0  0  0  0  0  0  0  0  0  0
  123.8530  151.4667  134.7932 C   0  0  0  0  0  0  0  0  0  0  0  0
  124.3733  152.6355  134.3662 N   0  0  0  0  0  0  0  0  0  0  0  0
  125.6959  152.7814  134.1727 C   0  0  0  0  0  0  0  0  0  0  0  0
  126.2497  154.0121  133.7224 N   0  0  0  0  0  0  0  0  0  0  0  0
  1  2  1  0
  2  3  2  0
  3  4  1  0
  4  5  2  0
  5  6  1  0
  6  7  2  0
  7  8  1  0
  8  9  2  0
  9 10  1  0
 11 10  1  6
 11 12  1  0
 12 13  1  0
 13 14  1  6
 14 15  1  0
 15 16  1  0
 16 17  1  6
 16 18  2  0
 16 19  1  0
 20 19  1  6
 20 21  1  0
 21 22  1  1
 21 23  1  0
 23 24  1  6
 24 25  1  0
 25 26  1  0
 26 27  1  1
 26 28  2  0
 26 29  1  0
 30 29  1  1
 30 31  1  0
 31 32  1  1
 23 33  1  0
 33 34  1  0
 34 35  1  6
 35 36  1  0
 36 37  2  0
 37 38  1  0
 38 39  2  0
 39 40  1  0
 40 41  2  0
 41 42  1  0
 42 43  2  0
 43 44  1  0
  7  2  1  0
 31 11  1  0
 39 35  1  0
 10  6  1  0
 30 13  1  0
 43 38  1  0
 34 20  1  0
M  END
$$$$
