
     RDKit          3D

 44 50  0  0  0  0  0  0  0  0999 V2000
  133.2547  136.7210  129.3902 N   0  0  0  0  0  0  0  0  0  0  0  0
  132.1956  137.3000  130.1414 C   0  0  0  0  0  0  0  0  0  0  0  0
  131.2794  136.5156  130.7514 N   0  0  0  0  0  0  0  0  0  0  0  0
  130.2643  137.0605  131.4711 C   0  0  0  0  0  0  0  0  0  0  0  0
  130.1292  138.3901  131.6059 N   0  0  0  0  0  0  0  0  0  0  0  0
  131.0222  139.2207  131.0133 C   0  0  0  0  0  0  0  0  0  0  0  0
  132.0437  138.6690  130.2891 C   0  0  0  0  0  0  0  0  0  0  0  0
  132.7681  139.6845  129.8190 N   0  0  0  0  0  0  0  0  0  0  0  0
  132.2132  140.8356  130.2389 C   0  0  0  0  0  0  0  0  0  0  0  0
  131.1422  140.5756  130.9724 N   0  0  0  0  0  0  0  0  0  0  0  0
  130.2107  141.4457  131.6442 C   0  0  2  0  0  0  0  0  0  0  0  0
  130.4463  142.7975  131.3743 O   0  0  0  0  0  0  0  0  0  0  0  0
  129.5808  143.4360  132.2458 C   0  0  2  0  0  0  0  0  0  0  0  0
  129.9915  144.8649  132.3918 C   0  0  0  0  0  0  0  0  0  0  0  0
  129.0983  145.6636  131.6519 O   0  0  0  0  0  0  0  0  0  0  0  0
  128.7855  147.1199  132.4102 P   0  0  2  0  0  5  0  0  0  0  0  0
  129.6693  148.7011  131.3338 S   0  0  0  0  0  0  0  0  0  0  0  0
  129.4332  147.0791  133.7814 O   0  0  0  0  0  0  0  0  0  0  0  0
  127.1195  147.4350  132.5415 O   0  0  0  0  0  0  0  0  0  0  0  0
  126.6667  146.8543  133.6910 C   0  0  2  0  0  0  0  0  0  0  0  0
  126.3184  145.3701  133.5061 C   0  0  2  0  0  0  0  0  0  0  0  0
  125.5894  145.2470  132.3308 O   0  0  0  0  0  0  0  0  0  0  0  0
  125.3926  145.1844  134.6893 C   0  0  1  0  0  0  0  0  0  0  0  0
  126.2678  144.6959  135.8507 C   0  0  0  0  0  0  0  0  0  0  0  0
  127.5452  144.3723  135.4258 O   0  0  0  0  0  0  0  0  0  0  0  0
  127.7916  142.6941  135.3602 P   0  0  2  0  0  5  0  0  0  0  0  0
  125.9413  141.7440  135.7548 S   0  0  0  0  0  0  0  0  0  0  0  0
  128.7693  142.3538  136.4626 O   0  0  0  0  0  0  0  0  0  0  0  0
  128.3223  142.1877  133.8539 O   0  0  0  0  0  0  0  0  0  0  0  0
  129.5979  142.6671  133.5434 C   0  0  1  0  0  0  0  0  0  0  0  0
  130.4227  141.4337  133.1637 C   0  0  1  0  0  0  0  0  0  0  0  0
  129.8941  140.2854  133.7266 O   0  0  0  0  0  0  0  0  0  0  0  0
  124.8915  146.4070  135.0347 O   0  0  0  0  0  0  0  0  0  0  0  0
  125.3067  147.3515  134.1361 C   0  0  1  0  0  0  0  0  0  0  0  0
  125.3974  148.6792  134.7049 N   0  0  0  0  0  0  0  0  0  0  0  0
  125.8635  148.9973  135.9308 C   0  0  0  0  0  0  0  0  0  0  0  0
  125.8021  150.3267  136.1273 N   0  0  0  0  0  0  0  0  0  0  0  0
  125.2896  150.8931  135.0181 C   0  0  0  0  0  0  0  0  0  0  0  0
  125.0436  149.8541  134.1439 C   0  0  0  0  0  0  0  0  0  0  0  0
  124.5145  150.1613  132.9263 N   0  0  0  0  0  0  0  0  0  0  0  0
  124.2565  151.4434  132.6282 C   0  0  0  0  0  0  0  0  0  0  0  0
  124.5010  152.4510  133.4909 N   0  0  0  0  0  0  0  0  0  0  0  0
  125.0222  152.2166  134.7080 C   0  0  0  0  0  0  0  0  0  0  0  0
  125.2821  153.2756  135.6216 N   0  0  0  0  0  0  0  0  0  0  0  0
  1  2  1  0
  2  3  2  0
  3  4  1  0
  4  5  2  0
  5  6  1  0
  6  7  2  0
  7  8  1  0
  8  9  2  0
  9 10  1  0
 11 10  1  6
 11 12  1  0
 12 13  1  0
 13 14  1  1
 14 15  1  0
 15 16  1  0
 16 17  1  6
 16 18  2  0
 16 19  1  0
 20 19  1  6
 20 21  1  0
 21 22  1  6
 21 23  1  0
 23 24  1  1
 24 25  1  0
 25 26  1  0
 26 27  1  1
 26 28  2  0
 26 29  1  0
 30 29  1  6
 30 31  1  0
 31 32  1  1
 23 33  1  0
 33 34  1  0
 34 35  1  1
 35 36  1  0
 36 37  2  0
 37 38  1  0
 38 39  2  0
 39 40  1  0
 40 41  2  0
 41 42  1  0
 42 43  2  0
 43 44  1  0
  7  2  1  0
 31 11  1  0
 39 35  1  0
 10  6  1  0
 30 13  1  0
 43 38  1  0
 34 20  1  0
M  END
$$$$
