
     RDKit          3D

 44 50  0  0  0  0  0  0  0  0999 V2000
  136.6524  137.2591  133.1304 N   0  0  0  0  0  0  0  0  0  0  0  0
  135.3297  137.6752  132.8163 C   0  0  0  0  0  0  0  0  0  0  0  0
  134.5677  136.9526  131.9655 N   0  0  0  0  0  0  0  0  0  0  0  0
  133.3029  137.3430  131.6600 C   0  0  0  0  0  0  0  0  0  0  0  0
  132.7607  138.4538  132.1857 N   0  0  0  0  0  0  0  0  0  0  0  0
  133.4839  139.2137  133.0449 C   0  0  0  0  0  0  0  0  0  0  0  0
  134.7575  138.8180  133.3508 C   0  0  0  0  0  0  0  0  0  0  0  0
  135.2425  139.7224  134.2017 N   0  0  0  0  0  0  0  0  0  0  0  0
  134.2974  140.6544  134.4191 C   0  0  0  0  0  0  0  0  0  0  0  0
  133.2113  140.3630  133.7205 N   0  0  0  0  0  0  0  0  0  0  0  0
  131.9407  141.0330  133.6069 C   0  0  2  0  0  0  0  0  0  0  0  0
  132.0553  142.4236  133.6996 O   0  0  0  0  0  0  0  0  0  0  0  0
  130.7343  142.8339  133.7530 C   0  0  2  0  0  0  0  0  0  0  0  0
  130.6724  144.2350  134.2677 C   0  0  0  0  0  0  0  0  0  0  0  0
  130.4133  145.0971  133.1849 O   0  0  0  0  0  0  0  0  0  0  0  0
  129.4158  146.3658  133.6197 P   0  0  2  0  0  5  0  0  0  0  0  0
  130.5018  148.1716  133.6248 S   0  0  0  0  0  0  0  0  0  0  0  0
  128.9346  146.1151  135.0363 O   0  0  0  0  0  0  0  0  0  0  0  0
  128.0978  146.5437  132.5598 O   0  0  0  0  0  0  0  0  0  0  0  0
  127.0895  145.7336  132.9963 C   0  0  2  0  0  0  0  0  0  0  0  0
  127.2318  144.2895  132.4936 C   0  0  2  0  0  0  0  0  0  0  0  0
  127.5497  144.3382  131.1428 O   0  0  0  0  0  0  0  0  0  0  0  0
  125.7983  143.8301  132.6526 C   0  0  1  0  0  0  0  0  0  0  0  0
  125.7001  143.1935  134.0449 C   0  0  0  0  0  0  0  0  0  0  0  0
  126.9483  143.0363  134.6232 O   0  0  0  0  0  0  0  0  0  0  0  0
  127.4610  141.4183  134.6083 P   0  0  2  0  0  5  0  0  0  0  0  0
  126.0538  140.2949  133.4949 S   0  0  0  0  0  0  0  0  0  0  0  0
  127.4496  140.9444  136.0444 O   0  0  0  0  0  0  0  0  0  0  0  0
  128.9603  141.2328  133.8840 O   0  0  0  0  0  0  0  0  0  0  0  0
  129.9877  141.8421  134.6098 C   0  0  1  0  0  0  0  0  0  0  0  0
  131.0457  140.7552  134.8217 C   0  0  1  0  0  0  0  0  0  0  0  0
  130.4875  139.4914  134.7447 O   0  0  0  0  0  0  0  0  0  0  0  0
  124.9935  144.9335  132.6446 O   0  0  0  0  0  0  0  0  0  0  0  0
  125.7389  146.0519  132.3886 C   0  0  1  0  0  0  0  0  0  0  0  0
  125.1784  147.2553  132.9650 N   0  0  0  0  0  0  0  0  0  0  0  0
  125.3622  147.7031  134.2248 C   0  0  0  0  0  0  0  0  0  0  0  0
  124.6920  148.8534  134.4179 N   0  0  0  0  0  0  0  0  0  0  0  0
  124.0582  149.1690  133.2722 C   0  0  0  0  0  0  0  0  0  0  0  0
  124.3716  148.1645  132.3794 C   0  0  0  0  0  0  0  0  0  0  0  0
  123.8481  148.2455  131.1240 N   0  0  0  0  0  0  0  0  0  0  0  0
  123.0594  149.2836  130.8083 C   0  0  0  0  0  0  0  0  0  0  0  0
  122.7598  150.2598  131.6894 N   0  0  0  0  0  0  0  0  0  0  0  0
  123.2434  150.2402  132.9439 C   0  0  0  0  0  0  0  0  0  0  0  0
  122.9306  151.2673  133.8771 N   0  0  0  0  0  0  0  0  0  0  0  0
  1  2  1  0
  2  3  2  0
  3  4  1  0
  4  5  2  0
  5  6  1  0
  6  7  2  0
  7  8  1  0
  8  9  2  0
  9 10  1  0
 11 10  1  1
 11 12  1  0
 12 13  1  0
 13 14  1  1
 14 15  1  0
 15 16  1  0
 16 17  1  1
 16 18  2  0
 16 19  1  0
 20 19  1  6
 20 21  1  0
 21 22  1  6
 21 23  1  0
 23 24  1  1
 24 25  1  0
 25 26  1  0
 26 27  1  6
 26 28  2  0
 26 29  1  0
 30 29  1  6
 30 31  1  0
 31 32  1  6
 23 33  1  0
 33 34  1  0
 34 35  1  1
 35 36  1  0
 36 37  2  0
 37 38  1  0
 38 39  2  0
 39 40  1  0
 40 41  2  0
 41 42  1  0
 42 43  2  0
 43 44  1  0
  7  2  1  0
 31 11  1  0
 39 35  1  0
 10  6  1  0
 30 13  1  0
 43 38  1  0
 34 20  1  0
M  END
$$$$
