
     RDKit          3D

 44 50  0  0  0  0  0  0  0  0999 V2000
  125.1856  153.9458  135.6978 N   0  0  0  0  0  0  0  0  0  0  0  0
  125.3465  152.7197  134.9962 C   0  0  0  0  0  0  0  0  0  0  0  0
  124.8646  152.5798  133.7413 N   0  0  0  0  0  0  0  0  0  0  0  0
  125.0140  151.4119  133.0638 C   0  0  0  0  0  0  0  0  0  0  0  0
  125.6414  150.3559  133.6074 N   0  0  0  0  0  0  0  0  0  0  0  0
  126.1430  150.4450  134.8641 C   0  0  0  0  0  0  0  0  0  0  0  0
  125.9910  151.6227  135.5440 C   0  0  0  0  0  0  0  0  0  0  0  0
  126.5631  151.4501  136.7356 N   0  0  0  0  0  0  0  0  0  0  0  0
  127.0571  150.2005  136.7955 C   0  0  0  0  0  0  0  0  0  0  0  0
  126.8112  149.5663  135.6597 N   0  0  0  0  0  0  0  0  0  0  0  0
  127.1272  148.2295  135.2247 C   0  0  2  0  0  0  0  0  0  0  0  0
  128.2520  148.1852  134.3951 O   0  0  0  0  0  0  0  0  0  0  0  0
  128.2560  146.8712  133.9595 C   0  0  2  0  0  0  0  0  0  0  0  0
  129.1304  146.7529  132.7540 C   0  0  0  0  0  0  0  0  0  0  0  0
  130.3402  146.1433  133.1385 O   0  0  0  0  0  0  0  0  0  0  0  0
  130.9297  145.1208  131.9551 P   0  0  2  0  0  5  0  0  0  0  0  0
  132.6675  145.9405  131.0900 S   0  0  0  0  0  0  0  0  0  0  0  0
  129.8796  145.0159  130.8654 O   0  0  0  0  0  0  0  0  0  0  0  0
  131.3179  143.5818  132.5659 O   0  0  0  0  0  0  0  0  0  0  0  0
  130.1906  142.8128  132.5272 C   0  0  2  0  0  0  0  0  0  0  0  0
  129.2932  143.0170  133.7565 C   0  0  2  0  0  0  0  0  0  0  0  0
  130.1049  143.0052  134.8830 O   0  0  0  0  0  0  0  0  0  0  0  0
  128.4997  141.7291  133.6997 C   0  0  1  0  0  0  0  0  0  0  0  0
  127.2329  142.0371  132.8909 C   0  0  0  0  0  0  0  0  0  0  0  0
  127.0944  143.3946  132.6570 O   0  0  0  0  0  0  0  0  0  0  0  0
  125.8875  144.0910  133.6263 P   0  0  2  0  0  5  0  0  0  0  0  0
  125.2102  142.6186  134.9884 S   0  0  0  0  0  0  0  0  0  0  0  0
  124.7525  144.4720  132.7025 O   0  0  0  0  0  0  0  0  0  0  0  0
  126.4569  145.3933  134.5133 O   0  0  0  0  0  0  0  0  0  0  0  0
  126.8227  146.4748  133.7072 C   0  0  1  0  0  0  0  0  0  0  0  0
  126.0630  147.6822  134.2646 C   0  0  1  0  0  0  0  0  0  0  0  0
  124.9315  147.2862  134.9559 O   0  0  0  0  0  0  0  0  0  0  0  0
  129.2264  140.8111  132.9966 O   0  0  0  0  0  0  0  0  0  0  0  0
  130.4534  141.3291  132.6836 C   0  0  1  0  0  0  0  0  0  0  0  0
  131.0174  140.7691  131.4741 N   0  0  0  0  0  0  0  0  0  0  0  0
  130.4097  140.6772  130.2726 C   0  0  0  0  0  0  0  0  0  0  0  0
  131.2287  140.1019  129.3737 N   0  0  0  0  0  0  0  0  0  0  0  0
  132.3909  139.8105  129.9888 C   0  0  0  0  0  0  0  0  0  0  0  0
  132.2421  140.2322  131.2944 C   0  0  0  0  0  0  0  0  0  0  0  0
  133.2922  140.0502  132.1434 N   0  0  0  0  0  0  0  0  0  0  0  0
  134.4145  139.4765  131.6845 C   0  0  0  0  0  0  0  0  0  0  0  0
  134.5487  139.0682  130.4060 N   0  0  0  0  0  0  0  0  0  0  0  0
  133.5510  139.2182  129.5171 C   0  0  0  0  0  0  0  0  0  0  0  0
  133.6873  138.7893  128.1676 N   0  0  0  0  0  0  0  0  0  0  0  0
  1  2  1  0
  2  3  2  0
  3  4  1  0
  4  5  2  0
  5  6  1  0
  6  7  2  0
  7  8  1  0
  8  9  2  0
  9 10  1  0
 11 10  1  6
 11 12  1  0
 12 13  1  0
 13 14  1  6
 14 15  1  0
 15 16  1  0
 16 17  1  6
 16 18  2  0
 16 19  1  0
 20 19  1  1
 20 21  1  0
 21 22  1  1
 21 23  1  0
 23 24  1  6
 24 25  1  0
 25 26  1  0
 26 27  1  1
 26 28  2  0
 26 29  1  0
 30 29  1  1
 30 31  1  0
 31 32  1  1
 23 33  1  0
 33 34  1  0
 34 35  1  6
 35 36  1  0
 36 37  2  0
 37 38  1  0
 38 39  2  0
 39 40  1  0
 40 41  2  0
 41 42  1  0
 42 43  2  0
 43 44  1  0
  7  2  1  0
 31 11  1  0
 39 35  1  0
 10  6  1  0
 30 13  1  0
 43 38  1  0
 34 20  1  0
M  END
$$$$
