
     RDKit          3D

 44 50  0  0  0  0  0  0  0  0999 V2000
  124.2259  154.5451  135.0925 N   0  0  0  0  0  0  0  0  0  0  0  0
  125.2816  153.6073  134.9272 C   0  0  0  0  0  0  0  0  0  0  0  0
  126.5692  154.0182  134.9246 N   0  0  0  0  0  0  0  0  0  0  0  0
  127.5840  153.1289  134.7673 C   0  0  0  0  0  0  0  0  0  0  0  0
  127.3530  151.8152  134.6092 N   0  0  0  0  0  0  0  0  0  0  0  0
  126.0786  151.3519  134.6045 C   0  0  0  0  0  0  0  0  0  0  0  0
  125.0585  152.2500  134.7632 C   0  0  0  0  0  0  0  0  0  0  0  0
  123.9253  151.5491  134.7222 N   0  0  0  0  0  0  0  0  0  0  0  0
  124.2315  150.2517  134.5431 C   0  0  0  0  0  0  0  0  0  0  0  0
  125.5454  150.1073  134.4682 N   0  0  0  0  0  0  0  0  0  0  0  0
  126.3687  148.9394  134.2835 C   0  0  2  0  0  0  0  0  0  0  0  0
  125.6258  147.7549  134.2633 O   0  0  0  0  0  0  0  0  0  0  0  0
  126.6088  146.7803  134.2656 C   0  0  2  0  0  0  0  0  0  0  0  0
  126.0068  145.4720  134.6629 C   0  0  0  0  0  0  0  0  0  0  0  0
  125.8691  144.6756  133.5098 O   0  0  0  0  0  0  0  0  0  0  0  0
  126.1607  143.0605  133.8260 P   0  0  2  0  0  5  0  0  0  0  0  0
  124.3669  141.9624  133.6972 S   0  0  0  0  0  0  0  0  0  0  0  0
  126.6660  142.9494  135.2520 O   0  0  0  0  0  0  0  0  0  0  0  0
  127.2769  142.3806  132.7380 O   0  0  0  0  0  0  0  0  0  0  0  0
  128.5329  142.5990  133.2262 C   0  0  2  0  0  0  0  0  0  0  0  0
  129.0830  143.9814  132.8455 C   0  0  2  0  0  0  0  0  0  0  0  0
  128.8137  144.1909  131.4995 O   0  0  0  0  0  0  0  0  0  0  0  0
  130.5627  143.7158  133.0229 C   0  0  1  0  0  0  0  0  0  0  0  0
  130.9058  144.1241  134.4613 C   0  0  0  0  0  0  0  0  0  0  0  0
  129.8547  144.7915  135.0668 O   0  0  0  0  0  0  0  0  0  0  0  0
  130.1430  146.4596  135.1914 P   0  0  2  0  0  5  0  0  0  0  0  0
  131.9376  146.8938  134.1555 S   0  0  0  0  0  0  0  0  0  0  0  0
  130.3333  146.7603  136.6612 O   0  0  0  0  0  0  0  0  0  0  0  0
  128.9160  147.3702  134.5043 O   0  0  0  0  0  0  0  0  0  0  0  0
  127.7049  147.2466  135.1910 C   0  0  1  0  0  0  0  0  0  0  0  0
  127.2592  148.6778  135.5052 C   0  0  1  0  0  0  0  0  0  0  0  0
  128.3374  149.5450  135.5247 O   0  0  0  0  0  0  0  0  0  0  0  0
  130.7706  142.3704  132.9140 O   0  0  0  0  0  0  0  0  0  0  0  0
  129.6017  141.7442  132.5769 C   0  0  1  0  0  0  0  0  0  0  0  0
  129.5316  140.3766  133.0452 N   0  0  0  0  0  0  0  0  0  0  0  0
  129.1939  139.9696  134.2868 C   0  0  0  0  0  0  0  0  0  0  0  0
  129.2336  138.6274  134.3692 N   0  0  0  0  0  0  0  0  0  0  0  0
  129.6017  138.1425  133.1679 C   0  0  0  0  0  0  0  0  0  0  0  0
  129.7830  139.2440  132.3566 C   0  0  0  0  0  0  0  0  0  0  0  0
  130.1642  139.0259  131.0667 N   0  0  0  0  0  0  0  0  0  0  0  0
  130.3460  137.7670  130.6406 C   0  0  0  0  0  0  0  0  0  0  0  0
  130.1659  136.6978  131.4428 N   0  0  0  0  0  0  0  0  0  0  0  0
  129.7902  136.8432  132.7257 C   0  0  0  0  0  0  0  0  0  0  0  0
  129.5988  135.7189  133.5760 N   0  0  0  0  0  0  0  0  0  0  0  0
  1  2  1  0
  2  3  2  0
  3  4  1  0
  4  5  2  0
  5  6  1  0
  6  7  2  0
  7  8  1  0
  8  9  2  0
  9 10  1  0
 11 10  1  1
 11 12  1  0
 12 13  1  0
 13 14  1  1
 14 15  1  0
 15 16  1  0
 16 17  1  1
 16 18  2  0
 16 19  1  0
 20 19  1  6
 20 21  1  0
 21 22  1  6
 21 23  1  0
 23 24  1  1
 24 25  1  0
 25 26  1  0
 26 27  1  6
 26 28  2  0
 26 29  1  0
 30 29  1  6
 30 31  1  0
 31 32  1  6
 23 33  1  0
 33 34  1  0
 34 35  1  1
 35 36  1  0
 36 37  2  0
 37 38  1  0
 38 39  2  0
 39 40  1  0
 40 41  2  0
 41 42  1  0
 42 43  2  0
 43 44  1  0
  7  2  1  0
 31 11  1  0
 39 35  1  0
 10  6  1  0
 30 13  1  0
 43 38  1  0
 34 20  1  0
M  END
$$$$
