
     RDKit          3D

 44 50  0  0  0  0  0  0  0  0999 V2000
  123.7052  155.0603  134.8072 N   0  0  0  0  0  0  0  0  0  0  0  0
  124.7280  154.1564  134.4095 C   0  0  0  0  0  0  0  0  0  0  0  0
  125.8156  154.6026  133.7425 N   0  0  0  0  0  0  0  0  0  0  0  0
  126.7975  153.7458  133.3589 C   0  0  0  0  0  0  0  0  0  0  0  0
  126.7299  152.4307  133.6236 N   0  0  0  0  0  0  0  0  0  0  0  0
  125.6593  151.9327  134.2903 C   0  0  0  0  0  0  0  0  0  0  0  0
  124.6718  152.7980  134.6755 C   0  0  0  0  0  0  0  0  0  0  0  0
  123.7495  152.0676  135.3022 N   0  0  0  0  0  0  0  0  0  0  0  0
  124.1515  150.7841  135.3068 C   0  0  0  0  0  0  0  0  0  0  0  0
  125.3193  150.6779  134.6922 N   0  0  0  0  0  0  0  0  0  0  0  0
  126.1619  149.5381  134.4332 C   0  0  2  0  0  0  0  0  0  0  0  0
  125.5487  148.3276  134.7710 O   0  0  0  0  0  0  0  0  0  0  0  0
  126.5778  147.4140  134.6209 C   0  0  2  0  0  0  0  0  0  0  0  0
  126.2234  146.1491  135.3324 C   0  0  0  0  0  0  0  0  0  0  0  0
  125.8502  145.1875  134.3737 O   0  0  0  0  0  0  0  0  0  0  0  0
  126.3577  143.6522  134.7965 P   0  0  2  0  0  5  0  0  0  0  0  0
  124.7000  142.4588  135.3141 S   0  0  0  0  0  0  0  0  0  0  0  0
  127.2373  143.7751  136.0263 O   0  0  0  0  0  0  0  0  0  0  0  0
  127.1940  142.8779  133.5343 O   0  0  0  0  0  0  0  0  0  0  0  0
  128.5108  143.2275  133.6200 C   0  0  2  0  0  0  0  0  0  0  0  0
  128.8133  144.5655  132.9296 C   0  0  2  0  0  0  0  0  0  0  0  0
  128.1729  144.5633  131.6975 O   0  0  0  0  0  0  0  0  0  0  0  0
  130.3033  144.4029  132.7178 C   0  0  1  0  0  0  0  0  0  0  0  0
  130.9849  145.0327  133.9395 C   0  0  0  0  0  0  0  0  0  0  0  0
  130.0818  145.7277  134.7257 O   0  0  0  0  0  0  0  0  0  0  0  0
  130.2447  147.4085  134.5535 P   0  0  2  0  0  5  0  0  0  0  0  0
  131.6470  147.7765  133.0108 S   0  0  0  0  0  0  0  0  0  0  0  0
  130.7977  147.9290  135.8613 O   0  0  0  0  0  0  0  0  0  0  0  0
  128.8022  148.1470  134.1283 O   0  0  0  0  0  0  0  0  0  0  0  0
  127.8376  148.0642  135.1363 C   0  0  1  0  0  0  0  0  0  0  0  0
  127.3688  149.5018  135.3797 C   0  0  1  0  0  0  0  0  0  0  0  0
  128.3312  150.4154  134.9874 O   0  0  0  0  0  0  0  0  0  0  0  0
  130.5920  143.0680  132.7255 O   0  0  0  0  0  0  0  0  0  0  0  0
  129.4355  142.3418  132.8106 C   0  0  1  0  0  0  0  0  0  0  0  0
  129.6155  141.0551  133.4483 N   0  0  0  0  0  0  0  0  0  0  0  0
  129.8474  140.8343  134.7593 C   0  0  0  0  0  0  0  0  0  0  0  0
  129.9631  139.5160  135.0013 N   0  0  0  0  0  0  0  0  0  0  0  0
  129.8057  138.8586  133.8363 C   0  0  0  0  0  0  0  0  0  0  0  0
  129.5905  139.8311  132.8812 C   0  0  0  0  0  0  0  0  0  0  0  0
  129.3984  139.4253  131.5947 N   0  0  0  0  0  0  0  0  0  0  0  0
  129.4255  138.1147  131.3097 C   0  0  0  0  0  0  0  0  0  0  0  0
  129.6368  137.1729  132.2518 N   0  0  0  0  0  0  0  0  0  0  0  0
  129.8332  137.5058  133.5396 C   0  0  0  0  0  0  0  0  0  0  0  0
  130.0565  136.5163  134.5372 N   0  0  0  0  0  0  0  0  0  0  0  0
  1  2  1  0
  2  3  2  0
  3  4  1  0
  4  5  2  0
  5  6  1  0
  6  7  2  0
  7  8  1  0
  8  9  2  0
  9 10  1  0
 11 10  1  1
 11 12  1  0
 12 13  1  0
 13 14  1  1
 14 15  1  0
 15 16  1  0
 16 17  1  1
 16 18  2  0
 16 19  1  0
 20 19  1  6
 20 21  1  0
 21 22  1  6
 21 23  1  0
 23 24  1  1
 24 25  1  0
 25 26  1  0
 26 27  1  6
 26 28  2  0
 26 29  1  0
 30 29  1  6
 30 31  1  0
 31 32  1  6
 23 33  1  0
 33 34  1  0
 34 35  1  1
 35 36  1  0
 36 37  2  0
 37 38  1  0
 38 39  2  0
 39 40  1  0
 40 41  2  0
 41 42  1  0
 42 43  2  0
 43 44  1  0
  7  2  1  0
 31 11  1  0
 39 35  1  0
 10  6  1  0
 30 13  1  0
 43 38  1  0
 34 20  1  0
M  END
$$$$
