
     RDKit          3D

 44 50  0  0  0  0  0  0  0  0999 V2000
  210.1857  130.6084  137.0343 N   0  0  0  0  0  0  0  0  0  0  0  0
  208.9184  131.1421  136.6730 C   0  0  0  0  0  0  0  0  0  0  0  0
  207.7924  130.7048  137.2793 N   0  0  0  0  0  0  0  0  0  0  0  0
  206.5776  131.2094  136.9400 C   0  0  0  0  0  0  0  0  0  0  0  0
  206.4450  132.1559  135.9962 N   0  0  0  0  0  0  0  0  0  0  0  0
  207.5442  132.6284  135.3580 C   0  0  0  0  0  0  0  0  0  0  0  0
  208.7665  132.1183  135.7018 C   0  0  0  0  0  0  0  0  0  0  0  0
  209.6660  132.7405  134.9398 N   0  0  0  0  0  0  0  0  0  0  0  0
  209.0218  133.6131  134.1444 C   0  0  0  0  0  0  0  0  0  0  0  0
  207.7207  133.5615  134.3835 N   0  0  0  0  0  0  0  0  0  0  0  0
  206.6146  134.2834  133.8076 C   0  0  2  0  0  0  0  0  0  0  0  0
  207.0284  135.3475  133.0002 O   0  0  0  0  0  0  0  0  0  0  0  0
  205.8374  135.9932  132.7156 C   0  0  2  0  0  0  0  0  0  0  0  0
  206.1290  137.3712  132.2180 C   0  0  0  0  0  0  0  0  0  0  0  0
  205.9375  137.3918  130.8230 O   0  0  0  0  0  0  0  0  0  0  0  0
  205.2836  138.8391  130.3021 P   0  0  2  0  0  5  0  0  0  0  0  0
  206.7182  139.9304  129.2108 S   0  0  0  0  0  0  0  0  0  0  0  0
  204.9217  139.6545  131.5290 O   0  0  0  0  0  0  0  0  0  0  0  0
  203.9225  138.6123  129.3082 O   0  0  0  0  0  0  0  0  0  0  0  0
  202.8216  138.5194  130.1101 C   0  0  2  0  0  0  0  0  0  0  0  0
  202.6005  137.0983  130.6483 C   0  0  2  0  0  0  0  0  0  0  0  0
  202.7687  136.2121  129.5926 O   0  0  0  0  0  0  0  0  0  0  0  0
  201.1293  137.1906  130.9927 C   0  0  1  0  0  0  0  0  0  0  0  0
  201.0557  137.6151  132.4651 C   0  0  0  0  0  0  0  0  0  0  0  0
  202.2996  137.5711  133.0715 O   0  0  0  0  0  0  0  0  0  0  0  0
  202.4561  136.2409  134.1143 P   0  0  2  0  0  5  0  0  0  0  0  0
  200.7291  135.0350  133.9023 S   0  0  0  0  0  0  0  0  0  0  0  0
  202.5058  136.7936  135.5211 O   0  0  0  0  0  0  0  0  0  0  0  0
  203.7926  135.2994  133.7479 O   0  0  0  0  0  0  0  0  0  0  0  0
  204.9995  135.9685  133.9696 C   0  0  1  0  0  0  0  0  0  0  0  0
  205.8226  135.0483  134.8760 C   0  0  1  0  0  0  0  0  0  0  0  0
  205.0063  134.1913  135.5931 O   0  0  0  0  0  0  0  0  0  0  0  0
  200.5785  138.1923  130.2454 O   0  0  0  0  0  0  0  0  0  0  0  0
  201.5088  138.6885  129.3734 C   0  0  1  0  0  0  0  0  0  0  0  0
  201.2815  140.0746  129.0245 N   0  0  0  0  0  0  0  0  0  0  0  0
  202.0601  141.1248  129.3591 C   0  0  0  0  0  0  0  0  0  0  0  0
  201.5472  142.2668  128.8666 N   0  0  0  0  0  0  0  0  0  0  0  0
  200.4166  141.9671  128.1989 C   0  0  0  0  0  0  0  0  0  0  0  0
  200.2665  140.5997  128.3072 C   0  0  0  0  0  0  0  0  0  0  0  0
  199.1824  140.0311  127.7087 N   0  0  0  0  0  0  0  0  0  0  0  0
  198.3149  140.8110  127.0466 C   0  0  0  0  0  0  0  0  0  0  0  0
  198.4719  142.1469  126.9472 N   0  0  0  0  0  0  0  0  0  0  0  0
  199.5193  142.7706  127.5145 C   0  0  0  0  0  0  0  0  0  0  0  0
  199.6896  144.1793  127.4127 N   0  0  0  0  0  0  0  0  0  0  0  0
  1  2  1  0
  2  3  2  0
  3  4  1  0
  4  5  2  0
  5  6  1  0
  6  7  2  0
  7  8  1  0
  8  9  2  0
  9 10  1  0
 11 10  1  1
 11 12  1  0
 12 13  1  0
 13 14  1  1
 14 15  1  0
 15 16  1  0
 16 17  1  6
 16 18  2  0
 16 19  1  0
 20 19  1  6
 20 21  1  0
 21 22  1  6
 21 23  1  0
 23 24  1  1
 24 25  1  0
 25 26  1  0
 26 27  1  1
 26 28  2  0
 26 29  1  0
 30 29  1  6
 30 31  1  0
 31 32  1  6
 23 33  1  0
 33 34  1  0
 34 35  1  1
 35 36  1  0
 36 37  2  0
 37 38  1  0
 38 39  2  0
 39 40  1  0
 40 41  2  0
 41 42  1  0
 42 43  2  0
 43 44  1  0
  7  2  1  0
 31 11  1  0
 39 35  1  0
 10  6  1  0
 30 13  1  0
 43 38  1  0
 34 20  1  0
M  END
$$$$
