
     RDKit          3D

 44 50  0  0  0  0  0  0  0  0999 V2000
  126.9330  155.1801  137.0480 N   0  0  0  0  0  0  0  0  0  0  0  0
  127.2362  153.8101  137.2771 C   0  0  0  0  0  0  0  0  0  0  0  0
  127.5726  153.3800  138.5135 N   0  0  0  0  0  0  0  0  0  0  0  0
  127.8638  152.0728  138.7411 C   0  0  0  0  0  0  0  0  0  0  0  0
  127.8299  151.1602  137.7560 N   0  0  0  0  0  0  0  0  0  0  0  0
  127.4981  151.5407  136.4975 C   0  0  0  0  0  0  0  0  0  0  0  0
  127.2054  152.8581  136.2712 C   0  0  0  0  0  0  0  0  0  0  0  0
  126.9165  152.9659  134.9743 N   0  0  0  0  0  0  0  0  0  0  0  0
  127.0263  151.7501  134.4096 C   0  0  0  0  0  0  0  0  0  0  0  0
  127.3818  150.8613  135.3242 N   0  0  0  0  0  0  0  0  0  0  0  0
  127.6275  149.4445  135.2342 C   0  0  2  0  0  0  0  0  0  0  0  0
  128.0428  149.0503  133.9583 O   0  0  0  0  0  0  0  0  0  0  0  0
  128.0370  147.6691  134.0508 C   0  0  2  0  0  0  0  0  0  0  0  0
  128.0490  147.0818  132.6772 C   0  0  0  0  0  0  0  0  0  0  0  0
  129.3438  146.5965  132.4108 O   0  0  0  0  0  0  0  0  0  0  0  0
  129.3116  145.1886  131.5105 P   0  0  2  0  0  5  0  0  0  0  0  0
  130.0302  145.5573  129.5642 S   0  0  0  0  0  0  0  0  0  0  0  0
  127.8656  144.7461  131.3902 O   0  0  0  0  0  0  0  0  0  0  0  0
  130.2613  143.9584  132.2012 O   0  0  0  0  0  0  0  0  0  0  0  0
  129.4900  143.2813  133.1013 C   0  0  2  0  0  0  0  0  0  0  0  0
  129.4577  143.9583  134.4794 C   0  0  2  0  0  0  0  0  0  0  0  0
  130.7582  144.3167  134.8084 O   0  0  0  0  0  0  0  0  0  0  0  0
  129.0367  142.7759  135.3256 C   0  0  1  0  0  0  0  0  0  0  0  0
  127.5060  142.8295  135.4125 C   0  0  0  0  0  0  0  0  0  0  0  0
  127.0072  144.0154  134.9009 O   0  0  0  0  0  0  0  0  0  0  0  0
  126.4870  145.0711  136.1240 P   0  0  2  0  0  5  0  0  0  0  0  0
  127.0186  144.2247  137.9903 S   0  0  0  0  0  0  0  0  0  0  0  0
  124.9798  145.1450  136.0239 O   0  0  0  0  0  0  0  0  0  0  0  0
  127.2113  146.5778  136.0143 O   0  0  0  0  0  0  0  0  0  0  0  0
  126.8298  147.2761  134.8652 C   0  0  1  0  0  0  0  0  0  0  0  0
  126.3282  148.6376  135.3555 C   0  0  1  0  0  0  0  0  0  0  0  0
  125.9094  148.5720  136.6728 O   0  0  0  0  0  0  0  0  0  0  0  0
  129.3734  141.6327  134.6586 O   0  0  0  0  0  0  0  0  0  0  0  0
  130.0655  141.9441  133.5202 C   0  0  1  0  0  0  0  0  0  0  0  0
  129.9118  140.9587  132.4715 N   0  0  0  0  0  0  0  0  0  0  0  0
  128.7638  140.6252  131.8452 C   0  0  0  0  0  0  0  0  0  0  0  0
  128.9903  139.6718  130.9236 N   0  0  0  0  0  0  0  0  0  0  0  0
  130.3032  139.3722  130.9414 C   0  0  0  0  0  0  0  0  0  0  0  0
  130.8611  140.1818  131.9098 C   0  0  0  0  0  0  0  0  0  0  0  0
  132.2013  140.0744  132.1315 N   0  0  0  0  0  0  0  0  0  0  0  0
  132.9170  139.1985  131.4104 C   0  0  0  0  0  0  0  0  0  0  0  0
  132.3608  138.4121  130.4662 N   0  0  0  0  0  0  0  0  0  0  0  0
  131.0444  138.4683  130.1980 C   0  0  0  0  0  0  0  0  0  0  0  0
  130.4528  137.6412  129.2032 N   0  0  0  0  0  0  0  0  0  0  0  0
  1  2  1  0
  2  3  2  0
  3  4  1  0
  4  5  2  0
  5  6  1  0
  6  7  2  0
  7  8  1  0
  8  9  2  0
  9 10  1  0
 11 10  1  6
 11 12  1  0
 12 13  1  0
 13 14  1  6
 14 15  1  0
 15 16  1  0
 16 17  1  6
 16 18  2  0
 16 19  1  0
 20 19  1  6
 20 21  1  0
 21 22  1  1
 21 23  1  0
 23 24  1  6
 24 25  1  0
 25 26  1  0
 26 27  1  1
 26 28  2  0
 26 29  1  0
 30 29  1  1
 30 31  1  0
 31 32  1  1
 23 33  1  0
 33 34  1  0
 34 35  1  6
 35 36  1  0
 36 37  2  0
 37 38  1  0
 38 39  2  0
 39 40  1  0
 40 41  2  0
 41 42  1  0
 42 43  2  0
 43 44  1  0
  7  2  1  0
 31 11  1  0
 39 35  1  0
 10  6  1  0
 30 13  1  0
 43 38  1  0
 34 20  1  0
M  END
$$$$
