
     RDKit          3D

 44 50  0  0  0  0  0  0  0  0999 V2000
  124.6452  154.8906  134.4460 N   0  0  0  0  0  0  0  0  0  0  0  0
  124.5692  153.5032  134.1448 C   0  0  0  0  0  0  0  0  0  0  0  0
  123.5413  153.0154  133.4153 N   0  0  0  0  0  0  0  0  0  0  0  0
  123.4610  151.6912  133.1231 C   0  0  0  0  0  0  0  0  0  0  0  0
  124.3915  150.8181  133.5429 N   0  0  0  0  0  0  0  0  0  0  0  0
  125.4429  151.2570  134.2780 C   0  0  0  0  0  0  0  0  0  0  0  0
  125.5212  152.5914  134.5709 C   0  0  0  0  0  0  0  0  0  0  0  0
  126.6299  152.7579  135.2919 N   0  0  0  0  0  0  0  0  0  0  0  0
  127.2249  151.5611  135.4435 C   0  0  0  0  0  0  0  0  0  0  0  0
  126.5150  150.6268  134.8305 N   0  0  0  0  0  0  0  0  0  0  0  0
  126.7184  149.2066  134.6974 C   0  0  2  0  0  0  0  0  0  0  0  0
  127.9905  148.8883  134.2116 O   0  0  0  0  0  0  0  0  0  0  0  0
  127.8988  147.5246  133.9918 C   0  0  2  0  0  0  0  0  0  0  0  0
  129.0108  147.0930  133.0924 C   0  0  0  0  0  0  0  0  0  0  0  0
  129.9831  146.4344  133.8695 O   0  0  0  0  0  0  0  0  0  0  0  0
  130.6783  145.1547  133.0493 P   0  0  2  0  0  5  0  0  0  0  0  0
  132.6785  145.6067  132.5643 S   0  0  0  0  0  0  0  0  0  0  0  0
  129.9207  144.9692  131.7482 O   0  0  0  0  0  0  0  0  0  0  0  0
  130.6662  143.7196  133.9618 O   0  0  0  0  0  0  0  0  0  0  0  0
  129.4780  143.0853  133.7398 C   0  0  2  0  0  0  0  0  0  0  0  0
  128.3512  143.6076  134.6431 C   0  0  2  0  0  0  0  0  0  0  0  0
  128.8536  143.7120  135.9334 O   0  0  0  0  0  0  0  0  0  0  0  0
  127.4076  142.4262  134.5692 C   0  0  1  0  0  0  0  0  0  0  0  0
  126.4376  142.7192  133.4173 C   0  0  0  0  0  0  0  0  0  0  0  0
  126.5696  144.0182  132.9569 O   0  0  0  0  0  0  0  0  0  0  0  0
  125.2849  145.0081  133.4578 P   0  0  2  0  0  5  0  0  0  0  0  0
  124.0800  143.8922  134.7938 S   0  0  0  0  0  0  0  0  0  0  0  0
  124.4802  145.3369  132.2204 O   0  0  0  0  0  0  0  0  0  0  0  0
  125.8146  146.3795  134.2613 O   0  0  0  0  0  0  0  0  0  0  0  0
  126.5263  147.2491  133.4301 C   0  0  1  0  0  0  0  0  0  0  0  0
  125.8482  148.6140  133.5814 C   0  0  1  0  0  0  0  0  0  0  0  0
  124.5359  148.4776  133.9989 O   0  0  0  0  0  0  0  0  0  0  0  0
  128.1338  141.3211  134.2275 O   0  0  0  0  0  0  0  0  0  0  0  0
  129.4645  141.6352  134.1779 C   0  0  1  0  0  0  0  0  0  0  0  0
  130.2125  140.8055  133.2577 N   0  0  0  0  0  0  0  0  0  0  0  0
  129.9393  140.6080  131.9509 C   0  0  0  0  0  0  0  0  0  0  0  0
  130.8431  139.7768  131.4015 N   0  0  0  0  0  0  0  0  0  0  0  0
  131.7235  139.4212  132.3566 C   0  0  0  0  0  0  0  0  0  0  0  0
  131.3163  140.0700  133.5045 C   0  0  0  0  0  0  0  0  0  0  0  0
  132.0495  139.8764  134.6366 N   0  0  0  0  0  0  0  0  0  0  0  0
  133.1237  139.0741  134.5929 C   0  0  0  0  0  0  0  0  0  0  0  0
  133.5123  138.4450  133.4649 N   0  0  0  0  0  0  0  0  0  0  0  0
  132.8332  138.5931  132.3139 C   0  0  0  0  0  0  0  0  0  0  0  0
  133.2388  137.9318  131.1214 N   0  0  0  0  0  0  0  0  0  0  0  0
  1  2  1  0
  2  3  2  0
  3  4  1  0
  4  5  2  0
  5  6  1  0
  6  7  2  0
  7  8  1  0
  8  9  2  0
  9 10  1  0
 11 10  1  6
 11 12  1  0
 12 13  1  0
 13 14  1  6
 14 15  1  0
 15 16  1  0
 16 17  1  6
 16 18  2  0
 16 19  1  0
 20 19  1  1
 20 21  1  0
 21 22  1  1
 21 23  1  0
 23 24  1  6
 24 25  1  0
 25 26  1  0
 26 27  1  1
 26 28  2  0
 26 29  1  0
 30 29  1  1
 30 31  1  0
 31 32  1  1
 23 33  1  0
 33 34  1  0
 34 35  1  6
 35 36  1  0
 36 37  2  0
 37 38  1  0
 38 39  2  0
 39 40  1  0
 40 41  2  0
 41 42  1  0
 42 43  2  0
 43 44  1  0
  7  2  1  0
 31 11  1  0
 39 35  1  0
 10  6  1  0
 30 13  1  0
 43 38  1  0
 34 20  1  0
M  END
$$$$
