
     RDKit          3D

 44 50  0  0  0  0  0  0  0  0999 V2000
  126.4568  154.5897  135.7714 N   0  0  0  0  0  0  0  0  0  0  0  0
  126.2274  153.1917  135.6519 C   0  0  0  0  0  0  0  0  0  0  0  0
  124.9676  152.7074  135.5817 N   0  0  0  0  0  0  0  0  0  0  0  0
  124.7395  151.3730  135.4675 C   0  0  0  0  0  0  0  0  0  0  0  0
  125.7473  150.4863  135.4198 N   0  0  0  0  0  0  0  0  0  0  0  0
  127.0299  150.9212  135.4866 C   0  0  0  0  0  0  0  0  0  0  0  0
  127.2566  152.2657  135.6016 C   0  0  0  0  0  0  0  0  0  0  0  0
  128.5792  152.4257  135.6470 N   0  0  0  0  0  0  0  0  0  0  0  0
  129.1592  151.2151  135.5625 C   0  0  0  0  0  0  0  0  0  0  0  0
  128.2290  150.2782  135.4635 N   0  0  0  0  0  0  0  0  0  0  0  0
  128.3254  148.8452  135.3492 C   0  0  2  0  0  0  0  0  0  0  0  0
  128.4767  148.4198  134.0257 O   0  0  0  0  0  0  0  0  0  0  0  0
  128.3611  147.0446  134.1340 C   0  0  2  0  0  0  0  0  0  0  0  0
  128.0824  146.4643  132.7859 C   0  0  0  0  0  0  0  0  0  0  0  0
  129.2621  145.8633  132.3063 O   0  0  0  0  0  0  0  0  0  0  0  0
  128.9470  144.4680  131.4417 P   0  0  2  0  0  5  0  0  0  0  0  0
  129.3496  144.7773  129.3965 S   0  0  0  0  0  0  0  0  0  0  0  0
  127.4677  144.1606  131.5773 O   0  0  0  0  0  0  0  0  0  0  0  0
  129.8854  143.1531  131.9730 O   0  0  0  0  0  0  0  0  0  0  0  0
  129.2226  142.5459  133.0004 C   0  0  2  0  0  0  0  0  0  0  0  0
  129.4903  143.2173  134.3553 C   0  0  2  0  0  0  0  0  0  0  0  0
  130.8552  143.4534  134.4513 O   0  0  0  0  0  0  0  0  0  0  0  0
  129.1156  142.0750  135.2753 C   0  0  1  0  0  0  0  0  0  0  0  0
  127.6341  142.2686  135.6237 C   0  0  0  0  0  0  0  0  0  0  0  0
  127.1647  143.4974  135.1917 O   0  0  0  0  0  0  0  0  0  0  0  0
  126.9617  144.5913  136.4736 P   0  0  2  0  0  5  0  0  0  0  0  0
  127.7278  143.6920  138.2304 S   0  0  0  0  0  0  0  0  0  0  0  0
  125.4729  144.8037  136.6336 O   0  0  0  0  0  0  0  0  0  0  0  0
  127.7905  146.0256  136.2230 O   0  0  0  0  0  0  0  0  0  0  0  0
  127.2817  146.7607  135.1487 C   0  0  1  0  0  0  0  0  0  0  0  0
  126.9985  148.1605  135.7019 C   0  0  1  0  0  0  0  0  0  0  0  0
  126.8089  148.1282  137.0723 O   0  0  0  0  0  0  0  0  0  0  0  0
  129.2265  140.9085  134.5739 O   0  0  0  0  0  0  0  0  0  0  0  0
  129.7374  141.1598  133.3297 C   0  0  1  0  0  0  0  0  0  0  0  0
  129.3160  140.1970  132.3348 N   0  0  0  0  0  0  0  0  0  0  0  0
  128.0453  139.9144  131.9787 C   0  0  0  0  0  0  0  0  0  0  0  0
  128.0237  138.9680  131.0229 N   0  0  0  0  0  0  0  0  0  0  0  0
  129.2951  138.6216  130.7445 C   0  0  0  0  0  0  0  0  0  0  0  0
  130.0855  139.3956  131.5694 C   0  0  0  0  0  0  0  0  0  0  0  0
  131.4363  139.2371  131.4850 N   0  0  0  0  0  0  0  0  0  0  0  0
  131.9390  138.3476  130.6158 C   0  0  0  0  0  0  0  0  0  0  0  0
  131.1564  137.5964  129.8142 N   0  0  0  0  0  0  0  0  0  0  0  0
  129.8165  137.7036  129.8475 C   0  0  0  0  0  0  0  0  0  0  0  0
  128.9866  136.9137  129.0043 N   0  0  0  0  0  0  0  0  0  0  0  0
  1  2  1  0
  2  3  2  0
  3  4  1  0
  4  5  2  0
  5  6  1  0
  6  7  2  0
  7  8  1  0
  8  9  2  0
  9 10  1  0
 11 10  1  6
 11 12  1  0
 12 13  1  0
 13 14  1  6
 14 15  1  0
 15 16  1  0
 16 17  1  6
 16 18  2  0
 16 19  1  0
 20 19  1  6
 20 21  1  0
 21 22  1  6
 21 23  1  0
 23 24  1  6
 24 25  1  0
 25 26  1  0
 26 27  1  1
 26 28  2  0
 26 29  1  0
 30 29  1  1
 30 31  1  0
 31 32  1  1
 23 33  1  0
 33 34  1  0
 34 35  1  6
 35 36  1  0
 36 37  2  0
 37 38  1  0
 38 39  2  0
 39 40  1  0
 40 41  2  0
 41 42  1  0
 42 43  2  0
 43 44  1  0
  7  2  1  0
 31 11  1  0
 39 35  1  0
 10  6  1  0
 30 13  1  0
 43 38  1  0
 34 20  1  0
M  END
$$$$
