
     RDKit          3D

 44 50  0  0  0  0  0  0  0  0999 V2000
  207.1599  127.3509  130.1769 N   0  0  0  0  0  0  0  0  0  0  0  0
  206.8606  128.5262  130.9190 C   0  0  0  0  0  0  0  0  0  0  0  0
  207.3735  128.7046  132.1566 N   0  0  0  0  0  0  0  0  0  0  0  0
  207.0925  129.8244  132.8724 C   0  0  0  0  0  0  0  0  0  0  0  0
  206.3001  130.7933  132.3850 N   0  0  0  0  0  0  0  0  0  0  0  0
  205.7604  130.6624  131.1480 C   0  0  0  0  0  0  0  0  0  0  0  0
  206.0452  129.5334  130.4293 C   0  0  0  0  0  0  0  0  0  0  0  0
  205.4022  129.6501  129.2674 N   0  0  0  0  0  0  0  0  0  0  0  0
  204.7362  130.8187  129.2632 C   0  0  0  0  0  0  0  0  0  0  0  0
  204.9412  131.4557  130.4055 N   0  0  0  0  0  0  0  0  0  0  0  0
  204.4611  132.7246  130.8907 C   0  0  2  0  0  0  0  0  0  0  0  0
  204.7154  133.7725  130.0004 O   0  0  0  0  0  0  0  0  0  0  0  0
  204.3501  134.8886  130.7333 C   0  0  2  0  0  0  0  0  0  0  0  0
  204.9395  136.1082  130.1032 C   0  0  0  0  0  0  0  0  0  0  0  0
  203.9180  136.7949  129.4191 O   0  0  0  0  0  0  0  0  0  0  0  0
  204.0995  138.4531  129.5241 P   0  0  2  0  0  5  0  0  0  0  0  0
  204.6435  139.2422  127.6475 S   0  0  0  0  0  0  0  0  0  0  0  0
  205.2355  138.7367  130.4886 O   0  0  0  0  0  0  0  0  0  0  0  0
  202.6731  139.2281  130.0309 O   0  0  0  0  0  0  0  0  0  0  0  0
  202.6604  139.2442  131.3959 C   0  0  2  0  0  0  0  0  0  0  0  0
  202.1059  137.9444  131.9972 C   0  0  2  0  0  0  0  0  0  0  0  0
  200.9567  137.6066  131.2948 O   0  0  0  0  0  0  0  0  0  0  0  0
  201.7204  138.4522  133.3701 C   0  0  1  0  0  0  0  0  0  0  0  0
  202.9294  138.1992  134.2799 C   0  0  0  0  0  0  0  0  0  0  0  0
  203.8836  137.4151  133.6542 O   0  0  0  0  0  0  0  0  0  0  0  0
  203.8961  135.8257  134.2498 P   0  0  2  0  0  5  0  0  0  0  0  0
  202.2689  135.6141  135.5874 S   0  0  0  0  0  0  0  0  0  0  0  0
  205.1909  135.6565  135.0128 O   0  0  0  0  0  0  0  0  0  0  0  0
  203.7162  134.6888  133.0324 O   0  0  0  0  0  0  0  0  0  0  0  0
  204.8033  134.6639  132.1543 C   0  0  1  0  0  0  0  0  0  0  0  0
  205.2640  133.2041  132.1070 C   0  0  1  0  0  0  0  0  0  0  0  0
  204.8837  132.5219  133.2494 O   0  0  0  0  0  0  0  0  0  0  0  0
  201.5388  139.8034  133.2896 O   0  0  0  0  0  0  0  0  0  0  0  0
  201.6584  140.2129  131.9896 C   0  0  1  0  0  0  0  0  0  0  0  0
  202.1161  141.5799  131.8619 N   0  0  0  0  0  0  0  0  0  0  0  0
  203.1493  142.1455  132.5206 C   0  0  0  0  0  0  0  0  0  0  0  0
  203.2913  143.4329  132.1568 N   0  0  0  0  0  0  0  0  0  0  0  0
  202.3408  143.7207  131.2472 C   0  0  0  0  0  0  0  0  0  0  0  0
  201.6189  142.5572  131.0757 C   0  0  0  0  0  0  0  0  0  0  0  0
  200.5813  142.5787  130.1927 N   0  0  0  0  0  0  0  0  0  0  0  0
  200.3049  143.7137  129.5334 C   0  0  0  0  0  0  0  0  0  0  0  0
  201.0176  144.8453  129.7092 N   0  0  0  0  0  0  0  0  0  0  0  0
  202.0535  144.8918  130.5651 C   0  0  0  0  0  0  0  0  0  0  0  0
  202.8083  146.0827  130.7542 N   0  0  0  0  0  0  0  0  0  0  0  0
  1  2  1  0
  2  3  2  0
  3  4  1  0
  4  5  2  0
  5  6  1  0
  6  7  2  0
  7  8  1  0
  8  9  2  0
  9 10  1  0
 11 10  1  6
 11 12  1  0
 12 13  1  0
 13 14  1  6
 14 15  1  0
 15 16  1  0
 16 17  1  6
 16 18  2  0
 16 19  1  0
 20 19  1  6
 20 21  1  0
 21 22  1  6
 21 23  1  0
 23 24  1  1
 24 25  1  0
 25 26  1  0
 26 27  1  1
 26 28  2  0
 26 29  1  0
 30 29  1  1
 30 31  1  0
 31 32  1  1
 23 33  1  0
 33 34  1  0
 34 35  1  1
 35 36  1  0
 36 37  2  0
 37 38  1  0
 38 39  2  0
 39 40  1  0
 40 41  2  0
 41 42  1  0
 42 43  2  0
 43 44  1  0
  7  2  1  0
 31 11  1  0
 39 35  1  0
 10  6  1  0
 30 13  1  0
 43 38  1  0
 34 20  1  0
M  END
$$$$
