
     RDKit          3D

 44 50  0  0  0  0  0  0  0  0999 V2000
  131.1606  140.8956  124.9646 N   0  0  0  0  0  0  0  0  0  0  0  0
  131.3578  141.3591  126.2942 C   0  0  0  0  0  0  0  0  0  0  0  0
  132.6014  141.6320  126.7476 N   0  0  0  0  0  0  0  0  0  0  0  0
  132.7987  142.0752  128.0164 C   0  0  0  0  0  0  0  0  0  0  0  0
  131.7754  142.2594  128.8668 N   0  0  0  0  0  0  0  0  0  0  0  0
  130.5079  141.9999  128.4606 C   0  0  0  0  0  0  0  0  0  0  0  0
  130.3123  141.5536  127.1820 C   0  0  0  0  0  0  0  0  0  0  0  0
  128.9989  141.3772  127.0377 N   0  0  0  0  0  0  0  0  0  0  0  0
  128.3943  141.7044  128.1938 C   0  0  0  0  0  0  0  0  0  0  0  0
  129.2996  142.0889  129.0800 N   0  0  0  0  0  0  0  0  0  0  0  0
  129.1715  142.5324  130.4449 C   0  0  2  0  0  0  0  0  0  0  0  0
  127.8474  142.5155  130.8944 O   0  0  0  0  0  0  0  0  0  0  0  0
  127.9375  143.1399  132.1266 C   0  0  2  0  0  0  0  0  0  0  0  0
  126.5765  143.5789  132.5588 C   0  0  0  0  0  0  0  0  0  0  0  0
  126.1192  142.6970  133.5569 O   0  0  0  0  0  0  0  0  0  0  0  0
  125.2315  143.4877  134.7319 P   0  0  2  0  0  5  0  0  0  0  0  0
  123.2005  142.9435  134.5932 S   0  0  0  0  0  0  0  0  0  0  0  0
  125.3272  144.9776  134.4636 O   0  0  0  0  0  0  0  0  0  0  0  0
  125.7709  143.1239  136.3031 O   0  0  0  0  0  0  0  0  0  0  0  0
  126.7748  143.9932  136.6194 C   0  0  2  0  0  0  0  0  0  0  0  0
  128.1434  143.5306  136.0986 C   0  0  2  0  0  0  0  0  0  0  0  0
  128.2756  142.1795  136.3905 O   0  0  0  0  0  0  0  0  0  0  0  0
  129.0410  144.3300  137.0188 C   0  0  1  0  0  0  0  0  0  0  0  0
  129.3550  145.6403  136.2854 C   0  0  0  0  0  0  0  0  0  0  0  0
  128.9254  145.6042  134.9697 O   0  0  0  0  0  0  0  0  0  0  0  0
  130.2141  145.4180  133.8809 P   0  0  2  0  0  5  0  0  0  0  0  0
  131.9790  145.0916  135.0037 S   0  0  0  0  0  0  0  0  0  0  0  0
  130.3398  146.7230  133.1271 O   0  0  0  0  0  0  0  0  0  0  0  0
  130.0002  144.1064  132.8606 O   0  0  0  0  0  0  0  0  0  0  0  0
  128.9220  144.2741  131.9872 C   0  0  1  0  0  0  0  0  0  0  0  0
  129.4838  144.0281  130.5839 C   0  0  1  0  0  0  0  0  0  0  0  0
  130.8487  144.2530  130.5445 O   0  0  0  0  0  0  0  0  0  0  0  0
  128.3293  144.6445  138.1413 O   0  0  0  0  0  0  0  0  0  0  0  0
  127.1011  144.0432  138.0979 C   0  0  1  0  0  0  0  0  0  0  0  0
  126.0853  144.7672  138.8318 N   0  0  0  0  0  0  0  0  0  0  0  0
  126.2813  145.8366  139.6313 C   0  0  0  0  0  0  0  0  0  0  0  0
  125.1138  146.2547  140.1528 N   0  0  0  0  0  0  0  0  0  0  0  0
  124.1354  145.4520  139.6922 C   0  0  0  0  0  0  0  0  0  0  0  0
  124.7573  144.5326  138.8723 C   0  0  0  0  0  0  0  0  0  0  0  0
  123.9783  143.5907  138.2699 N   0  0  0  0  0  0  0  0  0  0  0  0
  122.6557  143.5930  138.4937 C   0  0  0  0  0  0  0  0  0  0  0  0
  122.0587  144.4967  139.2974 N   0  0  0  0  0  0  0  0  0  0  0  0
  122.7693  145.4523  139.9219 C   0  0  0  0  0  0  0  0  0  0  0  0
  122.1445  146.4079  140.7706 N   0  0  0  0  0  0  0  0  0  0  0  0
  1  2  1  0
  2  3  2  0
  3  4  1  0
  4  5  2  0
  5  6  1  0
  6  7  2  0
  7  8  1  0
  8  9  2  0
  9 10  1  0
 11 10  1  6
 11 12  1  0
 12 13  1  0
 13 14  1  6
 14 15  1  0
 15 16  1  0
 16 17  1  1
 16 18  2  0
 16 19  1  0
 20 19  1  1
 20 21  1  0
 21 22  1  1
 21 23  1  0
 23 24  1  6
 24 25  1  0
 25 26  1  0
 26 27  1  1
 26 28  2  0
 26 29  1  0
 30 29  1  1
 30 31  1  0
 31 32  1  1
 23 33  1  0
 33 34  1  0
 34 35  1  1
 35 36  1  0
 36 37  2  0
 37 38  1  0
 38 39  2  0
 39 40  1  0
 40 41  2  0
 41 42  1  0
 42 43  2  0
 43 44  1  0
  7  2  1  0
 31 11  1  0
 39 35  1  0
 10  6  1  0
 30 13  1  0
 43 38  1  0
 34 20  1  0
M  END
$$$$
