
     RDKit          3D

 44 50  0  0  0  0  0  0  0  0999 V2000
  204.5176  130.3826  133.8556 N   0  0  0  0  0  0  0  0  0  0  0  0
  204.6951  131.7924  133.8087 C   0  0  0  0  0  0  0  0  0  0  0  0
  205.8022  132.3617  134.3347 N   0  0  0  0  0  0  0  0  0  0  0  0
  205.9797  133.7079  134.2941 C   0  0  0  0  0  0  0  0  0  0  0  0
  205.0706  134.5231  133.7345 N   0  0  0  0  0  0  0  0  0  0  0  0
  203.9424  134.0015  133.1926 C   0  0  0  0  0  0  0  0  0  0  0  0
  203.7663  132.6452  133.2349 C   0  0  0  0  0  0  0  0  0  0  0  0
  202.5975  132.3951  132.6447 N   0  0  0  0  0  0  0  0  0  0  0  0
  202.0614  133.5625  132.2463 C   0  0  0  0  0  0  0  0  0  0  0  0
  202.8683  134.5605  132.5716 N   0  0  0  0  0  0  0  0  0  0  0  0
  202.7565  135.9830  132.3712 C   0  0  2  0  0  0  0  0  0  0  0  0
  202.5257  136.3217  131.0342 O   0  0  0  0  0  0  0  0  0  0  0  0
  202.6389  137.7013  131.0469 C   0  0  2  0  0  0  0  0  0  0  0  0
  202.8349  138.1940  129.6503 C   0  0  0  0  0  0  0  0  0  0  0  0
  201.6256  138.7599  129.2029 O   0  0  0  0  0  0  0  0  0  0  0  0
  201.8812  140.0972  128.2333 P   0  0  2  0  0  5  0  0  0  0  0  0
  201.3620  139.6555  126.2394 S   0  0  0  0  0  0  0  0  0  0  0  0
  203.3639  140.4163  128.2621 O   0  0  0  0  0  0  0  0  0  0  0  0
  200.9672  141.4414  128.7330 O   0  0  0  0  0  0  0  0  0  0  0  0
  201.6850  142.1152  129.6787 C   0  0  2  0  0  0  0  0  0  0  0  0
  201.5009  141.5321  131.0873 C   0  0  2  0  0  0  0  0  0  0  0  0
  200.1453  141.2994  131.2781 O   0  0  0  0  0  0  0  0  0  0  0  0
  201.9214  142.7323  131.9084 C   0  0  1  0  0  0  0  0  0  0  0  0
  203.4218  142.5652  132.1813 C   0  0  0  0  0  0  0  0  0  0  0  0
  203.8728  141.3122  131.8024 O   0  0  0  0  0  0  0  0  0  0  0  0
  204.1570  140.3038  133.1379 P   0  0  2  0  0  5  0  0  0  0  0  0
  203.4890  141.3129  134.8750 S   0  0  0  0  0  0  0  0  0  0  0  0
  205.6539  140.1059  133.2238 O   0  0  0  0  0  0  0  0  0  0  0  0
  203.3239  138.8544  133.0291 O   0  0  0  0  0  0  0  0  0  0  0  0
  203.7738  138.0527  131.9763 C   0  0  1  0  0  0  0  0  0  0  0  0
  204.0974  136.6923  132.6008 C   0  0  1  0  0  0  0  0  0  0  0  0
  204.3664  136.8134  133.9529 O   0  0  0  0  0  0  0  0  0  0  0  0
  201.7626  143.8508  131.1411 O   0  0  0  0  0  0  0  0  0  0  0  0
  201.1816  143.5185  129.9478 C   0  0  1  0  0  0  0  0  0  0  0  0
  201.5384  144.4161  128.8700 N   0  0  0  0  0  0  0  0  0  0  0  0
  202.6299  145.2078  128.8126 C   0  0  0  0  0  0  0  0  0  0  0  0
  202.6427  145.9092  127.6647 N   0  0  0  0  0  0  0  0  0  0  0  0
  201.5469  145.5767  126.9558 C   0  0  0  0  0  0  0  0  0  0  0  0
  200.8716  144.6472  127.7201 C   0  0  0  0  0  0  0  0  0  0  0  0
  199.7086  144.1409  127.2222 N   0  0  0  0  0  0  0  0  0  0  0  0
  199.2708  144.5592  126.0252 C   0  0  0  0  0  0  0  0  0  0  0  0
  199.9395  145.4685  125.2868 N   0  0  0  0  0  0  0  0  0  0  0  0
  201.0928  146.0073  125.7199 C   0  0  0  0  0  0  0  0  0  0  0  0
  201.8020  146.9667  124.9450 N   0  0  0  0  0  0  0  0  0  0  0  0
  1  2  1  0
  2  3  2  0
  3  4  1  0
  4  5  2  0
  5  6  1  0
  6  7  2  0
  7  8  1  0
  8  9  2  0
  9 10  1  0
 11 10  1  6
 11 12  1  0
 12 13  1  0
 13 14  1  6
 14 15  1  0
 15 16  1  0
 16 17  1  6
 16 18  2  0
 16 19  1  0
 20 19  1  6
 20 21  1  0
 21 22  1  1
 21 23  1  0
 23 24  1  6
 24 25  1  0
 25 26  1  0
 26 27  1  1
 26 28  2  0
 26 29  1  0
 30 29  1  1
 30 31  1  0
 31 32  1  1
 23 33  1  0
 33 34  1  0
 34 35  1  6
 35 36  1  0
 36 37  2  0
 37 38  1  0
 38 39  2  0
 39 40  1  0
 40 41  2  0
 41 42  1  0
 42 43  2  0
 43 44  1  0
  7  2  1  0
 31 11  1  0
 39 35  1  0
 10  6  1  0
 30 13  1  0
 43 38  1  0
 34 20  1  0
M  END
$$$$
