
     RDKit          3D

 44 50  0  0  0  0  0  0  0  0999 V2000
  127.4604  155.3781  135.3539 N   0  0  0  0  0  0  0  0  0  0  0  0
  127.5254  154.0384  135.8253 C   0  0  0  0  0  0  0  0  0  0  0  0
  127.3531  153.7645  137.1376 N   0  0  0  0  0  0  0  0  0  0  0  0
  127.4137  152.4873  137.5964 C   0  0  0  0  0  0  0  0  0  0  0  0
  127.6452  151.4517  136.7729 N   0  0  0  0  0  0  0  0  0  0  0  0
  127.8249  151.6733  135.4473 C   0  0  0  0  0  0  0  0  0  0  0  0
  127.7634  152.9607  134.9880 C   0  0  0  0  0  0  0  0  0  0  0  0
  127.9699  152.9052  133.6722 N   0  0  0  0  0  0  0  0  0  0  0  0
  128.1547  151.6196  133.3226 C   0  0  0  0  0  0  0  0  0  0  0  0
  128.0701  150.8469  134.3943 N   0  0  0  0  0  0  0  0  0  0  0  0
  128.1914  149.4202  134.5549 C   0  0  2  0  0  0  0  0  0  0  0  0
  128.2778  148.7464  133.3326 O   0  0  0  0  0  0  0  0  0  0  0  0
  128.1988  147.4176  133.7126 C   0  0  2  0  0  0  0  0  0  0  0  0
  127.8579  146.5825  132.5217 C   0  0  0  0  0  0  0  0  0  0  0  0
  129.0218  145.9121  132.0989 O   0  0  0  0  0  0  0  0  0  0  0  0
  128.6896  144.3717  131.5419 P   0  0  2  0  0  5  0  0  0  0  0  0
  128.9702  144.2802  129.4555 S   0  0  0  0  0  0  0  0  0  0  0  0
  127.2274  144.0809  131.8220 O   0  0  0  0  0  0  0  0  0  0  0  0
  129.6850  143.1958  132.2619 O   0  0  0  0  0  0  0  0  0  0  0  0
  129.0942  142.7937  133.4251 C   0  0  2  0  0  0  0  0  0  0  0  0
  129.4225  143.7194  134.6056 C   0  0  2  0  0  0  0  0  0  0  0  0
  130.7852  143.9842  134.5730 O   0  0  0  0  0  0  0  0  0  0  0  0
  129.1252  142.7746  135.7504 C   0  0  1  0  0  0  0  0  0  0  0  0
  127.6616  143.0166  136.1417 C   0  0  0  0  0  0  0  0  0  0  0  0
  127.1419  144.1324  135.5078 O   0  0  0  0  0  0  0  0  0  0  0  0
  126.9868  145.4532  136.5626 P   0  0  2  0  0  5  0  0  0  0  0  0
  127.8697  144.9221  138.4121 S   0  0  0  0  0  0  0  0  0  0  0  0
  125.5050  145.6767  136.7661 O   0  0  0  0  0  0  0  0  0  0  0  0
  127.7686  146.8198  135.9897 O   0  0  0  0  0  0  0  0  0  0  0  0
  127.1844  147.3256  134.8251 C   0  0  1  0  0  0  0  0  0  0  0  0
  126.9018  148.8033  135.1118 C   0  0  1  0  0  0  0  0  0  0  0  0
  126.7899  149.0370  136.4712 O   0  0  0  0  0  0  0  0  0  0  0  0
  129.2223  141.4949  135.2835 O   0  0  0  0  0  0  0  0  0  0  0  0
  129.6571  141.5041  133.9862 C   0  0  1  0  0  0  0  0  0  0  0  0
  129.2019  140.3612  133.2239 N   0  0  0  0  0  0  0  0  0  0  0  0
  127.9423  139.8792  133.1745 C   0  0  0  0  0  0  0  0  0  0  0  0
  127.8804  138.8060  132.3656 N   0  0  0  0  0  0  0  0  0  0  0  0
  129.1136  138.5767  131.8752 C   0  0  0  0  0  0  0  0  0  0  0  0
  129.9229  139.5531  132.4192 C   0  0  0  0  0  0  0  0  0  0  0  0
  131.2421  139.5464  132.0780 N   0  0  0  0  0  0  0  0  0  0  0  0
  131.6973  138.6046  131.2383 C   0  0  0  0  0  0  0  0  0  0  0  0
  130.8968  137.6549  130.7125 N   0  0  0  0  0  0  0  0  0  0  0  0
  129.5860  137.6050  131.0081 C   0  0  0  0  0  0  0  0  0  0  0  0
  128.7373  136.6054  130.4563 N   0  0  0  0  0  0  0  0  0  0  0  0
  1  2  1  0
  2  3  2  0
  3  4  1  0
  4  5  2  0
  5  6  1  0
  6  7  2  0
  7  8  1  0
  8  9  2  0
  9 10  1  0
 11 10  1  6
 11 12  1  0
 12 13  1  0
 13 14  1  6
 14 15  1  0
 15 16  1  0
 16 17  1  6
 16 18  2  0
 16 19  1  0
 20 19  1  6
 20 21  1  0
 21 22  1  6
 21 23  1  0
 23 24  1  6
 24 25  1  0
 25 26  1  0
 26 27  1  1
 26 28  2  0
 26 29  1  0
 30 29  1  1
 30 31  1  0
 31 32  1  1
 23 33  1  0
 33 34  1  0
 34 35  1  6
 35 36  1  0
 36 37  2  0
 37 38  1  0
 38 39  2  0
 39 40  1  0
 40 41  2  0
 41 42  1  0
 42 43  2  0
 43 44  1  0
  7  2  1  0
 31 11  1  0
 39 35  1  0
 10  6  1  0
 30 13  1  0
 43 38  1  0
 34 20  1  0
M  END
$$$$
