
     RDKit          3D

 44 50  0  0  0  0  0  0  0  0999 V2000
  205.5891  128.1023  133.4382 N   0  0  0  0  0  0  0  0  0  0  0  0
  204.9400  129.3410  133.6947 C   0  0  0  0  0  0  0  0  0  0  0  0
  204.4995  129.6396  134.9371 N   0  0  0  0  0  0  0  0  0  0  0  0
  203.8784  130.8208  135.1908 C   0  0  0  0  0  0  0  0  0  0  0  0
  203.6775  131.7340  134.2265 N   0  0  0  0  0  0  0  0  0  0  0  0
  204.1008  131.4826  132.9630 C   0  0  0  0  0  0  0  0  0  0  0  0
  204.7260  130.2920  132.7104 C   0  0  0  0  0  0  0  0  0  0  0  0
  205.0372  130.2936  131.4142 N   0  0  0  0  0  0  0  0  0  0  0  0
  204.6175  131.4523  130.8754 C   0  0  0  0  0  0  0  0  0  0  0  0
  204.0407  132.1965  131.8061 N   0  0  0  0  0  0  0  0  0  0  0  0
  203.4360  133.5029  131.7451 C   0  0  2  0  0  0  0  0  0  0  0  0
  204.2449  134.4406  131.0956 O   0  0  0  0  0  0  0  0  0  0  0  0
  203.5685  135.6283  131.3150 C   0  0  2  0  0  0  0  0  0  0  0  0
  204.4889  136.7763  131.0565 C   0  0  0  0  0  0  0  0  0  0  0  0
  204.1498  137.3496  129.8159 O   0  0  0  0  0  0  0  0  0  0  0  0
  204.3207  139.0122  129.8269 P   0  0  2  0  0  5  0  0  0  0  0  0
  205.9518  139.5803  128.6198 S   0  0  0  0  0  0  0  0  0  0  0  0
  204.6312  139.4386  131.2492 O   0  0  0  0  0  0  0  0  0  0  0  0
  202.9328  139.8081  129.2502 O   0  0  0  0  0  0  0  0  0  0  0  0
  202.0800  139.9896  130.3006 C   0  0  2  0  0  0  0  0  0  0  0  0
  201.2002  138.7595  130.5672 C   0  0  2  0  0  0  0  0  0  0  0  0
  200.7143  138.3108  129.3463 O   0  0  0  0  0  0  0  0  0  0  0  0
  200.0779  139.4209  131.3383 C   0  0  1  0  0  0  0  0  0  0  0  0
  200.4493  139.3100  132.8226 C   0  0  0  0  0  0  0  0  0  0  0  0
  201.5399  138.4791  133.0151 O   0  0  0  0  0  0  0  0  0  0  0  0
  201.0918  136.9747  133.6609 P   0  0  2  0  0  5  0  0  0  0  0  0
  198.9772  136.8877  133.7139 S   0  0  0  0  0  0  0  0  0  0  0  0
  201.6258  136.9312  135.0752 O   0  0  0  0  0  0  0  0  0  0  0  0
  201.6390  135.6942  132.7294 O   0  0  0  0  0  0  0  0  0  0  0  0
  203.0328  135.5892  132.7244 C   0  0  1  0  0  0  0  0  0  0  0  0
  203.3407  134.1461  133.1347 C   0  0  1  0  0  0  0  0  0  0  0  0
  202.2979  133.5989  133.8613 O   0  0  0  0  0  0  0  0  0  0  0  0
  200.0617  140.7475  131.0139 O   0  0  0  0  0  0  0  0  0  0  0  0
  200.9822  140.9986  130.0333 C   0  0  1  0  0  0  0  0  0  0  0  0
  201.4971  142.3507  130.0670 N   0  0  0  0  0  0  0  0  0  0  0  0
  202.1613  142.9317  131.0882 C   0  0  0  0  0  0  0  0  0  0  0  0
  202.4917  144.1976  130.7752 N   0  0  0  0  0  0  0  0  0  0  0  0
  202.0405  144.4556  129.5327 C   0  0  0  0  0  0  0  0  0  0  0  0
  201.4246  143.2963  129.1074 C   0  0  0  0  0  0  0  0  0  0  0  0
  200.8742  143.2909  127.8609 N   0  0  0  0  0  0  0  0  0  0  0  0
  200.9509  144.3969  127.1056 C   0  0  0  0  0  0  0  0  0  0  0  0
  201.5555  145.5246  127.5319 N   0  0  0  0  0  0  0  0  0  0  0  0
  202.1184  145.5966  128.7509 C   0  0  0  0  0  0  0  0  0  0  0  0
  202.7574  146.7836  129.2054 N   0  0  0  0  0  0  0  0  0  0  0  0
  1  2  1  0
  2  3  2  0
  3  4  1  0
  4  5  2  0
  5  6  1  0
  6  7  2  0
  7  8  1  0
  8  9  2  0
  9 10  1  0
 11 10  1  1
 11 12  1  0
 12 13  1  0
 13 14  1  1
 14 15  1  0
 15 16  1  0
 16 17  1  6
 16 18  2  0
 16 19  1  0
 20 19  1  6
 20 21  1  0
 21 22  1  6
 21 23  1  0
 23 24  1  1
 24 25  1  0
 25 26  1  0
 26 27  1  1
 26 28  2  0
 26 29  1  0
 30 29  1  6
 30 31  1  0
 31 32  1  1
 23 33  1  0
 33 34  1  0
 34 35  1  1
 35 36  1  0
 36 37  2  0
 37 38  1  0
 38 39  2  0
 39 40  1  0
 40 41  2  0
 41 42  1  0
 42 43  2  0
 43 44  1  0
  7  2  1  0
 31 11  1  0
 39 35  1  0
 10  6  1  0
 30 13  1  0
 43 38  1  0
 34 20  1  0
M  END
$$$$
