
     RDKit          3D

 44 50  0  0  0  0  0  0  0  0999 V2000
  204.1927  130.7694  135.2368 N   0  0  0  0  0  0  0  0  0  0  0  0
  204.3743  132.1591  134.9981 C   0  0  0  0  0  0  0  0  0  0  0  0
  205.4465  132.8072  135.5052 N   0  0  0  0  0  0  0  0  0  0  0  0
  205.6277  134.1349  135.2820 C   0  0  0  0  0  0  0  0  0  0  0  0
  204.7569  134.8536  134.5544 N   0  0  0  0  0  0  0  0  0  0  0  0
  203.6647  134.2502  134.0235 C   0  0  0  0  0  0  0  0  0  0  0  0
  203.4848  132.9128  134.2499 C   0  0  0  0  0  0  0  0  0  0  0  0
  202.3557  132.5708  133.6295 N   0  0  0  0  0  0  0  0  0  0  0  0
  201.8472  133.6643  133.0338 C   0  0  0  0  0  0  0  0  0  0  0  0
  202.6328  134.7052  133.2619 N   0  0  0  0  0  0  0  0  0  0  0  0
  202.5356  136.0830  132.8516 C   0  0  2  0  0  0  0  0  0  0  0  0
  202.3835  136.2233  131.4686 O   0  0  0  0  0  0  0  0  0  0  0  0
  202.4983  137.5910  131.2881 C   0  0  2  0  0  0  0  0  0  0  0  0
  202.7760  137.8778  129.8485 C   0  0  0  0  0  0  0  0  0  0  0  0
  201.5958  138.3652  129.2549 O   0  0  0  0  0  0  0  0  0  0  0  0
  201.9097  139.5499  128.1184 P   0  0  2  0  0  5  0  0  0  0  0  0
  201.5063  138.8213  126.1828 S   0  0  0  0  0  0  0  0  0  0  0  0
  203.3889  139.8795  128.1863 O   0  0  0  0  0  0  0  0  0  0  0  0
  200.9708  140.9463  128.3647 O   0  0  0  0  0  0  0  0  0  0  0  0
  201.6337  141.7544  129.2428 C   0  0  2  0  0  0  0  0  0  0  0  0
  201.3670  141.3799  130.7080 C   0  0  2  0  0  0  0  0  0  0  0  0
  200.0022  141.1683  130.8518 O   0  0  0  0  0  0  0  0  0  0  0  0
  201.7415  142.6889  131.3697 C   0  0  1  0  0  0  0  0  0  0  0  0
  203.2232  142.5728  131.7500 C   0  0  0  0  0  0  0  0  0  0  0  0
  203.6931  141.2812  131.5831 O   0  0  0  0  0  0  0  0  0  0  0  0
  203.8973  140.4784  133.0646 P   0  0  2  0  0  5  0  0  0  0  0  0
  203.1315  141.7236  134.5959 S   0  0  0  0  0  0  0  0  0  0  0  0
  205.3863  140.3047  133.2644 O   0  0  0  0  0  0  0  0  0  0  0  0
  203.0692  139.0230  133.1187 O   0  0  0  0  0  0  0  0  0  0  0  0
  203.5780  138.0805  132.2207 C   0  0  1  0  0  0  0  0  0  0  0  0
  203.8623  136.8268  133.0533 C   0  0  1  0  0  0  0  0  0  0  0  0
  204.0525  137.1439  134.3868 O   0  0  0  0  0  0  0  0  0  0  0  0
  201.6295  143.6837  130.4407 O   0  0  0  0  0  0  0  0  0  0  0  0
  201.1182  143.1785  129.2765 C   0  0  1  0  0  0  0  0  0  0  0  0
  201.5387  143.9132  128.1026 N   0  0  0  0  0  0  0  0  0  0  0  0
  202.7371  143.8268  127.4880 C   0  0  0  0  0  0  0  0  0  0  0  0
  202.7823  144.6523  126.4267 N   0  0  0  0  0  0  0  0  0  0  0  0
  201.5999  145.2913  126.3395 C   0  0  0  0  0  0  0  0  0  0  0  0
  200.8386  144.8196  127.3894 C   0  0  0  0  0  0  0  0  0  0  0  0
  199.5769  145.3145  127.5306 N   0  0  0  0  0  0  0  0  0  0  0  0
  199.1293  146.2280  126.6563 C   0  0  0  0  0  0  0  0  0  0  0  0
  199.8826  146.6818  125.6336 N   0  0  0  0  0  0  0  0  0  0  0  0
  201.1355  146.2348  125.4378 C   0  0  0  0  0  0  0  0  0  0  0  0
  201.9342  146.7101  124.3607 N   0  0  0  0  0  0  0  0  0  0  0  0
  1  2  1  0
  2  3  2  0
  3  4  1  0
  4  5  2  0
  5  6  1  0
  6  7  2  0
  7  8  1  0
  8  9  2  0
  9 10  1  0
 11 10  1  6
 11 12  1  0
 12 13  1  0
 13 14  1  6
 14 15  1  0
 15 16  1  0
 16 17  1  6
 16 18  2  0
 16 19  1  0
 20 19  1  6
 20 21  1  0
 21 22  1  6
 21 23  1  0
 23 24  1  6
 24 25  1  0
 25 26  1  0
 26 27  1  1
 26 28  2  0
 26 29  1  0
 30 29  1  1
 30 31  1  0
 31 32  1  1
 23 33  1  0
 33 34  1  0
 34 35  1  6
 35 36  1  0
 36 37  2  0
 37 38  1  0
 38 39  2  0
 39 40  1  0
 40 41  2  0
 41 42  1  0
 42 43  2  0
 43 44  1  0
  7  2  1  0
 31 11  1  0
 39 35  1  0
 10  6  1  0
 30 13  1  0
 43 38  1  0
 34 20  1  0
M  END
$$$$
