
     RDKit          3D

 44 50  0  0  0  0  0  0  0  0999 V2000
  199.7751  145.8260  125.5927 N   0  0  0  0  0  0  0  0  0  0  0  0
  200.5349  144.6622  125.8921 C   0  0  0  0  0  0  0  0  0  0  0  0
  201.3911  144.1495  124.9807 N   0  0  0  0  0  0  0  0  0  0  0  0
  202.1209  143.0379  125.2586 C   0  0  0  0  0  0  0  0  0  0  0  0
  202.0235  142.4068  126.4403 N   0  0  0  0  0  0  0  0  0  0  0  0
  201.1786  142.8813  127.3888 C   0  0  0  0  0  0  0  0  0  0  0  0
  200.4448  144.0011  127.1061 C   0  0  0  0  0  0  0  0  0  0  0  0
  199.7065  144.2545  128.1867 N   0  0  0  0  0  0  0  0  0  0  0  0
  199.9733  143.3191  129.1156 C   0  0  0  0  0  0  0  0  0  0  0  0
  200.8726  142.4671  128.6484 N   0  0  0  0  0  0  0  0  0  0  0  0
  201.4849  141.3050  129.2404 C   0  0  2  0  0  0  0  0  0  0  0  0
  202.0458  141.5715  130.4934 O   0  0  0  0  0  0  0  0  0  0  0  0
  202.7212  140.3974  130.7792 C   0  0  2  0  0  0  0  0  0  0  0  0
  203.7100  140.6492  131.8704 C   0  0  0  0  0  0  0  0  0  0  0  0
  203.2030  140.1051  133.0662 O   0  0  0  0  0  0  0  0  0  0  0  0
  204.4105  139.4452  134.0150 P   0  0  2  0  0  5  0  0  0  0  0  0
  204.7032  140.6235  135.7373 S   0  0  0  0  0  0  0  0  0  0  0  0
  205.6989  139.4733  133.2147 O   0  0  0  0  0  0  0  0  0  0  0  0
  204.0469  137.8604  134.5134 O   0  0  0  0  0  0  0  0  0  0  0  0
  204.4777  137.0010  133.5441 C   0  0  2  0  0  0  0  0  0  0  0  0
  203.4541  136.8245  132.4131 C   0  0  2  0  0  0  0  0  0  0  0  0
  202.2047  136.6490  132.9929 O   0  0  0  0  0  0  0  0  0  0  0  0
  203.9330  135.5033  131.8504 C   0  0  1  0  0  0  0  0  0  0  0  0
  204.9177  135.8444  130.7245 C   0  0  0  0  0  0  0  0  0  0  0  0
  204.9030  137.1963  130.4260 O   0  0  0  0  0  0  0  0  0  0  0  0
  204.0972  137.5207  128.9677 P   0  0  2  0  0  5  0  0  0  0  0  0
  203.2306  135.7150  128.2819 S   0  0  0  0  0  0  0  0  0  0  0  0
  205.1492  137.9728  127.9798 O   0  0  0  0  0  0  0  0  0  0  0  0
  202.8694  138.6450  129.1560 O   0  0  0  0  0  0  0  0  0  0  0  0
  203.3484  139.9133  129.4957 C   0  0  1  0  0  0  0  0  0  0  0  0
  202.7398  140.8741  128.4700 C   0  0  1  0  0  0  0  0  0  0  0  0
  202.3995  140.2115  127.3038 O   0  0  0  0  0  0  0  0  0  0  0  0
  204.6310  134.8518  132.8270 O   0  0  0  0  0  0  0  0  0  0  0  0
  204.5647  135.5581  133.9970 C   0  0  1  0  0  0  0  0  0  0  0  0
  205.7112  135.3491  134.8551 N   0  0  0  0  0  0  0  0  0  0  0  0
  206.9673  135.7930  134.6392 C   0  0  0  0  0  0  0  0  0  0  0  0
  207.7793  135.4146  135.6428 N   0  0  0  0  0  0  0  0  0  0  0  0
  207.0509  134.7126  136.5318 C   0  0  0  0  0  0  0  0  0  0  0  0
  205.7673  134.6816  136.0263 C   0  0  0  0  0  0  0  0  0  0  0  0
  204.8175  134.0216  136.7467 N   0  0  0  0  0  0  0  0  0  0  0  0
  205.1614  133.4356  137.9033 C   0  0  0  0  0  0  0  0  0  0  0  0
  206.4196  133.4724  138.3878 N   0  0  0  0  0  0  0  0  0  0  0  0
  207.4038  134.1066  137.7266 C   0  0  0  0  0  0  0  0  0  0  0  0
  208.7325  134.1484  138.2331 N   0  0  0  0  0  0  0  0  0  0  0  0
  1  2  1  0
  2  3  2  0
  3  4  1  0
  4  5  2  0
  5  6  1  0
  6  7  2  0
  7  8  1  0
  8  9  2  0
  9 10  1  0
 11 10  1  6
 11 12  1  0
 12 13  1  0
 13 14  1  1
 14 15  1  0
 15 16  1  0
 16 17  1  1
 16 18  2  0
 16 19  1  0
 20 19  1  1
 20 21  1  0
 21 22  1  1
 21 23  1  0
 23 24  1  6
 24 25  1  0
 25 26  1  0
 26 27  1  6
 26 28  2  0
 26 29  1  0
 30 29  1  6
 30 31  1  0
 31 32  1  6
 23 33  1  0
 33 34  1  0
 34 35  1  1
 35 36  1  0
 36 37  2  0
 37 38  1  0
 38 39  2  0
 39 40  1  0
 40 41  2  0
 41 42  1  0
 42 43  2  0
 43 44  1  0
  7  2  1  0
 31 11  1  0
 39 35  1  0
 10  6  1  0
 30 13  1  0
 43 38  1  0
 34 20  1  0
M  END
$$$$
