
     RDKit          3D

 44 50  0  0  0  0  0  0  0  0999 V2000
  202.7479  148.8626  127.7339 N   0  0  0  0  0  0  0  0  0  0  0  0
  202.1639  147.5821  127.9360 C   0  0  0  0  0  0  0  0  0  0  0  0
  201.0415  147.2281  127.2714 N   0  0  0  0  0  0  0  0  0  0  0  0
  200.4770  146.0068  127.4586 C   0  0  0  0  0  0  0  0  0  0  0  0
  201.0055  145.1071  128.3045 N   0  0  0  0  0  0  0  0  0  0  0  0
  202.1313  145.4136  128.9954 C   0  0  0  0  0  0  0  0  0  0  0  0
  202.6977  146.6445  128.8048 C   0  0  0  0  0  0  0  0  0  0  0  0
  203.7750  146.6927  129.5885 N   0  0  0  0  0  0  0  0  0  0  0  0
  203.8762  145.5248  130.2480 C   0  0  0  0  0  0  0  0  0  0  0  0
  202.8796  144.7257  129.9002 N   0  0  0  0  0  0  0  0  0  0  0  0
  202.5394  143.3880  130.3137 C   0  0  2  0  0  0  0  0  0  0  0  0
  203.6659  142.5860  130.5214 O   0  0  0  0  0  0  0  0  0  0  0  0
  203.1131  141.3327  130.7215 C   0  0  2  0  0  0  0  0  0  0  0  0
  204.1705  140.2923  130.5446 C   0  0  0  0  0  0  0  0  0  0  0  0
  204.5483  139.8193  131.8161 O   0  0  0  0  0  0  0  0  0  0  0  0
  204.8862  138.1825  131.8002 P   0  0  2  0  0  5  0  0  0  0  0  0
  206.9523  137.8672  132.0680 S   0  0  0  0  0  0  0  0  0  0  0  0
  204.5126  137.6435  130.4323 O   0  0  0  0  0  0  0  0  0  0  0  0
  204.0591  137.3403  133.0244 O   0  0  0  0  0  0  0  0  0  0  0  0
  202.8309  136.9890  132.5431 C   0  0  2  0  0  0  0  0  0  0  0  0
  201.7951  138.1133  132.6889 C   0  0  2  0  0  0  0  0  0  0  0  0
  201.9161  138.6407  133.9677 O   0  0  0  0  0  0  0  0  0  0  0  0
  200.5260  137.2923  132.6058 C   0  0  1  0  0  0  0  0  0  0  0  0
  200.1118  137.2850  131.1286 C   0  0  0  0  0  0  0  0  0  0  0  0
  200.8645  138.1765  130.3832 O   0  0  0  0  0  0  0  0  0  0  0  0
  199.9855  139.5695  129.9734 P   0  0  2  0  0  5  0  0  0  0  0  0
  198.1192  139.4834  130.9691 S   0  0  0  0  0  0  0  0  0  0  0  0
  199.7541  139.5152  128.4799 O   0  0  0  0  0  0  0  0  0  0  0  0
  200.7622  140.9751  130.4510 O   0  0  0  0  0  0  0  0  0  0  0  0
  201.9587  141.1898  129.7612 C   0  0  1  0  0  0  0  0  0  0  0  0
  201.8560  142.6051  129.1850 C   0  0  1  0  0  0  0  0  0  0  0  0
  200.5354  142.9938  129.0443 O   0  0  0  0  0  0  0  0  0  0  0  0
  200.8257  136.0072  132.9577 O   0  0  0  0  0  0  0  0  0  0  0  0
  202.1293  135.9277  133.3654 C   0  0  1  0  0  0  0  0  0  0  0  0
  202.7174  134.6239  133.1451 N   0  0  0  0  0  0  0  0  0  0  0  0
  202.6959  133.9173  131.9955 C   0  0  0  0  0  0  0  0  0  0  0  0
  203.3404  132.7466  132.1504 N   0  0  0  0  0  0  0  0  0  0  0  0
  203.7928  132.6794  133.4171 C   0  0  0  0  0  0  0  0  0  0  0  0
  203.3966  133.8550  134.0215 C   0  0  0  0  0  0  0  0  0  0  0  0
  203.7338  134.0415  135.3285 N   0  0  0  0  0  0  0  0  0  0  0  0
  204.4280  133.0889  135.9688 C   0  0  0  0  0  0  0  0  0  0  0  0
  204.8100  131.9434  135.3677 N   0  0  0  0  0  0  0  0  0  0  0  0
  204.5098  131.6970  134.0804 C   0  0  0  0  0  0  0  0  0  0  0  0
  204.9103  130.4906  133.4417 N   0  0  0  0  0  0  0  0  0  0  0  0
  1  2  1  0
  2  3  2  0
  3  4  1  0
  4  5  2  0
  5  6  1  0
  6  7  2  0
  7  8  1  0
  8  9  2  0
  9 10  1  0
 11 10  1  6
 11 12  1  0
 12 13  1  0
 13 14  1  6
 14 15  1  0
 15 16  1  0
 16 17  1  1
 16 18  2  0
 16 19  1  0
 20 19  1  1
 20 21  1  0
 21 22  1  1
 21 23  1  0
 23 24  1  6
 24 25  1  0
 25 26  1  0
 26 27  1  1
 26 28  2  0
 26 29  1  0
 30 29  1  1
 30 31  1  0
 31 32  1  1
 23 33  1  0
 33 34  1  0
 34 35  1  6
 35 36  1  0
 36 37  2  0
 37 38  1  0
 38 39  2  0
 39 40  1  0
 40 41  2  0
 41 42  1  0
 42 43  2  0
 43 44  1  0
  7  2  1  0
 31 11  1  0
 39 35  1  0
 10  6  1  0
 30 13  1  0
 43 38  1  0
 34 20  1  0
M  END
$$$$
