
     RDKit          3D

 44 50  0  0  0  0  0  0  0  0999 V2000
  200.3781  145.0723  127.7530 N   0  0  0  0  0  0  0  0  0  0  0  0
  200.6933  143.7019  127.9630 C   0  0  0  0  0  0  0  0  0  0  0  0
  200.7722  142.8488  126.9176 N   0  0  0  0  0  0  0  0  0  0  0  0
  201.0727  141.5379  127.1094 C   0  0  0  0  0  0  0  0  0  0  0  0
  201.3022  141.0384  128.3349 N   0  0  0  0  0  0  0  0  0  0  0  0
  201.2353  141.8529  129.4169 C   0  0  0  0  0  0  0  0  0  0  0  0
  200.9323  143.1728  129.2207 C   0  0  0  0  0  0  0  0  0  0  0  0
  200.9295  143.7451  130.4247 N   0  0  0  0  0  0  0  0  0  0  0  0
  201.2225  142.8080  131.3440 C   0  0  0  0  0  0  0  0  0  0  0  0
  201.4137  141.6408  130.7492 N   0  0  0  0  0  0  0  0  0  0  0  0
  201.7453  140.3423  131.2784 C   0  0  2  0  0  0  0  0  0  0  0  0
  203.1238  140.1551  131.4207 O   0  0  0  0  0  0  0  0  0  0  0  0
  203.2149  138.8147  131.7542 C   0  0  2  0  0  0  0  0  0  0  0  0
  204.6165  138.3455  131.5368 C   0  0  0  0  0  0  0  0  0  0  0  0
  205.2460  138.2242  132.7905 O   0  0  0  0  0  0  0  0  0  0  0  0
  206.2895  136.9196  132.8434 P   0  0  2  0  0  5  0  0  0  0  0  0
  208.2852  137.5915  132.9194 S   0  0  0  0  0  0  0  0  0  0  0  0
  206.1179  136.1340  131.5571 O   0  0  0  0  0  0  0  0  0  0  0  0
  206.0135  135.9261  134.1959 O   0  0  0  0  0  0  0  0  0  0  0  0
  205.0522  135.0152  133.8647 C   0  0  2  0  0  0  0  0  0  0  0  0
  203.6297  135.5654  134.0439 C   0  0  2  0  0  0  0  0  0  0  0  0
  203.5768  136.2186  135.2681 O   0  0  0  0  0  0  0  0  0  0  0  0
  202.8703  134.2596  134.1418 C   0  0  1  0  0  0  0  0  0  0  0  0
  202.4140  133.9169  132.7177 C   0  0  0  0  0  0  0  0  0  0  0  0
  202.6312  134.9698  131.8452 O   0  0  0  0  0  0  0  0  0  0  0  0
  201.1914  135.7722  131.4399 P   0  0  2  0  0  5  0  0  0  0  0  0
  199.6340  134.9620  132.6234 S   0  0  0  0  0  0  0  0  0  0  0  0
  200.9179  135.4679  129.9840 O   0  0  0  0  0  0  0  0  0  0  0  0
  201.2720  137.4172  131.7469 O   0  0  0  0  0  0  0  0  0  0  0  0
  202.1946  138.0731  130.9270 C   0  0  1  0  0  0  0  0  0  0  0  0
  201.4241  139.2258  130.2763 C   0  0  1  0  0  0  0  0  0  0  0  0
  200.0653  138.9656  130.2462 O   0  0  0  0  0  0  0  0  0  0  0  0
  203.7427  133.2878  134.5417 O   0  0  0  0  0  0  0  0  0  0  0  0
  204.9624  133.8423  134.8191 C   0  0  1  0  0  0  0  0  0  0  0  0
  206.0642  132.9247  134.6227 N   0  0  0  0  0  0  0  0  0  0  0  0
  206.1207  131.9184  133.7251 C   0  0  0  0  0  0  0  0  0  0  0  0
  207.2948  131.2687  133.8197 N   0  0  0  0  0  0  0  0  0  0  0  0
  208.0222  131.8528  134.7911 C   0  0  0  0  0  0  0  0  0  0  0  0
  207.2418  132.8806  135.2797 C   0  0  0  0  0  0  0  0  0  0  0  0
  207.7535  133.6419  136.2873 N   0  0  0  0  0  0  0  0  0  0  0  0
  208.9788  133.3673  136.7591 C   0  0  0  0  0  0  0  0  0  0  0  0
  209.7328  132.3598  136.2736 N   0  0  0  0  0  0  0  0  0  0  0  0
  209.2874  131.5710  135.2799 C   0  0  0  0  0  0  0  0  0  0  0  0
  210.0787  130.5071  134.7643 N   0  0  0  0  0  0  0  0  0  0  0  0
  1  2  1  0
  2  3  2  0
  3  4  1  0
  4  5  2  0
  5  6  1  0
  6  7  2  0
  7  8  1  0
  8  9  2  0
  9 10  1  0
 11 10  1  6
 11 12  1  0
 12 13  1  0
 13 14  1  6
 14 15  1  0
 15 16  1  0
 16 17  1  1
 16 18  2  0
 16 19  1  0
 20 19  1  1
 20 21  1  0
 21 22  1  1
 21 23  1  0
 23 24  1  6
 24 25  1  0
 25 26  1  0
 26 27  1  1
 26 28  2  0
 26 29  1  0
 30 29  1  1
 30 31  1  0
 31 32  1  1
 23 33  1  0
 33 34  1  0
 34 35  1  6
 35 36  1  0
 36 37  2  0
 37 38  1  0
 38 39  2  0
 39 40  1  0
 40 41  2  0
 41 42  1  0
 42 43  2  0
 43 44  1  0
  7  2  1  0
 31 11  1  0
 39 35  1  0
 10  6  1  0
 30 13  1  0
 43 38  1  0
 34 20  1  0
M  END
$$$$
