
     RDKit          3D

 44 50  0  0  0  0  0  0  0  0999 V2000
  129.3028  135.1907  131.1316 N   0  0  0  0  0  0  0  0  0  0  0  0
  129.0060  136.2083  132.0791 C   0  0  0  0  0  0  0  0  0  0  0  0
  128.5642  135.8862  133.3151 N   0  0  0  0  0  0  0  0  0  0  0  0
  128.2783  136.8522  134.2265 C   0  0  0  0  0  0  0  0  0  0  0  0
  128.4213  138.1568  133.9405 N   0  0  0  0  0  0  0  0  0  0  0  0
  128.8614  138.5325  132.7142 C   0  0  0  0  0  0  0  0  0  0  0  0
  129.1486  137.5574  131.7983 C   0  0  0  0  0  0  0  0  0  0  0  0
  129.5548  138.1819  130.6929 N   0  0  0  0  0  0  0  0  0  0  0  0
  129.5214  139.5081  130.9146 C   0  0  0  0  0  0  0  0  0  0  0  0
  129.0995  139.7462  132.1468 N   0  0  0  0  0  0  0  0  0  0  0  0
  128.8905  140.9788  132.8631 C   0  0  2  0  0  0  0  0  0  0  0  0
  128.5856  142.0486  132.0157 O   0  0  0  0  0  0  0  0  0  0  0  0
  128.6120  143.1334  132.8753 C   0  0  2  0  0  0  0  0  0  0  0  0
  128.7208  144.3926  132.0789 C   0  0  0  0  0  0  0  0  0  0  0  0
  127.4613  145.0222  132.0655 O   0  0  0  0  0  0  0  0  0  0  0  0
  127.5931  146.6874  132.1257 P   0  0  2  0  0  5  0  0  0  0  0  0
  127.0236  147.5260  130.2784 S   0  0  0  0  0  0  0  0  0  0  0  0
  129.0528  147.0305  132.3556 O   0  0  0  0  0  0  0  0  0  0  0  0
  126.6170  147.3691  133.3400 O   0  0  0  0  0  0  0  0  0  0  0  0
  127.3281  147.3713  134.5053 C   0  0  2  0  0  0  0  0  0  0  0  0
  127.2375  146.0345  135.2557 C   0  0  2  0  0  0  0  0  0  0  0  0
  125.9080  145.6339  135.2530 O   0  0  0  0  0  0  0  0  0  0  0  0
  127.6141  146.5048  136.6444 C   0  0  1  0  0  0  0  0  0  0  0  0
  129.1317  146.3174  136.7676 C   0  0  0  0  0  0  0  0  0  0  0  0
  129.6453  145.5988  135.7014 O   0  0  0  0  0  0  0  0  0  0  0  0
  130.0455  144.0075  136.1359 P   0  0  2  0  0  5  0  0  0  0  0  0
  129.3851  143.6844  138.1212 S   0  0  0  0  0  0  0  0  0  0  0  0
  131.5541  143.9104  136.0927 O   0  0  0  0  0  0  0  0  0  0  0  0
  129.3017  142.8735  135.1523 O   0  0  0  0  0  0  0  0  0  0  0  0
  129.7588  142.9232  133.8325 C   0  0  1  0  0  0  0  0  0  0  0  0
  130.1922  141.4947  133.4902 C   0  0  1  0  0  0  0  0  0  0  0  0
  130.5067  140.7798  134.6326 O   0  0  0  0  0  0  0  0  0  0  0  0
  127.3546  147.8431  136.7264 O   0  0  0  0  0  0  0  0  0  0  0  0
  126.7485  148.2715  135.5770 C   0  0  1  0  0  0  0  0  0  0  0  0
  127.0047  149.6650  135.2822 N   0  0  0  0  0  0  0  0  0  0  0  0
  128.1471  150.3406  135.5270 C   0  0  0  0  0  0  0  0  0  0  0  0
  128.0336  151.6190  135.1239 N   0  0  0  0  0  0  0  0  0  0  0  0
  126.8018  151.7896  134.6068 C   0  0  0  0  0  0  0  0  0  0  0  0
  126.1756  150.5646  134.7132 C   0  0  0  0  0  0  0  0  0  0  0  0
  124.8964  150.4639  134.2545 N   0  0  0  0  0  0  0  0  0  0  0  0
  124.3031  151.5440  133.7246 C   0  0  0  0  0  0  0  0  0  0  0  0
  124.9252  152.7366  133.6257 N   0  0  0  0  0  0  0  0  0  0  0  0
  126.1870  152.9037  134.0591 C   0  0  0  0  0  0  0  0  0  0  0  0
  126.8476  154.1595  133.9571 N   0  0  0  0  0  0  0  0  0  0  0  0
  1  2  1  0
  2  3  2  0
  3  4  1  0
  4  5  2  0
  5  6  1  0
  6  7  2  0
  7  8  1  0
  8  9  2  0
  9 10  1  0
 11 10  1  6
 11 12  1  0
 12 13  1  0
 13 14  1  6
 14 15  1  0
 15 16  1  0
 16 17  1  6
 16 18  2  0
 16 19  1  0
 20 19  1  6
 20 21  1  0
 21 22  1  1
 21 23  1  0
 23 24  1  6
 24 25  1  0
 25 26  1  0
 26 27  1  1
 26 28  2  0
 26 29  1  0
 30 29  1  1
 30 31  1  0
 31 32  1  1
 23 33  1  0
 33 34  1  0
 34 35  1  6
 35 36  1  0
 36 37  2  0
 37 38  1  0
 38 39  2  0
 39 40  1  0
 40 41  2  0
 41 42  1  0
 42 43  2  0
 43 44  1  0
  7  2  1  0
 31 11  1  0
 39 35  1  0
 10  6  1  0
 30 13  1  0
 43 38  1  0
 34 20  1  0
M  END
$$$$
