
     RDKit          3D

 29 33  0  0  0  0  0  0  0  0999 V2000
  166.0520  149.4386  128.6223 C   0  0  2  0  0  0  0  0  0  0  0  0
  165.0861  148.9767  129.6557 C   0  0  0  0  0  0  0  0  0  0  0  0
  166.0233  148.4220  130.7095 C   0  0  0  0  0  0  0  0  0  0  0  0
  167.3153  149.2476  130.5985 C   0  0  2  0  0  0  0  0  0  0  0  0
  168.4715  148.3376  130.5799 C   0  0  0  0  0  0  0  0  0  0  0  0
  169.6551  148.8595  131.4054 C   0  0  0  0  0  0  0  0  0  0  0  0
  169.2682  148.9595  132.8673 C   0  0  0  0  0  0  0  0  0  0  0  0
  169.2610  147.6013  133.5342 C   0  0  0  0  0  0  0  0  0  0  0  0
  170.2438  149.8719  133.5838 C   0  0  0  0  0  0  0  0  0  0  0  0
  167.9360  149.5909  132.9240 C   0  0  0  0  0  0  0  0  0  0  0  0
  167.3463  149.7140  134.0213 O   0  0  0  0  0  0  0  0  0  0  0  0
  167.3576  150.0378  131.7691 O   0  0  0  0  0  0  0  0  0  0  0  0
  167.1539  150.1476  129.4257 C   0  0  2  0  0  0  0  0  0  0  0  0
  166.6479  151.4964  129.8868 C   0  0  0  0  0  0  0  0  0  0  0  0
  168.3111  150.2317  128.5026 C   0  0  0  0  0  0  0  0  0  0  0  0
  167.9246  151.1145  127.3114 C   0  0  0  0  0  0  0  0  0  0  0  0
  166.6535  150.6928  126.6691 C   0  0  2  0  0  0  0  0  0  0  0  0
  166.2312  151.7393  125.7179 C   0  0  0  0  0  0  0  0  0  0  0  0
  167.1334  152.6694  125.2564 C   0  0  0  0  0  0  0  0  0  0  0  0
  166.7279  153.6609  124.3537 C   0  0  0  0  0  0  0  0  0  0  0  0
  165.4051  153.6912  123.9325 C   0  0  0  0  0  0  0  0  0  0  0  0
  164.5406  152.7489  124.4149 C   0  0  0  0  0  0  0  0  0  0  0  0
  164.9165  151.7545  125.3109 C   0  0  0  0  0  0  0  0  0  0  0  0
  163.9062  150.7834  125.7721 C   0  0  0  0  0  0  0  0  0  0  0  0
  164.2728  150.0415  126.9989 C   0  0  0  0  0  0  0  0  0  0  0  0
  165.5235  150.4583  127.6652 C   0  0  1  0  0  0  0  0  0  0  0  0
  164.9664  154.7313  122.9815 C   0  0  0  0  0  0  0  0  0  0  0  0
  163.7180  154.5371  122.3256 N   0  0  0  0  0  0  0  0  0  0  0  0
  165.6390  155.7427  122.7456 O   0  0  0  0  0  0  0  0  0  0  0  0
  1  2  1  1
  2  3  1  0
  4  3  1  1
  4  5  1  0
  5  6  1  0
  6  7  1  0
  7  8  1  0
  7  9  1  0
  7 10  1  0
 10 11  2  0
 10 12  1  0
  4 13  1  0
 13 14  1  1
 13 15  1  0
 15 16  1  0
 17 16  1  1
 17 18  1  0
 18 19  2  0
 19 20  1  0
 20 21  2  0
 21 22  1  0
 22 23  2  0
 23 24  1  0
 24 25  1  0
 26 25  1  6
 21 27  1  0
 27 28  1  0
 27 29  2  0
 13  1  1  0
 26 17  1  0
 26  1  1  0
 12  4  1  0
 23 18  1  0
M  END
$$$$
