
     RDKit          3D

 29 33  0  0  0  0  0  0  0  0999 V2000
  146.4842  175.8810  148.9316 C   0  0  2  0  0  0  0  0  0  0  0  0
  145.9904  174.5106  148.6272 C   0  0  0  0  0  0  0  0  0  0  0  0
  146.6624  173.7045  149.7205 C   0  0  0  0  0  0  0  0  0  0  0  0
  146.8076  174.6593  150.9167 C   0  0  2  0  0  0  0  0  0  0  0  0
  148.1787  174.5705  151.4434 C   0  0  0  0  0  0  0  0  0  0  0  0
  148.2319  174.5984  152.9768 C   0  0  0  0  0  0  0  0  0  0  0  0
  147.5223  173.3862  153.5459 C   0  0  0  0  0  0  0  0  0  0  0  0
  148.3723  172.1398  153.4303 C   0  0  0  0  0  0  0  0  0  0  0  0
  147.1864  173.6385  155.0023 C   0  0  0  0  0  0  0  0  0  0  0  0
  146.2523  173.2384  152.8097 C   0  0  0  0  0  0  0  0  0  0  0  0
  145.5098  172.2551  153.0308 O   0  0  0  0  0  0  0  0  0  0  0  0
  145.8987  174.1842  151.8886 O   0  0  0  0  0  0  0  0  0  0  0  0
  146.3530  175.9989  150.4584 C   0  0  2  0  0  0  0  0  0  0  0  0
  144.8976  176.1928  150.8221 C   0  0  0  0  0  0  0  0  0  0  0  0
  147.2159  177.1450  150.8325 C   0  0  0  0  0  0  0  0  0  0  0  0
  146.6494  178.4153  150.1898 C   0  0  0  0  0  0  0  0  0  0  0  0
  146.4176  178.2695  148.7301 C   0  0  2  0  0  0  0  0  0  0  0  0
  145.6377  179.4285  148.2541 C   0  0  0  0  0  0  0  0  0  0  0  0
  145.5757  180.5827  148.9998 C   0  0  0  0  0  0  0  0  0  0  0  0
  144.8340  181.6803  148.5440 C   0  0  0  0  0  0  0  0  0  0  0  0
  144.1640  181.5865  147.3314 C   0  0  0  0  0  0  0  0  0  0  0  0
  144.2514  180.4220  146.6212 C   0  0  0  0  0  0  0  0  0  0  0  0
  144.9799  179.3183  147.0501 C   0  0  0  0  0  0  0  0  0  0  0  0
  145.0109  178.1067  146.2091 C   0  0  0  0  0  0  0  0  0  0  0  0
  145.4481  176.8773  146.9072 C   0  0  0  0  0  0  0  0  0  0  0  0
  145.6651  176.9952  148.3635 C   0  0  1  0  0  0  0  0  0  0  0  0
  143.3795  182.7366  146.8411 C   0  0  0  0  0  0  0  0  0  0  0  0
  142.3310  182.4699  145.9159 N   0  0  0  0  0  0  0  0  0  0  0  0
  143.6040  183.8979  147.2045 O   0  0  0  0  0  0  0  0  0  0  0  0
  1  2  1  6
  2  3  1  0
  4  3  1  6
  4  5  1  0
  5  6  1  0
  6  7  1  0
  7  8  1  0
  7  9  1  0
  7 10  1  0
 10 11  2  0
 10 12  1  0
  4 13  1  0
 13 14  1  6
 13 15  1  0
 15 16  1  0
 17 16  1  1
 17 18  1  0
 18 19  2  0
 19 20  1  0
 20 21  2  0
 21 22  1  0
 22 23  2  0
 23 24  1  0
 24 25  1  0
 26 25  1  6
 21 27  1  0
 27 28  1  0
 27 29  2  0
 13  1  1  0
 26 17  1  0
 26  1  1  0
 12  4  1  0
 23 18  1  0
M  END
$$$$
