
     RDKit          3D

 29 33  0  0  0  0  0  0  0  0999 V2000
  138.7009  161.4404  156.2152 C   0  0  2  0  0  0  0  0  0  0  0  0
  139.4183  160.8661  157.3856 C   0  0  0  0  0  0  0  0  0  0  0  0
  140.8549  161.2153  157.0524 C   0  0  0  0  0  0  0  0  0  0  0  0
  140.7921  162.5192  156.2404 C   0  0  2  0  0  0  0  0  0  0  0  0
  141.6390  162.3862  155.0445 C   0  0  0  0  0  0  0  0  0  0  0  0
  142.4323  163.6617  154.7302 C   0  0  0  0  0  0  0  0  0  0  0  0
  143.4012  163.9645  155.8556 C   0  0  0  0  0  0  0  0  0  0  0  0
  144.6161  163.0644  155.7999 C   0  0  0  0  0  0  0  0  0  0  0  0
  143.8380  165.4133  155.7661 C   0  0  0  0  0  0  0  0  0  0  0  0
  142.6654  163.7932  157.1228 C   0  0  0  0  0  0  0  0  0  0  0  0
  143.2651  163.9030  158.2162 O   0  0  0  0  0  0  0  0  0  0  0  0
  141.3277  163.5151  157.0876 O   0  0  0  0  0  0  0  0  0  0  0  0
  139.3533  162.8169  156.0109 C   0  0  2  0  0  0  0  0  0  0  0  0
  138.8560  163.7694  157.0756 C   0  0  0  0  0  0  0  0  0  0  0  0
  138.9811  163.2197  154.6335 C   0  0  0  0  0  0  0  0  0  0  0  0
  137.4590  163.3810  154.5645 C   0  0  0  0  0  0  0  0  0  0  0  0
  136.7290  162.1935  155.0775 C   0  0  2  0  0  0  0  0  0  0  0  0
  135.3006  162.5370  155.2174 C   0  0  0  0  0  0  0  0  0  0  0  0
  134.7739  163.6199  154.5524 C   0  0  0  0  0  0  0  0  0  0  0  0
  133.4174  163.9422  154.6884 C   0  0  0  0  0  0  0  0  0  0  0  0
  132.6140  163.1546  155.5023 C   0  0  0  0  0  0  0  0  0  0  0  0
  133.1763  162.0878  156.1454 C   0  0  0  0  0  0  0  0  0  0  0  0
  134.5188  161.7458  156.0280 C   0  0  0  0  0  0  0  0  0  0  0  0
  135.0289  160.5737  156.7645 C   0  0  0  0  0  0  0  0  0  0  0  0
  136.5005  160.5254  156.9122 C   0  0  0  0  0  0  0  0  0  0  0  0
  137.2448  161.7053  156.4265 C   0  0  1  0  0  0  0  0  0  0  0  0
  131.1833  163.4846  155.6531 C   0  0  0  0  0  0  0  0  0  0  0  0
  130.3814  162.5943  156.4217 N   0  0  0  0  0  0  0  0  0  0  0  0
  130.6755  164.4903  155.1414 O   0  0  0  0  0  0  0  0  0  0  0  0
  1  2  1  1
  2  3  1  0
  4  3  1  1
  4  5  1  0
  5  6  1  0
  6  7  1  0
  7  8  1  0
  7  9  1  0
  7 10  1  0
 10 11  2  0
 10 12  1  0
  4 13  1  0
 13 14  1  1
 13 15  1  0
 15 16  1  0
 17 16  1  1
 17 18  1  0
 18 19  2  0
 19 20  1  0
 20 21  2  0
 21 22  1  0
 22 23  2  0
 23 24  1  0
 24 25  1  0
 26 25  1  6
 21 27  1  0
 27 28  1  0
 27 29  2  0
 13  1  1  0
 26 17  1  0
 26  1  1  0
 12  4  1  0
 23 18  1  0
M  END
$$$$
