
     RDKit          3D

 29 33  0  0  0  0  0  0  0  0999 V2000
  173.2229  163.9736  112.2786 C   0  0  2  0  0  0  0  0  0  0  0  0
  172.2104  164.2720  113.3275 C   0  0  0  0  0  0  0  0  0  0  0  0
  171.9531  162.8894  113.8920 C   0  0  0  0  0  0  0  0  0  0  0  0
  173.2699  162.1146  113.7207 C   0  0  2  0  0  0  0  0  0  0  0  0
  172.9828  160.7949  113.1366 C   0  0  0  0  0  0  0  0  0  0  0  0
  173.8217  159.6712  113.7596 C   0  0  0  0  0  0  0  0  0  0  0  0
  173.4851  159.5222  115.2298 C   0  0  0  0  0  0  0  0  0  0  0  0
  172.1707  158.7995  115.4283 C   0  0  0  0  0  0  0  0  0  0  0  0
  174.5948  158.7580  115.9242 C   0  0  0  0  0  0  0  0  0  0  0  0
  173.4426  160.8791  115.8074 C   0  0  0  0  0  0  0  0  0  0  0  0
  173.1001  161.0426  117.0003 O   0  0  0  0  0  0  0  0  0  0  0  0
  173.7809  161.9493  115.0275 O   0  0  0  0  0  0  0  0  0  0  0  0
  174.1942  162.9960  112.9591 C   0  0  2  0  0  0  0  0  0  0  0  0
  175.0780  163.7575  113.9220 C   0  0  0  0  0  0  0  0  0  0  0  0
  174.9396  162.3567  111.8482 C   0  0  0  0  0  0  0  0  0  0  0  0
  175.7526  163.4325  111.1206 C   0  0  0  0  0  0  0  0  0  0  0  0
  174.9315  164.6029  110.7183 C   0  0  2  0  0  0  0  0  0  0  0  0
  175.8311  165.6837  110.2702 C   0  0  0  0  0  0  0  0  0  0  0  0
  177.1284  165.4071  109.9061 C   0  0  0  0  0  0  0  0  0  0  0  0
  177.9787  166.4363  109.4816 C   0  0  0  0  0  0  0  0  0  0  0  0
  177.4941  167.7367  109.4338 C   0  0  0  0  0  0  0  0  0  0  0  0
  176.1992  167.9689  109.8040 C   0  0  0  0  0  0  0  0  0  0  0  0
  175.3344  166.9667  110.2289 C   0  0  0  0  0  0  0  0  0  0  0  0
  173.9534  167.3216  110.6071 C   0  0  0  0  0  0  0  0  0  0  0  0
  173.2493  166.3015  111.4155 C   0  0  0  0  0  0  0  0  0  0  0  0
  174.0531  165.1384  111.8434 C   0  0  1  0  0  0  0  0  0  0  0  0
  178.3809  168.8292  108.9881 C   0  0  0  0  0  0  0  0  0  0  0  0
  179.7801  168.5683  108.9573 N   0  0  0  0  0  0  0  0  0  0  0  0
  177.9504  169.9384  108.6489 O   0  0  0  0  0  0  0  0  0  0  0  0
  1  2  1  1
  2  3  1  0
  4  3  1  1
  4  5  1  0
  5  6  1  0
  6  7  1  0
  7  8  1  0
  7  9  1  0
  7 10  1  0
 10 11  2  0
 10 12  1  0
  4 13  1  0
 13 14  1  1
 13 15  1  0
 15 16  1  0
 17 16  1  1
 17 18  1  0
 18 19  2  0
 19 20  1  0
 20 21  2  0
 21 22  1  0
 22 23  2  0
 23 24  1  0
 24 25  1  0
 26 25  1  6
 21 27  1  0
 27 28  1  0
 27 29  2  0
 13  1  1  0
 26 17  1  0
 26  1  1  0
 12  4  1  0
 23 18  1  0
M  END
$$$$
