
     RDKit          3D

 29 33  0  0  0  0  0  0  0  0999 V2000
  133.1117  138.8878  131.8175 C   0  0  2  0  0  0  0  0  0  0  0  0
  133.2948  137.4111  131.8061 C   0  0  0  0  0  0  0  0  0  0  0  0
  133.1546  137.0844  133.2793 C   0  0  0  0  0  0  0  0  0  0  0  0
  132.1994  138.1426  133.8546 C   0  0  2  0  0  0  0  0  0  0  0  0
  132.7721  138.6887  135.0952 C   0  0  0  0  0  0  0  0  0  0  0  0
  131.7210  138.9097  136.1911 C   0  0  0  0  0  0  0  0  0  0  0  0
  131.1080  137.5857  136.6012 C   0  0  0  0  0  0  0  0  0  0  0  0
  132.0370  136.7977  137.4987 C   0  0  0  0  0  0  0  0  0  0  0  0
  129.7994  137.8400  137.3227 C   0  0  0  0  0  0  0  0  0  0  0  0
  130.8031  136.8439  135.3629 C   0  0  0  0  0  0  0  0  0  0  0  0
  130.3629  135.6736  135.4249 O   0  0  0  0  0  0  0  0  0  0  0  0
  131.0058  137.4480  134.1537 O   0  0  0  0  0  0  0  0  0  0  0  0
  131.9210  139.1132  132.7629 C   0  0  2  0  0  0  0  0  0  0  0  0
  130.6406  138.7281  132.0556 C   0  0  0  0  0  0  0  0  0  0  0  0
  131.9871  140.5477  133.1315 C   0  0  0  0  0  0  0  0  0  0  0  0
  131.7785  141.3885  131.8676 C   0  0  0  0  0  0  0  0  0  0  0  0
  132.6833  140.9955  130.7573 C   0  0  2  0  0  0  0  0  0  0  0  0
  132.2379  141.6665  129.5205 C   0  0  0  0  0  0  0  0  0  0  0  0
  131.4165  142.7682  129.5802 C   0  0  0  0  0  0  0  0  0  0  0  0
  130.9961  143.4017  128.4036 C   0  0  0  0  0  0  0  0  0  0  0  0
  131.4197  142.9027  127.1790 C   0  0  0  0  0  0  0  0  0  0  0  0
  132.2354  141.8062  127.1635 C   0  0  0  0  0  0  0  0  0  0  0  0
  132.6672  141.1586  128.3155 C   0  0  0  0  0  0  0  0  0  0  0  0
  133.5475  139.9814  128.1911 C   0  0  0  0  0  0  0  0  0  0  0  0
  133.6207  139.1304  129.3996 C   0  0  0  0  0  0  0  0  0  0  0  0
  132.7146  139.4917  130.5087 C   0  0  1  0  0  0  0  0  0  0  0  0
  130.9832  143.5620  125.9327 C   0  0  0  0  0  0  0  0  0  0  0  0
  131.7375  143.3028  124.7536 N   0  0  0  0  0  0  0  0  0  0  0  0
  130.0029  144.3156  125.8874 O   0  0  0  0  0  0  0  0  0  0  0  0
  1  2  1  6
  2  3  1  0
  4  3  1  6
  4  5  1  0
  5  6  1  0
  6  7  1  0
  7  8  1  0
  7  9  1  0
  7 10  1  0
 10 11  2  0
 10 12  1  0
  4 13  1  0
 13 14  1  6
 13 15  1  0
 15 16  1  0
 17 16  1  1
 17 18  1  0
 18 19  2  0
 19 20  1  0
 20 21  2  0
 21 22  1  0
 22 23  2  0
 23 24  1  0
 24 25  1  0
 26 25  1  6
 21 27  1  0
 27 28  1  0
 27 29  2  0
 13  1  1  0
 26 17  1  0
 26  1  1  0
 12  4  1  0
 23 18  1  0
M  END
$$$$
