
     RDKit          3D

 29 33  0  0  0  0  0  0  0  0999 V2000
  166.8356  151.9610  128.2164 C   0  0  2  0  0  0  0  0  0  0  0  0
  166.3444  152.3998  129.5508 C   0  0  0  0  0  0  0  0  0  0  0  0
  165.8991  153.8169  129.2506 C   0  0  0  0  0  0  0  0  0  0  0  0
  165.4514  153.8133  127.7798 C   0  0  2  0  0  0  0  0  0  0  0  0
  166.0544  154.9631  127.0873 C   0  0  0  0  0  0  0  0  0  0  0  0
  165.0880  155.6445  126.1093 C   0  0  0  0  0  0  0  0  0  0  0  0
  163.9072  156.2249  126.8614 C   0  0  0  0  0  0  0  0  0  0  0  0
  164.2755  157.5126  127.5653 C   0  0  0  0  0  0  0  0  0  0  0  0
  162.7715  156.4834  125.8912 C   0  0  0  0  0  0  0  0  0  0  0  0
  163.4550  155.2002  127.8217 C   0  0  0  0  0  0  0  0  0  0  0  0
  162.5374  155.4614  128.6321 O   0  0  0  0  0  0  0  0  0  0  0  0
  164.0475  153.9685  127.8144 O   0  0  0  0  0  0  0  0  0  0  0  0
  165.7652  152.4654  127.2356 C   0  0  2  0  0  0  0  0  0  0  0  0
  164.5415  151.5815  127.3323 C   0  0  0  0  0  0  0  0  0  0  0  0
  166.4164  152.4338  125.9040 C   0  0  0  0  0  0  0  0  0  0  0  0
  166.7551  150.9800  125.5585 C   0  0  0  0  0  0  0  0  0  0  0  0
  167.5168  150.2939  126.6331 C   0  0  2  0  0  0  0  0  0  0  0  0
  167.5666  148.8497  126.3333 C   0  0  0  0  0  0  0  0  0  0  0  0
  167.3187  148.3914  125.0602 C   0  0  0  0  0  0  0  0  0  0  0  0
  167.3670  147.0196  124.7803 C   0  0  0  0  0  0  0  0  0  0  0  0
  167.6679  146.1312  125.8042 C   0  0  0  0  0  0  0  0  0  0  0  0
  167.9078  146.6275  127.0548 C   0  0  0  0  0  0  0  0  0  0  0  0
  167.8664  147.9833  127.3598 C   0  0  0  0  0  0  0  0  0  0  0  0
  168.1409  148.4175  128.7427 C   0  0  0  0  0  0  0  0  0  0  0  0
  167.6841  149.7876  129.0655 C   0  0  0  0  0  0  0  0  0  0  0  0
  166.9072  150.4809  128.0179 C   0  0  1  0  0  0  0  0  0  0  0  0
  167.7216  144.6837  125.5210 C   0  0  0  0  0  0  0  0  0  0  0  0
  168.0664  143.8165  126.5960 N   0  0  0  0  0  0  0  0  0  0  0  0
  167.4806  144.2159  124.4011 O   0  0  0  0  0  0  0  0  0  0  0  0
  1  2  1  1
  2  3  1  0
  4  3  1  1
  4  5  1  0
  5  6  1  0
  6  7  1  0
  7  8  1  0
  7  9  1  0
  7 10  1  0
 10 11  2  0
 10 12  1  0
  4 13  1  0
 13 14  1  6
 13 15  1  0
 15 16  1  0
 17 16  1  6
 17 18  1  0
 18 19  2  0
 19 20  1  0
 20 21  2  0
 21 22  1  0
 22 23  2  0
 23 24  1  0
 24 25  1  0
 26 25  1  1
 21 27  1  0
 27 28  1  0
 27 29  2  0
 13  1  1  0
 26 17  1  0
 26  1  1  0
 12  4  1  0
 23 18  1  0
M  END
$$$$
