
     RDKit          3D

 29 33  0  0  0  0  0  0  0  0999 V2000
  187.0694  164.5152  122.0451 C   0  0  2  0  0  0  0  0  0  0  0  0
  185.7539  164.5800  121.3526 C   0  0  0  0  0  0  0  0  0  0  0  0
  185.5839  166.0759  121.1798 C   0  0  0  0  0  0  0  0  0  0  0  0
  187.0053  166.6475  121.0517 C   0  0  2  0  0  0  0  0  0  0  0  0
  187.1399  167.8140  121.9386 C   0  0  0  0  0  0  0  0  0  0  0  0
  187.9360  168.9602  121.3005 C   0  0  0  0  0  0  0  0  0  0  0  0
  187.2065  169.4868  120.0810 C   0  0  0  0  0  0  0  0  0  0  0  0
  186.0395  170.3680  120.4693 C   0  0  0  0  0  0  0  0  0  0  0  0
  188.1729  170.2746  119.2189 C   0  0  0  0  0  0  0  0  0  0  0  0
  186.7581  168.3171  119.3017 C   0  0  0  0  0  0  0  0  0  0  0  0
  186.0516  168.4768  118.2808 O   0  0  0  0  0  0  0  0  0  0  0  0
  187.1228  167.0636  119.7066 O   0  0  0  0  0  0  0  0  0  0  0  0
  187.9472  165.5201  121.2824 C   0  0  2  0  0  0  0  0  0  0  0  0
  188.3562  164.9209  119.9551 C   0  0  0  0  0  0  0  0  0  0  0  0
  189.0898  165.7977  122.1855 C   0  0  0  0  0  0  0  0  0  0  0  0
  189.8833  164.5021  122.3842 C   0  0  0  0  0  0  0  0  0  0  0  0
  189.0298  163.3612  122.8034 C   0  0  2  0  0  0  0  0  0  0  0  0
  189.8200  162.1180  122.7143 C   0  0  0  0  0  0  0  0  0  0  0  0
  191.1942  162.1647  122.6756 C   0  0  0  0  0  0  0  0  0  0  0  0
  191.9401  160.9820  122.5908 C   0  0  0  0  0  0  0  0  0  0  0  0
  191.2738  159.7645  122.5465 C   0  0  0  0  0  0  0  0  0  0  0  0
  189.9077  159.7618  122.5872 C   0  0  0  0  0  0  0  0  0  0  0  0
  189.1434  160.9202  122.6712 C   0  0  0  0  0  0  0  0  0  0  0  0
  187.6729  160.8097  122.7095 C   0  0  0  0  0  0  0  0  0  0  0  0
  186.9478  162.0594  122.3894 C   0  0  0  0  0  0  0  0  0  0  0  0
  187.7761  163.2011  121.9509 C   0  0  1  0  0  0  0  0  0  0  0  0
  192.0493  158.5119  122.4571 C   0  0  0  0  0  0  0  0  0  0  0  0
  191.3272  157.2866  122.5188 N   0  0  0  0  0  0  0  0  0  0  0  0
  193.2803  158.4995  122.3330 O   0  0  0  0  0  0  0  0  0  0  0  0
  1  2  1  6
  2  3  1  0
  4  3  1  6
  4  5  1  0
  5  6  1  0
  6  7  1  0
  7  8  1  0
  7  9  1  0
  7 10  1  0
 10 11  2  0
 10 12  1  0
  4 13  1  0
 13 14  1  6
 13 15  1  0
 15 16  1  0
 17 16  1  6
 17 18  1  0
 18 19  2  0
 19 20  1  0
 20 21  2  0
 21 22  1  0
 22 23  2  0
 23 24  1  0
 24 25  1  0
 26 25  1  1
 21 27  1  0
 27 28  1  0
 27 29  2  0
 13  1  1  0
 26 17  1  0
 26  1  1  0
 12  4  1  0
 23 18  1  0
M  END
$$$$
