
     RDKit          3D

 29 33  0  0  0  0  0  0  0  0999 V2000
  185.7706  161.5009  139.1436 C   0  0  2  0  0  0  0  0  0  0  0  0
  186.0950  161.8912  140.5425 C   0  0  0  0  0  0  0  0  0  0  0  0
  187.4986  162.4387  140.3788 C   0  0  0  0  0  0  0  0  0  0  0  0
  187.5596  163.0181  138.9562 C   0  0  2  0  0  0  0  0  0  0  0  0
  188.7846  162.5446  138.2925 C   0  0  0  0  0  0  0  0  0  0  0  0
  189.4662  163.6321  137.4513 C   0  0  0  0  0  0  0  0  0  0  0  0
  189.9263  164.7691  138.3416 C   0  0  0  0  0  0  0  0  0  0  0  0
  191.1875  164.4086  139.0957 C   0  0  0  0  0  0  0  0  0  0  0  0
  190.1757  166.0011  137.4945 C   0  0  0  0  0  0  0  0  0  0  0  0
  188.8183  165.0749  139.2665 C   0  0  0  0  0  0  0  0  0  0  0  0
  188.9727  165.9274  140.1702 O   0  0  0  0  0  0  0  0  0  0  0  0
  187.6275  164.4194  139.1242 O   0  0  0  0  0  0  0  0  0  0  0  0
  186.2697  162.6825  138.2968 C   0  0  2  0  0  0  0  0  0  0  0  0
  185.3093  163.8423  138.4407 C   0  0  0  0  0  0  0  0  0  0  0  0
  186.3604  162.1552  136.9141 C   0  0  0  0  0  0  0  0  0  0  0  0
  184.9541  161.7708  136.4429 C   0  0  0  0  0  0  0  0  0  0  0  0
  184.2495  160.8777  137.3978 C   0  0  2  0  0  0  0  0  0  0  0  0
  182.8324  160.7769  136.9980 C   0  0  0  0  0  0  0  0  0  0  0  0
  182.4402  161.1149  135.7236 C   0  0  0  0  0  0  0  0  0  0  0  0
  181.0940  161.0179  135.3487 C   0  0  0  0  0  0  0  0  0  0  0  0
  180.1633  160.5765  136.2799 C   0  0  0  0  0  0  0  0  0  0  0  0
  180.5942  160.2507  137.5353 C   0  0  0  0  0  0  0  0  0  0  0  0
  181.9234  160.3377  137.9335 C   0  0  0  0  0  0  0  0  0  0  0  0
  182.2865  159.9619  139.3131 C   0  0  0  0  0  0  0  0  0  0  0  0
  183.6037  160.4613  139.7665 C   0  0  0  0  0  0  0  0  0  0  0  0
  184.3127  161.3674  138.8402 C   0  0  1  0  0  0  0  0  0  0  0  0
  178.7420  160.4702  135.8961 C   0  0  0  0  0  0  0  0  0  0  0  0
  178.4264  159.6726  134.7600 N   0  0  0  0  0  0  0  0  0  0  0  0
  177.8401  161.0423  136.5209 O   0  0  0  0  0  0  0  0  0  0  0  0
  1  2  1  1
  2  3  1  0
  4  3  1  1
  4  5  1  0
  5  6  1  0
  6  7  1  0
  7  8  1  0
  7  9  1  0
  7 10  1  0
 10 11  2  0
 10 12  1  0
  4 13  1  0
 13 14  1  6
 13 15  1  0
 15 16  1  0
 17 16  1  6
 17 18  1  0
 18 19  2  0
 19 20  1  0
 20 21  2  0
 21 22  1  0
 22 23  2  0
 23 24  1  0
 24 25  1  0
 26 25  1  1
 21 27  1  0
 27 28  1  0
 27 29  2  0
 13  1  1  0
 26 17  1  0
 26  1  1  0
 12  4  1  0
 23 18  1  0
M  END
$$$$
