
     RDKit          3D

 29 33  0  0  0  0  0  0  0  0999 V2000
  131.6385  137.3243  131.9853 C   0  0  2  0  0  0  0  0  0  0  0  0
  130.2985  137.1594  132.6111 C   0  0  0  0  0  0  0  0  0  0  0  0
  130.6754  136.9266  134.0603 C   0  0  0  0  0  0  0  0  0  0  0  0
  131.9855  137.6998  134.2823 C   0  0  2  0  0  0  0  0  0  0  0  0
  132.9498  136.8300  134.9743 C   0  0  0  0  0  0  0  0  0  0  0  0
  133.7570  137.5703  136.0491 C   0  0  0  0  0  0  0  0  0  0  0  0
  132.8348  138.0689  137.1436 C   0  0  0  0  0  0  0  0  0  0  0  0
  132.4186  136.9491  138.0722 C   0  0  0  0  0  0  0  0  0  0  0  0
  133.5373  139.1523  137.9376 C   0  0  0  0  0  0  0  0  0  0  0  0
  131.6652  138.6800  136.4840 C   0  0  0  0  0  0  0  0  0  0  0  0
  130.7052  139.0979  137.1703 O   0  0  0  0  0  0  0  0  0  0  0  0
  131.6439  138.7841  135.1214 O   0  0  0  0  0  0  0  0  0  0  0  0
  132.3998  138.2376  132.9593 C   0  0  2  0  0  0  0  0  0  0  0  0
  131.8995  139.6571  132.8091 C   0  0  0  0  0  0  0  0  0  0  0  0
  133.8301  138.0719  132.6055 C   0  0  0  0  0  0  0  0  0  0  0  0
  134.0446  138.5862  131.1782 C   0  0  0  0  0  0  0  0  0  0  0  0
  133.0958  137.9923  130.2021 C   0  0  2  0  0  0  0  0  0  0  0  0
  133.1998  138.7301  128.9281 C   0  0  0  0  0  0  0  0  0  0  0  0
  134.3047  139.5031  128.6566 C   0  0  0  0  0  0  0  0  0  0  0  0
  134.3991  140.2018  127.4461 C   0  0  0  0  0  0  0  0  0  0  0  0
  133.3635  140.1030  126.5263 C   0  0  0  0  0  0  0  0  0  0  0  0
  132.2834  139.3244  126.8348 C   0  0  0  0  0  0  0  0  0  0  0  0
  132.1644  138.6209  128.0280 C   0  0  0  0  0  0  0  0  0  0  0  0
  130.9567  137.8075  128.2654 C   0  0  0  0  0  0  0  0  0  0  0  0
  130.7249  137.4382  129.6795 C   0  0  0  0  0  0  0  0  0  0  0  0
  131.6452  138.0340  130.6694 C   0  0  1  0  0  0  0  0  0  0  0  0
  133.4520  140.8347  125.2475 C   0  0  0  0  0  0  0  0  0  0  0  0
  132.2576  140.9716  124.4852 N   0  0  0  0  0  0  0  0  0  0  0  0
  134.5112  141.3201  124.8313 O   0  0  0  0  0  0  0  0  0  0  0  0
  1  2  1  1
  2  3  1  0
  4  3  1  6
  4  5  1  0
  5  6  1  0
  6  7  1  0
  7  8  1  0
  7  9  1  0
  7 10  1  0
 10 11  2  0
 10 12  1  0
  4 13  1  0
 13 14  1  1
 13 15  1  0
 15 16  1  0
 17 16  1  1
 17 18  1  0
 18 19  2  0
 19 20  1  0
 20 21  2  0
 21 22  1  0
 22 23  2  0
 23 24  1  0
 24 25  1  0
 26 25  1  6
 21 27  1  0
 27 28  1  0
 27 29  2  0
 13  1  1  0
 26 17  1  0
 26  1  1  0
 12  4  1  0
 23 18  1  0
M  END
$$$$
