
     RDKit          3D

 29 33  0  0  0  0  0  0  0  0999 V2000
  122.1290  150.8063  151.2016 C   0  0  2  0  0  0  0  0  0  0  0  0
  122.8820  151.4532  152.3102 C   0  0  0  0  0  0  0  0  0  0  0  0
  122.5041  150.5677  153.4805 C   0  0  0  0  0  0  0  0  0  0  0  0
  122.2609  149.1702  152.8878 C   0  0  2  0  0  0  0  0  0  0  0  0
  120.9956  148.6344  153.4143 C   0  0  0  0  0  0  0  0  0  0  0  0
  121.0754  147.1398  153.7530 C   0  0  0  0  0  0  0  0  0  0  0  0
  122.0818  146.9090  154.8625 C   0  0  0  0  0  0  0  0  0  0  0  0
  121.5189  147.2965  156.2124 C   0  0  0  0  0  0  0  0  0  0  0  0
  122.4834  145.4474  154.8803 C   0  0  0  0  0  0  0  0  0  0  0  0
  123.2819  147.7021  154.5350 C   0  0  0  0  0  0  0  0  0  0  0  0
  124.2387  147.7537  155.3405 O   0  0  0  0  0  0  0  0  0  0  0  0
  123.3353  148.3756  153.3469 O   0  0  0  0  0  0  0  0  0  0  0  0
  122.3676  149.3024  151.4105 C   0  0  2  0  0  0  0  0  0  0  0  0
  123.7717  148.9526  150.9698 C   0  0  0  0  0  0  0  0  0  0  0  0
  121.3115  148.6301  150.6163 C   0  0  0  0  0  0  0  0  0  0  0  0
  121.5256  148.9618  149.1358 C   0  0  0  0  0  0  0  0  0  0  0  0
  121.6518  150.4200  148.8836 C   0  0  2  0  0  0  0  0  0  0  0  0
  122.1126  150.6247  147.4965 C   0  0  0  0  0  0  0  0  0  0  0  0
  121.9866  149.6221  146.5632 C   0  0  0  0  0  0  0  0  0  0  0  0
  122.4255  149.8210  145.2478 C   0  0  0  0  0  0  0  0  0  0  0  0
  122.9882  151.0420  144.9005 C   0  0  0  0  0  0  0  0  0  0  0  0
  123.0950  152.0118  145.8576 C   0  0  0  0  0  0  0  0  0  0  0  0
  122.6678  151.8409  147.1695 C   0  0  0  0  0  0  0  0  0  0  0  0
  122.8279  152.9511  148.1278 C   0  0  0  0  0  0  0  0  0  0  0  0
  122.7355  152.5601  149.5521 C   0  0  0  0  0  0  0  0  0  0  0  0
  122.6294  151.1126  149.8264 C   0  0  1  0  0  0  0  0  0  0  0  0
  123.4541  151.2628  143.5175 C   0  0  0  0  0  0  0  0  0  0  0  0
  124.0668  152.5136  143.2227 N   0  0  0  0  0  0  0  0  0  0  0  0
  123.3291  150.4102  142.6297 O   0  0  0  0  0  0  0  0  0  0  0  0
  1  2  1  1
  2  3  1  0
  4  3  1  1
  4  5  1  0
  5  6  1  0
  6  7  1  0
  7  8  1  0
  7  9  1  0
  7 10  1  0
 10 11  2  0
 10 12  1  0
  4 13  1  0
 13 14  1  6
 13 15  1  0
 15 16  1  0
 17 16  1  1
 17 18  1  0
 18 19  2  0
 19 20  1  0
 20 21  2  0
 21 22  1  0
 22 23  2  0
 23 24  1  0
 24 25  1  0
 26 25  1  6
 21 27  1  0
 27 28  1  0
 27 29  2  0
 13  1  1  0
 26 17  1  0
 26  1  1  0
 12  4  1  0
 23 18  1  0
M  END
$$$$
