
     RDKit          3D

 29 33  0  0  0  0  0  0  0  0999 V2000
  166.3137  151.5413  126.8235 C   0  0  2  0  0  0  0  0  0  0  0  0
  167.4283  151.8527  127.7590 C   0  0  0  0  0  0  0  0  0  0  0  0
  167.3872  153.3675  127.7741 C   0  0  0  0  0  0  0  0  0  0  0  0
  165.9177  153.7497  127.5332 C   0  0  2  0  0  0  0  0  0  0  0  0
  165.8522  154.7939  126.4986 C   0  0  0  0  0  0  0  0  0  0  0  0
  164.8117  155.8780  126.8096 C   0  0  0  0  0  0  0  0  0  0  0  0
  165.1904  156.6166  128.0777 C   0  0  0  0  0  0  0  0  0  0  0  0
  166.3081  157.6063  127.8313 C   0  0  0  0  0  0  0  0  0  0  0  0
  163.9756  157.3462  128.6159 C   0  0  0  0  0  0  0  0  0  0  0  0
  165.5840  155.6013  129.0731 C   0  0  0  0  0  0  0  0  0  0  0  0
  166.0254  155.9556  130.1897 O   0  0  0  0  0  0  0  0  0  0  0  0
  165.4604  154.2762  128.7622 O   0  0  0  0  0  0  0  0  0  0  0  0
  165.1823  152.4872  127.2564 C   0  0  2  0  0  0  0  0  0  0  0  0
  164.5603  151.9713  128.5351 C   0  0  0  0  0  0  0  0  0  0  0  0
  164.2434  152.5161  126.1093 C   0  0  0  0  0  0  0  0  0  0  0  0
  163.6636  151.1112  125.9151 C   0  0  0  0  0  0  0  0  0  0  0  0
  164.7109  150.0618  125.8276 C   0  0  2  0  0  0  0  0  0  0  0  0
  164.0649  148.7372  125.9069 C   0  0  0  0  0  0  0  0  0  0  0  0
  162.7196  148.5996  125.6548 C   0  0  0  0  0  0  0  0  0  0  0  0
  162.1107  147.3403  125.7314 C   0  0  0  0  0  0  0  0  0  0  0  0
  162.8830  146.2355  126.0648 C   0  0  0  0  0  0  0  0  0  0  0  0
  164.2159  146.4151  126.3076 C   0  0  0  0  0  0  0  0  0  0  0  0
  164.8451  147.6529  126.2386 C   0  0  0  0  0  0  0  0  0  0  0  0
  166.2908  147.7409  126.5189 C   0  0  0  0  0  0  0  0  0  0  0  0
  166.7827  149.1032  126.8225 C   0  0  0  0  0  0  0  0  0  0  0  0
  165.7555  150.1588  126.9338 C   0  0  1  0  0  0  0  0  0  0  0  0
  162.2522  144.9037  126.1485 C   0  0  0  0  0  0  0  0  0  0  0  0
  163.1099  143.7803  126.3188 N   0  0  0  0  0  0  0  0  0  0  0  0
  161.0276  144.7424  126.0762 O   0  0  0  0  0  0  0  0  0  0  0  0
  1  2  1  1
  2  3  1  0
  4  3  1  1
  4  5  1  0
  5  6  1  0
  6  7  1  0
  7  8  1  0
  7  9  1  0
  7 10  1  0
 10 11  2  0
 10 12  1  0
  4 13  1  0
 13 14  1  1
 13 15  1  0
 15 16  1  0
 17 16  1  1
 17 18  1  0
 18 19  2  0
 19 20  1  0
 20 21  2  0
 21 22  1  0
 22 23  2  0
 23 24  1  0
 24 25  1  0
 26 25  1  6
 21 27  1  0
 27 28  1  0
 27 29  2  0
 13  1  1  0
 26 17  1  0
 26  1  1  0
 12  4  1  0
 23 18  1  0
M  END
$$$$
