
     RDKit          3D

 29 33  0  0  0  0  0  0  0  0999 V2000
  129.4162  146.2275  136.0264 C   0  0  2  0  0  0  0  0  0  0  0  0
  130.3783  145.3344  135.3255 C   0  0  0  0  0  0  0  0  0  0  0  0
  130.2955  144.0839  136.1775 C   0  0  0  0  0  0  0  0  0  0  0  0
  128.8655  144.0541  136.7411 C   0  0  2  0  0  0  0  0  0  0  0  0
  128.9199  143.7803  138.1858 C   0  0  0  0  0  0  0  0  0  0  0  0
  127.8175  142.8207  138.6533 C   0  0  0  0  0  0  0  0  0  0  0  0
  127.9930  141.4652  137.9985 C   0  0  0  0  0  0  0  0  0  0  0  0
  129.1079  140.6748  138.6478 C   0  0  0  0  0  0  0  0  0  0  0  0
  126.6954  140.6880  138.0969 C   0  0  0  0  0  0  0  0  0  0  0  0
  128.2681  141.7037  136.5688 C   0  0  0  0  0  0  0  0  0  0  0  0
  128.5373  140.7427  135.8130 O   0  0  0  0  0  0  0  0  0  0  0  0
  128.2249  142.9804  136.0828 O   0  0  0  0  0  0  0  0  0  0  0  0
  128.2103  145.3226  136.3252 C   0  0  2  0  0  0  0  0  0  0  0  0
  127.4271  145.0955  135.0512 C   0  0  0  0  0  0  0  0  0  0  0  0
  127.4431  146.0361  137.3743 C   0  0  0  0  0  0  0  0  0  0  0  0
  126.9339  147.3597  136.7942 C   0  0  0  0  0  0  0  0  0  0  0  0
  128.0103  148.1652  136.1630 C   0  0  2  0  0  0  0  0  0  0  0  0
  127.3947  149.2765  135.4119 C   0  0  0  0  0  0  0  0  0  0  0  0
  126.1029  149.6679  135.6768 C   0  0  0  0  0  0  0  0  0  0  0  0
  125.5227  150.7233  134.9612 C   0  0  0  0  0  0  0  0  0  0  0  0
  126.2688  151.3670  133.9828 C   0  0  0  0  0  0  0  0  0  0  0  0
  127.5486  150.9474  133.7506 C   0  0  0  0  0  0  0  0  0  0  0  0
  128.1484  149.9034  134.4458 C   0  0  0  0  0  0  0  0  0  0  0  0
  129.5369  149.5268  134.1194 C   0  0  0  0  0  0  0  0  0  0  0  0
  129.9447  148.1861  134.5949 C   0  0  0  0  0  0  0  0  0  0  0  0
  128.8846  147.3602  135.2081 C   0  0  1  0  0  0  0  0  0  0  0  0
  125.6678  152.4803  133.2225 C   0  0  0  0  0  0  0  0  0  0  0  0
  124.3518  152.8866  133.5824 N   0  0  0  0  0  0  0  0  0  0  0  0
  126.2636  153.0553  132.3030 O   0  0  0  0  0  0  0  0  0  0  0  0
  1  2  1  6
  2  3  1  0
  4  3  1  6
  4  5  1  0
  5  6  1  0
  6  7  1  0
  7  8  1  0
  7  9  1  0
  7 10  1  0
 10 11  2  0
 10 12  1  0
  4 13  1  0
 13 14  1  6
 13 15  1  0
 15 16  1  0
 17 16  1  6
 17 18  1  0
 18 19  2  0
 19 20  1  0
 20 21  2  0
 21 22  1  0
 22 23  2  0
 23 24  1  0
 24 25  1  0
 26 25  1  1
 21 27  1  0
 27 28  1  0
 27 29  2  0
 13  1  1  0
 26 17  1  0
 26  1  1  0
 12  4  1  0
 23 18  1  0
M  END
$$$$
