
     RDKit          3D

 29 33  0  0  0  0  0  0  0  0999 V2000
  173.4247  161.8753  113.2537 C   0  0  2  0  0  0  0  0  0  0  0  0
  172.2950  161.0182  113.7047 C   0  0  0  0  0  0  0  0  0  0  0  0
  172.8799  160.3914  114.9543 C   0  0  0  0  0  0  0  0  0  0  0  0
  173.8646  161.4268  115.5215 C   0  0  2  0  0  0  0  0  0  0  0  0
  175.1348  160.7593  115.8475 C   0  0  0  0  0  0  0  0  0  0  0  0
  175.7511  161.2581  117.1613 C   0  0  0  0  0  0  0  0  0  0  0  0
  174.8358  160.9317  118.3244 C   0  0  0  0  0  0  0  0  0  0  0  0
  174.9261  159.4713  118.7095 C   0  0  0  0  0  0  0  0  0  0  0  0
  175.2078  161.7945  119.5139 C   0  0  0  0  0  0  0  0  0  0  0  0
  173.4652  161.2940  117.9160 C   0  0  0  0  0  0  0  0  0  0  0  0
  172.4988  161.0439  118.6714 O   0  0  0  0  0  0  0  0  0  0  0  0
  173.2655  161.9034  116.7091 O   0  0  0  0  0  0  0  0  0  0  0  0
  173.9288  162.5442  114.5424 C   0  0  2  0  0  0  0  0  0  0  0  0
  172.9626  163.6337  114.9516 C   0  0  0  0  0  0  0  0  0  0  0  0
  175.2841  163.0464  114.2119 C   0  0  0  0  0  0  0  0  0  0  0  0
  175.1584  164.1136  113.1196 C   0  0  0  0  0  0  0  0  0  0  0  0
  174.3704  163.6510  111.9488 C   0  0  2  0  0  0  0  0  0  0  0  0
  174.0818  164.8098  111.0817 C   0  0  0  0  0  0  0  0  0  0  0  0
  174.8226  165.9640  111.1883 C   0  0  0  0  0  0  0  0  0  0  0  0
  174.5449  167.0615  110.3632 C   0  0  0  0  0  0  0  0  0  0  0  0
  173.5134  166.9677  109.4383 C   0  0  0  0  0  0  0  0  0  0  0  0
  172.8016  165.8033  109.3643 C   0  0  0  0  0  0  0  0  0  0  0  0
  173.0561  164.6997  110.1706 C   0  0  0  0  0  0  0  0  0  0  0  0
  172.2294  163.4881  110.0123 C   0  0  0  0  0  0  0  0  0  0  0  0
  172.2882  162.5433  111.1498 C   0  0  0  0  0  0  0  0  0  0  0  0
  173.0503  162.9920  112.3328 C   0  0  1  0  0  0  0  0  0  0  0  0
  173.2118  168.1178  108.5637 C   0  0  0  0  0  0  0  0  0  0  0  0
  172.2047  167.9430  107.5729 N   0  0  0  0  0  0  0  0  0  0  0  0
  173.7971  169.2030  108.6668 O   0  0  0  0  0  0  0  0  0  0  0  0
  1  2  1  1
  2  3  1  0
  4  3  1  6
  4  5  1  0
  5  6  1  0
  6  7  1  0
  7  8  1  0
  7  9  1  0
  7 10  1  0
 10 11  2  0
 10 12  1  0
  4 13  1  0
 13 14  1  1
 13 15  1  0
 15 16  1  0
 17 16  1  1
 17 18  1  0
 18 19  2  0
 19 20  1  0
 20 21  2  0
 21 22  1  0
 22 23  2  0
 23 24  1  0
 24 25  1  0
 26 25  1  6
 21 27  1  0
 27 28  1  0
 27 29  2  0
 13  1  1  0
 26 17  1  0
 26  1  1  0
 12  4  1  0
 23 18  1  0
M  END
$$$$
