
     RDKit          3D

 29 33  0  0  0  0  0  0  0  0999 V2000
  173.3324  163.7639  114.4187 C   0  0  2  0  0  0  0  0  0  0  0  0
  173.8150  164.7793  115.3935 C   0  0  0  0  0  0  0  0  0  0  0  0
  173.8905  163.9570  116.6642 C   0  0  0  0  0  0  0  0  0  0  0  0
  174.2045  162.5204  116.2161 C   0  0  2  0  0  0  0  0  0  0  0  0
  173.2948  161.5893  116.9022 C   0  0  0  0  0  0  0  0  0  0  0  0
  173.9916  160.2995  117.3558 C   0  0  0  0  0  0  0  0  0  0  0  0
  175.0615  160.6171  118.3812 C   0  0  0  0  0  0  0  0  0  0  0  0
  174.4612  160.9004  119.7409 C   0  0  0  0  0  0  0  0  0  0  0  0
  176.0218  159.4487  118.4835 C   0  0  0  0  0  0  0  0  0  0  0  0
  175.8178  161.7792  117.8772 C   0  0  0  0  0  0  0  0  0  0  0  0
  176.7121  162.2993  118.5820 O   0  0  0  0  0  0  0  0  0  0  0  0
  175.5312  162.2774  116.6371 O   0  0  0  0  0  0  0  0  0  0  0  0
  174.1712  162.5140  114.7294 C   0  0  2  0  0  0  0  0  0  0  0  0
  175.5713  162.7040  114.1895 C   0  0  0  0  0  0  0  0  0  0  0  0
  173.4386  161.3907  114.0972 C   0  0  0  0  0  0  0  0  0  0  0  0
  173.4222  161.6083  112.5806 C   0  0  0  0  0  0  0  0  0  0  0  0
  172.9326  162.9569  112.1964 C   0  0  2  0  0  0  0  0  0  0  0  0
  173.1976  163.1678  110.7599 C   0  0  0  0  0  0  0  0  0  0  0  0
  173.4406  162.0982  109.9298 C   0  0  0  0  0  0  0  0  0  0  0  0
  173.6918  162.3032  108.5669 C   0  0  0  0  0  0  0  0  0  0  0  0
  173.6918  163.5987  108.0672 C   0  0  0  0  0  0  0  0  0  0  0  0
  173.4458  164.6336  108.9255 C   0  0  0  0  0  0  0  0  0  0  0  0
  173.1938  164.4583  110.2814 C   0  0  0  0  0  0  0  0  0  0  0  0
  172.9396  165.6422  111.1241 C   0  0  0  0  0  0  0  0  0  0  0  0
  173.0883  165.4126  112.5785 C   0  0  0  0  0  0  0  0  0  0  0  0
  173.5930  164.0843  112.9818 C   0  0  1  0  0  0  0  0  0  0  0  0
  173.9551  163.8269  106.6330 C   0  0  0  0  0  0  0  0  0  0  0  0
  174.1128  165.1739  106.2003 N   0  0  0  0  0  0  0  0  0  0  0  0
  174.0403  162.9005  105.8171 O   0  0  0  0  0  0  0  0  0  0  0  0
  1  2  1  1
  2  3  1  0
  4  3  1  1
  4  5  1  0
  5  6  1  0
  6  7  1  0
  7  8  1  0
  7  9  1  0
  7 10  1  0
 10 11  2  0
 10 12  1  0
  4 13  1  0
 13 14  1  6
 13 15  1  0
 15 16  1  0
 17 16  1  1
 17 18  1  0
 18 19  2  0
 19 20  1  0
 20 21  2  0
 21 22  1  0
 22 23  2  0
 23 24  1  0
 24 25  1  0
 26 25  1  6
 21 27  1  0
 27 28  1  0
 27 29  2  0
 13  1  1  0
 26 17  1  0
 26  1  1  0
 12  4  1  0
 23 18  1  0
M  END
$$$$
