
     RDKit          3D

 29 33  0  0  0  0  0  0  0  0999 V2000
  165.8035  152.4255  125.8886 C   0  0  2  0  0  0  0  0  0  0  0  0
  166.3925  153.2614  124.8076 C   0  0  0  0  0  0  0  0  0  0  0  0
  165.6126  154.5503  124.9721 C   0  0  0  0  0  0  0  0  0  0  0  0
  165.2644  154.6420  126.4667 C   0  0  2  0  0  0  0  0  0  0  0  0
  163.8392  154.9782  126.6121 C   0  0  0  0  0  0  0  0  0  0  0  0
  163.5757  155.9858  127.7391 C   0  0  0  0  0  0  0  0  0  0  0  0
  164.2521  157.3059  127.4278 C   0  0  0  0  0  0  0  0  0  0  0  0
  163.4801  158.0953  126.3934 C   0  0  0  0  0  0  0  0  0  0  0  0
  164.3745  158.1200  128.7006 C   0  0  0  0  0  0  0  0  0  0  0  0
  165.6160  156.9971  126.9575 C   0  0  0  0  0  0  0  0  0  0  0  0
  166.3627  157.9162  126.5517 O   0  0  0  0  0  0  0  0  0  0  0  0
  166.0513  155.7016  126.9711 O   0  0  0  0  0  0  0  0  0  0  0  0
  165.7196  153.3736  127.0954 C   0  0  2  0  0  0  0  0  0  0  0  0
  167.1019  153.5640  127.6793 C   0  0  0  0  0  0  0  0  0  0  0  0
  164.7652  152.7275  128.0281 C   0  0  0  0  0  0  0  0  0  0  0  0
  165.3593  151.3930  128.4905 C   0  0  0  0  0  0  0  0  0  0  0  0
  165.7946  150.5327  127.3608 C   0  0  2  0  0  0  0  0  0  0  0  0
  166.5818  149.4054  127.8970 C   0  0  0  0  0  0  0  0  0  0  0  0
  166.4918  149.0596  129.2254 C   0  0  0  0  0  0  0  0  0  0  0  0
  167.2411  147.9889  129.7299 C   0  0  0  0  0  0  0  0  0  0  0  0
  168.0740  147.2832  128.8718 C   0  0  0  0  0  0  0  0  0  0  0  0
  168.1346  147.6589  127.5591 C   0  0  0  0  0  0  0  0  0  0  0  0
  167.4022  148.7169  127.0326 C   0  0  0  0  0  0  0  0  0  0  0  0
  167.5384  149.0427  125.6002 C   0  0  0  0  0  0  0  0  0  0  0  0
  167.0630  150.3923  125.2225 C   0  0  0  0  0  0  0  0  0  0  0  0
  166.6440  151.2717  126.3328 C   0  0  1  0  0  0  0  0  0  0  0  0
  168.8681  146.1532  129.3923 C   0  0  0  0  0  0  0  0  0  0  0  0
  169.1294  145.0706  128.5056 N   0  0  0  0  0  0  0  0  0  0  0  0
  169.3020  146.1233  130.5506 O   0  0  0  0  0  0  0  0  0  0  0  0
  1  2  1  6
  2  3  1  0
  4  3  1  6
  4  5  1  0
  5  6  1  0
  6  7  1  0
  7  8  1  0
  7  9  1  0
  7 10  1  0
 10 11  2  0
 10 12  1  0
  4 13  1  0
 13 14  1  1
 13 15  1  0
 15 16  1  0
 17 16  1  1
 17 18  1  0
 18 19  2  0
 19 20  1  0
 20 21  2  0
 21 22  1  0
 22 23  2  0
 23 24  1  0
 24 25  1  0
 26 25  1  6
 21 27  1  0
 27 28  1  0
 27 29  2  0
 13  1  1  0
 26 17  1  0
 26  1  1  0
 12  4  1  0
 23 18  1  0
M  END
$$$$
