
     RDKit          3D

 29 33  0  0  0  0  0  0  0  0999 V2000
  141.3343  147.4693  131.6497 C   0  0  2  0  0  0  0  0  0  0  0  0
  140.7633  146.8050  132.8526 C   0  0  0  0  0  0  0  0  0  0  0  0
  141.6765  147.3301  133.9420 C   0  0  0  0  0  0  0  0  0  0  0  0
  142.1272  148.7240  133.4758 C   0  0  2  0  0  0  0  0  0  0  0  0
  143.5851  148.8408  133.6374 C   0  0  0  0  0  0  0  0  0  0  0  0
  144.0193  150.2162  134.1614 C   0  0  0  0  0  0  0  0  0  0  0  0
  143.4590  150.4461  135.5507 C   0  0  0  0  0  0  0  0  0  0  0  0
  144.2378  149.6800  136.5976 C   0  0  0  0  0  0  0  0  0  0  0  0
  143.5000  151.9273  135.8701 C   0  0  0  0  0  0  0  0  0  0  0  0
  142.0439  150.0297  135.5250 C   0  0  0  0  0  0  0  0  0  0  0  0
  141.3678  150.0395  136.5785 O   0  0  0  0  0  0  0  0  0  0  0  0
  141.4836  149.6359  134.3422 O   0  0  0  0  0  0  0  0  0  0  0  0
  141.5893  148.9157  132.1027 C   0  0  2  0  0  0  0  0  0  0  0  0
  140.2730  149.6578  132.1723 C   0  0  0  0  0  0  0  0  0  0  0  0
  142.5324  149.4725  131.1034 C   0  0  0  0  0  0  0  0  0  0  0  0
  141.8393  149.4992  129.7372 C   0  0  0  0  0  0  0  0  0  0  0  0
  141.2491  148.1885  129.3638 C   0  0  2  0  0  0  0  0  0  0  0  0
  140.3896  148.3741  128.1785 C   0  0  0  0  0  0  0  0  0  0  0  0
  140.5297  149.4861  127.3810 C   0  0  0  0  0  0  0  0  0  0  0  0
  139.7115  149.6581  126.2570 C   0  0  0  0  0  0  0  0  0  0  0  0
  138.7592  148.6921  125.9601 C   0  0  0  0  0  0  0  0  0  0  0  0
  138.6523  147.6023  126.7779 C   0  0  0  0  0  0  0  0  0  0  0  0
  139.4511  147.4069  127.8990 C   0  0  0  0  0  0  0  0  0  0  0  0
  139.2565  146.1953  128.7178 C   0  0  0  0  0  0  0  0  0  0  0  0
  139.8386  146.2641  130.0766 C   0  0  0  0  0  0  0  0  0  0  0  0
  140.4133  147.5649  130.4759 C   0  0  1  0  0  0  0  0  0  0  0  0
  137.8915  148.8627  124.7783 C   0  0  0  0  0  0  0  0  0  0  0  0
  136.9444  147.8356  124.5052 N   0  0  0  0  0  0  0  0  0  0  0  0
  137.9643  149.8509  124.0373 O   0  0  0  0  0  0  0  0  0  0  0  0
  1  2  1  1
  2  3  1  0
  4  3  1  1
  4  5  1  0
  5  6  1  0
  6  7  1  0
  7  8  1  0
  7  9  1  0
  7 10  1  0
 10 11  2  0
 10 12  1  0
  4 13  1  0
 13 14  1  1
 13 15  1  0
 15 16  1  0
 17 16  1  1
 17 18  1  0
 18 19  2  0
 19 20  1  0
 20 21  2  0
 21 22  1  0
 22 23  2  0
 23 24  1  0
 24 25  1  0
 26 25  1  6
 21 27  1  0
 27 28  1  0
 27 29  2  0
 13  1  1  0
 26 17  1  0
 26  1  1  0
 12  4  1  0
 23 18  1  0
M  END
$$$$
