
     RDKit          3D

 29 33  0  0  0  0  0  0  0  0999 V2000
  187.9028  154.8505  127.2336 C   0  0  2  0  0  0  0  0  0  0  0  0
  187.5359  155.0404  128.6632 C   0  0  0  0  0  0  0  0  0  0  0  0
  187.1242  153.6347  129.0520 C   0  0  0  0  0  0  0  0  0  0  0  0
  187.9629  152.6934  128.1723 C   0  0  2  0  0  0  0  0  0  0  0  0
  187.0842  151.6714  127.5818 C   0  0  0  0  0  0  0  0  0  0  0  0
  187.7226  150.2762  127.5594 C   0  0  0  0  0  0  0  0  0  0  0  0
  187.9753  149.7949  128.9741 C   0  0  0  0  0  0  0  0  0  0  0  0
  186.6999  149.3203  129.6355 C   0  0  0  0  0  0  0  0  0  0  0  0
  188.9846  148.6643  128.9473 C   0  0  0  0  0  0  0  0  0  0  0  0
  188.5772  150.9189  129.7164 C   0  0  0  0  0  0  0  0  0  0  0  0
  188.8075  150.8095  130.9420 O   0  0  0  0  0  0  0  0  0  0  0  0
  188.8791  152.0745  129.0520 O   0  0  0  0  0  0  0  0  0  0  0  0
  188.7227  153.5506  127.2239 C   0  0  2  0  0  0  0  0  0  0  0  0
  190.1021  153.8247  127.7810 C   0  0  0  0  0  0  0  0  0  0  0  0
  188.7312  153.1102  125.8082 C   0  0  0  0  0  0  0  0  0  0  0  0
  189.4666  154.1626  124.9720 C   0  0  0  0  0  0  0  0  0  0  0  0
  188.9461  155.5370  125.1866 C   0  0  2  0  0  0  0  0  0  0  0  0
  189.8699  156.4996  124.5556 C   0  0  0  0  0  0  0  0  0  0  0  0
  190.7642  156.0840  123.5966 C   0  0  0  0  0  0  0  0  0  0  0  0
  191.6392  157.0012  123.0005 C   0  0  0  0  0  0  0  0  0  0  0  0
  191.5910  158.3329  123.3907 C   0  0  0  0  0  0  0  0  0  0  0  0
  190.6879  158.7047  124.3468 C   0  0  0  0  0  0  0  0  0  0  0  0
  189.8085  157.8155  124.9542 C   0  0  0  0  0  0  0  0  0  0  0  0
  188.8710  158.3174  125.9767 C   0  0  0  0  0  0  0  0  0  0  0  0
  188.2789  157.2733  126.8423 C   0  0  0  0  0  0  0  0  0  0  0  0
  188.7969  155.9021  126.6592 C   0  0  1  0  0  0  0  0  0  0  0  0
  192.5082  159.3083  122.7695 C   0  0  0  0  0  0  0  0  0  0  0  0
  192.3138  160.6836  123.0815 N   0  0  0  0  0  0  0  0  0  0  0  0
  193.4192  158.9699  122.0036 O   0  0  0  0  0  0  0  0  0  0  0  0
  1  2  1  1
  2  3  1  0
  4  3  1  1
  4  5  1  0
  5  6  1  0
  6  7  1  0
  7  8  1  0
  7  9  1  0
  7 10  1  0
 10 11  2  0
 10 12  1  0
  4 13  1  0
 13 14  1  1
 13 15  1  0
 15 16  1  0
 17 16  1  1
 17 18  1  0
 18 19  2  0
 19 20  1  0
 20 21  2  0
 21 22  1  0
 22 23  2  0
 23 24  1  0
 24 25  1  0
 26 25  1  6
 21 27  1  0
 27 28  1  0
 27 29  2  0
 13  1  1  0
 26 17  1  0
 26  1  1  0
 12  4  1  0
 23 18  1  0
M  END
$$$$
