
     RDKit          3D

 29 33  0  0  0  0  0  0  0  0999 V2000
  147.7745  173.3547  151.8794 C   0  0  2  0  0  0  0  0  0  0  0  0
  148.8386  172.9184  150.9350 C   0  0  0  0  0  0  0  0  0  0  0  0
  149.1695  174.2232  150.2390 C   0  0  0  0  0  0  0  0  0  0  0  0
  148.9008  175.3296  151.2721 C   0  0  2  0  0  0  0  0  0  0  0  0
  148.1076  176.3974  150.6429 C   0  0  0  0  0  0  0  0  0  0  0  0
  148.5582  177.8026  151.0639 C   0  0  0  0  0  0  0  0  0  0  0  0
  149.9790  178.0557  150.6012 C   0  0  0  0  0  0  0  0  0  0  0  0
  150.0347  178.3627  149.1207 C   0  0  0  0  0  0  0  0  0  0  0  0
  150.5626  179.2160  151.3828 C   0  0  0  0  0  0  0  0  0  0  0  0
  150.7656  176.8512  150.9282 C   0  0  0  0  0  0  0  0  0  0  0  0
  151.9627  176.7678  150.5717 O   0  0  0  0  0  0  0  0  0  0  0  0
  150.1736  175.8333  151.6222 O   0  0  0  0  0  0  0  0  0  0  0  0
  148.3076  174.6713  152.4663 C   0  0  2  0  0  0  0  0  0  0  0  0
  149.3963  174.3667  153.4713 C   0  0  0  0  0  0  0  0  0  0  0  0
  147.1228  175.3375  153.0585 C   0  0  0  0  0  0  0  0  0  0  0  0
  146.5922  174.4673  154.2026 C   0  0  0  0  0  0  0  0  0  0  0  0
  146.3673  173.0561  153.7978 C   0  0  2  0  0  0  0  0  0  0  0  0
  146.1149  172.2487  155.0072 C   0  0  0  0  0  0  0  0  0  0  0  0
  145.7355  172.8522  156.1836 C   0  0  0  0  0  0  0  0  0  0  0  0
  145.4972  172.0818  157.3291 C   0  0  0  0  0  0  0  0  0  0  0  0
  145.6492  170.7033  157.2599 C   0  0  0  0  0  0  0  0  0  0  0  0
  146.0276  170.1431  156.0721 C   0  0  0  0  0  0  0  0  0  0  0  0
  146.2704  170.8839  154.9209 C   0  0  0  0  0  0  0  0  0  0  0  0
  146.6747  170.1832  153.6873 C   0  0  0  0  0  0  0  0  0  0  0  0
  147.2961  171.0462  152.6582 C   0  0  0  0  0  0  0  0  0  0  0  0
  147.5470  172.4490  153.0469 C   0  0  1  0  0  0  0  0  0  0  0  0
  145.4009  169.8814  158.4605 C   0  0  0  0  0  0  0  0  0  0  0  0
  145.5827  168.4744  158.3424 N   0  0  0  0  0  0  0  0  0  0  0  0
  145.0475  170.3715  159.5403 O   0  0  0  0  0  0  0  0  0  0  0  0
  1  2  1  6
  2  3  1  0
  4  3  1  6
  4  5  1  0
  5  6  1  0
  6  7  1  0
  7  8  1  0
  7  9  1  0
  7 10  1  0
 10 11  2  0
 10 12  1  0
  4 13  1  0
 13 14  1  1
 13 15  1  0
 15 16  1  0
 17 16  1  1
 17 18  1  0
 18 19  2  0
 19 20  1  0
 20 21  2  0
 21 22  1  0
 22 23  2  0
 23 24  1  0
 24 25  1  0
 26 25  1  6
 21 27  1  0
 27 28  1  0
 27 29  2  0
 13  1  1  0
 26 17  1  0
 26  1  1  0
 12  4  1  0
 23 18  1  0
M  END
$$$$
