
     RDKit          3D

 29 33  0  0  0  0  0  0  0  0999 V2000
  189.0164  161.0442  122.4523 C   0  0  2  0  0  0  0  0  0  0  0  0
  187.7174  160.3291  122.5767 C   0  0  0  0  0  0  0  0  0  0  0  0
  186.7900  161.4649  122.9592 C   0  0  0  0  0  0  0  0  0  0  0  0
  187.3761  162.7247  122.3014 C   0  0  2  0  0  0  0  0  0  0  0  0
  187.4239  163.8111  123.2927 C   0  0  0  0  0  0  0  0  0  0  0  0
  187.0272  165.1723  122.7059 C   0  0  0  0  0  0  0  0  0  0  0  0
  185.5853  165.1400  122.2404 C   0  0  0  0  0  0  0  0  0  0  0  0
  184.6235  165.2389  123.4043 C   0  0  0  0  0  0  0  0  0  0  0  0
  185.3412  166.2880  121.2811 C   0  0  0  0  0  0  0  0  0  0  0  0
  185.3956  163.8813  121.4946 C   0  0  0  0  0  0  0  0  0  0  0  0
  184.2599  163.5679  121.0714 O   0  0  0  0  0  0  0  0  0  0  0  0
  186.4704  163.0668  121.2722 O   0  0  0  0  0  0  0  0  0  0  0  0
  188.6683  162.3277  121.6818 C   0  0  2  0  0  0  0  0  0  0  0  0
  188.4499  161.9921  120.2231 C   0  0  0  0  0  0  0  0  0  0  0  0
  189.8128  163.2407  121.9158 C   0  0  0  0  0  0  0  0  0  0  0  0
  191.0694  162.6199  121.2966 C   0  0  0  0  0  0  0  0  0  0  0  0
  191.2982  161.2199  121.7365 C   0  0  2  0  0  0  0  0  0  0  0  0
  192.3598  160.6261  120.9008 C   0  0  0  0  0  0  0  0  0  0  0  0
  193.2180  161.4294  120.1862 C   0  0  0  0  0  0  0  0  0  0  0  0
  194.2241  160.8612  119.3941 C   0  0  0  0  0  0  0  0  0  0  0  0
  194.3423  159.4787  119.3408 C   0  0  0  0  0  0  0  0  0  0  0  0
  193.4697  158.7166  120.0658 C   0  0  0  0  0  0  0  0  0  0  0  0
  192.4628  159.2543  120.8595 C   0  0  0  0  0  0  0  0  0  0  0  0
  191.5715  158.3445  121.6040 C   0  0  0  0  0  0  0  0  0  0  0  0
  190.3111  158.9592  122.0767 C   0  0  0  0  0  0  0  0  0  0  0  0
  190.0541  160.3448  121.6342 C   0  0  1  0  0  0  0  0  0  0  0  0
  195.3986  158.8689  118.5096 C   0  0  0  0  0  0  0  0  0  0  0  0
  195.5994  157.4646  118.6287 N   0  0  0  0  0  0  0  0  0  0  0  0
  196.0968  159.5303  117.7311 O   0  0  0  0  0  0  0  0  0  0  0  0
  1  2  1  6
  2  3  1  0
  4  3  1  1
  4  5  1  0
  5  6  1  0
  6  7  1  0
  7  8  1  0
  7  9  1  0
  7 10  1  0
 10 11  2  0
 10 12  1  0
  4 13  1  0
 13 14  1  6
 13 15  1  0
 15 16  1  0
 17 16  1  6
 17 18  1  0
 18 19  2  0
 19 20  1  0
 20 21  2  0
 21 22  1  0
 22 23  2  0
 23 24  1  0
 24 25  1  0
 26 25  1  1
 21 27  1  0
 27 28  1  0
 27 29  2  0
 13  1  1  0
 26 17  1  0
 26  1  1  0
 12  4  1  0
 23 18  1  0
M  END
$$$$
