
     RDKit          3D

 29 33  0  0  0  0  0  0  0  0999 V2000
  131.0576  170.4604  142.8959 C   0  0  2  0  0  0  0  0  0  0  0  0
  131.3944  170.2967  141.4557 C   0  0  0  0  0  0  0  0  0  0  0  0
  131.6515  171.7331  141.0470 C   0  0  0  0  0  0  0  0  0  0  0  0
  132.1887  172.4371  142.3037 C   0  0  2  0  0  0  0  0  0  0  0  0
  131.4738  173.7098  142.4887 C   0  0  0  0  0  0  0  0  0  0  0  0
  132.3940  174.8506  142.9431 C   0  0  0  0  0  0  0  0  0  0  0  0
  133.4292  175.1431  141.8756 C   0  0  0  0  0  0  0  0  0  0  0  0
  132.8366  175.9318  140.7284 C   0  0  0  0  0  0  0  0  0  0  0  0
  134.5764  175.9218  142.4881 C   0  0  0  0  0  0  0  0  0  0  0  0
  133.9601  173.8457  141.4155 C   0  0  0  0  0  0  0  0  0  0  0  0
  134.7771  173.8026  140.4680 O   0  0  0  0  0  0  0  0  0  0  0  0
  133.5511  172.6978  142.0344 O   0  0  0  0  0  0  0  0  0  0  0  0
  132.1060  171.4556  143.4178 C   0  0  2  0  0  0  0  0  0  0  0  0
  133.4344  170.7487  143.5712 C   0  0  0  0  0  0  0  0  0  0  0  0
  131.5529  171.9636  144.6962 C   0  0  0  0  0  0  0  0  0  0  0  0
  131.4479  170.7962  145.6830 C   0  0  0  0  0  0  0  0  0  0  0  0
  130.7242  169.6279  145.1198 C   0  0  2  0  0  0  0  0  0  0  0  0
  130.9002  168.4769  146.0266 C   0  0  0  0  0  0  0  0  0  0  0  0
  131.2923  168.6687  147.3311 C   0  0  0  0  0  0  0  0  0  0  0  0
  131.4582  167.5731  148.1882 C   0  0  0  0  0  0  0  0  0  0  0  0
  131.2218  166.2937  147.7031 C   0  0  0  0  0  0  0  0  0  0  0  0
  130.8337  166.1465  146.4009 C   0  0  0  0  0  0  0  0  0  0  0  0
  130.6617  167.2159  145.5293 C   0  0  0  0  0  0  0  0  0  0  0  0
  130.2397  166.9507  144.1408 C   0  0  0  0  0  0  0  0  0  0  0  0
  130.4749  168.0657  143.1967 C   0  0  0  0  0  0  0  0  0  0  0  0
  131.2107  169.2297  143.7309 C   0  0  1  0  0  0  0  0  0  0  0  0
  131.3934  165.1318  148.5970 C   0  0  0  0  0  0  0  0  0  0  0  0
  130.9756  163.8611  148.1100 N   0  0  0  0  0  0  0  0  0  0  0  0
  131.8789  165.2313  149.7307 O   0  0  0  0  0  0  0  0  0  0  0  0
  1  2  1  6
  2  3  1  0
  4  3  1  6
  4  5  1  0
  5  6  1  0
  6  7  1  0
  7  8  1  0
  7  9  1  0
  7 10  1  0
 10 11  2  0
 10 12  1  0
  4 13  1  0
 13 14  1  1
 13 15  1  0
 15 16  1  0
 17 16  1  1
 17 18  1  0
 18 19  2  0
 19 20  1  0
 20 21  2  0
 21 22  1  0
 22 23  2  0
 23 24  1  0
 24 25  1  0
 26 25  1  6
 21 27  1  0
 27 28  1  0
 27 29  2  0
 13  1  1  0
 26 17  1  0
 26  1  1  0
 12  4  1  0
 23 18  1  0
M  END
$$$$
