
     RDKit          3D

 29 33  0  0  0  0  0  0  0  0999 V2000
  171.7516  163.1088  112.5310 C   0  0  2  0  0  0  0  0  0  0  0  0
  170.3769  162.5439  112.6051 C   0  0  0  0  0  0  0  0  0  0  0  0
  169.5414  163.7473  112.2170 C   0  0  0  0  0  0  0  0  0  0  0  0
  170.4178  164.5770  111.2648 C   0  0  2  0  0  0  0  0  0  0  0  0
  170.3808  165.9885  111.6789 C   0  0  0  0  0  0  0  0  0  0  0  0
  170.3052  166.9571  110.4911 C   0  0  0  0  0  0  0  0  0  0  0  0
  169.0132  166.7467  109.7272 C   0  0  0  0  0  0  0  0  0  0  0  0
  167.8351  167.3654  110.4473 C   0  0  0  0  0  0  0  0  0  0  0  0
  169.1414  167.3568  108.3456 C   0  0  0  0  0  0  0  0  0  0  0  0
  168.8358  165.2914  109.5625 C   0  0  0  0  0  0  0  0  0  0  0  0
  167.7939  164.8423  109.0336 O   0  0  0  0  0  0  0  0  0  0  0  0
  169.8189  164.4445  109.9920 O   0  0  0  0  0  0  0  0  0  0  0  0
  171.7542  163.9256  111.2291 C   0  0  2  0  0  0  0  0  0  0  0  0
  171.8284  162.9840  110.0476 C   0  0  0  0  0  0  0  0  0  0  0  0
  172.9245  164.8288  111.3426 C   0  0  0  0  0  0  0  0  0  0  0  0
  174.1975  163.9775  111.3925 C   0  0  0  0  0  0  0  0  0  0  0  0
  174.1391  162.9121  112.4257 C   0  0  2  0  0  0  0  0  0  0  0  0
  175.2760  161.9926  112.2256 C   0  0  0  0  0  0  0  0  0  0  0  0
  176.3691  162.3832  111.4876 C   0  0  0  0  0  0  0  0  0  0  0  0
  177.4458  161.5069  111.3003 C   0  0  0  0  0  0  0  0  0  0  0  0
  177.3939  160.2412  111.8690 C   0  0  0  0  0  0  0  0  0  0  0  0
  176.2897  159.8924  112.5950 C   0  0  0  0  0  0  0  0  0  0  0  0
  175.2079  160.7420  112.7964 C   0  0  0  0  0  0  0  0  0  0  0  0
  174.0623  160.2697  113.5969 C   0  0  0  0  0  0  0  0  0  0  0  0
  172.8179  161.0510  113.4213 C   0  0  0  0  0  0  0  0  0  0  0  0
  172.8478  162.1027  112.3847 C   0  0  1  0  0  0  0  0  0  0  0  0
  178.5226  159.3094  111.6784 C   0  0  0  0  0  0  0  0  0  0  0  0
  178.2119  157.9375  111.4598 N   0  0  0  0  0  0  0  0  0  0  0  0
  179.7027  159.6807  111.7030 O   0  0  0  0  0  0  0  0  0  0  0  0
  1  2  1  6
  2  3  1  0
  4  3  1  1
  4  5  1  0
  5  6  1  0
  6  7  1  0
  7  8  1  0
  7  9  1  0
  7 10  1  0
 10 11  2  0
 10 12  1  0
  4 13  1  0
 13 14  1  6
 13 15  1  0
 15 16  1  0
 17 16  1  6
 17 18  1  0
 18 19  2  0
 19 20  1  0
 20 21  2  0
 21 22  1  0
 22 23  2  0
 23 24  1  0
 24 25  1  0
 26 25  1  1
 21 27  1  0
 27 28  1  0
 27 29  2  0
 13  1  1  0
 26 17  1  0
 26  1  1  0
 12  4  1  0
 23 18  1  0
M  END
$$$$
