
     RDKit          3D

 57 64  0  0  0  0  0  0  0  0999 V2000
  189.0804  157.9919  125.2666 C   0  0  1  0  0  0  0  0  0  0  0  0
  187.9102  157.6407  124.3492 C   0  0  0  0  0  0  0  0  0  0  0  0
  188.3951  158.0684  122.9547 C   0  0  0  0  0  0  0  0  0  0  0  0
  189.1395  159.3418  123.3177 C   0  0  2  0  0  0  0  0  0  0  0  0
  188.2450  160.3220  123.7554 O   0  0  0  0  0  0  0  0  0  0  0  0
  189.9754  159.9031  122.2333 C   0  0  2  0  0  0  0  0  0  0  0  0
  189.1437  160.2976  121.0180 C   0  0  0  0  0  0  0  0  0  0  0  0
  189.9980  161.2085  120.1629 C   0  0  0  0  0  0  0  0  0  0  0  0
  191.2773  160.5290  119.7333 C   0  0  2  0  0  0  0  0  0  0  0  0
  190.9287  159.4660  118.7431 C   0  0  0  0  0  0  0  0  0  0  0  0
  192.1298  158.6989  118.2416 C   0  0  2  0  0  0  0  0  0  0  0  0
  192.8980  158.1932  119.4158 C   0  0  0  0  0  0  0  0  0  0  0  0
  193.2261  159.2125  120.4495 C   0  0  0  0  0  0  0  0  0  0  0  0
  192.0173  159.9819  120.9374 C   0  0  1  0  0  0  0  0  0  0  0  0
  192.5231  161.1507  121.7312 C   0  0  0  0  0  0  0  0  0  0  0  0
  191.0995  159.0726  121.7567 C   0  0  1  0  0  0  0  0  0  0  0  0
  191.9124  158.4389  122.8492 C   0  0  0  0  0  0  0  0  0  0  0  0
  191.1190  157.9494  123.9941 C   0  0  0  0  0  0  0  0  0  0  0  0
  189.9889  158.8577  124.4522 C   0  0  2  0  0  0  0  0  0  0  0  0
  190.5464  160.0325  125.2428 C   0  0  0  0  0  0  0  0  0  0  0  0
  192.8697  159.5081  117.3810 O   0  0  0  0  0  0  0  0  0  0  0  0
  192.5058  159.3532  116.0697 C   0  0  1  0  0  0  0  0  0  0  0  0
  193.3716  160.1463  115.0911 C   0  0  0  0  0  0  0  0  0  0  0  0
  192.6216  160.0534  113.7620 C   0  0  2  0  0  0  0  0  0  0  0  0
  191.3358  160.5617  113.8846 O   0  0  0  0  0  0  0  0  0  0  0  0
  192.4832  158.5819  113.3937 C   0  0  2  0  0  0  0  0  0  0  0  0
  191.5992  158.4624  112.3238 O   0  0  0  0  0  0  0  0  0  0  0  0
  191.1061  159.6850  111.8725 C   0  0  1  0  0  0  0  0  0  0  0  0
  191.4077  159.9001  110.4050 C   0  0  0  0  0  0  0  0  0  0  0  0
  190.0861  159.9821  109.6714 C   0  0  2  0  0  0  0  0  0  0  0  0
  190.2544  160.1270  108.3040 O   0  0  0  0  0  0  0  0  0  0  0  0
  189.3257  161.1514  110.2810 C   0  0  2  0  0  0  0  0  0  0  0  0
  190.1293  162.2691  110.1359 O   0  0  0  0  0  0  0  0  0  0  0  0
  189.6956  163.1352  109.1422 C   0  0  1  0  0  0  0  0  0  0  0  0
  188.8409  164.2545  109.6442 C   0  0  0  0  0  0  0  0  0  0  0  0
  188.7816  165.3249  108.5758 C   0  0  2  0  0  0  0  0  0  0  0  0
  188.1557  164.8509  107.3995 O   0  0  0  0  0  0  0  0  0  0  0  0
  187.4379  165.6955  106.5665 C   0  0  0  0  0  0  0  0  0  0  0  0
  186.1552  166.3195  106.9922 C   0  0  0  0  0  0  0  0  0  0  0  0
  187.9041  165.9279  105.4191 O   0  0  0  0  0  0  0  0  0  0  0  0
  190.1280  165.8502  108.2016 C   0  0  2  0  0  0  0  0  0  0  0  0
  190.1965  166.2794  106.8792 O   0  0  0  0  0  0  0  0  0  0  0  0
  191.1746  164.8103  108.5157 C   0  0  1  0  0  0  0  0  0  0  0  0
  191.6883  165.0432  109.9135 C   0  0  0  0  0  0  0  0  0  0  0  0
  190.7648  163.5166  108.3861 O   0  0  0  0  0  0  0  0  0  0  0  0
  189.0622  160.7921  111.7208 C   0  0  1  0  0  0  0  0  0  0  0  0
  187.5675  160.4556  111.8323 C   0  0  0  0  0  0  0  0  0  0  0  0
  189.7407  159.6708  112.1309 O   0  0  0  0  0  0  0  0  0  0  0  0
  191.8458  157.8456  114.5532 C   0  0  1  0  0  0  0  0  0  0  0  0
  191.7231  156.3745  114.2647 C   0  0  0  0  0  0  0  0  0  0  0  0
  192.6168  158.0234  115.7002 O   0  0  0  0  0  0  0  0  0  0  0  0
  188.5919  158.5971  126.5361 C   0  0  0  0  0  0  0  0  0  0  0  0
  187.3078  158.8385  126.7349 C   0  0  0  0  0  0  0  0  0  0  0  0
  187.1363  159.4300  128.0509 C   0  0  0  0  0  0  0  0  0  0  0  0
  186.0408  159.7968  128.5967 O   0  0  0  0  0  0  0  0  0  0  0  0
  188.3843  159.5282  128.6190 O   0  0  0  0  0  0  0  0  0  0  0  0
  189.3410  159.0116  127.7244 C   0  0  0  0  0  0  0  0  0  0  0  0
  1  2  1  0
  2  3  1  0
  3  4  1  0
  4  5  1  1
  4  6  1  0
  6  7  1  6
  7  8  1  0
  9  8  1  1
  9 10  1  0
 10 11  1  0
 11 12  1  0
 12 13  1  0
 13 14  1  0
 14 15  1  1
 14 16  1  0
 16 17  1  1
 17 18  1  0
 18 19  1  0
 19 20  1  1
 11 21  1  1
 22 21  1  1
 22 23  1  0
 23 24  1  0
 24 25  1  1
 24 26  1  0
 26 27  1  6
 28 27  1  6
 28 29  1  0
 29 30  1  0
 30 31  1  6
 30 32  1  0
 32 33  1  1
 34 33  1  1
 34 35  1  0
 35 36  1  0
 36 37  1  6
 37 38  1  0
 38 39  1  0
 38 40  2  0
 36 41  1  0
 41 42  1  6
 41 43  1  0
 43 44  1  1
 43 45  1  0
 32 46  1  0
 46 47  1  6
 46 48  1  0
 26 49  1  0
 49 50  1  6
 49 51  1  0
  1 52  1  1
 52 53  2  0
 53 54  1  0
 54 55  2  0
 54 56  1  0
 56 57  1  0
 19  1  1  0
 51 22  1  0
 57 52  1  0
 19  4  1  0
 48 28  1  0
 16  6  1  0
 45 34  1  0
 14  9  1  0
M  END
$$$$
