
     RDKit          3D

 57 64  0  0  0  0  0  0  0  0999 V2000
  166.9120  152.2801  135.4804 C   0  0  1  0  0  0  0  0  0  0  0  0
  167.7447  153.3299  134.7464 C   0  0  0  0  0  0  0  0  0  0  0  0
  168.1045  152.6494  133.4160 C   0  0  0  0  0  0  0  0  0  0  0  0
  168.3411  151.2310  133.9053 C   0  0  2  0  0  0  0  0  0  0  0  0
  169.4813  151.1766  134.7112 O   0  0  0  0  0  0  0  0  0  0  0  0
  168.4599  150.2164  132.8346 C   0  0  2  0  0  0  0  0  0  0  0  0
  169.6463  150.4912  131.9175 C   0  0  0  0  0  0  0  0  0  0  0  0
  169.9196  149.2215  131.1403 C   0  0  0  0  0  0  0  0  0  0  0  0
  168.7148  148.7917  130.3363 C   0  0  2  0  0  0  0  0  0  0  0  0
  168.5304  149.7661  129.2190 C   0  0  0  0  0  0  0  0  0  0  0  0
  167.3414  149.4516  128.3414 C   0  0  2  0  0  0  0  0  0  0  0  0
  166.1361  149.2994  129.2066 C   0  0  0  0  0  0  0  0  0  0  0  0
  166.2926  148.3715  130.3597 C   0  0  0  0  0  0  0  0  0  0  0  0
  167.4923  148.6895  131.2263 C   0  0  1  0  0  0  0  0  0  0  0  0
  167.6969  147.5242  132.1495 C   0  0  0  0  0  0  0  0  0  0  0  0
  167.2739  150.0018  131.9814 C   0  0  1  0  0  0  0  0  0  0  0  0
  165.9762  149.9068  132.7316 C   0  0  0  0  0  0  0  0  0  0  0  0
  165.8588  150.8421  133.8680 C   0  0  0  0  0  0  0  0  0  0  0  0
  167.1062  151.0052  134.7219 C   0  0  2  0  0  0  0  0  0  0  0  0
  167.2805  149.7992  135.6338 C   0  0  0  0  0  0  0  0  0  0  0  0
  167.6266  148.3345  127.5581 O   0  0  0  0  0  0  0  0  0  0  0  0
  166.7794  148.2108  126.4891 C   0  0  1  0  0  0  0  0  0  0  0  0
  166.8672  146.8568  125.7855 C   0  0  0  0  0  0  0  0  0  0  0  0
  166.0732  147.0502  124.4933 C   0  0  2  0  0  0  0  0  0  0  0  0
  166.6025  148.0890  123.7400 O   0  0  0  0  0  0  0  0  0  0  0  0
  164.6507  147.4504  124.8622 C   0  0  2  0  0  0  0  0  0  0  0  0
  163.9830  147.8665  123.7126 O   0  0  0  0  0  0  0  0  0  0  0  0
  164.0322  146.9372  122.6756 C   0  0  1  0  0  0  0  0  0  0  0  0
  164.0653  145.5178  123.2001 C   0  0  0  0  0  0  0  0  0  0  0  0
  162.8098  144.8213  122.7205 C   0  0  2  0  0  0  0  0  0  0  0  0
  162.7183  143.5226  123.1939 O   0  0  0  0  0  0  0  0  0  0  0  0
  162.8408  144.8745  121.1995 C   0  0  2  0  0  0  0  0  0  0  0  0
  164.0187  144.2651  120.8028 O   0  0  0  0  0  0  0  0  0  0  0  0
  163.9929  143.8170  119.4897 C   0  0  1  0  0  0  0  0  0  0  0  0
  164.6450  144.7480  118.5184 C   0  0  0  0  0  0  0  0  0  0  0  0
  164.9172  143.9874  117.2385 C   0  0  2  0  0  0  0  0  0  0  0  0
  163.7180  143.5572  116.6246 O   0  0  0  0  0  0  0  0  0  0  0  0
  162.8502  144.4519  116.0172 C   0  0  0  0  0  0  0  0  0  0  0  0
  163.3223  145.7411  115.4419 C   0  0  0  0  0  0  0  0  0  0  0  0
  161.6295  144.1440  115.9617 O   0  0  0  0  0  0  0  0  0  0  0  0
  165.7841  142.7896  117.4454 C   0  0  2  0  0  0  0  0  0  0  0  0
  165.5236  141.7661  116.5386 O   0  0  0  0  0  0  0  0  0  0  0  0
  165.6617  142.3257  118.8755 C   0  0  1  0  0  0  0  0  0  0  0  0
  166.7301  142.9983  119.6987 C   0  0  0  0  0  0  0  0  0  0  0  0
  164.4422  142.5298  119.4496 O   0  0  0  0  0  0  0  0  0  0  0  0
  162.7667  146.3302  120.8164 C   0  0  1  0  0  0  0  0  0  0  0  0
  161.3551  146.5768  120.2631 C   0  0  0  0  0  0  0  0  0  0  0  0
  162.9144  147.1788  121.8860 O   0  0  0  0  0  0  0  0  0  0  0  0
  164.7038  148.6540  125.7795 C   0  0  1  0  0  0  0  0  0  0  0  0
  163.3254  149.0701  126.2148 C   0  0  0  0  0  0  0  0  0  0  0  0
  165.4662  148.3501  126.9055 O   0  0  0  0  0  0  0  0  0  0  0  0
  167.2817  152.2271  136.9216 C   0  0  0  0  0  0  0  0  0  0  0  0
  166.5210  152.7824  137.8489 C   0  0  0  0  0  0  0  0  0  0  0  0
  167.1339  152.5747  139.1497 C   0  0  0  0  0  0  0  0  0  0  0  0
  166.6921  152.9645  140.2834 O   0  0  0  0  0  0  0  0  0  0  0  0
  168.2967  151.8707  138.9443 O   0  0  0  0  0  0  0  0  0  0  0  0
  168.4422  151.6105  137.5682 C   0  0  0  0  0  0  0  0  0  0  0  0
  1  2  1  0
  2  3  1  0
  3  4  1  0
  4  5  1  1
  4  6  1  0
  6  7  1  6
  7  8  1  0
  9  8  1  1
  9 10  1  0
 10 11  1  0
 11 12  1  0
 12 13  1  0
 13 14  1  0
 14 15  1  1
 14 16  1  0
 16 17  1  1
 17 18  1  0
 18 19  1  0
 19 20  1  1
 11 21  1  1
 22 21  1  1
 22 23  1  0
 23 24  1  0
 24 25  1  6
 24 26  1  0
 26 27  1  6
 28 27  1  1
 28 29  1  0
 29 30  1  0
 30 31  1  6
 30 32  1  0
 32 33  1  1
 34 33  1  1
 34 35  1  0
 35 36  1  0
 36 37  1  1
 37 38  1  0
 38 39  1  0
 38 40  2  0
 36 41  1  0
 41 42  1  6
 41 43  1  0
 43 44  1  1
 43 45  1  0
 32 46  1  0
 46 47  1  1
 46 48  1  0
 26 49  1  0
 49 50  1  1
 49 51  1  0
  1 52  1  1
 52 53  2  0
 53 54  1  0
 54 55  2  0
 54 56  1  0
 56 57  1  0
 19  1  1  0
 51 22  1  0
 57 52  1  0
 19  4  1  0
 48 28  1  0
 16  6  1  0
 45 34  1  0
 14  9  1  0
M  END
$$$$
