
     RDKit          3D

 57 64  0  0  0  0  0  0  0  0999 V2000
  198.4642  135.6090  132.0331 C   0  0  1  0  0  0  0  0  0  0  0  0
  199.1817  135.4304  130.6962 C   0  0  0  0  0  0  0  0  0  0  0  0
  200.5684  134.8980  131.0912 C   0  0  0  0  0  0  0  0  0  0  0  0
  200.8122  135.7158  132.3479 C   0  0  2  0  0  0  0  0  0  0  0  0
  200.9714  137.0666  132.0278 O   0  0  0  0  0  0  0  0  0  0  0  0
  201.9671  135.2748  133.1614 C   0  0  2  0  0  0  0  0  0  0  0  0
  203.2798  135.3814  132.3934 C   0  0  0  0  0  0  0  0  0  0  0  0
  204.4024  135.3072  133.4058 C   0  0  0  0  0  0  0  0  0  0  0  0
  204.3529  134.0212  134.1974 C   0  0  2  0  0  0  0  0  0  0  0  0
  204.7281  132.8995  133.2849 C   0  0  0  0  0  0  0  0  0  0  0  0
  204.7048  131.5473  133.9586 C   0  0  2  0  0  0  0  0  0  0  0  0
  203.3790  131.3643  134.6168 C   0  0  0  0  0  0  0  0  0  0  0  0
  202.9462  132.4818  135.4994 C   0  0  0  0  0  0  0  0  0  0  0  0
  202.9830  133.8328  134.8177 C   0  0  1  0  0  0  0  0  0  0  0  0
  202.8184  134.8753  135.8844 C   0  0  0  0  0  0  0  0  0  0  0  0
  201.8971  133.9196  133.7436 C   0  0  1  0  0  0  0  0  0  0  0  0
  200.5773  133.5806  134.3752 C   0  0  0  0  0  0  0  0  0  0  0  0
  199.4013  134.0860  133.6392 C   0  0  0  0  0  0  0  0  0  0  0  0
  199.5255  135.4951  133.0815 C   0  0  2  0  0  0  0  0  0  0  0  0
  199.3627  136.5181  134.1965 C   0  0  0  0  0  0  0  0  0  0  0  0
  205.7915  131.4430  134.8253 O   0  0  0  0  0  0  0  0  0  0  0  0
  206.9314  131.0234  134.1924 C   0  0  1  0  0  0  0  0  0  0  0  0
  208.1265  130.8440  135.1281 C   0  0  0  0  0  0  0  0  0  0  0  0
  209.3184  130.6614  134.1880 C   0  0  2  0  0  0  0  0  0  0  0  0
  209.4507  131.7533  133.3414 O   0  0  0  0  0  0  0  0  0  0  0  0
  209.0506  129.4477  133.3075 C   0  0  2  0  0  0  0  0  0  0  0  0
  209.9991  129.4076  132.2881 O   0  0  0  0  0  0  0  0  0  0  0  0
  211.1140  130.2056  132.5361 C   0  0  1  0  0  0  0  0  0  0  0  0
  211.1312  131.4310  131.6479 C   0  0  0  0  0  0  0  0  0  0  0  0
  211.0323  132.6482  132.5423 C   0  0  2  0  0  0  0  0  0  0  0  0
  210.9872  133.8280  131.8177 O   0  0  0  0  0  0  0  0  0  0  0  0
  212.2333  132.5965  133.4762 C   0  0  2  0  0  0  0  0  0  0  0  0
  213.3613  132.5674  132.6744 O   0  0  0  0  0  0  0  0  0  0  0  0
  213.9475  133.8132  132.5015 C   0  0  1  0  0  0  0  0  0  0  0  0
  213.7415  134.7453  133.6522 C   0  0  0  0  0  0  0  0  0  0  0  0
  214.7414  135.8755  133.5350 C   0  0  2  0  0  0  0  0  0  0  0  0
  214.5248  136.6418  132.3663 O   0  0  0  0  0  0  0  0  0  0  0  0
  213.8070  137.8276  132.3966 C   0  0  0  0  0  0  0  0  0  0  0  0
  213.3708  138.4527  133.6752 C   0  0  0  0  0  0  0  0  0  0  0  0
  213.5267  138.3753  131.2969 O   0  0  0  0  0  0  0  0  0  0  0  0
  216.1571  135.4020  133.5197 C   0  0  2  0  0  0  0  0  0  0  0  0
  217.0009  136.2327  132.7877 O   0  0  0  0  0  0  0  0  0  0  0  0
  216.2013  133.9755  133.0311 C   0  0  1  0  0  0  0  0  0  0  0  0
  216.1105  133.0512  134.2183 C   0  0  0  0  0  0  0  0  0  0  0  0
  215.2453  133.6451  132.1171 O   0  0  0  0  0  0  0  0  0  0  0  0
  212.0718  131.3579  134.3197 C   0  0  1  0  0  0  0  0  0  0  0  0
  211.6722  131.8237  135.7278 C   0  0  0  0  0  0  0  0  0  0  0  0
  211.0613  130.5360  133.8849 O   0  0  0  0  0  0  0  0  0  0  0  0
  207.7080  129.6225  132.6294 C   0  0  1  0  0  0  0  0  0  0  0  0
  207.3672  128.4306  131.7775 C   0  0  0  0  0  0  0  0  0  0  0  0
  206.7164  129.7937  133.5933 O   0  0  0  0  0  0  0  0  0  0  0  0
  197.6863  136.8783  132.0488 C   0  0  0  0  0  0  0  0  0  0  0  0
  196.8513  137.1867  131.0717 C   0  0  0  0  0  0  0  0  0  0  0  0
  196.2449  138.4757  131.3576 C   0  0  0  0  0  0  0  0  0  0  0  0
  195.3871  139.1010  130.6465 O   0  0  0  0  0  0  0  0  0  0  0  0
  196.7656  138.9149  132.5516 O   0  0  0  0  0  0  0  0  0  0  0  0
  197.6680  137.9527  133.0439 C   0  0  0  0  0  0  0  0  0  0  0  0
  1  2  1  0
  2  3  1  0
  3  4  1  0
  4  5  1  6
  4  6  1  0
  6  7  1  6
  7  8  1  0
  9  8  1  6
  9 10  1  0
 10 11  1  0
 11 12  1  0
 12 13  1  0
 13 14  1  0
 14 15  1  1
 14 16  1  0
 16 17  1  1
 17 18  1  0
 18 19  1  0
 19 20  1  1
 11 21  1  1
 22 21  1  1
 22 23  1  0
 23 24  1  0
 24 25  1  6
 24 26  1  0
 26 27  1  6
 28 27  1  6
 28 29  1  0
 29 30  1  0
 30 31  1  6
 30 32  1  0
 32 33  1  6
 34 33  1  1
 34 35  1  0
 35 36  1  0
 36 37  1  6
 37 38  1  0
 38 39  1  0
 38 40  2  0
 36 41  1  0
 41 42  1  6
 41 43  1  0
 43 44  1  1
 43 45  1  0
 32 46  1  0
 46 47  1  1
 46 48  1  0
 26 49  1  0
 49 50  1  1
 49 51  1  0
  1 52  1  6
 52 53  2  0
 53 54  1  0
 54 55  2  0
 54 56  1  0
 56 57  1  0
 19  1  1  0
 51 22  1  0
 57 52  1  0
 19  4  1  0
 48 28  1  0
 16  6  1  0
 45 34  1  0
 14  9  1  0
M  END
$$$$
