
     RDKit          3D

 57 64  0  0  0  0  0  0  0  0999 V2000
  165.0663  158.6422  122.8027 C   0  0  1  0  0  0  0  0  0  0  0  0
  165.6071  157.6575  121.7673 C   0  0  0  0  0  0  0  0  0  0  0  0
  165.6434  156.3170  122.5184 C   0  0  0  0  0  0  0  0  0  0  0  0
  166.0897  156.7987  123.8881 C   0  0  2  0  0  0  0  0  0  0  0  0
  167.4038  157.2706  123.8351 O   0  0  0  0  0  0  0  0  0  0  0  0
  165.9838  155.7903  124.9660 C   0  0  2  0  0  0  0  0  0  0  0  0
  166.8650  154.5752  124.6988 C   0  0  0  0  0  0  0  0  0  0  0  0
  167.0016  153.8210  126.0039 C   0  0  0  0  0  0  0  0  0  0  0  0
  165.6562  153.3936  126.5424 C   0  0  2  0  0  0  0  0  0  0  0  0
  165.1215  152.3172  125.6551 C   0  0  0  0  0  0  0  0  0  0  0  0
  163.7646  151.8087  126.0828 C   0  0  2  0  0  0  0  0  0  0  0  0
  162.8437  152.9724  126.2322 C   0  0  0  0  0  0  0  0  0  0  0  0
  163.3582  154.0883  127.0720 C   0  0  0  0  0  0  0  0  0  0  0  0
  164.7223  154.5831  126.6411 C   0  0  1  0  0  0  0  0  0  0  0  0
  165.2370  155.4774  127.7307 C   0  0  0  0  0  0  0  0  0  0  0  0
  164.6300  155.2991  125.2924 C   0  0  1  0  0  0  0  0  0  0  0  0
  163.5862  156.3740  125.3967 C   0  0  0  0  0  0  0  0  0  0  0  0
  163.7157  157.4495  124.3934 C   0  0  0  0  0  0  0  0  0  0  0  0
  165.1321  157.9275  124.1154 C   0  0  2  0  0  0  0  0  0  0  0  0
  165.6171  158.8211  125.2478 C   0  0  0  0  0  0  0  0  0  0  0  0
  163.9015  151.0374  127.2357 O   0  0  0  0  0  0  0  0  0  0  0  0
  163.6828  149.7049  127.0068 C   0  0  1  0  0  0  0  0  0  0  0  0
  163.7142  148.8480  128.2721 C   0  0  0  0  0  0  0  0  0  0  0  0
  163.7372  147.4097  127.7540 C   0  0  2  0  0  0  0  0  0  0  0  0
  164.8335  147.2002  126.9289 O   0  0  0  0  0  0  0  0  0  0  0  0
  162.4934  147.1887  126.9031 C   0  0  2  0  0  0  0  0  0  0  0  0
  162.6147  145.9768  126.2271 O   0  0  0  0  0  0  0  0  0  0  0  0
  162.4913  144.8641  127.0567 C   0  0  1  0  0  0  0  0  0  0  0  0
  162.0851  143.6310  126.2786 C   0  0  0  0  0  0  0  0  0  0  0  0
  163.2074  142.6222  126.3977 C   0  0  2  0  0  0  0  0  0  0  0  0
  162.9545  141.4697  125.6718 O   0  0  0  0  0  0  0  0  0  0  0  0
  163.3755  142.3367  127.8834 C   0  0  2  0  0  0  0  0  0  0  0  0
  162.1507  141.8852  128.3441 O   0  0  0  0  0  0  0  0  0  0  0  0
  162.2479  140.7777  129.1746 C   0  0  1  0  0  0  0  0  0  0  0  0
  162.2324  141.1098  130.6323 C   0  0  0  0  0  0  0  0  0  0  0  0
  161.9303  139.8445  131.4061 C   0  0  2  0  0  0  0  0  0  0  0  0
  162.9465  138.8758  131.2354 O   0  0  0  0  0  0  0  0  0  0  0  0
  163.0884  137.8088  132.1093 C   0  0  0  0  0  0  0  0  0  0  0  0
  162.0433  137.4669  133.1126 C   0  0  0  0  0  0  0  0  0  0  0  0
  164.1418  137.1214  132.0341 O   0  0  0  0  0  0  0  0  0  0  0  0
  160.6300  139.2211  131.0192 C   0  0  2  0  0  0  0  0  0  0  0  0
  160.6243  137.8371  131.1684 O   0  0  0  0  0  0  0  0  0  0  0  0
  160.2725  139.6422  129.6155 C   0  0  1  0  0  0  0  0  0  0  0  0
  159.4306  140.8907  129.6812 C   0  0  0  0  0  0  0  0  0  0  0  0
  161.3325  139.8456  128.7828 O   0  0  0  0  0  0  0  0  0  0  0  0
  163.8119  143.6288  128.5250 C   0  0  1  0  0  0  0  0  0  0  0  0
  165.3002  143.4759  128.8732 C   0  0  0  0  0  0  0  0  0  0  0  0
  163.7230  144.7084  127.6810 O   0  0  0  0  0  0  0  0  0  0  0  0
  162.4327  148.2631  125.8378 C   0  0  1  0  0  0  0  0  0  0  0  0
  161.1978  148.1228  124.9905 C   0  0  0  0  0  0  0  0  0  0  0  0
  162.4329  149.5194  126.4405 O   0  0  0  0  0  0  0  0  0  0  0  0
  165.8074  159.9320  122.7413 C   0  0  0  0  0  0  0  0  0  0  0  0
  165.1891  161.0898  122.8964 C   0  0  0  0  0  0  0  0  0  0  0  0
  166.1612  162.1637  122.7828 C   0  0  0  0  0  0  0  0  0  0  0  0
  165.9413  163.4186  122.8780 O   0  0  0  0  0  0  0  0  0  0  0  0
  167.3850  161.5822  122.5501 O   0  0  0  0  0  0  0  0  0  0  0  0
  167.2339  160.1825  122.5242 C   0  0  0  0  0  0  0  0  0  0  0  0
  1  2  1  0
  2  3  1  0
  3  4  1  0
  4  5  1  6
  4  6  1  0
  6  7  1  6
  7  8  1  0
  9  8  1  6
  9 10  1  0
 10 11  1  0
 11 12  1  0
 12 13  1  0
 13 14  1  0
 14 15  1  1
 14 16  1  0
 16 17  1  1
 17 18  1  0
 18 19  1  0
 19 20  1  1
 11 21  1  1
 22 21  1  1
 22 23  1  0
 23 24  1  0
 24 25  1  6
 24 26  1  0
 26 27  1  6
 28 27  1  6
 28 29  1  0
 29 30  1  0
 30 31  1  6
 30 32  1  0
 32 33  1  1
 34 33  1  6
 34 35  1  0
 35 36  1  0
 36 37  1  6
 37 38  1  0
 38 39  1  0
 38 40  2  0
 36 41  1  0
 41 42  1  6
 41 43  1  0
 43 44  1  1
 43 45  1  0
 32 46  1  0
 46 47  1  6
 46 48  1  0
 26 49  1  0
 49 50  1  1
 49 51  1  0
  1 52  1  1
 52 53  2  0
 53 54  1  0
 54 55  2  0
 54 56  1  0
 56 57  1  0
 19  1  1  0
 51 22  1  0
 57 52  1  0
 19  4  1  0
 48 28  1  0
 16  6  1  0
 45 34  1  0
 14  9  1  0
M  END
$$$$
