
     RDKit          3D

 57 64  0  0  0  0  0  0  0  0999 V2000
  178.9569  146.7360  125.9469 C   0  0  1  0  0  0  0  0  0  0  0  0
  178.6405  145.8502  124.7430 C   0  0  0  0  0  0  0  0  0  0  0  0
  177.1384  145.5576  124.8864 C   0  0  0  0  0  0  0  0  0  0  0  0
  177.0465  145.4044  126.3948 C   0  0  2  0  0  0  0  0  0  0  0  0
  177.7258  144.2564  126.8110 O   0  0  0  0  0  0  0  0  0  0  0  0
  175.6682  145.3693  126.9327 C   0  0  2  0  0  0  0  0  0  0  0  0
  174.8758  144.1835  126.3940 C   0  0  0  0  0  0  0  0  0  0  0  0
  173.6667  144.0057  127.2869 C   0  0  0  0  0  0  0  0  0  0  0  0
  172.8089  145.2491  127.3153 C   0  0  2  0  0  0  0  0  0  0  0  0
  172.1503  145.3895  125.9818 C   0  0  0  0  0  0  0  0  0  0  0  0
  171.2674  146.6110  125.8765 C   0  0  2  0  0  0  0  0  0  0  0  0
  172.0587  147.8087  126.2812 C   0  0  0  0  0  0  0  0  0  0  0  0
  172.7692  147.6925  127.5838 C   0  0  0  0  0  0  0  0  0  0  0  0
  173.6428  146.4603  127.6823 C   0  0  1  0  0  0  0  0  0  0  0  0
  174.0491  146.3153  129.1196 C   0  0  0  0  0  0  0  0  0  0  0  0
  174.8454  146.5810  126.7445 C   0  0  1  0  0  0  0  0  0  0  0  0
  175.5557  147.8691  127.0478 C   0  0  0  0  0  0  0  0  0  0  0  0
  176.9648  147.9068  126.6083 C   0  0  0  0  0  0  0  0  0  0  0  0
  177.7663  146.6371  126.8475 C   0  0  2  0  0  0  0  0  0  0  0  0
  178.1479  146.5252  128.3165 C   0  0  0  0  0  0  0  0  0  0  0  0
  170.1097  146.4116  126.6268 O   0  0  0  0  0  0  0  0  0  0  0  0
  168.9683  146.5890  125.8909 C   0  0  1  0  0  0  0  0  0  0  0  0
  167.7639  145.8130  126.4233 C   0  0  0  0  0  0  0  0  0  0  0  0
  166.7190  145.9286  125.3131 C   0  0  2  0  0  0  0  0  0  0  0  0
  167.2094  145.4181  124.1191 O   0  0  0  0  0  0  0  0  0  0  0  0
  166.4326  147.4062  125.0789 C   0  0  2  0  0  0  0  0  0  0  0  0
  165.6754  147.5439  123.9178 O   0  0  0  0  0  0  0  0  0  0  0  0
  164.4626  148.1991  124.1209 C   0  0  1  0  0  0  0  0  0  0  0  0
  163.2863  147.3220  123.7496 C   0  0  0  0  0  0  0  0  0  0  0  0
  162.4755  147.0846  125.0056 C   0  0  2  0  0  0  0  0  0  0  0  0
  161.3974  146.2440  124.7817 O   0  0  0  0  0  0  0  0  0  0  0  0
  162.0382  148.4552  125.5027 C   0  0  2  0  0  0  0  0  0  0  0  0
  161.3312  149.0473  124.4704 O   0  0  0  0  0  0  0  0  0  0  0  0
  160.2860  148.2660  123.9984 C   0  0  1  0  0  0  0  0  0  0  0  0
  159.1302  148.1656  124.9414 C   0  0  0  0  0  0  0  0  0  0  0  0
  157.9299  147.6580  124.1718 C   0  0  2  0  0  0  0  0  0  0  0  0
  158.1455  146.3514  123.6754 O   0  0  0  0  0  0  0  0  0  0  0  0
  157.1431  145.6440  123.0294 C   0  0  0  0  0  0  0  0  0  0  0  0
  155.8066  146.2407  122.7578 C   0  0  0  0  0  0  0  0  0  0  0  0
  157.3929  144.4623  122.6703 O   0  0  0  0  0  0  0  0  0  0  0  0
  157.5632  148.5338  123.0197 C   0  0  2  0  0  0  0  0  0  0  0  0
  156.9762  147.8340  121.9693 O   0  0  0  0  0  0  0  0  0  0  0  0
  158.7783  149.3098  122.5759 C   0  0  1  0  0  0  0  0  0  0  0  0
  158.8120  150.6245  123.3122 C   0  0  0  0  0  0  0  0  0  0  0  0
  159.9686  148.6642  122.7330 O   0  0  0  0  0  0  0  0  0  0  0  0
  163.2944  149.2035  125.8681 C   0  0  1  0  0  0  0  0  0  0  0  0
  163.3536  149.2577  127.4021 C   0  0  0  0  0  0  0  0  0  0  0  0
  164.4408  148.5663  125.4610 O   0  0  0  0  0  0  0  0  0  0  0  0
  167.7410  148.1223  124.8181 C   0  0  1  0  0  0  0  0  0  0  0  0
  167.5262  149.5982  124.6225 C   0  0  0  0  0  0  0  0  0  0  0  0
  168.6044  147.9249  125.8938 O   0  0  0  0  0  0  0  0  0  0  0  0
  180.2555  146.3460  126.5618 C   0  0  0  0  0  0  0  0  0  0  0  0
  181.4050  146.5893  125.9566 C   0  0  0  0  0  0  0  0  0  0  0  0
  182.4902  146.0963  126.7875 C   0  0  0  0  0  0  0  0  0  0  0  0
  183.7420  146.1526  126.5377 O   0  0  0  0  0  0  0  0  0  0  0  0
  181.9239  145.5469  127.9133 O   0  0  0  0  0  0  0  0  0  0  0  0
  180.5243  145.6819  127.8392 C   0  0  0  0  0  0  0  0  0  0  0  0
  1  2  1  0
  2  3  1  0
  3  4  1  0
  4  5  1  1
  4  6  1  0
  6  7  1  6
  7  8  1  0
  9  8  1  6
  9 10  1  0
 10 11  1  0
 11 12  1  0
 12 13  1  0
 13 14  1  0
 14 15  1  1
 14 16  1  0
 16 17  1  1
 17 18  1  0
 18 19  1  0
 19 20  1  1
 11 21  1  1
 22 21  1  1
 22 23  1  0
 23 24  1  0
 24 25  1  6
 24 26  1  0
 26 27  1  6
 28 27  1  1
 28 29  1  0
 29 30  1  0
 30 31  1  6
 30 32  1  0
 32 33  1  6
 34 33  1  1
 34 35  1  0
 35 36  1  0
 36 37  1  6
 37 38  1  0
 38 39  1  0
 38 40  2  0
 36 41  1  0
 41 42  1  6
 41 43  1  0
 43 44  1  1
 43 45  1  0
 32 46  1  0
 46 47  1  1
 46 48  1  0
 26 49  1  0
 49 50  1  1
 49 51  1  0
  1 52  1  1
 52 53  2  0
 53 54  1  0
 54 55  2  0
 54 56  1  0
 56 57  1  0
 19  1  1  0
 51 22  1  0
 57 52  1  0
 19  4  1  0
 48 28  1  0
 16  6  1  0
 45 34  1  0
 14  9  1  0
M  END
$$$$
