
     RDKit          3D

 57 64  0  0  0  0  0  0  0  0999 V2000
  129.6716  151.5434  135.1361 C   0  0  1  0  0  0  0  0  0  0  0  0
  128.3312  151.9430  135.7508 C   0  0  0  0  0  0  0  0  0  0  0  0
  127.6071  150.6030  135.9569 C   0  0  0  0  0  0  0  0  0  0  0  0
  128.0444  149.8751  134.6975 C   0  0  2  0  0  0  0  0  0  0  0  0
  127.4798  150.4726  133.5676 O   0  0  0  0  0  0  0  0  0  0  0  0
  127.7389  148.4272  134.6792 C   0  0  2  0  0  0  0  0  0  0  0  0
  126.2401  148.1594  134.7566 C   0  0  0  0  0  0  0  0  0  0  0  0
  126.0150  146.7254  134.3280 C   0  0  0  0  0  0  0  0  0  0  0  0
  126.7736  145.7574  135.2056 C   0  0  2  0  0  0  0  0  0  0  0  0
  126.1284  145.7483  136.5529 C   0  0  0  0  0  0  0  0  0  0  0  0
  126.8065  144.8212  137.5344 C   0  0  2  0  0  0  0  0  0  0  0  0
  128.2617  145.1457  137.5709 C   0  0  0  0  0  0  0  0  0  0  0  0
  128.9336  145.2103  136.2444 C   0  0  0  0  0  0  0  0  0  0  0  0
  128.2404  146.1340  135.2659 C   0  0  1  0  0  0  0  0  0  0  0  0
  128.8333  145.8753  133.9118 C   0  0  0  0  0  0  0  0  0  0  0  0
  128.3970  147.5914  135.7034 C   0  0  1  0  0  0  0  0  0  0  0  0
  129.8597  147.8751  135.8927 C   0  0  0  0  0  0  0  0  0  0  0  0
  130.2175  149.3059  135.8237 C   0  0  0  0  0  0  0  0  0  0  0  0
  129.5229  150.1096  134.7356 C   0  0  2  0  0  0  0  0  0  0  0  0
  130.1478  149.8097  133.3807 C   0  0  0  0  0  0  0  0  0  0  0  0
  126.5247  143.4994  137.1932 O   0  0  0  0  0  0  0  0  0  0  0  0
  126.4769  142.6728  138.2842 C   0  0  1  0  0  0  0  0  0  0  0  0
  125.1024  142.0495  138.5264 C   0  0  0  0  0  0  0  0  0  0  0  0
  125.2120  141.4211  139.9159 C   0  0  2  0  0  0  0  0  0  0  0  0
  125.5498  142.3767  140.8642 O   0  0  0  0  0  0  0  0  0  0  0  0
  126.3438  140.4019  139.8911 C   0  0  2  0  0  0  0  0  0  0  0  0
  126.6206  139.9984  141.1954 O   0  0  0  0  0  0  0  0  0  0  0  0
  126.0759  138.7576  141.5196 C   0  0  1  0  0  0  0  0  0  0  0  0
  126.9011  138.0436  142.5685 C   0  0  0  0  0  0  0  0  0  0  0  0
  126.0339  137.8726  143.7973 C   0  0  2  0  0  0  0  0  0  0  0  0
  126.7181  137.2718  144.8414 O   0  0  0  0  0  0  0  0  0  0  0  0
  124.8243  137.0573  143.3623 C   0  0  2  0  0  0  0  0  0  0  0  0
  125.3099  135.8723  142.8369 O   0  0  0  0  0  0  0  0  0  0  0  0
  124.6672  134.7458  143.3305 C   0  0  1  0  0  0  0  0  0  0  0  0
  123.4124  134.3938  142.5980 C   0  0  0  0  0  0  0  0  0  0  0  0
  123.0437  132.9668  142.9425 C   0  0  2  0  0  0  0  0  0  0  0  0
  122.7478  132.8242  144.3181 O   0  0  0  0  0  0  0  0  0  0  0  0
  121.4814  132.4687  144.7567 C   0  0  0  0  0  0  0  0  0  0  0  0
  121.2643  131.3527  145.7176 C   0  0  0  0  0  0  0  0  0  0  0  0
  120.4994  133.1237  144.3157 O   0  0  0  0  0  0  0  0  0  0  0  0
  124.1172  131.9881  142.5983 C   0  0  2  0  0  0  0  0  0  0  0  0
  124.1312  130.8780  143.4381 O   0  0  0  0  0  0  0  0  0  0  0  0
  125.4488  132.6965  142.5717 C   0  0  1  0  0  0  0  0  0  0  0  0
  125.7137  133.1827  141.1699 C   0  0  0  0  0  0  0  0  0  0  0  0
  125.5727  133.7326  143.4489 O   0  0  0  0  0  0  0  0  0  0  0  0
  124.0798  137.8935  142.3533 C   0  0  1  0  0  0  0  0  0  0  0  0
  122.8111  138.4102  143.0482 C   0  0  0  0  0  0  0  0  0  0  0  0
  124.7786  139.0054  141.9518 O   0  0  0  0  0  0  0  0  0  0  0  0
  127.5993  141.0781  139.3820 C   0  0  1  0  0  0  0  0  0  0  0  0
  128.7447  140.1071  139.2932 C   0  0  0  0  0  0  0  0  0  0  0  0
  127.3601  141.6190  138.1204 O   0  0  0  0  0  0  0  0  0  0  0  0
  130.0473  152.4762  134.0383 C   0  0  0  0  0  0  0  0  0  0  0  0
  130.5851  153.6568  134.2911 C   0  0  0  0  0  0  0  0  0  0  0  0
  130.8383  154.3398  133.0340 C   0  0  0  0  0  0  0  0  0  0  0  0
  131.3517  155.4988  132.8737 O   0  0  0  0  0  0  0  0  0  0  0  0
  130.4207  153.5043  132.0253 O   0  0  0  0  0  0  0  0  0  0  0  0
  129.9246  152.3128  132.5880 C   0  0  0  0  0  0  0  0  0  0  0  0
  1  2  1  0
  2  3  1  0
  3  4  1  0
  4  5  1  6
  4  6  1  0
  6  7  1  1
  7  8  1  0
  9  8  1  6
  9 10  1  0
 10 11  1  0
 11 12  1  0
 12 13  1  0
 13 14  1  0
 14 15  1  6
 14 16  1  0
 16 17  1  6
 17 18  1  0
 18 19  1  0
 19 20  1  6
 11 21  1  6
 22 21  1  6
 22 23  1  0
 23 24  1  0
 24 25  1  1
 24 26  1  0
 26 27  1  1
 28 27  1  1
 28 29  1  0
 29 30  1  0
 30 31  1  1
 30 32  1  0
 32 33  1  6
 34 33  1  6
 34 35  1  0
 35 36  1  0
 36 37  1  1
 37 38  1  0
 38 39  1  0
 38 40  2  0
 36 41  1  0
 41 42  1  1
 41 43  1  0
 43 44  1  6
 43 45  1  0
 32 46  1  0
 46 47  1  1
 46 48  1  0
 26 49  1  0
 49 50  1  6
 49 51  1  0
  1 52  1  6
 52 53  2  0
 53 54  1  0
 54 55  2  0
 54 56  1  0
 56 57  1  0
 19  1  1  0
 51 22  1  0
 57 52  1  0
 19  4  1  0
 48 28  1  0
 16  6  1  0
 45 34  1  0
 14  9  1  0
M  END
$$$$
