
     RDKit          3D

 57 64  0  0  0  0  0  0  0  0999 V2000
  176.9866  149.6278  128.1565 C   0  0  1  0  0  0  0  0  0  0  0  0
  176.5926  149.8954  126.7048 C   0  0  0  0  0  0  0  0  0  0  0  0
  176.3204  148.4948  126.1334 C   0  0  0  0  0  0  0  0  0  0  0  0
  177.4218  147.7124  126.8277 C   0  0  2  0  0  0  0  0  0  0  0  0
  178.6751  148.1084  126.3533 O   0  0  0  0  0  0  0  0  0  0  0  0
  177.3065  146.2416  126.7121 C   0  0  2  0  0  0  0  0  0  0  0  0
  177.3827  145.7757  125.2624 C   0  0  0  0  0  0  0  0  0  0  0  0
  177.6635  144.2885  125.2805 C   0  0  0  0  0  0  0  0  0  0  0  0
  176.5913  143.5294  126.0268 C   0  0  2  0  0  0  0  0  0  0  0  0
  175.3418  143.5656  125.2088 C   0  0  0  0  0  0  0  0  0  0  0  0
  174.1820  142.8459  125.8565 C   0  0  2  0  0  0  0  0  0  0  0  0
  174.0056  143.3730  127.2405 C   0  0  0  0  0  0  0  0  0  0  0  0
  175.2378  143.3975  128.0749 C   0  0  0  0  0  0  0  0  0  0  0  0
  176.3962  144.1119  127.4123 C   0  0  1  0  0  0  0  0  0  0  0  0
  177.6272  143.8040  128.2136 C   0  0  0  0  0  0  0  0  0  0  0  0
  176.1178  145.6134  127.3229 C   0  0  1  0  0  0  0  0  0  0  0  0
  175.7851  146.1167  128.6983 C   0  0  0  0  0  0  0  0  0  0  0  0
  175.9780  147.5693  128.8794 C   0  0  0  0  0  0  0  0  0  0  0  0
  177.2303  148.1543  128.2457 C   0  0  2  0  0  0  0  0  0  0  0  0
  178.4533  147.8103  129.0836 C   0  0  0  0  0  0  0  0  0  0  0  0
  174.3969  141.4702  125.7927 O   0  0  0  0  0  0  0  0  0  0  0  0
  174.7849  141.0550  124.5466 C   0  0  1  0  0  0  0  0  0  0  0  0
  176.2654  140.6872  124.4518 C   0  0  0  0  0  0  0  0  0  0  0  0
  176.5229  140.5401  122.9519 C   0  0  2  0  0  0  0  0  0  0  0  0
  176.2109  141.7141  122.2803 O   0  0  0  0  0  0  0  0  0  0  0  0
  175.5945  139.4602  122.4116 C   0  0  2  0  0  0  0  0  0  0  0  0
  175.6364  139.4797  121.0194 O   0  0  0  0  0  0  0  0  0  0  0  0
  174.7842  140.4248  120.4519 C   0  0  1  0  0  0  0  0  0  0  0  0
  174.2009  141.3492  121.4989 C   0  0  0  0  0  0  0  0  0  0  0  0
  174.6861  142.7507  121.1960 C   0  0  2  0  0  0  0  0  0  0  0  0
  174.2472  143.6708  122.1340 O   0  0  0  0  0  0  0  0  0  0  0  0
  174.1947  143.0843  119.7944 C   0  0  2  0  0  0  0  0  0  0  0  0
  172.8173  142.9484  119.8116 O   0  0  0  0  0  0  0  0  0  0  0  0
  172.1474  144.0541  119.3074 C   0  0  1  0  0  0  0  0  0  0  0  0
  170.9966  143.7117  118.4166 C   0  0  0  0  0  0  0  0  0  0  0  0
  170.1224  144.9391  118.2743 C   0  0  2  0  0  0  0  0  0  0  0  0
  170.8112  145.9964  117.6358 O   0  0  0  0  0  0  0  0  0  0  0  0
  171.1214  145.9517  116.2851 C   0  0  0  0  0  0  0  0  0  0  0  0
  170.5392  144.9267  115.3761 C   0  0  0  0  0  0  0  0  0  0  0  0
  171.9222  146.8143  115.8353 O   0  0  0  0  0  0  0  0  0  0  0  0
  169.6115  145.4457  119.5824 C   0  0  2  0  0  0  0  0  0  0  0  0
  169.4061  146.8224  119.5901 O   0  0  0  0  0  0  0  0  0  0  0  0
  170.5403  145.0043  120.6860 C   0  0  1  0  0  0  0  0  0  0  0  0
  170.0568  143.6846  121.2306 C   0  0  0  0  0  0  0  0  0  0  0  0
  171.8534  144.9029  120.3338 O   0  0  0  0  0  0  0  0  0  0  0  0
  174.8751  142.1201  118.8570 C   0  0  1  0  0  0  0  0  0  0  0  0
  175.9438  142.9164  118.0931 C   0  0  0  0  0  0  0  0  0  0  0  0
  175.5400  141.1107  119.5089 O   0  0  0  0  0  0  0  0  0  0  0  0
  174.1706  139.8024  122.7968 C   0  0  1  0  0  0  0  0  0  0  0  0
  173.2088  138.7455  122.3270 C   0  0  0  0  0  0  0  0  0  0  0  0
  174.0770  139.9222  124.1819 O   0  0  0  0  0  0  0  0  0  0  0  0
  178.1323  150.4889  128.5593 C   0  0  0  0  0  0  0  0  0  0  0  0
  178.0131  151.8030  128.6355 C   0  0  0  0  0  0  0  0  0  0  0  0
  179.2864  152.3701  129.0458 C   0  0  0  0  0  0  0  0  0  0  0  0
  179.5594  153.6047  129.2293 O   0  0  0  0  0  0  0  0  0  0  0  0
  180.1649  151.3249  129.2060 O   0  0  0  0  0  0  0  0  0  0  0  0
  179.4998  150.1155  128.9274 C   0  0  0  0  0  0  0  0  0  0  0  0
  1  2  1  0
  2  3  1  0
  3  4  1  0
  4  5  1  6
  4  6  1  0
  6  7  1  6
  7  8  1  0
  9  8  1  6
  9 10  1  0
 10 11  1  0
 11 12  1  0
 12 13  1  0
 13 14  1  0
 14 15  1  1
 14 16  1  0
 16 17  1  1
 17 18  1  0
 18 19  1  0
 19 20  1  1
 11 21  1  1
 22 21  1  1
 22 23  1  0
 23 24  1  0
 24 25  1  6
 24 26  1  0
 26 27  1  6
 28 27  1  1
 28 29  1  0
 29 30  1  0
 30 31  1  1
 30 32  1  0
 32 33  1  1
 34 33  1  1
 34 35  1  0
 35 36  1  0
 36 37  1  1
 37 38  1  0
 38 39  1  0
 38 40  2  0
 36 41  1  0
 41 42  1  6
 41 43  1  0
 43 44  1  6
 43 45  1  0
 32 46  1  0
 46 47  1  1
 46 48  1  0
 26 49  1  0
 49 50  1  1
 49 51  1  0
  1 52  1  6
 52 53  2  0
 53 54  1  0
 54 55  2  0
 54 56  1  0
 56 57  1  0
 19  1  1  0
 51 22  1  0
 57 52  1  0
 19  4  1  0
 48 28  1  0
 16  6  1  0
 45 34  1  0
 14  9  1  0
M  END
$$$$
