
     RDKit          3D

 57 64  0  0  0  0  0  0  0  0999 V2000
  202.8134  141.2499  130.3805 C   0  0  1  0  0  0  0  0  0  0  0  0
  203.8967  141.1544  131.4536 C   0  0  0  0  0  0  0  0  0  0  0  0
  203.6765  139.7664  132.0759 C   0  0  0  0  0  0  0  0  0  0  0  0
  202.1584  139.7147  132.0651 C   0  0  2  0  0  0  0  0  0  0  0  0
  201.6320  140.6496  132.9602 O   0  0  0  0  0  0  0  0  0  0  0  0
  201.5802  138.3853  132.3625 C   0  0  2  0  0  0  0  0  0  0  0  0
  201.9543  137.8999  133.7585 C   0  0  0  0  0  0  0  0  0  0  0  0
  201.0118  136.7693  134.1108 C   0  0  0  0  0  0  0  0  0  0  0  0
  201.1028  135.6384  133.1130 C   0  0  2  0  0  0  0  0  0  0  0  0
  202.4238  134.9646  133.2939 C   0  0  0  0  0  0  0  0  0  0  0  0
  202.6441  133.8145  132.3392 C   0  0  2  0  0  0  0  0  0  0  0  0
  202.4044  134.2959  130.9480 C   0  0  0  0  0  0  0  0  0  0  0  0
  201.1184  135.0143  130.7352 C   0  0  0  0  0  0  0  0  0  0  0  0
  200.9033  136.1579  131.7033 C   0  0  1  0  0  0  0  0  0  0  0  0
  199.4714  136.5878  131.5745 C   0  0  0  0  0  0  0  0  0  0  0  0
  201.8834  137.2959  131.4129 C   0  0  1  0  0  0  0  0  0  0  0  0
  201.7525  137.6768  129.9660 C   0  0  0  0  0  0  0  0  0  0  0  0
  202.2343  139.0355  129.6469 C   0  0  0  0  0  0  0  0  0  0  0  0
  201.8730  140.1183  130.6515 C   0  0  2  0  0  0  0  0  0  0  0  0
  200.4127  140.5163  130.4928 C   0  0  0  0  0  0  0  0  0  0  0  0
  201.8423  132.7388  132.7172 O   0  0  0  0  0  0  0  0  0  0  0  0
  202.5223  131.8109  133.4603 C   0  0  1  0  0  0  0  0  0  0  0  0
  201.6180  130.7895  134.1498 C   0  0  0  0  0  0  0  0  0  0  0  0
  202.5448  130.0602  135.1228 C   0  0  2  0  0  0  0  0  0  0  0  0
  203.1302  130.9532  136.0096 O   0  0  0  0  0  0  0  0  0  0  0  0
  203.6745  129.4261  134.3217 C   0  0  2  0  0  0  0  0  0  0  0  0
  204.6539  128.9691  135.2006 O   0  0  0  0  0  0  0  0  0  0  0  0
  205.9493  129.1006  134.7045 C   0  0  1  0  0  0  0  0  0  0  0  0
  206.2904  127.9892  133.7353 C   0  0  0  0  0  0  0  0  0  0  0  0
  206.5446  128.6206  132.3832 C   0  0  2  0  0  0  0  0  0  0  0  0
  206.8156  127.6759  131.4069 O   0  0  0  0  0  0  0  0  0  0  0  0
  207.6986  129.5952  132.5718 C   0  0  2  0  0  0  0  0  0  0  0  0
  208.7626  128.8624  133.0686 O   0  0  0  0  0  0  0  0  0  0  0  0
  209.7921  128.6946  132.1534 C   0  0  1  0  0  0  0  0  0  0  0  0
  210.5250  129.9562  131.8272 C   0  0  0  0  0  0  0  0  0  0  0  0
  211.8383  129.5884  131.1708 C   0  0  2  0  0  0  0  0  0  0  0  0
  211.6353  128.9234  129.9393 O   0  0  0  0  0  0  0  0  0  0  0  0
  212.6336  128.8480  128.9801 C   0  0  0  0  0  0  0  0  0  0  0  0
  212.4023  128.2234  127.6487 C   0  0  0  0  0  0  0  0  0  0  0  0
  213.7628  129.3292  129.2653 O   0  0  0  0  0  0  0  0  0  0  0  0
  212.6950  128.7174  132.0289 C   0  0  2  0  0  0  0  0  0  0  0  0
  213.5103  127.8618  131.2934 O   0  0  0  0  0  0  0  0  0  0  0  0
  211.8244  127.9696  133.0078 C   0  0  1  0  0  0  0  0  0  0  0  0
  211.7139  128.7765  134.2761 C   0  0  0  0  0  0  0  0  0  0  0  0
  210.5784  127.6544  132.5534 O   0  0  0  0  0  0  0  0  0  0  0  0
  207.2144  130.6593  133.5230 C   0  0  1  0  0  0  0  0  0  0  0  0
  206.9799  131.9300  132.6923 C   0  0  0  0  0  0  0  0  0  0  0  0
  206.0100  130.3541  134.1078 O   0  0  0  0  0  0  0  0  0  0  0  0
  204.3321  130.4946  133.4740 C   0  0  1  0  0  0  0  0  0  0  0  0
  205.4311  129.9178  132.6241 C   0  0  0  0  0  0  0  0  0  0  0  0
  203.3795  131.0879  132.6481 O   0  0  0  0  0  0  0  0  0  0  0  0
  202.1956  142.6044  130.3739 C   0  0  0  0  0  0  0  0  0  0  0  0
  202.8311  143.6490  129.8720 C   0  0  0  0  0  0  0  0  0  0  0  0
  201.9885  144.8249  130.0079 C   0  0  0  0  0  0  0  0  0  0  0  0
  202.2596  146.0171  129.6371 O   0  0  0  0  0  0  0  0  0  0  0  0
  200.8238  144.4230  130.6178 O   0  0  0  0  0  0  0  0  0  0  0  0
  200.8852  143.0379  130.8635 C   0  0  0  0  0  0  0  0  0  0  0  0
  1  2  1  0
  2  3  1  0
  3  4  1  0
  4  5  1  1
  4  6  1  0
  6  7  1  1
  7  8  1  0
  9  8  1  1
  9 10  1  0
 10 11  1  0
 11 12  1  0
 12 13  1  0
 13 14  1  0
 14 15  1  1
 14 16  1  0
 16 17  1  6
 17 18  1  0
 18 19  1  0
 19 20  1  1
 11 21  1  1
 22 21  1  6
 22 23  1  0
 23 24  1  0
 24 25  1  1
 24 26  1  0
 26 27  1  1
 28 27  1  6
 28 29  1  0
 29 30  1  0
 30 31  1  6
 30 32  1  0
 32 33  1  1
 34 33  1  1
 34 35  1  0
 35 36  1  0
 36 37  1  6
 37 38  1  0
 38 39  1  0
 38 40  2  0
 36 41  1  0
 41 42  1  6
 41 43  1  0
 43 44  1  1
 43 45  1  0
 32 46  1  0
 46 47  1  6
 46 48  1  0
 26 49  1  0
 49 50  1  6
 49 51  1  0
  1 52  1  1
 52 53  2  0
 53 54  1  0
 54 55  2  0
 54 56  1  0
 56 57  1  0
 19  1  1  0
 51 22  1  0
 57 52  1  0
 19  4  1  0
 48 28  1  0
 16  6  1  0
 45 34  1  0
 14  9  1  0
M  END
$$$$
