
     RDKit          3D

 57 64  0  0  0  0  0  0  0  0999 V2000
  165.8931  155.9347  130.2074 C   0  0  1  0  0  0  0  0  0  0  0  0
  165.4761  154.5765  130.7691 C   0  0  0  0  0  0  0  0  0  0  0  0
  165.5592  153.6358  129.5564 C   0  0  0  0  0  0  0  0  0  0  0  0
  165.0379  154.5632  128.4721 C   0  0  2  0  0  0  0  0  0  0  0  0
  163.6844  154.8424  128.6780 O   0  0  0  0  0  0  0  0  0  0  0  0
  165.2221  154.0679  127.0898 C   0  0  2  0  0  0  0  0  0  0  0  0
  164.4735  152.7621  126.8474 C   0  0  0  0  0  0  0  0  0  0  0  0
  164.3862  152.5633  125.3495 C   0  0  0  0  0  0  0  0  0  0  0  0
  165.7561  152.5162  124.7142 C   0  0  2  0  0  0  0  0  0  0  0  0
  166.4150  151.2400  125.1250 C   0  0  0  0  0  0  0  0  0  0  0  0
  167.8069  151.0769  124.5605 C   0  0  2  0  0  0  0  0  0  0  0  0
  168.6026  152.2940  124.8923 C   0  0  0  0  0  0  0  0  0  0  0  0
  167.9608  153.5900  124.5410 C   0  0  0  0  0  0  0  0  0  0  0  0
  166.5632  153.7386  125.1030 C   0  0  1  0  0  0  0  0  0  0  0  0
  165.9383  154.9286  124.4355 C   0  0  0  0  0  0  0  0  0  0  0  0
  166.6113  153.8811  126.6254 C   0  0  1  0  0  0  0  0  0  0  0  0
  167.5392  155.0117  126.9667 C   0  0  0  0  0  0  0  0  0  0  0  0
  167.3231  155.5950  128.3057 C   0  0  0  0  0  0  0  0  0  0  0  0
  165.8720  155.7822  128.7193 C   0  0  2  0  0  0  0  0  0  0  0  0
  165.2758  156.9911  128.0127 C   0  0  0  0  0  0  0  0  0  0  0  0
  167.7242  150.8034  123.1962 O   0  0  0  0  0  0  0  0  0  0  0  0
  168.5258  149.7590  122.8190 C   0  0  1  0  0  0  0  0  0  0  0  0
  169.7370  150.1797  121.9870 C   0  0  0  0  0  0  0  0  0  0  0  0
  170.3040  148.8642  121.4528 C   0  0  2  0  0  0  0  0  0  0  0  0
  169.3491  148.1793  120.7141 O   0  0  0  0  0  0  0  0  0  0  0  0
  170.6623  147.9812  122.6411 C   0  0  2  0  0  0  0  0  0  0  0  0
  170.9482  146.6970  122.1831 O   0  0  0  0  0  0  0  0  0  0  0  0
  170.9527  146.5917  120.7938 C   0  0  1  0  0  0  0  0  0  0  0  0
  172.2958  146.1258  120.2744 C   0  0  0  0  0  0  0  0  0  0  0  0
  172.0874  144.7889  119.5957 C   0  0  2  0  0  0  0  0  0  0  0  0
  173.2743  144.2483  119.1285 O   0  0  0  0  0  0  0  0  0  0  0  0
  171.0863  145.0257  118.4737 C   0  0  2  0  0  0  0  0  0  0  0  0
  171.6271  146.0029  117.6560 O   0  0  0  0  0  0  0  0  0  0  0  0
  171.2498  145.8804  116.3262 C   0  0  1  0  0  0  0  0  0  0  0  0
  171.5042  147.1059  115.5084 C   0  0  0  0  0  0  0  0  0  0  0  0
  171.4462  146.7229  114.0452 C   0  0  2  0  0  0  0  0  0  0  0  0
  170.1588  146.2669  113.6781 O   0  0  0  0  0  0  0  0  0  0  0  0
  169.4540  146.8428  112.6322 C   0  0  0  0  0  0  0  0  0  0  0  0
  170.0230  147.9468  111.8115 C   0  0  0  0  0  0  0  0  0  0  0  0
  168.2990  146.4028  112.3866 O   0  0  0  0  0  0  0  0  0  0  0  0
  172.4318  145.6625  113.6807 C   0  0  2  0  0  0  0  0  0  0  0  0
  171.9997  144.8551  112.6323 O   0  0  0  0  0  0  0  0  0  0  0  0
  172.7786  144.8595  114.9098 C   0  0  1  0  0  0  0  0  0  0  0  0
  173.9837  145.4778  115.5712 C   0  0  0  0  0  0  0  0  0  0  0  0
  171.7722  144.7268  115.8196 O   0  0  0  0  0  0  0  0  0  0  0  0
  169.7953  145.4462  119.1281 C   0  0  1  0  0  0  0  0  0  0  0  0
  168.8286  144.2576  119.0169 C   0  0  0  0  0  0  0  0  0  0  0  0
  169.9297  145.7088  120.4693 O   0  0  0  0  0  0  0  0  0  0  0  0
  169.4482  147.8504  123.5365 C   0  0  1  0  0  0  0  0  0  0  0  0
  169.7547  147.0225  124.7544 C   0  0  0  0  0  0  0  0  0  0  0  0
  169.0257  149.1158  123.9387 O   0  0  0  0  0  0  0  0  0  0  0  0
  165.0274  157.0179  130.7496 C   0  0  0  0  0  0  0  0  0  0  0  0
  165.3959  157.7353  131.7967 C   0  0  0  0  0  0  0  0  0  0  0  0
  164.3557  158.7047  132.0951 C   0  0  0  0  0  0  0  0  0  0  0  0
  164.3537  159.5723  133.0331 O   0  0  0  0  0  0  0  0  0  0  0  0
  163.3525  158.5225  131.1730 O   0  0  0  0  0  0  0  0  0  0  0  0
  163.7173  157.4862  130.2923 C   0  0  0  0  0  0  0  0  0  0  0  0
  1  2  1  0
  2  3  1  0
  3  4  1  0
  4  5  1  1
  4  6  1  0
  6  7  1  1
  7  8  1  0
  9  8  1  1
  9 10  1  0
 10 11  1  0
 11 12  1  0
 12 13  1  0
 13 14  1  0
 14 15  1  6
 14 16  1  0
 16 17  1  6
 17 18  1  0
 18 19  1  0
 19 20  1  6
 11 21  1  6
 22 21  1  1
 22 23  1  0
 23 24  1  0
 24 25  1  6
 24 26  1  0
 26 27  1  6
 28 27  1  1
 28 29  1  0
 29 30  1  0
 30 31  1  6
 30 32  1  0
 32 33  1  6
 34 33  1  1
 34 35  1  0
 35 36  1  0
 36 37  1  1
 37 38  1  0
 38 39  1  0
 38 40  2  0
 36 41  1  0
 41 42  1  6
 41 43  1  0
 43 44  1  1
 43 45  1  0
 32 46  1  0
 46 47  1  1
 46 48  1  0
 26 49  1  0
 49 50  1  1
 49 51  1  0
  1 52  1  6
 52 53  2  0
 53 54  1  0
 54 55  2  0
 54 56  1  0
 56 57  1  0
 19  1  1  0
 51 22  1  0
 57 52  1  0
 19  4  1  0
 48 28  1  0
 16  6  1  0
 45 34  1  0
 14  9  1  0
M  END
$$$$
