
     RDKit          3D

 57 64  0  0  0  0  0  0  0  0999 V2000
  126.6902  149.4689  135.3651 C   0  0  1  0  0  0  0  0  0  0  0  0
  126.2159  149.3753  133.9158 C   0  0  0  0  0  0  0  0  0  0  0  0
  126.8678  148.0831  133.3983 C   0  0  0  0  0  0  0  0  0  0  0  0
  128.2168  148.1776  134.0901 C   0  0  2  0  0  0  0  0  0  0  0  0
  128.9577  149.2426  133.5713 O   0  0  0  0  0  0  0  0  0  0  0  0
  129.0350  146.9462  134.0264 C   0  0  2  0  0  0  0  0  0  0  0  0
  129.3838  146.5667  132.5915 C   0  0  0  0  0  0  0  0  0  0  0  0
  130.5235  145.5727  132.6519 C   0  0  0  0  0  0  0  0  0  0  0  0
  130.1491  144.3456  133.4499 C   0  0  2  0  0  0  0  0  0  0  0  0
  129.1450  143.5683  132.6630 C   0  0  0  0  0  0  0  0  0  0  0  0
  128.6774  142.3139  133.3634 C   0  0  2  0  0  0  0  0  0  0  0  0
  128.2121  142.6768  134.7332 C   0  0  0  0  0  0  0  0  0  0  0  0
  129.1653  143.4917  135.5348 C   0  0  0  0  0  0  0  0  0  0  0  0
  129.6350  144.7405  134.8198 C   0  0  1  0  0  0  0  0  0  0  0  0
  130.7925  145.2921  135.5994 C   0  0  0  0  0  0  0  0  0  0  0  0
  128.4883  145.7443  134.6876 C   0  0  1  0  0  0  0  0  0  0  0  0
  127.9148  145.9917  136.0535 C   0  0  0  0  0  0  0  0  0  0  0  0
  127.1688  147.2594  136.1813 C   0  0  0  0  0  0  0  0  0  0  0  0
  127.7922  148.4656  135.4971 C   0  0  2  0  0  0  0  0  0  0  0  0
  128.9659  148.9855  136.3147 C   0  0  0  0  0  0  0  0  0  0  0  0
  129.6965  141.3633  133.3399 O   0  0  0  0  0  0  0  0  0  0  0  0
  129.7211  140.6464  132.1732 C   0  0  1  0  0  0  0  0  0  0  0  0
  131.0206  140.7980  131.3829 C   0  0  0  0  0  0  0  0  0  0  0  0
  130.7136  140.1646  130.0257 C   0  0  2  0  0  0  0  0  0  0  0  0
  129.6338  140.7931  129.4210 O   0  0  0  0  0  0  0  0  0  0  0  0
  130.3101  138.7140  130.2560 C   0  0  2  0  0  0  0  0  0  0  0  0
  129.7946  138.1922  129.0717 O   0  0  0  0  0  0  0  0  0  0  0  0
  130.7629  137.6170  128.2513 C   0  0  1  0  0  0  0  0  0  0  0  0
  130.1473  136.9847  127.0216 C   0  0  0  0  0  0  0  0  0  0  0  0
  130.6782  137.7223  125.8110 C   0  0  2  0  0  0  0  0  0  0  0  0
  130.1310  137.2506  124.6290 O   0  0  0  0  0  0  0  0  0  0  0  0
  132.1923  137.5687  125.8414 C   0  0  2  0  0  0  0  0  0  0  0  0
  132.4556  136.2097  125.8426 O   0  0  0  0  0  0  0  0  0  0  0  0
  132.0590  135.5699  124.6768 C   0  0  1  0  0  0  0  0  0  0  0  0
  133.1847  135.2560  123.7444 C   0  0  0  0  0  0  0  0  0  0  0  0
  132.7030  134.2258  122.7456 C   0  0  2  0  0  0  0  0  0  0  0  0
  131.6566  134.7324  121.9403 O   0  0  0  0  0  0  0  0  0  0  0  0
  130.6534  133.9107  121.4496 C   0  0  0  0  0  0  0  0  0  0  0  0
  129.5284  134.4420  120.6323 C   0  0  0  0  0  0  0  0  0  0  0  0
  130.7160  132.6806  121.7156 O   0  0  0  0  0  0  0  0  0  0  0  0
  132.2204  132.9692  123.3912 C   0  0  2  0  0  0  0  0  0  0  0  0
  131.2223  132.3306  122.6606 O   0  0  0  0  0  0  0  0  0  0  0  0
  131.7859  133.2688  124.8043 C   0  0  1  0  0  0  0  0  0  0  0  0
  132.9585  133.0617  125.7284 C   0  0  0  0  0  0  0  0  0  0  0  0
  131.2610  134.5118  124.9990 O   0  0  0  0  0  0  0  0  0  0  0  0
  132.6727  138.2679  127.0872 C   0  0  1  0  0  0  0  0  0  0  0  0
  133.3496  139.5712  126.6368 C   0  0  0  0  0  0  0  0  0  0  0  0
  131.6515  138.6355  127.9285 O   0  0  0  0  0  0  0  0  0  0  0  0
  129.1797  138.6750  131.2627 C   0  0  1  0  0  0  0  0  0  0  0  0
  128.7663  137.2607  131.5651 C   0  0  0  0  0  0  0  0  0  0  0  0
  129.5837  139.2953  132.4433 O   0  0  0  0  0  0  0  0  0  0  0  0
  127.0586  150.8695  135.7101 C   0  0  0  0  0  0  0  0  0  0  0  0
  126.2355  151.8764  135.4741 C   0  0  0  0  0  0  0  0  0  0  0  0
  126.8639  153.1123  135.9086 C   0  0  0  0  0  0  0  0  0  0  0  0
  126.3760  154.2914  135.8450 O   0  0  0  0  0  0  0  0  0  0  0  0
  128.1010  152.7853  136.4110 O   0  0  0  0  0  0  0  0  0  0  0  0
  128.2804  151.3913  136.3263 C   0  0  0  0  0  0  0  0  0  0  0  0
  1  2  1  0
  2  3  1  0
  3  4  1  0
  4  5  1  6
  4  6  1  0
  6  7  1  6
  7  8  1  0
  9  8  1  6
  9 10  1  0
 10 11  1  0
 11 12  1  0
 12 13  1  0
 13 14  1  0
 14 15  1  1
 14 16  1  0
 16 17  1  1
 17 18  1  0
 18 19  1  0
 19 20  1  1
 11 21  1  1
 22 21  1  1
 22 23  1  0
 23 24  1  0
 24 25  1  1
 24 26  1  0
 26 27  1  6
 28 27  1  1
 28 29  1  0
 29 30  1  0
 30 31  1  6
 30 32  1  0
 32 33  1  1
 34 33  1  1
 34 35  1  0
 35 36  1  0
 36 37  1  1
 37 38  1  0
 38 39  1  0
 38 40  2  0
 36 41  1  0
 41 42  1  6
 41 43  1  0
 43 44  1  1
 43 45  1  0
 32 46  1  0
 46 47  1  6
 46 48  1  0
 26 49  1  0
 49 50  1  1
 49 51  1  0
  1 52  1  6
 52 53  2  0
 53 54  1  0
 54 55  2  0
 54 56  1  0
 56 57  1  0
 19  1  1  0
 51 22  1  0
 57 52  1  0
 19  4  1  0
 48 28  1  0
 16  6  1  0
 45 34  1  0
 14  9  1  0
M  END
$$$$
