
     RDKit          3D

 57 64  0  0  0  0  0  0  0  0999 V2000
  198.8073  137.9500  132.6236 C   0  0  1  0  0  0  0  0  0  0  0  0
  199.6501  137.8512  131.3532 C   0  0  0  0  0  0  0  0  0  0  0  0
  200.7581  136.8526  131.7236 C   0  0  0  0  0  0  0  0  0  0  0  0
  201.0149  137.2710  133.1611 C   0  0  2  0  0  0  0  0  0  0  0  0
  201.5856  138.5457  133.2038 O   0  0  0  0  0  0  0  0  0  0  0  0
  201.8620  136.3384  133.9375 C   0  0  2  0  0  0  0  0  0  0  0  0
  203.2578  136.2032  133.3394 C   0  0  0  0  0  0  0  0  0  0  0  0
  204.1431  135.5788  134.3963 C   0  0  0  0  0  0  0  0  0  0  0  0
  203.6199  134.2308  134.8342 C   0  0  2  0  0  0  0  0  0  0  0  0
  203.8133  133.2692  133.7074 C   0  0  0  0  0  0  0  0  0  0  0  0
  203.3154  131.8768  134.0174 C   0  0  2  0  0  0  0  0  0  0  0  0
  201.9035  131.9684  134.4893 C   0  0  0  0  0  0  0  0  0  0  0  0
  201.6590  132.9498  135.5812 C   0  0  0  0  0  0  0  0  0  0  0  0
  202.1707  134.3387  135.2643 C   0  0  1  0  0  0  0  0  0  0  0  0
  202.1313  135.1300  136.5388 C   0  0  0  0  0  0  0  0  0  0  0  0
  201.3334  134.9767  134.1543 C   0  0  1  0  0  0  0  0  0  0  0  0
  199.8888  134.9273  134.5622 C   0  0  0  0  0  0  0  0  0  0  0  0
  199.0270  135.9096  133.8749 C   0  0  0  0  0  0  0  0  0  0  0  0
  199.6179  137.2996  133.6999 C   0  0  2  0  0  0  0  0  0  0  0  0
  199.5672  138.0620  135.0161 C   0  0  0  0  0  0  0  0  0  0  0  0
  204.1815  131.2663  134.9230 O   0  0  0  0  0  0  0  0  0  0  0  0
  205.3214  130.7966  134.3266 C   0  0  1  0  0  0  0  0  0  0  0  0
  206.3414  130.2234  135.3101 C   0  0  0  0  0  0  0  0  0  0  0  0
  207.6082  130.0366  134.4748 C   0  0  2  0  0  0  0  0  0  0  0  0
  208.0115  131.2406  133.9142 O   0  0  0  0  0  0  0  0  0  0  0  0
  207.2849  129.0966  133.3207 C   0  0  2  0  0  0  0  0  0  0  0  0
  208.3447  129.1054  132.4168 O   0  0  0  0  0  0  0  0  0  0  0  0
  209.1330  127.9580  132.4750 C   0  0  1  0  0  0  0  0  0  0  0  0
  210.3861  128.0995  131.6380 C   0  0  0  0  0  0  0  0  0  0  0  0
  211.5743  128.0195  132.5723 C   0  0  2  0  0  0  0  0  0  0  0  0
  212.7767  128.1918  131.9062 O   0  0  0  0  0  0  0  0  0  0  0  0
  211.4914  126.6646  133.2612 C   0  0  2  0  0  0  0  0  0  0  0  0
  211.4865  125.7079  132.2609 O   0  0  0  0  0  0  0  0  0  0  0  0
  212.7179  125.5522  131.6404 C   0  0  1  0  0  0  0  0  0  0  0  0
  213.8758  125.5376  132.5860 C   0  0  0  0  0  0  0  0  0  0  0  0
  215.0746  124.9625  131.8628 C   0  0  2  0  0  0  0  0  0  0  0  0
  215.4663  125.7782  130.7759 O   0  0  0  0  0  0  0  0  0  0  0  0
  216.2292  125.2803  129.7307 C   0  0  0  0  0  0  0  0  0  0  0  0
  216.8991  126.1750  128.7476 C   0  0  0  0  0  0  0  0  0  0  0  0
  216.3453  124.0296  129.6292 O   0  0  0  0  0  0  0  0  0  0  0  0
  214.8347  123.5842  131.3414 C   0  0  2  0  0  0  0  0  0  0  0  0
  215.5634  123.3040  130.1889 O   0  0  0  0  0  0  0  0  0  0  0  0
  213.3540  123.3769  131.1411 C   0  0  1  0  0  0  0  0  0  0  0  0
  212.7697  122.7909  132.4010 C   0  0  0  0  0  0  0  0  0  0  0  0
  212.6546  124.4916  130.7852 O   0  0  0  0  0  0  0  0  0  0  0  0
  210.2268  126.6734  134.0811 C   0  0  1  0  0  0  0  0  0  0  0  0
  210.6479  126.7975  135.5532 C   0  0  0  0  0  0  0  0  0  0  0  0
  209.4203  127.7536  133.8192 O   0  0  0  0  0  0  0  0  0  0  0  0
  206.0853  129.6374  132.5713 C   0  0  1  0  0  0  0  0  0  0  0  0
  205.6898  128.7250  131.4427 C   0  0  0  0  0  0  0  0  0  0  0  0
  205.0099  129.7737  133.4468 O   0  0  0  0  0  0  0  0  0  0  0  0
  198.4136  139.3614  132.8869 C   0  0  0  0  0  0  0  0  0  0  0  0
  197.3313  139.8881  132.3408 C   0  0  0  0  0  0  0  0  0  0  0  0
  197.2081  141.2697  132.7736 C   0  0  0  0  0  0  0  0  0  0  0  0
  196.2901  142.0999  132.4568 O   0  0  0  0  0  0  0  0  0  0  0  0
  198.2735  141.5337  133.6012 O   0  0  0  0  0  0  0  0  0  0  0  0
  199.0622  140.3737  133.7233 C   0  0  0  0  0  0  0  0  0  0  0  0
  1  2  1  0
  2  3  1  0
  3  4  1  0
  4  5  1  6
  4  6  1  0
  6  7  1  6
  7  8  1  0
  9  8  1  6
  9 10  1  0
 10 11  1  0
 11 12  1  0
 12 13  1  0
 13 14  1  0
 14 15  1  1
 14 16  1  0
 16 17  1  1
 17 18  1  0
 18 19  1  0
 19 20  1  1
 11 21  1  1
 22 21  1  1
 22 23  1  0
 23 24  1  0
 24 25  1  6
 24 26  1  0
 26 27  1  6
 28 27  1  1
 28 29  1  0
 29 30  1  0
 30 31  1  6
 30 32  1  0
 32 33  1  6
 34 33  1  1
 34 35  1  0
 35 36  1  0
 36 37  1  6
 37 38  1  0
 38 39  1  0
 38 40  2  0
 36 41  1  0
 41 42  1  6
 41 43  1  0
 43 44  1  1
 43 45  1  0
 32 46  1  0
 46 47  1  1
 46 48  1  0
 26 49  1  0
 49 50  1  6
 49 51  1  0
  1 52  1  1
 52 53  2  0
 53 54  1  0
 54 55  2  0
 54 56  1  0
 56 57  1  0
 19  1  1  0
 51 22  1  0
 57 52  1  0
 19  4  1  0
 48 28  1  0
 16  6  1  0
 45 34  1  0
 14  9  1  0
M  END
$$$$
