
     RDKit          3D

 57 64  0  0  0  0  0  0  0  0999 V2000
  167.3637  157.2113  130.8262 C   0  0  1  0  0  0  0  0  0  0  0  0
  166.8109  156.2466  131.8740 C   0  0  0  0  0  0  0  0  0  0  0  0
  166.0643  155.1902  131.0439 C   0  0  0  0  0  0  0  0  0  0  0  0
  165.4626  156.0809  129.9706 C   0  0  2  0  0  0  0  0  0  0  0  0
  164.4940  156.9235  130.5222 O   0  0  0  0  0  0  0  0  0  0  0  0
  164.8733  155.3577  128.8218 C   0  0  2  0  0  0  0  0  0  0  0  0
  163.7161  154.4603  129.2457 C   0  0  0  0  0  0  0  0  0  0  0  0
  162.9435  154.0992  127.9953 C   0  0  0  0  0  0  0  0  0  0  0  0
  163.8190  153.3956  126.9848 C   0  0  2  0  0  0  0  0  0  0  0  0
  164.1394  152.0361  127.5146 C   0  0  0  0  0  0  0  0  0  0  0  0
  165.0260  151.2295  126.5949 C   0  0  2  0  0  0  0  0  0  0  0  0
  166.2325  152.0408  126.2618 C   0  0  0  0  0  0  0  0  0  0  0  0
  165.9581  153.4196  125.7735 C   0  0  0  0  0  0  0  0  0  0  0  0
  165.0609  154.2152  126.6972 C   0  0  1  0  0  0  0  0  0  0  0  0
  164.6326  155.4456  125.9524 C   0  0  0  0  0  0  0  0  0  0  0  0
  165.7924  154.5456  127.9995 C   0  0  1  0  0  0  0  0  0  0  0  0
  167.0869  155.2257  127.6567 C   0  0  0  0  0  0  0  0  0  0  0  0
  167.6593  156.0349  128.7511 C   0  0  0  0  0  0  0  0  0  0  0  0
  166.6663  156.8656  129.5485 C   0  0  2  0  0  0  0  0  0  0  0  0
  166.2519  158.0954  128.7535 C   0  0  0  0  0  0  0  0  0  0  0  0
  164.2900  150.8189  125.4847 O   0  0  0  0  0  0  0  0  0  0  0  0
  164.3649  149.4678  125.2737 C   0  0  1  0  0  0  0  0  0  0  0  0
  163.1324  148.8813  124.5857 C   0  0  0  0  0  0  0  0  0  0  0  0
  163.3111  147.3684  124.7157 C   0  0  2  0  0  0  0  0  0  0  0  0
  163.4171  146.9970  126.0489 O   0  0  0  0  0  0  0  0  0  0  0  0
  164.6219  146.9828  124.0426 C   0  0  2  0  0  0  0  0  0  0  0  0
  164.9232  145.6600  124.3588 O   0  0  0  0  0  0  0  0  0  0  0  0
  163.8124  144.9171  124.7534 C   0  0  1  0  0  0  0  0  0  0  0  0
  162.9292  144.5666  123.5753 C   0  0  0  0  0  0  0  0  0  0  0  0
  162.9160  143.0587  123.4435 C   0  0  2  0  0  0  0  0  0  0  0  0
  162.1721  142.6349  122.3544 O   0  0  0  0  0  0  0  0  0  0  0  0
  162.3687  142.5154  124.7559 C   0  0  2  0  0  0  0  0  0  0  0  0
  161.1190  143.0839  124.9330 O   0  0  0  0  0  0  0  0  0  0  0  0
  160.1459  142.1702  125.3121 C   0  0  1  0  0  0  0  0  0  0  0  0
  159.4131  142.5473  126.5595 C   0  0  0  0  0  0  0  0  0  0  0  0
  158.1451  141.7242  126.6347 C   0  0  2  0  0  0  0  0  0  0  0  0
  158.4280  140.3433  126.7486 O   0  0  0  0  0  0  0  0  0  0  0  0
  157.4595  139.4323  127.1417 C   0  0  0  0  0  0  0  0  0  0  0  0
  156.3584  139.8044  128.0719 C   0  0  0  0  0  0  0  0  0  0  0  0
  157.5329  138.2600  126.6854 O   0  0  0  0  0  0  0  0  0  0  0  0
  157.2547  141.9160  125.4518 C   0  0  2  0  0  0  0  0  0  0  0  0
  156.4960  140.7878  125.1532 O   0  0  0  0  0  0  0  0  0  0  0  0
  158.0800  142.3729  124.2745 C   0  0  1  0  0  0  0  0  0  0  0  0
  158.1057  143.8798  124.2535 C   0  0  0  0  0  0  0  0  0  0  0  0
  159.3545  141.8907  124.2370 O   0  0  0  0  0  0  0  0  0  0  0  0
  163.3546  142.9020  125.8283 C   0  0  1  0  0  0  0  0  0  0  0  0
  164.1046  141.6229  126.2296 C   0  0  0  0  0  0  0  0  0  0  0  0
  164.3093  143.7869  125.3912 O   0  0  0  0  0  0  0  0  0  0  0  0
  165.7377  147.8224  124.6284 C   0  0  1  0  0  0  0  0  0  0  0  0
  167.0548  147.5166  123.9694 C   0  0  0  0  0  0  0  0  0  0  0  0
  165.4444  149.1739  124.4579 O   0  0  0  0  0  0  0  0  0  0  0  0
  167.2096  158.6224  131.2750 C   0  0  0  0  0  0  0  0  0  0  0  0
  168.2601  159.3899  131.5080 C   0  0  0  0  0  0  0  0  0  0  0  0
  167.8022  160.7017  131.9328 C   0  0  0  0  0  0  0  0  0  0  0  0
  168.5239  161.7089  132.2442 O   0  0  0  0  0  0  0  0  0  0  0  0
  166.4279  160.6701  131.9415 O   0  0  0  0  0  0  0  0  0  0  0  0
  165.9924  159.3968  131.5271 C   0  0  0  0  0  0  0  0  0  0  0  0
  1  2  1  0
  2  3  1  0
  3  4  1  0
  4  5  1  1
  4  6  1  0
  6  7  1  1
  7  8  1  0
  9  8  1  1
  9 10  1  0
 10 11  1  0
 11 12  1  0
 12 13  1  0
 13 14  1  0
 14 15  1  6
 14 16  1  0
 16 17  1  6
 17 18  1  0
 18 19  1  0
 19 20  1  6
 11 21  1  6
 22 21  1  6
 22 23  1  0
 23 24  1  0
 24 25  1  1
 24 26  1  0
 26 27  1  1
 28 27  1  6
 28 29  1  0
 29 30  1  0
 30 31  1  6
 30 32  1  0
 32 33  1  1
 34 33  1  6
 34 35  1  0
 35 36  1  0
 36 37  1  6
 37 38  1  0
 38 39  1  0
 38 40  2  0
 36 41  1  0
 41 42  1  6
 41 43  1  0
 43 44  1  1
 43 45  1  0
 32 46  1  0
 46 47  1  6
 46 48  1  0
 26 49  1  0
 49 50  1  6
 49 51  1  0
  1 52  1  1
 52 53  2  0
 53 54  1  0
 54 55  2  0
 54 56  1  0
 56 57  1  0
 19  1  1  0
 51 22  1  0
 57 52  1  0
 19  4  1  0
 48 28  1  0
 16  6  1  0
 45 34  1  0
 14  9  1  0
M  END
$$$$
