
     RDKit          3D

 57 64  0  0  0  0  0  0  0  0999 V2000
  169.2687  147.6511  137.0693 C   0  0  1  0  0  0  0  0  0  0  0  0
  170.5394  148.1461  136.3804 C   0  0  0  0  0  0  0  0  0  0  0  0
  170.2162  148.0262  134.8825 C   0  0  0  0  0  0  0  0  0  0  0  0
  169.4264  146.7287  134.8903 C   0  0  2  0  0  0  0  0  0  0  0  0
  170.2577  145.6533  135.2141 O   0  0  0  0  0  0  0  0  0  0  0  0
  168.7177  146.4255  133.6270 C   0  0  2  0  0  0  0  0  0  0  0  0
  169.6817  146.2617  132.4573 C   0  0  0  0  0  0  0  0  0  0  0  0
  168.9260  145.5703  131.3431 C   0  0  0  0  0  0  0  0  0  0  0  0
  167.7096  146.3614  130.9222 C   0  0  2  0  0  0  0  0  0  0  0  0
  168.1774  147.5927  130.2172 C   0  0  0  0  0  0  0  0  0  0  0  0
  167.0474  148.4818  129.7532 C   0  0  2  0  0  0  0  0  0  0  0  0
  166.1520  148.7608  130.9128 C   0  0  0  0  0  0  0  0  0  0  0  0
  165.6998  147.5628  131.6714 C   0  0  0  0  0  0  0  0  0  0  0  0
  166.8390  146.6740  132.1227 C   0  0  1  0  0  0  0  0  0  0  0  0
  166.2370  145.3840  132.5974 C   0  0  0  0  0  0  0  0  0  0  0  0
  167.6618  147.3693  133.2088 C   0  0  1  0  0  0  0  0  0  0  0  0
  166.7323  147.7916  134.3104 C   0  0  0  0  0  0  0  0  0  0  0  0
  167.3913  148.0134  135.6129 C   0  0  0  0  0  0  0  0  0  0  0  0
  168.4547  146.9971  135.9978 C   0  0  2  0  0  0  0  0  0  0  0  0
  167.8018  145.7033  136.4624 C   0  0  0  0  0  0  0  0  0  0  0  0
  166.4067  147.8875  128.6673 O   0  0  0  0  0  0  0  0  0  0  0  0
  165.9319  148.8059  127.7690 C   0  0  1  0  0  0  0  0  0  0  0  0
  166.8568  149.0356  126.5740 C   0  0  0  0  0  0  0  0  0  0  0  0
  166.2802  150.2709  125.8817 C   0  0  2  0  0  0  0  0  0  0  0  0
  166.2400  151.3508  126.7528 O   0  0  0  0  0  0  0  0  0  0  0  0
  164.8412  149.9677  125.4848 C   0  0  2  0  0  0  0  0  0  0  0  0
  164.2239  151.1481  125.0774 O   0  0  0  0  0  0  0  0  0  0  0  0
  165.0912  152.0396  124.4493 C   0  0  1  0  0  0  0  0  0  0  0  0
  165.0856  151.8576  122.9467 C   0  0  0  0  0  0  0  0  0  0  0  0
  164.5695  153.1402  122.3305 C   0  0  2  0  0  0  0  0  0  0  0  0
  164.4757  153.0574  120.9508 O   0  0  0  0  0  0  0  0  0  0  0  0
  165.5186  154.2447  122.7737 C   0  0  2  0  0  0  0  0  0  0  0  0
  166.7842  153.8769  122.3504 O   0  0  0  0  0  0  0  0  0  0  0  0
  167.5194  154.9315  121.8280 C   0  0  1  0  0  0  0  0  0  0  0  0
  168.9893  154.8306  122.0821 C   0  0  0  0  0  0  0  0  0  0  0  0
  169.7018  155.7777  121.1407 C   0  0  2  0  0  0  0  0  0  0  0  0
  169.3516  157.1241  121.3949 O   0  0  0  0  0  0  0  0  0  0  0  0
  170.3130  158.0901  121.6497 C   0  0  0  0  0  0  0  0  0  0  0  0
  171.7100  157.7337  122.0200 C   0  0  0  0  0  0  0  0  0  0  0  0
  169.9718  159.2998  121.5591 O   0  0  0  0  0  0  0  0  0  0  0  0
  169.4200  155.4919  119.7028 C   0  0  2  0  0  0  0  0  0  0  0  0
  169.4720  156.6291  118.9016 O   0  0  0  0  0  0  0  0  0  0  0  0
  168.0978  154.7753  119.5859 C   0  0  1  0  0  0  0  0  0  0  0  0
  168.3440  153.2889  119.6307 C   0  0  0  0  0  0  0  0  0  0  0  0
  167.1682  155.1158  120.5230 O   0  0  0  0  0  0  0  0  0  0  0  0
  165.3985  154.3419  124.2729 C   0  0  1  0  0  0  0  0  0  0  0  0
  164.6149  155.6275  124.5773 C   0  0  0  0  0  0  0  0  0  0  0  0
  164.6775  153.3119  124.8252 O   0  0  0  0  0  0  0  0  0  0  0  0
  164.0855  149.4959  126.7092 C   0  0  1  0  0  0  0  0  0  0  0  0
  162.6646  149.1378  126.3695 C   0  0  0  0  0  0  0  0  0  0  0  0
  164.7212  148.3798  127.2494 O   0  0  0  0  0  0  0  0  0  0  0  0
  169.6030  146.7856  138.2336 C   0  0  0  0  0  0  0  0  0  0  0  0
  170.0635  147.2967  139.3622 C   0  0  0  0  0  0  0  0  0  0  0  0
  170.3013  146.2186  140.3068 C   0  0  0  0  0  0  0  0  0  0  0  0
  170.7434  146.3209  141.5012 O   0  0  0  0  0  0  0  0  0  0  0  0
  169.9606  145.0443  139.6786 O   0  0  0  0  0  0  0  0  0  0  0  0
  169.5033  145.3316  138.3783 C   0  0  0  0  0  0  0  0  0  0  0  0
  1  2  1  0
  2  3  1  0
  3  4  1  0
  4  5  1  1
  4  6  1  0
  6  7  1  6
  7  8  1  0
  9  8  1  1
  9 10  1  0
 10 11  1  0
 11 12  1  0
 12 13  1  0
 13 14  1  0
 14 15  1  1
 14 16  1  0
 16 17  1  1
 17 18  1  0
 18 19  1  0
 19 20  1  1
 11 21  1  6
 22 21  1  1
 22 23  1  0
 23 24  1  0
 24 25  1  1
 24 26  1  0
 26 27  1  1
 28 27  1  1
 28 29  1  0
 29 30  1  0
 30 31  1  6
 30 32  1  0
 32 33  1  1
 34 33  1  6
 34 35  1  0
 35 36  1  0
 36 37  1  1
 37 38  1  0
 38 39  1  0
 38 40  2  0
 36 41  1  0
 41 42  1  6
 41 43  1  0
 43 44  1  1
 43 45  1  0
 32 46  1  0
 46 47  1  6
 46 48  1  0
 26 49  1  0
 49 50  1  6
 49 51  1  0
  1 52  1  1
 52 53  2  0
 53 54  1  0
 54 55  2  0
 54 56  1  0
 56 57  1  0
 19  1  1  0
 51 22  1  0
 57 52  1  0
 19  4  1  0
 48 28  1  0
 16  6  1  0
 45 34  1  0
 14  9  1  0
M  END
$$$$
