
     RDKit          3D

 57 64  0  0  0  0  0  0  0  0999 V2000
  119.4701  146.5961  165.7410 C   0  0  1  0  0  0  0  0  0  0  0  0
  118.1165  146.4681  166.4377 C   0  0  0  0  0  0  0  0  0  0  0  0
  117.1006  146.7842  165.3284 C   0  0  0  0  0  0  0  0  0  0  0  0
  117.8431  147.8944  164.6048 C   0  0  2  0  0  0  0  0  0  0  0  0
  117.9293  149.0310  165.4130 O   0  0  0  0  0  0  0  0  0  0  0  0
  117.2668  148.2769  163.2965 C   0  0  2  0  0  0  0  0  0  0  0  0
  115.8465  148.8137  163.4339 C   0  0  0  0  0  0  0  0  0  0  0  0
  115.5113  149.5376  162.1477 C   0  0  0  0  0  0  0  0  0  0  0  0
  115.6199  148.6226  160.9503 C   0  0  2  0  0  0  0  0  0  0  0  0
  114.4980  147.6382  161.0148 C   0  0  0  0  0  0  0  0  0  0  0  0
  114.5017  146.6516  159.8706 C   0  0  2  0  0  0  0  0  0  0  0  0
  115.8493  146.0174  159.7910 C   0  0  0  0  0  0  0  0  0  0  0  0
  116.9983  146.9632  159.7713 C   0  0  0  0  0  0  0  0  0  0  0  0
  116.9792  147.9534  160.9160 C   0  0  1  0  0  0  0  0  0  0  0  0
  117.9997  149.0100  160.6087 C   0  0  0  0  0  0  0  0  0  0  0  0
  117.2552  147.2430  162.2423 C   0  0  1  0  0  0  0  0  0  0  0  0
  118.5386  146.4740  162.1103 C   0  0  0  0  0  0  0  0  0  0  0  0
  119.1930  146.1544  163.3947 C   0  0  0  0  0  0  0  0  0  0  0  0
  119.1913  147.2656  164.4324 C   0  0  2  0  0  0  0  0  0  0  0  0
  120.2314  148.3183  164.0771 C   0  0  0  0  0  0  0  0  0  0  0  0
  114.1048  147.2975  158.7009 O   0  0  0  0  0  0  0  0  0  0  0  0
  112.7434  147.3348  158.5560 C   0  0  1  0  0  0  0  0  0  0  0  0
  112.2524  148.4386  157.6196 C   0  0  0  0  0  0  0  0  0  0  0  0
  110.7391  148.4718  157.8355 C   0  0  2  0  0  0  0  0  0  0  0  0
  110.4362  148.7154  159.1679 O   0  0  0  0  0  0  0  0  0  0  0  0
  110.1783  147.0966  157.4976 C   0  0  2  0  0  0  0  0  0  0  0  0
  108.8515  147.0314  157.9168 O   0  0  0  0  0  0  0  0  0  0  0  0
  108.2542  148.2815  158.0643 C   0  0  1  0  0  0  0  0  0  0  0  0
  106.9432  148.3651  157.3126 C   0  0  0  0  0  0  0  0  0  0  0  0
  105.8438  148.5862  158.3293 C   0  0  2  0  0  0  0  0  0  0  0  0
  104.5890  148.6248  157.7434 O   0  0  0  0  0  0  0  0  0  0  0  0
  106.1779  149.8840  159.0513 C   0  0  2  0  0  0  0  0  0  0  0  0
  106.2656  150.8685  158.0823 O   0  0  0  0  0  0  0  0  0  0  0  0
  105.0688  151.0972  157.4182 C   0  0  1  0  0  0  0  0  0  0  0  0
  104.3521  149.8492  157.0132 C   0  0  0  0  0  0  0  0  0  0  0  0
  102.9180  150.2075  156.6875 C   0  0  2  0  0  0  0  0  0  0  0  0
  102.8399  151.0818  155.5786 O   0  0  0  0  0  0  0  0  0  0  0  0
  102.8592  150.6079  154.2758 C   0  0  0  0  0  0  0  0  0  0  0  0
  103.2124  149.1978  153.9550 C   0  0  0  0  0  0  0  0  0  0  0  0
  102.5654  151.4123  153.3514 O   0  0  0  0  0  0  0  0  0  0  0  0
  102.2033  150.8484  157.8308 C   0  0  2  0  0  0  0  0  0  0  0  0
  101.2161  151.7414  157.4236 O   0  0  0  0  0  0  0  0  0  0  0  0
  103.2099  151.4954  158.7494 C   0  0  1  0  0  0  0  0  0  0  0  0
  103.6095  150.5022  159.8104 C   0  0  0  0  0  0  0  0  0  0  0  0
  104.3240  151.9862  158.1361 O   0  0  0  0  0  0  0  0  0  0  0  0
  107.4761  149.6509  159.7806 C   0  0  1  0  0  0  0  0  0  0  0  0
  107.1361  149.5325  161.2740 C   0  0  0  0  0  0  0  0  0  0  0  0
  108.0885  148.4726  159.4308 O   0  0  0  0  0  0  0  0  0  0  0  0
  110.9270  146.0529  158.2995 C   0  0  1  0  0  0  0  0  0  0  0  0
  110.4455  144.6654  157.9743 C   0  0  0  0  0  0  0  0  0  0  0  0
  112.2899  146.1400  158.0228 O   0  0  0  0  0  0  0  0  0  0  0  0
  120.4506  147.2934  166.6177 C   0  0  0  0  0  0  0  0  0  0  0  0
  121.7422  147.0184  166.5619 C   0  0  0  0  0  0  0  0  0  0  0  0
  122.4438  147.8458  167.5285 C   0  0  0  0  0  0  0  0  0  0  0  0
  123.6996  147.8643  167.7630 O   0  0  0  0  0  0  0  0  0  0  0  0
  121.5014  148.6220  168.1602 O   0  0  0  0  0  0  0  0  0  0  0  0
  120.2311  148.3323  167.6264 C   0  0  0  0  0  0  0  0  0  0  0  0
  1  2  1  0
  2  3  1  0
  3  4  1  0
  4  5  1  1
  4  6  1  0
  6  7  1  1
  7  8  1  0
  9  8  1  1
  9 10  1  0
 10 11  1  0
 11 12  1  0
 12 13  1  0
 13 14  1  0
 14 15  1  6
 14 16  1  0
 16 17  1  6
 17 18  1  0
 18 19  1  0
 19 20  1  6
 11 21  1  6
 22 21  1  6
 22 23  1  0
 23 24  1  0
 24 25  1  1
 24 26  1  0
 26 27  1  1
 28 27  1  1
 28 29  1  0
 29 30  1  0
 30 31  1  6
 30 32  1  0
 32 33  1  6
 34 33  1  1
 34 35  1  0
 35 36  1  0
 36 37  1  6
 37 38  1  0
 38 39  1  0
 38 40  2  0
 36 41  1  0
 41 42  1  6
 41 43  1  0
 43 44  1  1
 43 45  1  0
 32 46  1  0
 46 47  1  1
 46 48  1  0
 26 49  1  0
 49 50  1  6
 49 51  1  0
  1 52  1  1
 52 53  2  0
 53 54  1  0
 54 55  2  0
 54 56  1  0
 56 57  1  0
 19  1  1  0
 51 22  1  0
 57 52  1  0
 19  4  1  0
 48 28  1  0
 16  6  1  0
 45 34  1  0
 14  9  1  0
M  END
$$$$
