
     RDKit          3D

 57 64  0  0  0  0  0  0  0  0999 V2000
  153.6504  164.4951  120.1741 C   0  0  1  0  0  0  0  0  0  0  0  0
  152.2664  164.7073  119.5627 C   0  0  0  0  0  0  0  0  0  0  0  0
  151.3263  164.7265  120.7785 C   0  0  0  0  0  0  0  0  0  0  0  0
  151.9788  163.6499  121.6285 C   0  0  2  0  0  0  0  0  0  0  0  0
  151.8364  162.3981  121.0242 O   0  0  0  0  0  0  0  0  0  0  0  0
  151.4823  163.5715  123.0203 C   0  0  2  0  0  0  0  0  0  0  0  0
  149.9965  163.2346  123.0778 C   0  0  0  0  0  0  0  0  0  0  0  0
  149.6902  162.7840  124.4898 C   0  0  0  0  0  0  0  0  0  0  0  0
  150.0319  163.8534  125.5010 C   0  0  2  0  0  0  0  0  0  0  0  0
  149.0502  164.9689  125.3470 C   0  0  0  0  0  0  0  0  0  0  0  0
  149.2930  166.1150  126.3009 C   0  0  2  0  0  0  0  0  0  0  0  0
  150.7146  166.5484  126.1751 C   0  0  0  0  0  0  0  0  0  0  0  0
  151.7240  165.4594  126.2766 C   0  0  0  0  0  0  0  0  0  0  0  0
  151.4655  164.3119  125.3238 C   0  0  1  0  0  0  0  0  0  0  0  0
  152.3603  163.1798  125.7360 C   0  0  0  0  0  0  0  0  0  0  0  0
  151.7078  164.7516  123.8788 C   0  0  1  0  0  0  0  0  0  0  0  0
  153.0889  165.3344  123.7858 C   0  0  0  0  0  0  0  0  0  0  0  0
  153.6564  165.3438  122.4228 C   0  0  0  0  0  0  0  0  0  0  0  0
  153.4090  164.0928  121.5947 C   0  0  2  0  0  0  0  0  0  0  0  0
  154.3283  162.9694  122.0520 C   0  0  0  0  0  0  0  0  0  0  0  0
  148.9253  165.7309  127.5894 O   0  0  0  0  0  0  0  0  0  0  0  0
  148.2678  166.7230  128.2671 C   0  0  1  0  0  0  0  0  0  0  0  0
  146.8235  166.3735  128.6250 C   0  0  0  0  0  0  0  0  0  0  0  0
  146.2213  167.6960  129.1003 C   0  0  2  0  0  0  0  0  0  0  0  0
  146.3164  168.6650  128.1111 O   0  0  0  0  0  0  0  0  0  0  0  0
  147.0365  168.1927  130.2872 C   0  0  2  0  0  0  0  0  0  0  0  0
  146.6624  169.5024  130.5792 O   0  0  0  0  0  0  0  0  0  0  0  0
  146.1566  169.6606  131.8678 C   0  0  1  0  0  0  0  0  0  0  0  0
  145.9649  171.1210  132.2159 C   0  0  0  0  0  0  0  0  0  0  0  0
  144.4864  171.3478  132.4481 C   0  0  2  0  0  0  0  0  0  0  0  0
  144.1971  172.6743  132.7237 O   0  0  0  0  0  0  0  0  0  0  0  0
  144.0820  170.4254  133.5894 C   0  0  2  0  0  0  0  0  0  0  0  0
  144.8857  170.7501  134.6687 O   0  0  0  0  0  0  0  0  0  0  0  0
  144.2146  171.4397  135.6686 C   0  0  1  0  0  0  0  0  0  0  0  0
  144.4152  170.8713  137.0368 C   0  0  0  0  0  0  0  0  0  0  0  0
  143.9959  171.9129  138.0517 C   0  0  2  0  0  0  0  0  0  0  0  0
  142.6175  172.2124  137.9499 O   0  0  0  0  0  0  0  0  0  0  0  0
  141.6453  171.3101  138.3539 C   0  0  0  0  0  0  0  0  0  0  0  0
  140.8049  170.5662  137.3760 C   0  0  0  0  0  0  0  0  0  0  0  0
  141.4857  171.1301  139.5908 O   0  0  0  0  0  0  0  0  0  0  0  0
  144.7558  173.1915  137.9228 C   0  0  2  0  0  0  0  0  0  0  0  0
  144.0187  174.3047  138.3164 O   0  0  0  0  0  0  0  0  0  0  0  0
  145.2745  173.3240  136.5124 C   0  0  1  0  0  0  0  0  0  0  0  0
  146.6553  172.7238  136.4431 C   0  0  0  0  0  0  0  0  0  0  0  0
  144.4841  172.7714  135.5490 O   0  0  0  0  0  0  0  0  0  0  0  0
  144.2873  169.0152  133.0988 C   0  0  1  0  0  0  0  0  0  0  0  0
  142.8937  168.4241  132.8380 C   0  0  0  0  0  0  0  0  0  0  0  0
  144.9621  168.9513  131.9045 O   0  0  0  0  0  0  0  0  0  0  0  0
  148.4962  168.2485  129.8885 C   0  0  1  0  0  0  0  0  0  0  0  0
  149.3596  168.6917  131.0378 C   0  0  0  0  0  0  0  0  0  0  0  0
  148.9130  166.9888  129.4631 O   0  0  0  0  0  0  0  0  0  0  0  0
  154.4424  163.5293  119.3638 C   0  0  0  0  0  0  0  0  0  0  0  0
  153.8824  162.8127  118.4047 C   0  0  0  0  0  0  0  0  0  0  0  0
  154.8932  161.9640  117.7974 C   0  0  0  0  0  0  0  0  0  0  0  0
  154.7321  161.1351  116.8385 O   0  0  0  0  0  0  0  0  0  0  0  0
  156.0785  162.2133  118.4476 O   0  0  0  0  0  0  0  0  0  0  0  0
  155.8665  163.1949  119.4345 C   0  0  0  0  0  0  0  0  0  0  0  0
  1  2  1  0
  2  3  1  0
  3  4  1  0
  4  5  1  6
  4  6  1  0
  6  7  1  6
  7  8  1  0
  9  8  1  6
  9 10  1  0
 10 11  1  0
 11 12  1  0
 12 13  1  0
 13 14  1  0
 14 15  1  1
 14 16  1  0
 16 17  1  1
 17 18  1  0
 18 19  1  0
 19 20  1  1
 11 21  1  1
 22 21  1  1
 22 23  1  0
 23 24  1  0
 24 25  1  6
 24 26  1  0
 26 27  1  6
 28 27  1  6
 28 29  1  0
 29 30  1  0
 30 31  1  1
 30 32  1  0
 32 33  1  1
 34 33  1  6
 34 35  1  0
 35 36  1  0
 36 37  1  6
 37 38  1  0
 38 39  1  0
 38 40  2  0
 36 41  1  0
 41 42  1  6
 41 43  1  0
 43 44  1  1
 43 45  1  0
 32 46  1  0
 46 47  1  6
 46 48  1  0
 26 49  1  0
 49 50  1  1
 49 51  1  0
  1 52  1  6
 52 53  2  0
 53 54  1  0
 54 55  2  0
 54 56  1  0
 56 57  1  0
 19  1  1  0
 51 22  1  0
 57 52  1  0
 19  4  1  0
 48 28  1  0
 16  6  1  0
 45 34  1  0
 14  9  1  0
M  END
$$$$
