
     RDKit          3D

 57 64  0  0  0  0  0  0  0  0999 V2000
  126.6658  153.3266  152.6050 C   0  0  1  0  0  0  0  0  0  0  0  0
  125.8843  154.4253  151.8864 C   0  0  0  0  0  0  0  0  0  0  0  0
  126.4492  155.7261  152.4790 C   0  0  0  0  0  0  0  0  0  0  0  0
  126.6287  155.2964  153.9249 C   0  0  2  0  0  0  0  0  0  0  0  0
  125.3866  155.0810  154.5276 O   0  0  0  0  0  0  0  0  0  0  0  0
  127.4119  156.2350  154.7590 C   0  0  2  0  0  0  0  0  0  0  0  0
  126.7428  157.6010  154.8621 C   0  0  0  0  0  0  0  0  0  0  0  0
  127.3795  158.3286  156.0266 C   0  0  0  0  0  0  0  0  0  0  0  0
  128.8710  158.4803  155.8389 C   0  0  2  0  0  0  0  0  0  0  0  0
  129.1030  159.4630  154.7379 C   0  0  0  0  0  0  0  0  0  0  0  0
  130.5663  159.6953  154.4423 C   0  0  2  0  0  0  0  0  0  0  0  0
  131.2228  158.3758  154.2137 C   0  0  0  0  0  0  0  0  0  0  0  0
  130.9786  157.3518  155.2658 C   0  0  0  0  0  0  0  0  0  0  0  0
  129.5100  157.1344  155.5612 C   0  0  1  0  0  0  0  0  0  0  0  0
  129.4238  156.3207  156.8191 C   0  0  0  0  0  0  0  0  0  0  0  0
  128.8213  156.4538  154.3768 C   0  0  1  0  0  0  0  0  0  0  0  0
  129.5783  155.1998  154.0449 C   0  0  0  0  0  0  0  0  0  0  0  0
  128.7981  154.1976  153.2919 C   0  0  0  0  0  0  0  0  0  0  0  0
  127.3600  154.0020  153.7453 C   0  0  2  0  0  0  0  0  0  0  0  0
  127.3199  153.1821  155.0268 C   0  0  0  0  0  0  0  0  0  0  0  0
  131.1335  160.4443  155.4719 O   0  0  0  0  0  0  0  0  0  0  0  0
  132.0258  161.3772  155.0145 C   0  0  1  0  0  0  0  0  0  0  0  0
  131.5515  162.8203  155.1844 C   0  0  0  0  0  0  0  0  0  0  0  0
  132.5457  163.6438  154.3652 C   0  0  2  0  0  0  0  0  0  0  0  0
  132.5573  163.2283  153.0409 O   0  0  0  0  0  0  0  0  0  0  0  0
  133.9424  163.3957  154.9198 C   0  0  2  0  0  0  0  0  0  0  0  0
  134.8816  163.9370  154.0448 O   0  0  0  0  0  0  0  0  0  0  0  0
  135.2570  165.2388  154.3700 C   0  0  1  0  0  0  0  0  0  0  0  0
  136.2061  165.8181  153.3431 C   0  0  0  0  0  0  0  0  0  0  0  0
  135.5213  167.0071  152.7038 C   0  0  2  0  0  0  0  0  0  0  0  0
  136.2919  167.5806  151.7055 O   0  0  0  0  0  0  0  0  0  0  0  0
  135.2201  167.9880  153.8281 C   0  0  2  0  0  0  0  0  0  0  0  0
  136.4290  168.2834  154.4344 O   0  0  0  0  0  0  0  0  0  0  0  0
  136.6012  169.6362  154.6913 C   0  0  1  0  0  0  0  0  0  0  0  0
  137.7873  169.9445  155.5476 C   0  0  0  0  0  0  0  0  0  0  0  0
  138.1014  171.4191  155.4138 C   0  0  2  0  0  0  0  0  0  0  0  0
  137.0450  172.2218  155.9035 O   0  0  0  0  0  0  0  0  0  0  0  0
  137.1467  173.6035  155.9585 C   0  0  0  0  0  0  0  0  0  0  0  0
  138.3685  174.2845  156.4679 C   0  0  0  0  0  0  0  0  0  0  0  0
  136.1633  174.2834  155.5602 O   0  0  0  0  0  0  0  0  0  0  0  0
  138.3781  171.8307  154.0057 C   0  0  2  0  0  0  0  0  0  0  0  0
  138.0200  173.1502  153.7440 O   0  0  0  0  0  0  0  0  0  0  0  0
  137.7084  170.8630  153.0619 C   0  0  1  0  0  0  0  0  0  0  0  0
  138.6799  169.7612  152.7241 C   0  0  0  0  0  0  0  0  0  0  0  0
  136.5412  170.3239  153.5150 O   0  0  0  0  0  0  0  0  0  0  0  0
  134.2450  167.3021  154.7502 C   0  0  1  0  0  0  0  0  0  0  0  0
  132.8767  167.9638  154.5278 C   0  0  0  0  0  0  0  0  0  0  0  0
  134.0786  165.9689  154.4660 O   0  0  0  0  0  0  0  0  0  0  0  0
  134.1999  161.9038  154.9466 C   0  0  1  0  0  0  0  0  0  0  0  0
  135.5519  161.5933  155.5280 C   0  0  0  0  0  0  0  0  0  0  0  0
  133.2188  161.2739  155.7098 O   0  0  0  0  0  0  0  0  0  0  0  0
  125.7675  152.2010  152.9823 C   0  0  0  0  0  0  0  0  0  0  0  0
  125.2706  151.3813  152.0722 C   0  0  0  0  0  0  0  0  0  0  0  0
  124.4336  150.3939  152.7321 C   0  0  0  0  0  0  0  0  0  0  0  0
  123.7872  149.4380  152.1837 O   0  0  0  0  0  0  0  0  0  0  0  0
  124.4588  150.6729  154.0780 O   0  0  0  0  0  0  0  0  0  0  0  0
  125.2876  151.7887  154.3031 C   0  0  0  0  0  0  0  0  0  0  0  0
  1  2  1  0
  2  3  1  0
  3  4  1  0
  4  5  1  1
  4  6  1  0
  6  7  1  6
  7  8  1  0
  9  8  1  6
  9 10  1  0
 10 11  1  0
 11 12  1  0
 12 13  1  0
 13 14  1  0
 14 15  1  1
 14 16  1  0
 16 17  1  1
 17 18  1  0
 18 19  1  0
 19 20  1  1
 11 21  1  1
 22 21  1  1
 22 23  1  0
 23 24  1  0
 24 25  1  6
 24 26  1  0
 26 27  1  6
 28 27  1  6
 28 29  1  0
 29 30  1  0
 30 31  1  6
 30 32  1  0
 32 33  1  1
 34 33  1  6
 34 35  1  0
 35 36  1  0
 36 37  1  6
 37 38  1  0
 38 39  1  0
 38 40  2  0
 36 41  1  0
 41 42  1  1
 41 43  1  0
 43 44  1  1
 43 45  1  0
 32 46  1  0
 46 47  1  6
 46 48  1  0
 26 49  1  0
 49 50  1  1
 49 51  1  0
  1 52  1  1
 52 53  2  0
 53 54  1  0
 54 55  2  0
 54 56  1  0
 56 57  1  0
 19  1  1  0
 51 22  1  0
 57 52  1  0
 19  4  1  0
 48 28  1  0
 16  6  1  0
 45 34  1  0
 14  9  1  0
M  END
$$$$
