
     RDKit          3D

 57 64  0  0  0  0  0  0  0  0999 V2000
  121.0762  134.0542  129.2499 C   0  0  1  0  0  0  0  0  0  0  0  0
  121.1618  135.5641  129.0330 C   0  0  0  0  0  0  0  0  0  0  0  0
  122.6568  135.8763  129.2064 C   0  0  0  0  0  0  0  0  0  0  0  0
  122.9900  134.9274  130.3447 C   0  0  2  0  0  0  0  0  0  0  0  0
  122.3513  135.3317  131.5199 O   0  0  0  0  0  0  0  0  0  0  0  0
  124.4359  134.7647  130.6146 C   0  0  2  0  0  0  0  0  0  0  0  0
  125.0904  136.0781  131.0278 C   0  0  0  0  0  0  0  0  0  0  0  0
  126.4232  135.7391  131.6598 C   0  0  0  0  0  0  0  0  0  0  0  0
  127.3139  134.9790  130.7049 C   0  0  2  0  0  0  0  0  0  0  0  0
  127.7490  135.9186  129.6281 C   0  0  0  0  0  0  0  0  0  0  0  0
  128.6418  135.2719  128.5950 C   0  0  2  0  0  0  0  0  0  0  0  0
  127.9668  134.0451  128.0810 C   0  0  0  0  0  0  0  0  0  0  0  0
  127.4763  133.1034  129.1240 C   0  0  0  0  0  0  0  0  0  0  0  0
  126.5912  133.7637  130.1593 C   0  0  1  0  0  0  0  0  0  0  0  0
  126.4219  132.7894  131.2879 C   0  0  0  0  0  0  0  0  0  0  0  0
  125.2556  134.1750  129.5371 C   0  0  1  0  0  0  0  0  0  0  0  0
  124.6469  132.9689  128.8809 C   0  0  0  0  0  0  0  0  0  0  0  0
  123.1868  133.0558  128.6795 C   0  0  0  0  0  0  0  0  0  0  0  0
  122.3946  133.6525  129.8320 C   0  0  2  0  0  0  0  0  0  0  0  0
  122.2559  132.6362  130.9563 C   0  0  0  0  0  0  0  0  0  0  0  0
  129.8998  135.0415  129.1492 O   0  0  0  0  0  0  0  0  0  0  0  0
  130.7263  136.1290  129.0494 C   0  0  1  0  0  0  0  0  0  0  0  0
  131.5138  136.4250  130.3255 C   0  0  0  0  0  0  0  0  0  0  0  0
  132.1243  137.8053  130.0813 C   0  0  2  0  0  0  0  0  0  0  0  0
  131.1346  138.7438  129.8239 O   0  0  0  0  0  0  0  0  0  0  0  0
  132.9967  137.7279  128.8351 C   0  0  2  0  0  0  0  0  0  0  0  0
  133.3634  139.0172  128.4562 O   0  0  0  0  0  0  0  0  0  0  0  0
  132.8022  140.0110  129.2555 C   0  0  1  0  0  0  0  0  0  0  0  0
  132.8869  139.6584  130.7250 C   0  0  0  0  0  0  0  0  0  0  0  0
  133.7570  140.6985  131.3976 C   0  0  2  0  0  0  0  0  0  0  0  0
  133.9414  140.4347  132.7451 O   0  0  0  0  0  0  0  0  0  0  0  0
  133.0811  142.0425  131.1655 C   0  0  2  0  0  0  0  0  0  0  0  0
  131.8035  141.9424  131.6886 O   0  0  0  0  0  0  0  0  0  0  0  0
  131.4284  143.0446  132.4435 C   0  0  1  0  0  0  0  0  0  0  0  0
  130.0273  143.5024  132.1936 C   0  0  0  0  0  0  0  0  0  0  0  0
  129.6117  144.4085  133.3326 C   0  0  2  0  0  0  0  0  0  0  0  0
  130.4038  145.5791  133.3809 O   0  0  0  0  0  0  0  0  0  0  0  0
  130.1582  146.5861  134.3018 C   0  0  0  0  0  0  0  0  0  0  0  0
  129.0060  146.5302  135.2427 C   0  0  0  0  0  0  0  0  0  0  0  0
  130.9469  147.5686  134.3255 O   0  0  0  0  0  0  0  0  0  0  0  0
  129.6920  143.7426  134.6663 C   0  0  2  0  0  0  0  0  0  0  0  0
  129.9700  144.6303  135.7020 O   0  0  0  0  0  0  0  0  0  0  0  0
  130.6917  142.6147  134.6019 C   0  0  1  0  0  0  0  0  0  0  0  0
  129.9698  141.3450  134.2295 C   0  0  0  0  0  0  0  0  0  0  0  0
  131.7384  142.8147  133.7517 O   0  0  0  0  0  0  0  0  0  0  0  0
  133.0968  142.2828  129.6777 C   0  0  1  0  0  0  0  0  0  0  0  0
  134.1492  143.3693  129.4102 C   0  0  0  0  0  0  0  0  0  0  0  0
  133.4885  141.1818  128.9565 O   0  0  0  0  0  0  0  0  0  0  0  0
  132.1712  137.1705  127.6945 C   0  0  1  0  0  0  0  0  0  0  0  0
  132.9941  137.0288  126.4433 C   0  0  0  0  0  0  0  0  0  0  0  0
  131.6635  135.9229  128.0511 O   0  0  0  0  0  0  0  0  0  0  0  0
  119.8842  133.7062  130.0712 C   0  0  0  0  0  0  0  0  0  0  0  0
  119.2054  132.5914  129.8625 C   0  0  0  0  0  0  0  0  0  0  0  0
  118.1021  132.5263  130.8058 C   0  0  0  0  0  0  0  0  0  0  0  0
  117.2297  131.5990  130.9119 O   0  0  0  0  0  0  0  0  0  0  0  0
  118.1616  133.6601  131.5808 O   0  0  0  0  0  0  0  0  0  0  0  0
  119.2646  134.4374  131.1786 C   0  0  0  0  0  0  0  0  0  0  0  0
  1  2  1  0
  2  3  1  0
  3  4  1  0
  4  5  1  1
  4  6  1  0
  6  7  1  6
  7  8  1  0
  9  8  1  1
  9 10  1  0
 10 11  1  0
 11 12  1  0
 12 13  1  0
 13 14  1  0
 14 15  1  1
 14 16  1  0
 16 17  1  1
 17 18  1  0
 18 19  1  0
 19 20  1  1
 11 21  1  1
 22 21  1  1
 22 23  1  0
 23 24  1  0
 24 25  1  6
 24 26  1  0
 26 27  1  6
 28 27  1  6
 28 29  1  0
 29 30  1  0
 30 31  1  1
 30 32  1  0
 32 33  1  6
 34 33  1  6
 34 35  1  0
 35 36  1  0
 36 37  1  1
 37 38  1  0
 38 39  1  0
 38 40  2  0
 36 41  1  0
 41 42  1  1
 41 43  1  0
 43 44  1  6
 43 45  1  0
 32 46  1  0
 46 47  1  1
 46 48  1  0
 26 49  1  0
 49 50  1  6
 49 51  1  0
  1 52  1  1
 52 53  2  0
 53 54  1  0
 54 55  2  0
 54 56  1  0
 56 57  1  0
 19  1  1  0
 51 22  1  0
 57 52  1  0
 19  4  1  0
 48 28  1  0
 16  6  1  0
 45 34  1  0
 14  9  1  0
M  END
$$$$
