
     RDKit          3D

 57 64  0  0  0  0  0  0  0  0999 V2000
  169.2115  146.6073  116.2648 C   0  0  1  0  0  0  0  0  0  0  0  0
  168.8830  147.8022  117.1584 C   0  0  0  0  0  0  0  0  0  0  0  0
  168.8376  148.9893  116.1832 C   0  0  0  0  0  0  0  0  0  0  0  0
  169.9845  148.6122  115.2614 C   0  0  2  0  0  0  0  0  0  0  0  0
  171.2029  148.6907  115.9410 O   0  0  0  0  0  0  0  0  0  0  0  0
  170.0733  149.4137  114.0206 C   0  0  2  0  0  0  0  0  0  0  0  0
  170.3070  150.8918  114.3118 C   0  0  0  0  0  0  0  0  0  0  0  0
  170.7808  151.5356  113.0266 C   0  0  0  0  0  0  0  0  0  0  0  0
  169.7716  151.3662  111.9151 C   0  0  2  0  0  0  0  0  0  0  0  0
  168.5856  152.2180  112.2308 C   0  0  0  0  0  0  0  0  0  0  0  0
  167.4910  152.1272  111.1933 C   0  0  2  0  0  0  0  0  0  0  0  0
  167.1545  150.6902  110.9784 C   0  0  0  0  0  0  0  0  0  0  0  0
  168.3143  149.7980  110.7064 C   0  0  0  0  0  0  0  0  0  0  0  0
  169.4092  149.9044  111.7462 C   0  0  1  0  0  0  0  0  0  0  0  0
  170.6140  149.1964  111.1993 C   0  0  0  0  0  0  0  0  0  0  0  0
  168.9405  149.3161  113.0783 C   0  0  1  0  0  0  0  0  0  0  0  0
  168.4532  147.9167  112.8334 C   0  0  0  0  0  0  0  0  0  0  0  0
  168.4392  147.0569  114.0336 C   0  0  0  0  0  0  0  0  0  0  0  0
  169.6421  147.1870  114.9545 C   0  0  2  0  0  0  0  0  0  0  0  0
  170.8415  146.4648  114.3577 C   0  0  0  0  0  0  0  0  0  0  0  0
  167.8903  152.7988  110.0390 O   0  0  0  0  0  0  0  0  0  0  0  0
  167.8703  154.1601  110.1883 C   0  0  1  0  0  0  0  0  0  0  0  0
  168.3219  154.9241  108.9439 C   0  0  0  0  0  0  0  0  0  0  0  0
  168.4918  156.3651  109.4261 C   0  0  2  0  0  0  0  0  0  0  0  0
  169.4078  156.4322  110.4668 O   0  0  0  0  0  0  0  0  0  0  0  0
  167.1561  156.8439  109.9797 C   0  0  2  0  0  0  0  0  0  0  0  0
  167.3463  158.0546  110.6419 O   0  0  0  0  0  0  0  0  0  0  0  0
  166.9642  159.1640  109.8904 C   0  0  1  0  0  0  0  0  0  0  0  0
  167.1243  160.4495  110.6731 C   0  0  0  0  0  0  0  0  0  0  0  0
  168.1553  161.2970  109.9589 C   0  0  2  0  0  0  0  0  0  0  0  0
  168.4145  162.4814  110.6291 O   0  0  0  0  0  0  0  0  0  0  0  0
  167.6177  161.5399  108.5557 C   0  0  2  0  0  0  0  0  0  0  0  0
  166.3819  162.1463  108.7013 O   0  0  0  0  0  0  0  0  0  0  0  0
  166.4496  163.5315  108.7499 C   0  0  1  0  0  0  0  0  0  0  0  0
  167.0495  164.0654  110.0110 C   0  0  0  0  0  0  0  0  0  0  0  0
  167.4414  165.5088  109.7785 C   0  0  2  0  0  0  0  0  0  0  0  0
  166.3125  166.3168  109.5087 O   0  0  0  0  0  0  0  0  0  0  0  0
  166.2798  167.6594  109.8533 C   0  0  0  0  0  0  0  0  0  0  0  0
  167.5235  168.4489  110.0674 C   0  0  0  0  0  0  0  0  0  0  0  0
  165.1526  168.2072  109.9839 O   0  0  0  0  0  0  0  0  0  0  0  0
  168.4075  165.6763  108.6527 C   0  0  2  0  0  0  0  0  0  0  0  0
  168.2793  166.9009  108.0033 O   0  0  0  0  0  0  0  0  0  0  0  0
  168.2729  164.5130  107.7019 C   0  0  1  0  0  0  0  0  0  0  0  0
  169.2409  163.4334  108.1134 C   0  0  0  0  0  0  0  0  0  0  0  0
  167.0181  163.9903  107.5981 O   0  0  0  0  0  0  0  0  0  0  0  0
  167.5430  160.1935  107.8825 C   0  0  1  0  0  0  0  0  0  0  0  0
  168.6859  160.1409  106.8575 C   0  0  0  0  0  0  0  0  0  0  0  0
  167.7513  159.1455  108.7453 O   0  0  0  0  0  0  0  0  0  0  0  0
  166.6797  155.8594  111.0269 C   0  0  1  0  0  0  0  0  0  0  0  0
  165.3388  156.2571  111.5805 C   0  0  0  0  0  0  0  0  0  0  0  0
  166.5827  154.5885  110.4636 O   0  0  0  0  0  0  0  0  0  0  0  0
  170.2035  145.7134  116.9231 C   0  0  0  0  0  0  0  0  0  0  0  0
  169.8234  144.6498  117.6096 C   0  0  0  0  0  0  0  0  0  0  0  0
  171.0013  143.9805  118.1347 C   0  0  0  0  0  0  0  0  0  0  0  0
  171.0349  142.9187  118.8446 O   0  0  0  0  0  0  0  0  0  0  0  0
  172.0967  144.7036  117.7260 O   0  0  0  0  0  0  0  0  0  0  0  0
  171.6653  145.7977  116.9517 C   0  0  0  0  0  0  0  0  0  0  0  0
  1  2  1  0
  2  3  1  0
  3  4  1  0
  4  5  1  1
  4  6  1  0
  6  7  1  1
  7  8  1  0
  9  8  1  1
  9 10  1  0
 10 11  1  0
 11 12  1  0
 12 13  1  0
 13 14  1  0
 14 15  1  6
 14 16  1  0
 16 17  1  6
 17 18  1  0
 18 19  1  0
 19 20  1  6
 11 21  1  6
 22 21  1  6
 22 23  1  0
 23 24  1  0
 24 25  1  1
 24 26  1  0
 26 27  1  1
 28 27  1  1
 28 29  1  0
 29 30  1  0
 30 31  1  1
 30 32  1  0
 32 33  1  1
 34 33  1  1
 34 35  1  0
 35 36  1  0
 36 37  1  6
 37 38  1  0
 38 39  1  0
 38 40  2  0
 36 41  1  0
 41 42  1  6
 41 43  1  0
 43 44  1  1
 43 45  1  0
 32 46  1  0
 46 47  1  6
 46 48  1  0
 26 49  1  0
 49 50  1  6
 49 51  1  0
  1 52  1  1
 52 53  2  0
 53 54  1  0
 54 55  2  0
 54 56  1  0
 56 57  1  0
 19  1  1  0
 51 22  1  0
 57 52  1  0
 19  4  1  0
 48 28  1  0
 16  6  1  0
 45 34  1  0
 14  9  1  0
M  END
$$$$
