
     RDKit          3D

 57 64  0  0  0  0  0  0  0  0999 V2000
  107.4971  167.8134  162.1913 C   0  0  1  0  0  0  0  0  0  0  0  0
  106.2582  167.0585  162.6701 C   0  0  0  0  0  0  0  0  0  0  0  0
  105.6105  166.5532  161.3710 C   0  0  0  0  0  0  0  0  0  0  0  0
  105.8664  167.7496  160.4708 C   0  0  2  0  0  0  0  0  0  0  0  0
  105.1179  168.8499  160.8969 O   0  0  0  0  0  0  0  0  0  0  0  0
  105.6003  167.5141  159.0342 C   0  0  2  0  0  0  0  0  0  0  0  0
  104.1392  167.1648  158.7745 C   0  0  0  0  0  0  0  0  0  0  0  0
  103.8886  167.3449  157.2928 C   0  0  0  0  0  0  0  0  0  0  0  0
  104.7995  166.4693  156.4645 C   0  0  2  0  0  0  0  0  0  0  0  0
  104.3714  165.0498  156.6472 C   0  0  0  0  0  0  0  0  0  0  0  0
  105.2177  164.0657  155.8740 C   0  0  2  0  0  0  0  0  0  0  0  0
  106.6520  164.3048  156.2061 C   0  0  0  0  0  0  0  0  0  0  0  0
  107.1081  165.7160  156.0814 C   0  0  0  0  0  0  0  0  0  0  0  0
  106.2474  166.6944  156.8515 C   0  0  1  0  0  0  0  0  0  0  0  0
  106.6299  168.0743  156.4026 C   0  0  0  0  0  0  0  0  0  0  0  0
  106.4312  166.4981  158.3575 C   0  0  1  0  0  0  0  0  0  0  0  0
  107.8975  166.5833  158.6712 C   0  0  0  0  0  0  0  0  0  0  0  0
  108.2021  166.9099  160.0785 C   0  0  0  0  0  0  0  0  0  0  0  0
  107.3263  167.9780  160.7141 C   0  0  2  0  0  0  0  0  0  0  0  0
  107.7412  169.3580  160.2244 C   0  0  0  0  0  0  0  0  0  0  0  0
  104.9217  164.1674  154.5157 O   0  0  0  0  0  0  0  0  0  0  0  0
  104.1240  163.1459  154.0728 C   0  0  1  0  0  0  0  0  0  0  0  0
  103.4831  163.4097  152.7105 C   0  0  0  0  0  0  0  0  0  0  0  0
  102.4423  162.2997  152.5612 C   0  0  2  0  0  0  0  0  0  0  0  0
  101.5299  162.3352  153.6067 O   0  0  0  0  0  0  0  0  0  0  0  0
  103.1594  160.9584  152.6441 C   0  0  2  0  0  0  0  0  0  0  0  0
  102.2124  159.9429  152.7559 O   0  0  0  0  0  0  0  0  0  0  0  0
  101.0073  160.2360  152.1208 C   0  0  1  0  0  0  0  0  0  0  0  0
  101.2047  161.1930  150.9649 C   0  0  0  0  0  0  0  0  0  0  0  0
  100.7989  160.4722  149.6972 C   0  0  2  0  0  0  0  0  0  0  0  0
  100.9931  161.2503  148.5676 O   0  0  0  0  0  0  0  0  0  0  0  0
   99.3400  160.0754  149.8742 C   0  0  2  0  0  0  0  0  0  0  0  0
   98.6359  161.2421  150.1179 O   0  0  0  0  0  0  0  0  0  0  0  0
   97.3557  161.2358  149.5825 C   0  0  1  0  0  0  0  0  0  0  0  0
   96.3999  162.1453  150.2858 C   0  0  0  0  0  0  0  0  0  0  0  0
   95.2007  162.3624  149.3883 C   0  0  2  0  0  0  0  0  0  0  0  0
   94.4980  161.1567  149.1591 O   0  0  0  0  0  0  0  0  0  0  0  0
   93.7782  160.5316  150.1659 C   0  0  0  0  0  0  0  0  0  0  0  0
   94.4482  159.8409  151.3017 C   0  0  0  0  0  0  0  0  0  0  0  0
   92.5204  160.5616  150.0973 O   0  0  0  0  0  0  0  0  0  0  0  0
   95.5630  162.9437  148.0617 C   0  0  2  0  0  0  0  0  0  0  0  0
   94.6974  162.5559  147.0429 O   0  0  0  0  0  0  0  0  0  0  0  0
   96.9991  162.6078  147.7449 C   0  0  1  0  0  0  0  0  0  0  0  0
   97.8824  163.7183  148.2535 C   0  0  0  0  0  0  0  0  0  0  0  0
   97.4368  161.4124  148.2324 O   0  0  0  0  0  0  0  0  0  0  0  0
   99.2933  159.1022  151.0241 C   0  0  1  0  0  0  0  0  0  0  0  0
   99.0429  157.7107  150.4235 C   0  0  0  0  0  0  0  0  0  0  0  0
  100.4804  159.0177  151.7092 O   0  0  0  0  0  0  0  0  0  0  0  0
  103.9751  160.9183  153.9193 C   0  0  1  0  0  0  0  0  0  0  0  0
  104.7436  159.6304  154.0355 C   0  0  0  0  0  0  0  0  0  0  0  0
  104.8692  161.9869  153.9359 O   0  0  0  0  0  0  0  0  0  0  0  0
  107.6732  169.0777  162.9575 C   0  0  0  0  0  0  0  0  0  0  0  0
  108.3982  169.1188  164.0619 C   0  0  0  0  0  0  0  0  0  0  0  0
  108.3841  170.4736  164.5864 C   0  0  0  0  0  0  0  0  0  0  0  0
  108.9718  170.9019  165.6369 O   0  0  0  0  0  0  0  0  0  0  0  0
  107.6120  171.2308  163.7377 O   0  0  0  0  0  0  0  0  0  0  0  0
  107.1452  170.4169  162.6878 C   0  0  0  0  0  0  0  0  0  0  0  0
  1  2  1  0
  2  3  1  0
  3  4  1  0
  4  5  1  1
  4  6  1  0
  6  7  1  1
  7  8  1  0
  9  8  1  1
  9 10  1  0
 10 11  1  0
 11 12  1  0
 12 13  1  0
 13 14  1  0
 14 15  1  6
 14 16  1  0
 16 17  1  6
 17 18  1  0
 18 19  1  0
 19 20  1  6
 11 21  1  6
 22 21  1  6
 22 23  1  0
 23 24  1  0
 24 25  1  1
 24 26  1  0
 26 27  1  1
 28 27  1  6
 28 29  1  0
 29 30  1  0
 30 31  1  6
 30 32  1  0
 32 33  1  1
 34 33  1  1
 34 35  1  0
 35 36  1  0
 36 37  1  6
 37 38  1  0
 38 39  1  0
 38 40  2  0
 36 41  1  0
 41 42  1  6
 41 43  1  0
 43 44  1  1
 43 45  1  0
 32 46  1  0
 46 47  1  6
 46 48  1  0
 26 49  1  0
 49 50  1  6
 49 51  1  0
  1 52  1  1
 52 53  2  0
 53 54  1  0
 54 55  2  0
 54 56  1  0
 56 57  1  0
 19  1  1  0
 51 22  1  0
 57 52  1  0
 19  4  1  0
 48 28  1  0
 16  6  1  0
 45 34  1  0
 14  9  1  0
M  END
$$$$
