
     RDKit          3D

 57 64  0  0  0  0  0  0  0  0999 V2000
  128.7110  149.5605  135.1008 C   0  0  1  0  0  0  0  0  0  0  0  0
  129.2071  148.7482  136.2959 C   0  0  0  0  0  0  0  0  0  0  0  0
  129.0650  147.2893  135.8335 C   0  0  0  0  0  0  0  0  0  0  0  0
  127.7615  147.3879  135.0598 C   0  0  2  0  0  0  0  0  0  0  0  0
  126.6971  147.6446  135.9278 O   0  0  0  0  0  0  0  0  0  0  0  0
  127.4362  146.2013  134.2375 C   0  0  2  0  0  0  0  0  0  0  0  0
  127.2648  144.9476  135.0878 C   0  0  0  0  0  0  0  0  0  0  0  0
  126.5529  143.9186  134.2363 C   0  0  0  0  0  0  0  0  0  0  0  0
  127.3288  143.6053  132.9783 C   0  0  2  0  0  0  0  0  0  0  0  0
  128.5543  142.8441  133.3659 C   0  0  0  0  0  0  0  0  0  0  0  0
  129.4283  142.4784  132.1890 C   0  0  2  0  0  0  0  0  0  0  0  0
  129.7154  143.7142  131.4049 C   0  0  0  0  0  0  0  0  0  0  0  0
  128.5238  144.5269  131.0376 C   0  0  0  0  0  0  0  0  0  0  0  0
  127.6501  144.8790  132.2225 C   0  0  1  0  0  0  0  0  0  0  0  0
  126.3616  145.4244  131.6799 C   0  0  0  0  0  0  0  0  0  0  0  0
  128.3660  145.8736  133.1381 C   0  0  1  0  0  0  0  0  0  0  0  0
  128.7953  147.0531  132.3133 C   0  0  0  0  0  0  0  0  0  0  0  0
  129.0394  148.2845  133.0907 C   0  0  0  0  0  0  0  0  0  0  0  0
  128.0367  148.5791  134.1950 C   0  0  2  0  0  0  0  0  0  0  0  0
  126.7439  149.1195  133.6008 C   0  0  0  0  0  0  0  0  0  0  0  0
  128.8148  141.4655  131.4537 O   0  0  0  0  0  0  0  0  0  0  0  0
  129.5488  140.3093  131.4359 C   0  0  1  0  0  0  0  0  0  0  0  0
  130.1383  139.9315  132.7946 C   0  0  0  0  0  0  0  0  0  0  0  0
  131.1244  138.8065  132.4790 C   0  0  2  0  0  0  0  0  0  0  0  0
  132.0835  139.2318  131.5702 O   0  0  0  0  0  0  0  0  0  0  0  0
  130.3568  137.6711  131.8145 C   0  0  2  0  0  0  0  0  0  0  0  0
  131.2650  136.7478  131.3013 O   0  0  0  0  0  0  0  0  0  0  0  0
  131.4718  135.6508  132.1351 C   0  0  1  0  0  0  0  0  0  0  0  0
  130.4789  134.5432  131.8555 C   0  0  0  0  0  0  0  0  0  0  0  0
  131.2585  133.3378  131.3751 C   0  0  2  0  0  0  0  0  0  0  0  0
  130.4307  132.2787  131.0400 O   0  0  0  0  0  0  0  0  0  0  0  0
  132.2261  132.9758  132.4929 C   0  0  2  0  0  0  0  0  0  0  0  0
  131.4616  132.7474  133.6241 O   0  0  0  0  0  0  0  0  0  0  0  0
  131.4193  131.4125  134.0010 C   0  0  1  0  0  0  0  0  0  0  0  0
  132.1566  130.4978  133.0765 C   0  0  0  0  0  0  0  0  0  0  0  0
  132.3861  129.1828  133.7900 C   0  0  2  0  0  0  0  0  0  0  0  0
  131.1655  128.5351  134.0913 O   0  0  0  0  0  0  0  0  0  0  0  0
  130.1562  129.1758  134.7935 C   0  0  0  0  0  0  0  0  0  0  0  0
  128.7338  128.7476  134.6964 C   0  0  0  0  0  0  0  0  0  0  0  0
  130.4753  130.1472  135.5300 O   0  0  0  0  0  0  0  0  0  0  0  0
  133.1527  129.3358  135.0619 C   0  0  2  0  0  0  0  0  0  0  0  0
  132.8251  128.3743  136.0137 O   0  0  0  0  0  0  0  0  0  0  0  0
  132.9736  130.7385  135.5872 C   0  0  1  0  0  0  0  0  0  0  0  0
  134.0800  131.6065  135.0447 C   0  0  0  0  0  0  0  0  0  0  0  0
  131.7660  131.3100  135.3162 O   0  0  0  0  0  0  0  0  0  0  0  0
  133.1716  134.1402  132.6401 C   0  0  1  0  0  0  0  0  0  0  0  0
  134.5211  133.6985  132.0543 C   0  0  0  0  0  0  0  0  0  0  0  0
  132.7839  135.2452  131.9227 O   0  0  0  0  0  0  0  0  0  0  0  0
  129.5983  138.2236  130.6261 C   0  0  1  0  0  0  0  0  0  0  0  0
  128.7831  137.1535  129.9531 C   0  0  0  0  0  0  0  0  0  0  0  0
  128.7509  139.2465  131.0472 O   0  0  0  0  0  0  0  0  0  0  0  0
  127.8635  150.6984  135.5518 C   0  0  0  0  0  0  0  0  0  0  0  0
  128.3935  151.8626  135.8846 C   0  0  0  0  0  0  0  0  0  0  0  0
  127.3304  152.7689  136.2840 C   0  0  0  0  0  0  0  0  0  0  0  0
  127.4521  153.9811  136.6692 O   0  0  0  0  0  0  0  0  0  0  0  0
  126.1455  152.0808  136.1730 O   0  0  0  0  0  0  0  0  0  0  0  0
  126.4094  150.7786  135.7068 C   0  0  0  0  0  0  0  0  0  0  0  0
  1  2  1  0
  2  3  1  0
  3  4  1  0
  4  5  1  1
  4  6  1  0
  6  7  1  1
  7  8  1  0
  9  8  1  1
  9 10  1  0
 10 11  1  0
 11 12  1  0
 12 13  1  0
 13 14  1  0
 14 15  1  6
 14 16  1  0
 16 17  1  6
 17 18  1  0
 18 19  1  0
 19 20  1  6
 11 21  1  6
 22 21  1  1
 22 23  1  0
 23 24  1  0
 24 25  1  6
 24 26  1  0
 26 27  1  6
 28 27  1  6
 28 29  1  0
 29 30  1  0
 30 31  1  1
 30 32  1  0
 32 33  1  1
 34 33  1  6
 34 35  1  0
 35 36  1  0
 36 37  1  1
 37 38  1  0
 38 39  1  0
 38 40  2  0
 36 41  1  0
 41 42  1  1
 41 43  1  0
 43 44  1  6
 43 45  1  0
 32 46  1  0
 46 47  1  6
 46 48  1  0
 26 49  1  0
 49 50  1  1
 49 51  1  0
  1 52  1  1
 52 53  2  0
 53 54  1  0
 54 55  2  0
 54 56  1  0
 56 57  1  0
 19  1  1  0
 51 22  1  0
 57 52  1  0
 19  4  1  0
 48 28  1  0
 16  6  1  0
 45 34  1  0
 14  9  1  0
M  END
$$$$
