
     RDKit          3D

 57 64  0  0  0  0  0  0  0  0999 V2000
  165.4374  156.9207  129.0714 C   0  0  1  0  0  0  0  0  0  0  0  0
  165.0283  155.7651  129.9832 C   0  0  0  0  0  0  0  0  0  0  0  0
  165.1294  154.5279  129.0768 C   0  0  0  0  0  0  0  0  0  0  0  0
  164.6084  155.1153  127.7765 C   0  0  2  0  0  0  0  0  0  0  0  0
  163.2508  155.4257  127.8907 O   0  0  0  0  0  0  0  0  0  0  0  0
  164.8078  154.2605  126.5850 C   0  0  2  0  0  0  0  0  0  0  0  0
  164.0730  152.9304  126.7077 C   0  0  0  0  0  0  0  0  0  0  0  0
  163.9992  152.3261  125.3220 C   0  0  0  0  0  0  0  0  0  0  0  0
  165.3745  152.1207  124.7312 C   0  0  2  0  0  0  0  0  0  0  0  0
  166.0416  151.0141  125.4809 C   0  0  0  0  0  0  0  0  0  0  0  0
  167.4393  150.7170  124.9902 C   0  0  2  0  0  0  0  0  0  0  0  0
  168.2214  151.9869  124.9781 C   0  0  0  0  0  0  0  0  0  0  0  0
  167.5708  153.1292  124.2802 C   0  0  0  0  0  0  0  0  0  0  0  0
  166.1675  153.4116  124.7725 C   0  0  1  0  0  0  0  0  0  0  0  0
  165.5371  154.3650  123.8000 C   0  0  0  0  0  0  0  0  0  0  0  0
  166.2023  153.9682  126.1970 C   0  0  1  0  0  0  0  0  0  0  0  0
  167.1173  155.1590  126.2185 C   0  0  0  0  0  0  0  0  0  0  0  0
  166.8854  156.0861  127.3440 C   0  0  0  0  0  0  0  0  0  0  0  0
  165.4294  156.3642  127.6827 C   0  0  2  0  0  0  0  0  0  0  0  0
  164.8279  157.3253  126.6675 C   0  0  0  0  0  0  0  0  0  0  0  0
  167.3698  150.0776  123.7536 O   0  0  0  0  0  0  0  0  0  0  0  0
  167.2578  148.7175  123.8696 C   0  0  1  0  0  0  0  0  0  0  0  0
  165.8297  148.2353  124.1236 C   0  0  0  0  0  0  0  0  0  0  0  0
  165.9894  146.7614  124.4973 C   0  0  2  0  0  0  0  0  0  0  0  0
  166.8153  146.6198  125.6039 O   0  0  0  0  0  0  0  0  0  0  0  0
  166.6735  146.0466  123.3393 C   0  0  2  0  0  0  0  0  0  0  0  0
  167.0471  144.7692  123.7507 O   0  0  0  0  0  0  0  0  0  0  0  0
  166.8060  144.5290  125.1019 C   0  0  1  0  0  0  0  0  0  0  0  0
  165.3604  144.1568  125.3524 C   0  0  0  0  0  0  0  0  0  0  0  0
  165.3374  142.7453  125.8988 C   0  0  2  0  0  0  0  0  0  0  0  0
  164.0475  142.2881  126.1137 O   0  0  0  0  0  0  0  0  0  0  0  0
  166.1580  142.7651  127.1808 C   0  0  2  0  0  0  0  0  0  0  0  0
  165.5778  143.7083  128.0114 O   0  0  0  0  0  0  0  0  0  0  0  0
  165.2527  143.2129  129.2663 C   0  0  1  0  0  0  0  0  0  0  0  0
  165.6246  144.1232  130.3924 C   0  0  0  0  0  0  0  0  0  0  0  0
  164.8706  143.6840  131.6291 C   0  0  2  0  0  0  0  0  0  0  0  0
  165.2501  142.3833  132.0346 O   0  0  0  0  0  0  0  0  0  0  0  0
  166.5820  142.0253  132.1766 C   0  0  0  0  0  0  0  0  0  0  0  0
  167.4742  142.6848  133.1691 C   0  0  0  0  0  0  0  0  0  0  0  0
  167.0295  141.1118  131.4329 O   0  0  0  0  0  0  0  0  0  0  0  0
  163.3893  143.6946  131.4431 C   0  0  2  0  0  0  0  0  0  0  0  0
  162.7368  142.7386  132.2164 O   0  0  0  0  0  0  0  0  0  0  0  0
  163.0693  143.5525  129.9758 C   0  0  1  0  0  0  0  0  0  0  0  0
  162.9594  144.9266  129.3661 C   0  0  0  0  0  0  0  0  0  0  0  0
  163.9525  142.8009  129.2592 O   0  0  0  0  0  0  0  0  0  0  0  0
  167.5703  143.1111  126.7845 C   0  0  1  0  0  0  0  0  0  0  0  0
  168.3984  141.8231  126.9071 C   0  0  0  0  0  0  0  0  0  0  0  0
  167.6810  143.5167  125.4772 O   0  0  0  0  0  0  0  0  0  0  0  0
  167.9578  146.7758  123.0049 C   0  0  1  0  0  0  0  0  0  0  0  0
  168.6583  146.1397  121.8356 C   0  0  0  0  0  0  0  0  0  0  0  0
  167.6743  148.1054  122.6995 O   0  0  0  0  0  0  0  0  0  0  0  0
  164.5578  158.1018  129.2899 C   0  0  0  0  0  0  0  0  0  0  0  0
  164.7807  158.9539  130.2753 C   0  0  0  0  0  0  0  0  0  0  0  0
  163.7652  159.9925  130.2409 C   0  0  0  0  0  0  0  0  0  0  0  0
  163.6522  160.9896  131.0317 O   0  0  0  0  0  0  0  0  0  0  0  0
  162.9292  159.7097  129.1868 O   0  0  0  0  0  0  0  0  0  0  0  0
  163.3785  158.5419  128.5413 C   0  0  0  0  0  0  0  0  0  0  0  0
  1  2  1  0
  2  3  1  0
  3  4  1  0
  4  5  1  1
  4  6  1  0
  6  7  1  1
  7  8  1  0
  9  8  1  1
  9 10  1  0
 10 11  1  0
 11 12  1  0
 12 13  1  0
 13 14  1  0
 14 15  1  6
 14 16  1  0
 16 17  1  6
 17 18  1  0
 18 19  1  0
 19 20  1  6
 11 21  1  6
 22 21  1  6
 22 23  1  0
 23 24  1  0
 24 25  1  1
 24 26  1  0
 26 27  1  1
 28 27  1  6
 28 29  1  0
 29 30  1  0
 30 31  1  1
 30 32  1  0
 32 33  1  1
 34 33  1  6
 34 35  1  0
 35 36  1  0
 36 37  1  6
 37 38  1  0
 38 39  1  0
 38 40  2  0
 36 41  1  0
 41 42  1  1
 41 43  1  0
 43 44  1  6
 43 45  1  0
 32 46  1  0
 46 47  1  6
 46 48  1  0
 26 49  1  0
 49 50  1  6
 49 51  1  0
  1 52  1  6
 52 53  2  0
 53 54  1  0
 54 55  2  0
 54 56  1  0
 56 57  1  0
 19  1  1  0
 51 22  1  0
 57 52  1  0
 19  4  1  0
 48 28  1  0
 16  6  1  0
 45 34  1  0
 14  9  1  0
M  END
$$$$
