
     RDKit          3D

 57 64  0  0  0  0  0  0  0  0999 V2000
  186.1349  168.5610  102.9723 C   0  0  1  0  0  0  0  0  0  0  0  0
  184.8188  169.2694  102.6559 C   0  0  0  0  0  0  0  0  0  0  0  0
  183.7878  168.5375  103.5299 C   0  0  0  0  0  0  0  0  0  0  0  0
  184.3063  167.1150  103.4070 C   0  0  2  0  0  0  0  0  0  0  0  0
  184.1389  166.6457  102.1016 O   0  0  0  0  0  0  0  0  0  0  0  0
  183.6970  166.1485  104.3476 C   0  0  2  0  0  0  0  0  0  0  0  0
  182.1941  166.0116  104.1308 C   0  0  0  0  0  0  0  0  0  0  0  0
  181.7506  164.7453  104.8311 C   0  0  0  0  0  0  0  0  0  0  0  0
  182.0732  164.7839  106.3066 C   0  0  2  0  0  0  0  0  0  0  0  0
  181.1742  165.7870  106.9525 C   0  0  0  0  0  0  0  0  0  0  0  0
  181.4074  165.9298  108.4384 C   0  0  2  0  0  0  0  0  0  0  0  0
  182.8576  166.1893  108.6716 C   0  0  0  0  0  0  0  0  0  0  0  0
  183.7899  165.2386  108.0067 C   0  0  0  0  0  0  0  0  0  0  0  0
  183.5409  165.0956  106.5204 C   0  0  1  0  0  0  0  0  0  0  0  0
  184.3319  163.9112  106.0477 C   0  0  0  0  0  0  0  0  0  0  0  0
  183.9226  166.3831  105.7879 C   0  0  1  0  0  0  0  0  0  0  0  0
  185.3386  166.7313  106.1476 C   0  0  0  0  0  0  0  0  0  0  0  0
  186.0122  167.6215  105.1812 C   0  0  0  0  0  0  0  0  0  0  0  0
  185.7582  167.3171  103.7133 C   0  0  2  0  0  0  0  0  0  0  0  0
  186.5706  166.1055  103.2795 C   0  0  0  0  0  0  0  0  0  0  0  0
  180.9166  164.8023  109.0946 O   0  0  0  0  0  0  0  0  0  0  0  0
  179.5707  164.8783  109.3368 C   0  0  1  0  0  0  0  0  0  0  0  0
  179.0207  163.7000  110.1401 C   0  0  0  0  0  0  0  0  0  0  0  0
  177.5024  163.8492  110.0386 C   0  0  2  0  0  0  0  0  0  0  0  0
  177.0935  163.8403  108.7122 O   0  0  0  0  0  0  0  0  0  0  0  0
  177.1167  165.2065  110.6123 C   0  0  2  0  0  0  0  0  0  0  0  0
  175.7816  165.4648  110.3098 O   0  0  0  0  0  0  0  0  0  0  0  0
  174.8934  164.5842  110.9238 C   0  0  1  0  0  0  0  0  0  0  0  0
  174.0309  163.8649  109.9091 C   0  0  0  0  0  0  0  0  0  0  0  0
  174.3437  162.3869  110.0057 C   0  0  2  0  0  0  0  0  0  0  0  0
  173.6392  161.6409  109.0749 O   0  0  0  0  0  0  0  0  0  0  0  0
  174.0224  161.9700  111.4340 C   0  0  2  0  0  0  0  0  0  0  0  0
  172.6930  162.2877  111.6530 O   0  0  0  0  0  0  0  0  0  0  0  0
  172.3931  163.6170  111.3912 C   0  0  1  0  0  0  0  0  0  0  0  0
  171.1022  163.8154  110.6636 C   0  0  0  0  0  0  0  0  0  0  0  0
  170.6945  165.2664  110.8032 C   0  0  2  0  0  0  0  0  0  0  0  0
  171.6290  166.1304  110.1864 O   0  0  0  0  0  0  0  0  0  0  0  0
  171.2587  166.9937  109.1666 C   0  0  0  0  0  0  0  0  0  0  0  0
  169.8330  167.2163  108.8010 C   0  0  0  0  0  0  0  0  0  0  0  0
  172.1729  167.5974  108.5441 O   0  0  0  0  0  0  0  0  0  0  0  0
  170.5403  165.6942  112.2252 C   0  0  2  0  0  0  0  0  0  0  0  0
  170.8243  167.0427  112.4215 O   0  0  0  0  0  0  0  0  0  0  0  0
  171.3781  164.8033  113.1083 C   0  0  1  0  0  0  0  0  0  0  0  0
  170.5339  163.6432  113.5704 C   0  0  0  0  0  0  0  0  0  0  0  0
  172.5271  164.3385  112.5409 O   0  0  0  0  0  0  0  0  0  0  0  0
  174.9694  162.7278  112.3287 C   0  0  1  0  0  0  0  0  0  0  0  0
  176.0105  161.7187  112.8362 C   0  0  0  0  0  0  0  0  0  0  0  0
  175.6715  163.7056  111.6679 O   0  0  0  0  0  0  0  0  0  0  0  0
  177.9241  166.2799  109.9133 C   0  0  1  0  0  0  0  0  0  0  0  0
  177.6176  167.6433  110.4700 C   0  0  0  0  0  0  0  0  0  0  0  0
  179.2838  166.0179  110.0691 O   0  0  0  0  0  0  0  0  0  0  0  0
  186.9306  168.3480  101.7322 C   0  0  0  0  0  0  0  0  0  0  0  0
  187.4593  169.3624  101.0701 C   0  0  0  0  0  0  0  0  0  0  0  0
  188.1695  168.8511   99.9103 C   0  0  0  0  0  0  0  0  0  0  0  0
  188.8084  169.5277   99.0349 O   0  0  0  0  0  0  0  0  0  0  0  0
  188.0318  167.4833   99.9189 O   0  0  0  0  0  0  0  0  0  0  0  0
  187.2746  167.1023  101.0432 C   0  0  0  0  0  0  0  0  0  0  0  0
  1  2  1  0
  2  3  1  0
  3  4  1  0
  4  5  1  6
  4  6  1  0
  6  7  1  1
  7  8  1  0
  9  8  1  6
  9 10  1  0
 10 11  1  0
 11 12  1  0
 12 13  1  0
 13 14  1  0
 14 15  1  6
 14 16  1  0
 16 17  1  6
 17 18  1  0
 18 19  1  0
 19 20  1  6
 11 21  1  1
 22 21  1  1
 22 23  1  0
 23 24  1  0
 24 25  1  6
 24 26  1  0
 26 27  1  6
 28 27  1  6
 28 29  1  0
 29 30  1  0
 30 31  1  6
 30 32  1  0
 32 33  1  1
 34 33  1  1
 34 35  1  0
 35 36  1  0
 36 37  1  1
 37 38  1  0
 38 39  1  0
 38 40  2  0
 36 41  1  0
 41 42  1  6
 41 43  1  0
 43 44  1  6
 43 45  1  0
 32 46  1  0
 46 47  1  6
 46 48  1  0
 26 49  1  0
 49 50  1  1
 49 51  1  0
  1 52  1  6
 52 53  2  0
 53 54  1  0
 54 55  2  0
 54 56  1  0
 56 57  1  0
 19  1  1  0
 51 22  1  0
 57 52  1  0
 19  4  1  0
 48 28  1  0
 16  6  1  0
 45 34  1  0
 14  9  1  0
M  END
$$$$
