
     RDKit          3D

 56 65  0  0  0  0  0  0  0  0999 V2000
  169.9100  144.5676  124.8556 C   0  0  2  0  0  0  0  0  0  0  0  0
  170.1801  145.3239  123.5585 C   0  0  2  0  0  0  0  0  0  0  0  0
  171.0987  144.2790  122.3890 S   0  0  0  0  0  0  0  0  0  0  0  0
  172.6285  145.1577  121.9579 C   0  0  0  0  0  0  0  0  0  0  0  0
  173.6825  144.1555  121.6333 C   0  0  1  0  0  0  0  0  0  0  0  0
  173.3153  143.3811  120.4617 N   0  0  0  0  0  0  0  0  0  0  0  0
  172.9818  144.1749  119.3234 C   0  0  0  0  0  0  0  0  0  0  0  0
  174.0239  145.2030  118.9709 C   0  0  0  0  0  0  0  0  0  0  0  0
  175.0736  145.3269  119.9981 C   0  0  0  0  0  0  0  0  0  0  0  0
  174.9629  144.8445  121.2865 C   0  0  0  0  0  0  0  0  0  0  0  0
  176.1002  145.1326  121.9407 N   0  0  0  0  0  0  0  0  0  0  0  0
  176.9430  145.7840  121.1224 C   0  0  0  0  0  0  0  0  0  0  0  0
  178.2195  146.3065  121.2640 C   0  0  0  0  0  0  0  0  0  0  0  0
  178.8734  146.9523  120.2111 C   0  0  0  0  0  0  0  0  0  0  0  0
  178.2511  147.0853  118.9882 C   0  0  0  0  0  0  0  0  0  0  0  0
  178.8250  147.7103  117.8908 O   0  0  0  0  0  0  0  0  0  0  0  0
  177.9747  147.9398  116.7678 C   0  0  0  0  0  0  0  0  0  0  0  0
  176.9809  146.5646  118.8497 C   0  0  0  0  0  0  0  0  0  0  0  0
  176.3248  145.9254  119.8802 C   0  0  0  0  0  0  0  0  0  0  0  0
  173.8616  143.2185  122.7681 C   0  0  0  0  0  0  0  0  0  0  0  0
  174.5444  142.1458  122.5337 O   0  0  0  0  0  0  0  0  0  0  0  0
  173.3902  143.3550  124.0308 O   0  0  0  0  0  0  0  0  0  0  0  0
  173.5184  144.3656  124.9663 C   0  0  0  0  0  0  0  0  0  0  0  0
  172.1805  144.8640  125.4934 C   0  0  2  0  0  0  0  0  0  0  0  0
  171.1190  143.9306  125.2257 N   0  0  0  0  0  0  0  0  0  0  0  0
  170.9829  143.0183  126.3419 C   0  0  1  0  0  0  0  0  0  0  0  0
  170.6908  143.6794  127.5208 O   0  0  0  0  0  0  0  0  0  0  0  0
  169.8668  142.0336  125.9655 C   0  0  2  0  0  0  0  0  0  0  0  0
  170.2187  141.4219  124.6589 C   0  0  0  0  0  0  0  0  0  0  0  0
  169.2911  141.7310  123.5369 C   0  0  0  0  0  0  0  0  0  0  0  0
  169.1803  140.8917  122.4397 C   0  0  0  0  0  0  0  0  0  0  0  0
  168.3108  141.2017  121.4209 C   0  0  0  0  0  0  0  0  0  0  0  0
  168.1783  140.2969  120.2179 C   0  0  0  0  0  0  0  0  0  0  0  0
  167.5449  142.3465  121.4833 C   0  0  0  0  0  0  0  0  0  0  0  0
  166.6833  142.6162  120.4324 O   0  0  0  0  0  0  0  0  0  0  0  0
  165.2859  142.6618  120.7229 C   0  0  0  0  0  0  0  0  0  0  0  0
  167.6766  143.1738  122.6002 C   0  0  0  0  0  0  0  0  0  0  0  0
  166.8924  144.3161  122.6349 O   0  0  0  0  0  0  0  0  0  0  0  0
  168.5384  142.8724  123.6157 C   0  0  0  0  0  0  0  0  0  0  0  0
  168.7008  143.7139  124.8119 C   0  0  1  0  0  0  0  0  0  0  0  0
  168.6512  142.7688  125.9170 N   0  0  0  0  0  0  0  0  0  0  0  0
  168.2158  143.3296  127.1438 C   0  0  0  0  0  0  0  0  0  0  0  0
  171.9590  146.2268  124.9518 C   0  0  0  0  0  0  0  0  0  0  0  0
  172.7500  147.2938  125.4076 C   0  0  0  0  0  0  0  0  0  0  0  0
  173.7757  147.3885  126.3335 O   0  0  0  0  0  0  0  0  0  0  0  0
  174.0163  148.7360  126.6922 C   0  0  0  0  0  0  0  0  0  0  0  0
  173.5045  149.4096  125.5572 O   0  0  0  0  0  0  0  0  0  0  0  0
  172.5749  148.5751  124.9126 C   0  0  0  0  0  0  0  0  0  0  0  0
  171.6061  148.7838  123.9606 C   0  0  0  0  0  0  0  0  0  0  0  0
  171.3814  150.1294  123.4025 C   0  0  0  0  0  0  0  0  0  0  0  0
  170.8159  147.7262  123.5032 C   0  0  0  0  0  0  0  0  0  0  0  0
  169.8378  147.9097  122.5493 O   0  0  0  0  0  0  0  0  0  0  0  0
  170.0846  148.5744  121.3469 C   0  0  0  0  0  0  0  0  0  0  0  0
  170.6281  147.8127  120.2137 C   0  0  0  0  0  0  0  0  0  0  0  0
  169.8201  149.7951  121.3194 O   0  0  0  0  0  0  0  0  0  0  0  0
  170.9976  146.4713  123.9979 C   0  0  0  0  0  0  0  0  0  0  0  0
  1  2  1  0
  2  3  1  6
  3  4  1  0
  4  5  1  0
  5  6  1  6
  6  7  1  0
  7  8  1  0
  8  9  1  0
  9 10  2  0
 10 11  1  0
 11 12  1  0
 12 13  2  0
 13 14  1  0
 14 15  2  0
 15 16  1  0
 16 17  1  0
 15 18  1  0
 18 19  2  0
  5 20  1  0
 20 21  2  0
 20 22  1  0
 22 23  1  0
 24 23  1  6
 24 25  1  0
 25 26  1  0
 26 27  1  1
 26 28  1  0
 28 29  1  6
 29 30  1  0
 30 31  2  0
 31 32  1  0
 32 33  1  0
 32 34  2  0
 34 35  1  0
 35 36  1  0
 34 37  1  0
 37 38  1  0
 37 39  2  0
 40 39  1  6
 40 41  1  0
 41 42  1  0
 24 43  1  0
 43 44  2  0
 44 45  1  0
 45 46  1  0
 46 47  1  0
 47 48  1  0
 48 49  2  0
 49 50  1  0
 49 51  1  0
 51 52  1  0
 52 53  1  0
 53 54  1  0
 53 55  2  0
 51 56  2  0
  1 25  1  6
 41 28  1  0
 56 43  1  0
 40  1  1  0
 48 44  1  0
 56  2  1  0
 10  5  1  0
 19 12  1  0
 39 30  1  0
 19  9  1  0
M  END
$$$$
