
     RDKit          3D

 56 65  0  0  0  0  0  0  0  0999 V2000
  127.7550  138.3703  134.5151 C   0  0  2  0  0  0  0  0  0  0  0  0
  128.5927  137.7987  133.3753 C   0  0  2  0  0  0  0  0  0  0  0  0
  130.2566  138.5301  133.3761 S   0  0  0  0  0  0  0  0  0  0  0  0
  130.5176  139.2933  131.7489 C   0  0  0  0  0  0  0  0  0  0  0  0
  131.4509  140.4449  131.9031 C   0  0  1  0  0  0  0  0  0  0  0  0
  132.7552  139.9956  132.3547 N   0  0  0  0  0  0  0  0  0  0  0  0
  133.3254  138.9664  131.5467 C   0  0  0  0  0  0  0  0  0  0  0  0
  133.3597  139.2937  130.0774 C   0  0  0  0  0  0  0  0  0  0  0  0
  132.6029  140.5146  129.7470 C   0  0  0  0  0  0  0  0  0  0  0  0
  131.6782  141.1074  130.5826 C   0  0  0  0  0  0  0  0  0  0  0  0
  131.1883  142.1933  129.9618 N   0  0  0  0  0  0  0  0  0  0  0  0
  131.7625  142.3246  128.7545 C   0  0  0  0  0  0  0  0  0  0  0  0
  131.6389  143.2372  127.7180 C   0  0  0  0  0  0  0  0  0  0  0  0
  132.3851  143.1232  126.5418 C   0  0  0  0  0  0  0  0  0  0  0  0
  133.2753  142.0822  126.3855 C   0  0  0  0  0  0  0  0  0  0  0  0
  134.0548  141.8927  125.2539 O   0  0  0  0  0  0  0  0  0  0  0  0
  135.4691  141.8855  125.4448 C   0  0  0  0  0  0  0  0  0  0  0  0
  133.3965  141.1754  127.4184 C   0  0  0  0  0  0  0  0  0  0  0  0
  132.6665  141.2764  128.5836 C   0  0  0  0  0  0  0  0  0  0  0  0
  130.9199  141.4006  132.9044 C   0  0  0  0  0  0  0  0  0  0  0  0
  131.7375  142.3049  133.3350 O   0  0  0  0  0  0  0  0  0  0  0  0
  129.6699  141.4375  133.4253 O   0  0  0  0  0  0  0  0  0  0  0  0
  128.4199  141.5034  132.8372 C   0  0  0  0  0  0  0  0  0  0  0  0
  127.4860  140.3920  133.2944 C   0  0  2  0  0  0  0  0  0  0  0  0
  127.9458  139.7732  134.5090 N   0  0  0  0  0  0  0  0  0  0  0  0
  127.3615  140.4490  135.6486 C   0  0  1  0  0  0  0  0  0  0  0  0
  125.9797  140.3957  135.6319 O   0  0  0  0  0  0  0  0  0  0  0  0
  127.9291  139.7631  136.8993 C   0  0  2  0  0  0  0  0  0  0  0  0
  129.4108  139.7977  136.8065 C   0  0  0  0  0  0  0  0  0  0  0  0
  130.0764  138.4709  136.6990 C   0  0  0  0  0  0  0  0  0  0  0  0
  131.3930  138.2897  137.0920 C   0  0  0  0  0  0  0  0  0  0  0  0
  131.9790  137.0507  136.9850 C   0  0  0  0  0  0  0  0  0  0  0  0
  133.4135  136.8368  137.4093 C   0  0  0  0  0  0  0  0  0  0  0  0
  131.2632  135.9825  136.4875 C   0  0  0  0  0  0  0  0  0  0  0  0
  131.8970  134.7537  136.3989 O   0  0  0  0  0  0  0  0  0  0  0  0
  132.5203  134.4235  135.1572 C   0  0  0  0  0  0  0  0  0  0  0  0
  129.9388  136.1934  136.0993 C   0  0  0  0  0  0  0  0  0  0  0  0
  129.2449  135.1003  135.6048 O   0  0  0  0  0  0  0  0  0  0  0  0
  129.3503  137.4213  136.2024 C   0  0  0  0  0  0  0  0  0  0  0  0
  127.9561  137.6826  135.8111 C   0  0  1  0  0  0  0  0  0  0  0  0
  127.4123  138.4392  136.9285 N   0  0  0  0  0  0  0  0  0  0  0  0
  126.0077  138.3246  137.0809 C   0  0  0  0  0  0  0  0  0  0  0  0
  127.2988  139.4601  132.1560 C   0  0  0  0  0  0  0  0  0  0  0  0
  126.5642  139.8725  131.0325 C   0  0  0  0  0  0  0  0  0  0  0  0
  125.9046  141.0460  130.7069 O   0  0  0  0  0  0  0  0  0  0  0  0
  125.0253  140.8510  129.6155 C   0  0  0  0  0  0  0  0  0  0  0  0
  125.6141  139.7219  128.9971 O   0  0  0  0  0  0  0  0  0  0  0  0
  126.3820  139.0293  129.9493 C   0  0  0  0  0  0  0  0  0  0  0  0
  126.9374  137.7732  129.9952 C   0  0  0  0  0  0  0  0  0  0  0  0
  126.7718  136.8389  128.8672 C   0  0  0  0  0  0  0  0  0  0  0  0
  127.6692  137.3570  131.1104 C   0  0  0  0  0  0  0  0  0  0  0  0
  128.2359  136.1024  131.1806 O   0  0  0  0  0  0  0  0  0  0  0  0
  129.6110  135.9127  131.3282 C   0  0  0  0  0  0  0  0  0  0  0  0
  130.2538  134.7981  130.6181 C   0  0  0  0  0  0  0  0  0  0  0  0
  130.2095  136.7211  132.0692 O   0  0  0  0  0  0  0  0  0  0  0  0
  127.8410  138.1951  132.1689 C   0  0  0  0  0  0  0  0  0  0  0  0
  1  2  1  0
  2  3  1  6
  3  4  1  0
  4  5  1  0
  5  6  1  1
  6  7  1  0
  7  8  1  0
  8  9  1  0
  9 10  2  0
 10 11  1  0
 11 12  1  0
 12 13  2  0
 13 14  1  0
 14 15  2  0
 15 16  1  0
 16 17  1  0
 15 18  1  0
 18 19  2  0
  5 20  1  0
 20 21  2  0
 20 22  1  0
 22 23  1  0
 24 23  1  6
 24 25  1  0
 25 26  1  0
 26 27  1  6
 26 28  1  0
 28 29  1  6
 29 30  1  0
 30 31  2  0
 31 32  1  0
 32 33  1  0
 32 34  2  0
 34 35  1  0
 35 36  1  0
 34 37  1  0
 37 38  1  0
 37 39  2  0
 40 39  1  1
 40 41  1  0
 41 42  1  0
 24 43  1  0
 43 44  2  0
 44 45  1  0
 45 46  1  0
 46 47  1  0
 47 48  1  0
 48 49  2  0
 49 50  1  0
 49 51  1  0
 51 52  1  0
 52 53  1  0
 53 54  1  0
 53 55  2  0
 51 56  2  0
  1 25  1  1
 41 28  1  0
 56 43  1  0
 40  1  1  0
 48 44  1  0
 56  2  1  0
 10  5  1  0
 19 12  1  0
 39 30  1  0
 19  9  1  0
M  END
$$$$
