
     RDKit          3D

 56 65  0  0  0  0  0  0  0  0999 V2000
  189.1993  161.0318  131.0043 C   0  0  2  0  0  0  0  0  0  0  0  0
  189.2603  161.6568  129.6139 C   0  0  2  0  0  0  0  0  0  0  0  0
  188.4871  160.5617  128.3865 S   0  0  0  0  0  0  0  0  0  0  0  0
  189.7284  160.2140  127.1072 C   0  0  0  0  0  0  0  0  0  0  0  0
  189.4565  158.8682  126.5279 C   0  0  1  0  0  0  0  0  0  0  0  0
  188.1678  158.8442  125.8602 N   0  0  0  0  0  0  0  0  0  0  0  0
  187.9999  159.8749  124.8872 C   0  0  0  0  0  0  0  0  0  0  0  0
  189.1154  159.9482  123.8785 C   0  0  0  0  0  0  0  0  0  0  0  0
  190.2580  159.0850  124.2275 C   0  0  0  0  0  0  0  0  0  0  0  0
  190.4699  158.5419  125.4785 C   0  0  0  0  0  0  0  0  0  0  0  0
  191.5985  157.8148  125.4338 N   0  0  0  0  0  0  0  0  0  0  0  0
  192.1248  157.8677  124.1991 C   0  0  0  0  0  0  0  0  0  0  0  0
  193.2505  157.3207  123.6024 C   0  0  0  0  0  0  0  0  0  0  0  0
  193.5594  157.5515  122.2591 C   0  0  0  0  0  0  0  0  0  0  0  0
  192.7361  158.3420  121.4860 C   0  0  0  0  0  0  0  0  0  0  0  0
  192.9659  158.6232  120.1472 O   0  0  0  0  0  0  0  0  0  0  0  0
  192.1451  159.6290  119.5544 C   0  0  0  0  0  0  0  0  0  0  0  0
  191.6165  158.8852  122.0819 C   0  0  0  0  0  0  0  0  0  0  0  0
  191.3004  158.6655  123.4059 C   0  0  0  0  0  0  0  0  0  0  0  0
  189.4393  157.8454  127.6009 C   0  0  0  0  0  0  0  0  0  0  0  0
  188.9584  156.6859  127.2908 O   0  0  0  0  0  0  0  0  0  0  0  0
  189.8709  157.9841  128.8775 O   0  0  0  0  0  0  0  0  0  0  0  0
  191.0816  158.3880  129.4103 C   0  0  0  0  0  0  0  0  0  0  0  0
  190.9447  159.5354  130.4007 C   0  0  2  0  0  0  0  0  0  0  0  0
  189.5923  159.6783  130.8698 N   0  0  0  0  0  0  0  0  0  0  0  0
  189.4112  158.8933  132.0730 C   0  0  1  0  0  0  0  0  0  0  0  0
  190.2649  159.2904  133.0859 O   0  0  0  0  0  0  0  0  0  0  0  0
  187.9422  159.0623  132.4860 C   0  0  2  0  0  0  0  0  0  0  0  0
  187.0953  158.6866  131.3254 C   0  0  0  0  0  0  0  0  0  0  0  0
  186.2749  159.7866  130.7493 C   0  0  0  0  0  0  0  0  0  0  0  0
  185.1161  159.5250  130.0353 C   0  0  0  0  0  0  0  0  0  0  0  0
  184.3766  160.5627  129.5192 C   0  0  0  0  0  0  0  0  0  0  0  0
  183.1108  160.2942  128.7387 C   0  0  0  0  0  0  0  0  0  0  0  0
  184.7811  161.8673  129.7077 C   0  0  0  0  0  0  0  0  0  0  0  0
  184.0028  162.8787  129.1686 O   0  0  0  0  0  0  0  0  0  0  0  0
  184.6142  164.1575  128.9955 C   0  0  0  0  0  0  0  0  0  0  0  0
  185.9521  162.1017  130.4308 C   0  0  0  0  0  0  0  0  0  0  0  0
  186.3319  163.4232  130.6049 O   0  0  0  0  0  0  0  0  0  0  0  0
  186.6919  161.0760  130.9461 C   0  0  0  0  0  0  0  0  0  0  0  0
  187.9268  161.2817  131.7193 C   0  0  1  0  0  0  0  0  0  0  0  0
  187.7651  160.4171  132.8783 N   0  0  0  0  0  0  0  0  0  0  0  0
  188.4936  160.8325  134.0210 C   0  0  0  0  0  0  0  0  0  0  0  0
  191.5132  160.7505  129.7682 C   0  0  0  0  0  0  0  0  0  0  0  0
  192.8991  160.8443  129.5623 C   0  0  0  0  0  0  0  0  0  0  0  0
  193.9606  159.9999  129.8422 O   0  0  0  0  0  0  0  0  0  0  0  0
  195.1947  160.6875  129.7603 C   0  0  0  0  0  0  0  0  0  0  0  0
  194.8477  161.7567  128.8999 O   0  0  0  0  0  0  0  0  0  0  0  0
  193.4584  161.9608  128.9639 C   0  0  0  0  0  0  0  0  0  0  0  0
  192.6259  162.9818  128.5730 C   0  0  0  0  0  0  0  0  0  0  0  0
  193.1729  164.1909  127.9315 C   0  0  0  0  0  0  0  0  0  0  0  0
  191.2461  162.8944  128.7754 C   0  0  0  0  0  0  0  0  0  0  0  0
  190.3901  163.9048  128.3924 O   0  0  0  0  0  0  0  0  0  0  0  0
  190.2191  165.0643  129.1505 C   0  0  0  0  0  0  0  0  0  0  0  0
  188.8837  165.3762  129.6788 C   0  0  0  0  0  0  0  0  0  0  0  0
  191.2351  165.7690  129.3295 O   0  0  0  0  0  0  0  0  0  0  0  0
  190.7086  161.7917  129.3649 C   0  0  0  0  0  0  0  0  0  0  0  0
  1  2  1  0
  2  3  1  6
  3  4  1  0
  4  5  1  0
  5  6  1  6
  6  7  1  0
  7  8  1  0
  8  9  1  0
  9 10  2  0
 10 11  1  0
 11 12  1  0
 12 13  2  0
 13 14  1  0
 14 15  2  0
 15 16  1  0
 16 17  1  0
 15 18  1  0
 18 19  2  0
  5 20  1  0
 20 21  2  0
 20 22  1  0
 22 23  1  0
 24 23  1  6
 24 25  1  0
 25 26  1  0
 26 27  1  1
 26 28  1  0
 28 29  1  6
 29 30  1  0
 30 31  2  0
 31 32  1  0
 32 33  1  0
 32 34  2  0
 34 35  1  0
 35 36  1  0
 34 37  1  0
 37 38  1  0
 37 39  2  0
 40 39  1  6
 40 41  1  0
 41 42  1  0
 24 43  1  0
 43 44  2  0
 44 45  1  0
 45 46  1  0
 46 47  1  0
 47 48  1  0
 48 49  2  0
 49 50  1  0
 49 51  1  0
 51 52  1  0
 52 53  1  0
 53 54  1  0
 53 55  2  0
 51 56  2  0
  1 25  1  6
 41 28  1  0
 56 43  1  0
 40  1  1  0
 48 44  1  0
 56  2  1  0
 10  5  1  0
 19 12  1  0
 39 30  1  0
 19  9  1  0
M  END
$$$$
