
     RDKit          3D

 56 65  0  0  0  0  0  0  0  0999 V2000
  204.4223  132.3431  135.4789 C   0  0  2  0  0  0  0  0  0  0  0  0
  203.8817  132.7034  134.0985 C   0  0  2  0  0  0  0  0  0  0  0  0
  204.9280  133.9643  133.3117 S   0  0  0  0  0  0  0  0  0  0  0  0
  203.8660  135.3822  132.9118 C   0  0  0  0  0  0  0  0  0  0  0  0
  204.6884  136.6242  132.9518 C   0  0  1  0  0  0  0  0  0  0  0  0
  205.7225  136.5917  131.9336 N   0  0  0  0  0  0  0  0  0  0  0  0
  205.2329  136.3321  130.6183 C   0  0  0  0  0  0  0  0  0  0  0  0
  204.1065  137.2384  130.1975 C   0  0  0  0  0  0  0  0  0  0  0  0
  203.5943  138.0643  131.3056 C   0  0  0  0  0  0  0  0  0  0  0  0
  203.8418  137.8161  132.6405 C   0  0  0  0  0  0  0  0  0  0  0  0
  203.2235  138.7639  133.3644 N   0  0  0  0  0  0  0  0  0  0  0  0
  202.5848  139.6166  132.5462 C   0  0  0  0  0  0  0  0  0  0  0  0
  201.8088  140.7487  132.7426 C   0  0  0  0  0  0  0  0  0  0  0  0
  201.2555  141.4585  131.6734 C   0  0  0  0  0  0  0  0  0  0  0  0
  201.4739  141.0397  130.3783 C   0  0  0  0  0  0  0  0  0  0  0  0
  200.9643  141.6827  129.2598 O   0  0  0  0  0  0  0  0  0  0  0  0
  201.5391  141.3307  128.0018 C   0  0  0  0  0  0  0  0  0  0  0  0
  202.2464  139.9129  130.1854 C   0  0  0  0  0  0  0  0  0  0  0  0
  202.7980  139.2037  131.2312 C   0  0  0  0  0  0  0  0  0  0  0  0
  205.3464  136.7574  134.2735 C   0  0  0  0  0  0  0  0  0  0  0  0
  206.2917  137.6347  134.3662 O   0  0  0  0  0  0  0  0  0  0  0  0
  205.0720  136.0626  135.4036 O   0  0  0  0  0  0  0  0  0  0  0  0
  203.9002  135.8647  136.1111 C   0  0  0  0  0  0  0  0  0  0  0  0
  203.5804  134.3939  136.3365 C   0  0  2  0  0  0  0  0  0  0  0  0
  204.7342  133.5587  136.1342 N   0  0  0  0  0  0  0  0  0  0  0  0
  205.4328  133.3847  137.3906 C   0  0  1  0  0  0  0  0  0  0  0  0
  204.6336  132.7934  138.3519 O   0  0  0  0  0  0  0  0  0  0  0  0
  206.6667  132.5232  137.0868 C   0  0  2  0  0  0  0  0  0  0  0  0
  207.4303  133.1863  135.9993 C   0  0  0  0  0  0  0  0  0  0  0  0
  207.5192  132.4250  134.7237 C   0  0  0  0  0  0  0  0  0  0  0  0
  208.5527  132.6396  133.8255 C   0  0  0  0  0  0  0  0  0  0  0  0
  208.6104  131.9172  132.6572 C   0  0  0  0  0  0  0  0  0  0  0  0
  209.7307  132.1392  131.6677 C   0  0  0  0  0  0  0  0  0  0  0  0
  207.6436  130.9766  132.3716 C   0  0  0  0  0  0  0  0  0  0  0  0
  207.7447  130.2739  131.1820 O   0  0  0  0  0  0  0  0  0  0  0  0
  207.3178  130.9342  129.9899 C   0  0  0  0  0  0  0  0  0  0  0  0
  206.6141  130.7809  133.2942 C   0  0  0  0  0  0  0  0  0  0  0  0
  205.6584  129.8277  132.9798 O   0  0  0  0  0  0  0  0  0  0  0  0
  206.5501  131.4951  134.4564 C   0  0  0  0  0  0  0  0  0  0  0  0
  205.4864  131.3135  135.4567 C   0  0  1  0  0  0  0  0  0  0  0  0
  206.2018  131.2306  136.7209 N   0  0  0  0  0  0  0  0  0  0  0  0
  205.5182  130.5082  137.7309 C   0  0  0  0  0  0  0  0  0  0  0  0
  202.4104  134.0498  135.4926 C   0  0  0  0  0  0  0  0  0  0  0  0
  201.1451  134.5684  135.8123 C   0  0  0  0  0  0  0  0  0  0  0  0
  200.6844  135.3929  136.8253 O   0  0  0  0  0  0  0  0  0  0  0  0
  199.2732  135.3475  136.9178 C   0  0  0  0  0  0  0  0  0  0  0  0
  198.9332  134.9336  135.6075 O   0  0  0  0  0  0  0  0  0  0  0  0
  200.0360  134.2747  135.0370 C   0  0  0  0  0  0  0  0  0  0  0  0
  200.1982  133.4608  133.9417 C   0  0  0  0  0  0  0  0  0  0  0  0
  199.0485  133.1191  133.0850 C   0  0  0  0  0  0  0  0  0  0  0  0
  201.4546  132.9416  133.6186 C   0  0  0  0  0  0  0  0  0  0  0  0
  201.6432  132.1231  132.5256 O   0  0  0  0  0  0  0  0  0  0  0  0
  201.4188  130.7463  132.5777 C   0  0  0  0  0  0  0  0  0  0  0  0
  201.1480  130.1203  133.8794 C   0  0  0  0  0  0  0  0  0  0  0  0
  201.4653  130.1317  131.4910 O   0  0  0  0  0  0  0  0  0  0  0  0
  202.5370  133.2376  134.3887 C   0  0  0  0  0  0  0  0  0  0  0  0
  1  2  1  0
  2  3  1  1
  3  4  1  0
  4  5  1  0
  5  6  1  6
  6  7  1  0
  7  8  1  0
  8  9  1  0
  9 10  2  0
 10 11  1  0
 11 12  1  0
 12 13  2  0
 13 14  1  0
 14 15  2  0
 15 16  1  0
 16 17  1  0
 15 18  1  0
 18 19  2  0
  5 20  1  0
 20 21  2  0
 20 22  1  0
 22 23  1  0
 24 23  1  6
 24 25  1  0
 25 26  1  0
 26 27  1  1
 26 28  1  0
 28 29  1  6
 29 30  1  0
 30 31  2  0
 31 32  1  0
 32 33  1  0
 32 34  2  0
 34 35  1  0
 35 36  1  0
 34 37  1  0
 37 38  1  0
 37 39  2  0
 40 39  1  6
 40 41  1  0
 41 42  1  0
 24 43  1  0
 43 44  2  0
 44 45  1  0
 45 46  1  0
 46 47  1  0
 47 48  1  0
 48 49  2  0
 49 50  1  0
 49 51  1  0
 51 52  1  0
 52 53  1  0
 53 54  1  0
 53 55  2  0
 51 56  2  0
  1 25  1  6
 41 28  1  0
 56 43  1  0
 40  1  1  0
 48 44  1  0
 56  2  1  0
 10  5  1  0
 19 12  1  0
 39 30  1  0
 19  9  1  0
M  END
$$$$
