
     RDKit          3D

 56 65  0  0  0  0  0  0  0  0999 V2000
  135.5739  163.2527  154.9774 C   0  0  2  0  0  0  0  0  0  0  0  0
  134.0742  163.3151  154.7047 C   0  0  2  0  0  0  0  0  0  0  0  0
  133.1340  162.9699  156.2214 S   0  0  0  0  0  0  0  0  0  0  0  0
  132.0459  161.5567  155.8788 C   0  0  0  0  0  0  0  0  0  0  0  0
  131.8190  160.8073  157.1467 C   0  0  1  0  0  0  0  0  0  0  0  0
  131.1205  161.6318  158.1159 N   0  0  0  0  0  0  0  0  0  0  0  0
  129.9090  162.2041  157.6240 C   0  0  0  0  0  0  0  0  0  0  0  0
  128.9683  161.2028  157.0077 C   0  0  0  0  0  0  0  0  0  0  0  0
  129.5799  159.8720  156.8423 C   0  0  0  0  0  0  0  0  0  0  0  0
  130.9368  159.6262  156.8993 C   0  0  0  0  0  0  0  0  0  0  0  0
  131.1326  158.3112  156.7072 N   0  0  0  0  0  0  0  0  0  0  0  0
  129.9515  157.6970  156.5280 C   0  0  0  0  0  0  0  0  0  0  0  0
  129.5682  156.3849  156.2957 C   0  0  0  0  0  0  0  0  0  0  0  0
  128.2266  156.0240  156.1448 C   0  0  0  0  0  0  0  0  0  0  0  0
  127.2391  156.9825  156.2254 C   0  0  0  0  0  0  0  0  0  0  0  0
  125.8852  156.7136  156.0881 O   0  0  0  0  0  0  0  0  0  0  0  0
  125.2111  157.3578  155.0076 C   0  0  0  0  0  0  0  0  0  0  0  0
  127.6230  158.2875  156.4566 C   0  0  0  0  0  0  0  0  0  0  0  0
  128.9428  158.6569  156.6072 C   0  0  0  0  0  0  0  0  0  0  0  0
  133.1164  160.4001  157.7372 C   0  0  0  0  0  0  0  0  0  0  0  0
  133.0919  159.9790  158.9595 O   0  0  0  0  0  0  0  0  0  0  0  0
  134.3334  160.4179  157.1425 O   0  0  0  0  0  0  0  0  0  0  0  0
  134.8007  159.8616  155.9656 C   0  0  0  0  0  0  0  0  0  0  0  0
  135.4562  160.8795  155.0435 C   0  0  2  0  0  0  0  0  0  0  0  0
  135.8095  162.0856  155.7436 N   0  0  0  0  0  0  0  0  0  0  0  0
  137.1640  161.9766  156.2439 C   0  0  1  0  0  0  0  0  0  0  0  0
  138.0798  161.7830  155.2260 O   0  0  0  0  0  0  0  0  0  0  0  0
  137.4508  163.2758  157.0100 C   0  0  2  0  0  0  0  0  0  0  0  0
  136.3872  163.4478  158.0320 C   0  0  0  0  0  0  0  0  0  0  0  0
  135.5107  164.6366  157.8494 C   0  0  0  0  0  0  0  0  0  0  0  0
  134.8345  165.2056  158.9171 C   0  0  0  0  0  0  0  0  0  0  0  0
  134.0357  166.3066  158.7179 C   0  0  0  0  0  0  0  0  0  0  0  0
  133.2920  166.9388  159.8714 C   0  0  0  0  0  0  0  0  0  0  0  0
  133.9020  166.8513  157.4583 C   0  0  0  0  0  0  0  0  0  0  0  0
  133.0859  167.9606  157.3076 O   0  0  0  0  0  0  0  0  0  0  0  0
  133.5052  168.9645  156.3827 C   0  0  0  0  0  0  0  0  0  0  0  0
  134.5947  166.2579  156.4011 C   0  0  0  0  0  0  0  0  0  0  0  0
  134.4415  166.8289  155.1475 O   0  0  0  0  0  0  0  0  0  0  0  0
  135.3896  165.1640  156.5914 C   0  0  0  0  0  0  0  0  0  0  0  0
  136.1409  164.5145  155.5057 C   0  0  1  0  0  0  0  0  0  0  0  0
  137.4739  164.3324  156.0594 N   0  0  0  0  0  0  0  0  0  0  0  0
  138.5047  164.2711  155.0883 C   0  0  0  0  0  0  0  0  0  0  0  0
  134.5606  161.0787  153.8783 C   0  0  0  0  0  0  0  0  0  0  0  0
  134.4024  160.0478  152.9380 C   0  0  0  0  0  0  0  0  0  0  0  0
  134.9385  158.7760  152.8230 O   0  0  0  0  0  0  0  0  0  0  0  0
  134.7407  158.2547  151.5224 C   0  0  0  0  0  0  0  0  0  0  0  0
  133.6197  159.0091  151.1003 O   0  0  0  0  0  0  0  0  0  0  0  0
  133.5644  160.1995  151.8460 C   0  0  0  0  0  0  0  0  0  0  0  0
  132.8864  161.3857  151.6992 C   0  0  0  0  0  0  0  0  0  0  0  0
  131.9826  161.5956  150.5539 C   0  0  0  0  0  0  0  0  0  0  0  0
  133.0399  162.4152  152.6314 C   0  0  0  0  0  0  0  0  0  0  0  0
  132.3712  163.6141  152.5064 O   0  0  0  0  0  0  0  0  0  0  0  0
  131.8513  164.0542  151.2880 C   0  0  0  0  0  0  0  0  0  0  0  0
  132.7616  164.6572  150.3044 C   0  0  0  0  0  0  0  0  0  0  0  0
  130.6232  163.9008  151.1172 O   0  0  0  0  0  0  0  0  0  0  0  0
  133.8667  162.2539  153.7004 C   0  0  0  0  0  0  0  0  0  0  0  0
  1  2  1  0
  2  3  1  1
  3  4  1  0
  4  5  1  0
  5  6  1  1
  6  7  1  0
  7  8  1  0
  8  9  1  0
  9 10  2  0
 10 11  1  0
 11 12  1  0
 12 13  2  0
 13 14  1  0
 14 15  2  0
 15 16  1  0
 16 17  1  0
 15 18  1  0
 18 19  2  0
  5 20  1  0
 20 21  2  0
 20 22  1  0
 22 23  1  0
 24 23  1  1
 24 25  1  0
 25 26  1  0
 26 27  1  6
 26 28  1  0
 28 29  1  1
 29 30  1  0
 30 31  2  0
 31 32  1  0
 32 33  1  0
 32 34  2  0
 34 35  1  0
 35 36  1  0
 34 37  1  0
 37 38  1  0
 37 39  2  0
 40 39  1  1
 40 41  1  0
 41 42  1  0
 24 43  1  0
 43 44  2  0
 44 45  1  0
 45 46  1  0
 46 47  1  0
 47 48  1  0
 48 49  2  0
 49 50  1  0
 49 51  1  0
 51 52  1  0
 52 53  1  0
 53 54  1  0
 53 55  2  0
 51 56  2  0
  1 25  1  1
 41 28  1  0
 56 43  1  0
 40  1  1  0
 48 44  1  0
 56  2  1  0
 10  5  1  0
 19 12  1  0
 39 30  1  0
 19  9  1  0
M  END
$$$$
