
     RDKit          3D

 56 65  0  0  0  0  0  0  0  0999 V2000
  171.6241  163.9104  110.6647 C   0  0  2  0  0  0  0  0  0  0  0  0
  172.7136  164.9545  110.8892 C   0  0  2  0  0  0  0  0  0  0  0  0
  173.4887  165.4186  109.3120 S   0  0  0  0  0  0  0  0  0  0  0  0
  175.2694  165.0958  109.4636 C   0  0  0  0  0  0  0  0  0  0  0  0
  175.8141  164.7673  108.1159 C   0  0  1  0  0  0  0  0  0  0  0  0
  175.6818  165.8983  107.2158 N   0  0  0  0  0  0  0  0  0  0  0  0
  176.2392  167.1107  107.7226 C   0  0  0  0  0  0  0  0  0  0  0  0
  177.6625  166.9762  108.1952 C   0  0  0  0  0  0  0  0  0  0  0  0
  178.1190  165.5754  108.2397 C   0  0  0  0  0  0  0  0  0  0  0  0
  177.2785  164.4812  108.2050 C   0  0  0  0  0  0  0  0  0  0  0  0
  178.0332  163.3714  108.2629 N   0  0  0  0  0  0  0  0  0  0  0  0
  179.3317  163.7078  108.3339 C   0  0  0  0  0  0  0  0  0  0  0  0
  180.5150  162.9892  108.4116 C   0  0  0  0  0  0  0  0  0  0  0  0
  181.7595  163.6219  108.4756 C   0  0  0  0  0  0  0  0  0  0  0  0
  181.8373  164.9982  108.4625 C   0  0  0  0  0  0  0  0  0  0  0  0
  183.0279  165.7075  108.5224 O   0  0  0  0  0  0  0  0  0  0  0  0
  183.2848  166.4260  109.7284 C   0  0  0  0  0  0  0  0  0  0  0  0
  180.6585  165.7111  108.3851 C   0  0  0  0  0  0  0  0  0  0  0  0
  179.4245  165.0994  108.3215 C   0  0  0  0  0  0  0  0  0  0  0  0
  175.0733  163.6237  107.5318 C   0  0  0  0  0  0  0  0  0  0  0  0
  175.2535  163.3974  106.2716 O   0  0  0  0  0  0  0  0  0  0  0  0
  174.2232  162.7822  108.1678 O   0  0  0  0  0  0  0  0  0  0  0  0
  174.3666  161.9932  109.2947 C   0  0  0  0  0  0  0  0  0  0  0  0
  173.2928  162.2485  110.3425 C   0  0  2  0  0  0  0  0  0  0  0  0
  172.1568  162.9350  109.7875 N   0  0  0  0  0  0  0  0  0  0  0  0
  171.1832  161.9672  109.3268 C   0  0  1  0  0  0  0  0  0  0  0  0
  170.7379  161.1506  110.3501 O   0  0  0  0  0  0  0  0  0  0  0  0
  170.0274  162.7706  108.7138 C   0  0  2  0  0  0  0  0  0  0  0  0
  170.5956  163.6714  107.6789 C   0  0  0  0  0  0  0  0  0  0  0  0
  170.4633  165.1277  107.9557 C   0  0  0  0  0  0  0  0  0  0  0  0
  170.4760  166.0612  106.9314 C   0  0  0  0  0  0  0  0  0  0  0  0
  170.3469  167.3995  107.2181 C   0  0  0  0  0  0  0  0  0  0  0  0
  170.3586  168.4298  106.1127 C   0  0  0  0  0  0  0  0  0  0  0  0
  170.2041  167.8215  108.5229 C   0  0  0  0  0  0  0  0  0  0  0  0
  170.0775  169.1802  108.7618 O   0  0  0  0  0  0  0  0  0  0  0  0
  170.8273  169.7300  109.8455 C   0  0  0  0  0  0  0  0  0  0  0  0
  170.1946  166.8596  109.5348 C   0  0  0  0  0  0  0  0  0  0  0  0
  170.0479  167.3144  110.8358 O   0  0  0  0  0  0  0  0  0  0  0  0
  170.3227  165.5286  109.2575 C   0  0  0  0  0  0  0  0  0  0  0  0
  170.3103  164.4842  110.2940 C   0  0  1  0  0  0  0  0  0  0  0  0
  169.3962  163.4801  109.7716 N   0  0  0  0  0  0  0  0  0  0  0  0
  168.7732  162.6856  110.7666 C   0  0  0  0  0  0  0  0  0  0  0  0
  173.9331  162.9363  111.4898 C   0  0  0  0  0  0  0  0  0  0  0  0
  174.8317  162.2338  112.3089 C   0  0  0  0  0  0  0  0  0  0  0  0
  175.2993  160.9302  112.3069 O   0  0  0  0  0  0  0  0  0  0  0  0
  175.9212  160.6094  113.5368 C   0  0  0  0  0  0  0  0  0  0  0  0
  176.2832  161.8983  113.9967 O   0  0  0  0  0  0  0  0  0  0  0  0
  175.4542  162.8517  113.3805 C   0  0  0  0  0  0  0  0  0  0  0  0
  175.1740  164.1740  113.6284 C   0  0  0  0  0  0  0  0  0  0  0  0
  175.8113  164.8763  114.7568 C   0  0  0  0  0  0  0  0  0  0  0  0
  174.2806  164.8782  112.8170 C   0  0  0  0  0  0  0  0  0  0  0  0
  173.9830  166.2047  113.0450 O   0  0  0  0  0  0  0  0  0  0  0  0
  174.7639  167.2426  112.5335 C   0  0  0  0  0  0  0  0  0  0  0  0
  174.3241  168.6295  112.7399 C   0  0  0  0  0  0  0  0  0  0  0  0
  175.8027  166.9111  111.9239 O   0  0  0  0  0  0  0  0  0  0  0  0
  173.6750  164.2595  111.7670 C   0  0  0  0  0  0  0  0  0  0  0  0
  1  2  1  0
  2  3  1  6
  3  4  1  0
  4  5  1  0
  5  6  1  6
  6  7  1  0
  7  8  1  0
  8  9  1  0
  9 10  2  0
 10 11  1  0
 11 12  1  0
 12 13  2  0
 13 14  1  0
 14 15  2  0
 15 16  1  0
 16 17  1  0
 15 18  1  0
 18 19  2  0
  5 20  1  0
 20 21  2  0
 20 22  1  0
 22 23  1  0
 24 23  1  6
 24 25  1  0
 25 26  1  0
 26 27  1  1
 26 28  1  0
 28 29  1  6
 29 30  1  0
 30 31  2  0
 31 32  1  0
 32 33  1  0
 32 34  2  0
 34 35  1  0
 35 36  1  0
 34 37  1  0
 37 38  1  0
 37 39  2  0
 40 39  1  6
 40 41  1  0
 41 42  1  0
 24 43  1  0
 43 44  2  0
 44 45  1  0
 45 46  1  0
 46 47  1  0
 47 48  1  0
 48 49  2  0
 49 50  1  0
 49 51  1  0
 51 52  1  0
 52 53  1  0
 53 54  1  0
 53 55  2  0
 51 56  2  0
  1 25  1  6
 41 28  1  0
 56 43  1  0
 40  1  1  0
 48 44  1  0
 56  2  1  0
 10  5  1  0
 19 12  1  0
 39 30  1  0
 19  9  1  0
M  END
$$$$
