
     RDKit          3D

 56 65  0  0  0  0  0  0  0  0999 V2000
  119.5803  168.4348  146.4015 C   0  0  2  0  0  0  0  0  0  0  0  0
  118.4877  168.5526  145.3432 C   0  0  2  0  0  0  0  0  0  0  0  0
  117.5000  167.0285  145.2721 S   0  0  0  0  0  0  0  0  0  0  0  0
  117.5839  166.4032  143.5691 C   0  0  0  0  0  0  0  0  0  0  0  0
  117.4464  164.9195  143.5953 C   0  0  1  0  0  0  0  0  0  0  0  0
  116.1449  164.5306  144.1069 N   0  0  0  0  0  0  0  0  0  0  0  0
  115.0487  165.1444  143.4294 C   0  0  0  0  0  0  0  0  0  0  0  0
  115.0946  164.9907  141.9322 C   0  0  0  0  0  0  0  0  0  0  0  0
  116.3701  164.4268  141.4553 C   0  0  0  0  0  0  0  0  0  0  0  0
  117.5252  164.3677  142.2083 C   0  0  0  0  0  0  0  0  0  0  0  0
  118.4836  163.7955  141.4610 N   0  0  0  0  0  0  0  0  0  0  0  0
  117.9906  163.4821  140.2514 C   0  0  0  0  0  0  0  0  0  0  0  0
  118.5190  162.8902  139.1144 C   0  0  0  0  0  0  0  0  0  0  0  0
  117.7505  162.6825  137.9657 C   0  0  0  0  0  0  0  0  0  0  0  0
  116.4275  163.0690  137.9393 C   0  0  0  0  0  0  0  0  0  0  0  0
  115.5930  162.9014  136.8439 O   0  0  0  0  0  0  0  0  0  0  0  0
  115.0385  164.0867  136.2746 C   0  0  0  0  0  0  0  0  0  0  0  0
  115.9039  163.6578  139.0720 C   0  0  0  0  0  0  0  0  0  0  0  0
  116.6510  163.8684  140.2115 C   0  0  0  0  0  0  0  0  0  0  0  0
  118.4833  164.3271  144.4737 C   0  0  0  0  0  0  0  0  0  0  0  0
  118.3267  163.0864  144.8024 O   0  0  0  0  0  0  0  0  0  0  0  0
  119.5832  164.9374  144.9765 O   0  0  0  0  0  0  0  0  0  0  0  0
  120.6201  165.6270  144.3746 C   0  0  0  0  0  0  0  0  0  0  0  0
  120.8236  167.0208  144.9508 C   0  0  2  0  0  0  0  0  0  0  0  0
  120.1880  167.1673  146.2331 N   0  0  0  0  0  0  0  0  0  0  0  0
  121.1262  166.8235  147.2812 C   0  0  1  0  0  0  0  0  0  0  0  0
  122.2484  167.6312  147.2596 O   0  0  0  0  0  0  0  0  0  0  0  0
  120.3667  166.9626  148.6081 C   0  0  2  0  0  0  0  0  0  0  0  0
  119.1430  166.1254  148.5240 C   0  0  0  0  0  0  0  0  0  0  0  0
  117.8545  166.8681  148.5776 C   0  0  0  0  0  0  0  0  0  0  0  0
  116.6852  166.2556  148.9998 C   0  0  0  0  0  0  0  0  0  0  0  0
  115.5111  166.9693  149.0430 C   0  0  0  0  0  0  0  0  0  0  0  0
  114.2277  166.3161  149.5011 C   0  0  0  0  0  0  0  0  0  0  0  0
  115.4883  168.2959  148.6679 C   0  0  0  0  0  0  0  0  0  0  0  0
  114.2813  168.9732  148.7285 O   0  0  0  0  0  0  0  0  0  0  0  0
  114.3084  170.3255  149.1863 C   0  0  0  0  0  0  0  0  0  0  0  0
  116.6808  168.8877  148.2469 C   0  0  0  0  0  0  0  0  0  0  0  0
  116.6264  170.2225  147.8779 O   0  0  0  0  0  0  0  0  0  0  0  0
  117.8507  168.1848  148.2010 C   0  0  0  0  0  0  0  0  0  0  0  0
  119.1286  168.7735  147.7705 C   0  0  1  0  0  0  0  0  0  0  0  0
  120.0757  168.3424  148.7874 N   0  0  0  0  0  0  0  0  0  0  0  0
  121.1954  169.1979  148.9408 C   0  0  0  0  0  0  0  0  0  0  0  0
  120.3889  168.0024  143.9276 C   0  0  0  0  0  0  0  0  0  0  0  0
  121.1473  168.1702  142.7577 C   0  0  0  0  0  0  0  0  0  0  0  0
  122.3162  167.5915  142.2919 O   0  0  0  0  0  0  0  0  0  0  0  0
  122.8652  168.3396  141.2236 C   0  0  0  0  0  0  0  0  0  0  0  0
  121.7125  169.0083  140.7462 O   0  0  0  0  0  0  0  0  0  0  0  0
  120.7609  169.0703  141.7790 C   0  0  0  0  0  0  0  0  0  0  0  0
  119.6138  169.8010  141.9757 C   0  0  0  0  0  0  0  0  0  0  0  0
  119.1606  170.7716  140.9633 C   0  0  0  0  0  0  0  0  0  0  0  0
  118.8552  169.6387  143.1379 C   0  0  0  0  0  0  0  0  0  0  0  0
  117.7012  170.3596  143.3587 O   0  0  0  0  0  0  0  0  0  0  0  0
  117.5653  171.2375  144.4355 C   0  0  0  0  0  0  0  0  0  0  0  0
  118.6982  171.4136  145.3548 C   0  0  0  0  0  0  0  0  0  0  0  0
  116.4670  171.8232  144.5429 O   0  0  0  0  0  0  0  0  0  0  0  0
  119.2457  168.7508  144.0926 C   0  0  0  0  0  0  0  0  0  0  0  0
  1  2  1  0
  2  3  1  6
  3  4  1  0
  4  5  1  0
  5  6  1  1
  6  7  1  0
  7  8  1  0
  8  9  1  0
  9 10  2  0
 10 11  1  0
 11 12  1  0
 12 13  2  0
 13 14  1  0
 14 15  2  0
 15 16  1  0
 16 17  1  0
 15 18  1  0
 18 19  2  0
  5 20  1  0
 20 21  2  0
 20 22  1  0
 22 23  1  0
 24 23  1  6
 24 25  1  0
 25 26  1  0
 26 27  1  1
 26 28  1  0
 28 29  1  6
 29 30  1  0
 30 31  2  0
 31 32  1  0
 32 33  1  0
 32 34  2  0
 34 35  1  0
 35 36  1  0
 34 37  1  0
 37 38  1  0
 37 39  2  0
 40 39  1  1
 40 41  1  0
 41 42  1  0
 24 43  1  0
 43 44  2  0
 44 45  1  0
 45 46  1  0
 46 47  1  0
 47 48  1  0
 48 49  2  0
 49 50  1  0
 49 51  1  0
 51 52  1  0
 52 53  1  0
 53 54  1  0
 53 55  2  0
 51 56  2  0
  1 25  1  1
 41 28  1  0
 56 43  1  0
 40  1  1  0
 48 44  1  0
 56  2  1  0
 10  5  1  0
 19 12  1  0
 39 30  1  0
 19  9  1  0
M  END
$$$$
