
     RDKit          3D

 56 65  0  0  0  0  0  0  0  0999 V2000
  118.7154  166.4155  146.4601 C   0  0  2  0  0  0  0  0  0  0  0  0
  117.8247  165.3310  145.8616 C   0  0  2  0  0  0  0  0  0  0  0  0
  118.1567  165.1398  144.0849 S   0  0  0  0  0  0  0  0  0  0  0  0
  116.5894  165.4026  143.2059 C   0  0  0  0  0  0  0  0  0  0  0  0
  116.8843  165.9548  141.8535 C   0  0  1  0  0  0  0  0  0  0  0  0
  117.6398  165.0023  141.0604 N   0  0  0  0  0  0  0  0  0  0  0  0
  117.0376  163.7110  140.9768 C   0  0  0  0  0  0  0  0  0  0  0  0
  115.5973  163.7375  140.5386 C   0  0  0  0  0  0  0  0  0  0  0  0
  115.0395  165.1010  140.4939 C   0  0  0  0  0  0  0  0  0  0  0  0
  115.6135  166.1975  141.1049 C   0  0  0  0  0  0  0  0  0  0  0  0
  114.8401  167.2675  140.8573 N   0  0  0  0  0  0  0  0  0  0  0  0
  113.7862  166.9033  140.1082 C   0  0  0  0  0  0  0  0  0  0  0  0
  112.6996  167.5781  139.5731 C   0  0  0  0  0  0  0  0  0  0  0  0
  111.7279  166.9244  138.8105 C   0  0  0  0  0  0  0  0  0  0  0  0
  111.8319  165.5709  138.5705 C   0  0  0  0  0  0  0  0  0  0  0  0
  110.9151  164.8433  137.8260 O   0  0  0  0  0  0  0  0  0  0  0  0
  111.2668  163.4948  137.5183 C   0  0  0  0  0  0  0  0  0  0  0  0
  112.9141  164.9016  139.1040 C   0  0  0  0  0  0  0  0  0  0  0  0
  113.8795  165.5344  139.8580 C   0  0  0  0  0  0  0  0  0  0  0  0
  117.6876  167.1951  141.9735 C   0  0  0  0  0  0  0  0  0  0  0  0
  118.2394  167.6370  140.8909 O   0  0  0  0  0  0  0  0  0  0  0  0
  117.9133  167.9247  143.0924 O   0  0  0  0  0  0  0  0  0  0  0  0
  117.0582  168.5004  144.0145 C   0  0  0  0  0  0  0  0  0  0  0  0
  117.3559  168.0815  145.4470 C   0  0  2  0  0  0  0  0  0  0  0  0
  118.6747  167.5216  145.5773 N   0  0  0  0  0  0  0  0  0  0  0  0
  119.6160  168.5708  145.9089 C   0  0  1  0  0  0  0  0  0  0  0  0
  119.2942  169.2013  147.0968 O   0  0  0  0  0  0  0  0  0  0  0  0
  120.9978  167.9065  145.9888 C   0  0  2  0  0  0  0  0  0  0  0  0
  121.2365  167.1932  144.7083 C   0  0  0  0  0  0  0  0  0  0  0  0
  121.3535  165.7133  144.8123 C   0  0  0  0  0  0  0  0  0  0  0  0
  122.0400  164.9748  143.8615 C   0  0  0  0  0  0  0  0  0  0  0  0
  122.1350  163.6091  143.9874 C   0  0  0  0  0  0  0  0  0  0  0  0
  122.8800  162.7897  142.9593 C   0  0  0  0  0  0  0  0  0  0  0  0
  121.5499  162.9661  145.0576 C   0  0  0  0  0  0  0  0  0  0  0  0
  121.6728  161.5887  145.1411 O   0  0  0  0  0  0  0  0  0  0  0  0
  121.0123  160.9341  146.2248 C   0  0  0  0  0  0  0  0  0  0  0  0
  120.8646  163.7347  146.0005 C   0  0  0  0  0  0  0  0  0  0  0  0
  120.2888  163.0601  147.0655 O   0  0  0  0  0  0  0  0  0  0  0  0
  120.7659  165.0915  145.8817 C   0  0  0  0  0  0  0  0  0  0  0  0
  120.0594  165.9369  146.8570 C   0  0  1  0  0  0  0  0  0  0  0  0
  120.9837  167.0318  147.1092 N   0  0  0  0  0  0  0  0  0  0  0  0
  120.8247  167.6483  148.3757 C   0  0  0  0  0  0  0  0  0  0  0  0
  116.2576  167.1922  145.8969 C   0  0  0  0  0  0  0  0  0  0  0  0
  114.9775  167.7250  146.1190 C   0  0  0  0  0  0  0  0  0  0  0  0
  114.4486  169.0010  146.0177 O   0  0  0  0  0  0  0  0  0  0  0  0
  113.2009  169.0901  146.6792 C   0  0  0  0  0  0  0  0  0  0  0  0
  112.7928  167.7347  146.6625 O   0  0  0  0  0  0  0  0  0  0  0  0
  113.9291  166.9181  146.5282 C   0  0  0  0  0  0  0  0  0  0  0  0
  114.1669  165.5775  146.7138 C   0  0  0  0  0  0  0  0  0  0  0  0
  113.0837  164.6773  147.1484 C   0  0  0  0  0  0  0  0  0  0  0  0
  115.4386  165.0415  146.4946 C   0  0  0  0  0  0  0  0  0  0  0  0
  115.7026  163.7005  146.6740 O   0  0  0  0  0  0  0  0  0  0  0  0
  116.0097  163.1619  147.9246 C   0  0  0  0  0  0  0  0  0  0  0  0
  115.8264  163.9958  149.1207 C   0  0  0  0  0  0  0  0  0  0  0  0
  116.4273  161.9845  147.9380 O   0  0  0  0  0  0  0  0  0  0  0  0
  116.4609  165.8451  146.0928 C   0  0  0  0  0  0  0  0  0  0  0  0
  1  2  1  0
  2  3  1  6
  3  4  1  0
  4  5  1  0
  5  6  1  6
  6  7  1  0
  7  8  1  0
  8  9  1  0
  9 10  2  0
 10 11  1  0
 11 12  1  0
 12 13  2  0
 13 14  1  0
 14 15  2  0
 15 16  1  0
 16 17  1  0
 15 18  1  0
 18 19  2  0
  5 20  1  0
 20 21  2  0
 20 22  1  0
 22 23  1  0
 24 23  1  6
 24 25  1  0
 25 26  1  0
 26 27  1  1
 26 28  1  0
 28 29  1  6
 29 30  1  0
 30 31  2  0
 31 32  1  0
 32 33  1  0
 32 34  2  0
 34 35  1  0
 35 36  1  0
 34 37  1  0
 37 38  1  0
 37 39  2  0
 40 39  1  6
 40 41  1  0
 41 42  1  0
 24 43  1  0
 43 44  2  0
 44 45  1  0
 45 46  1  0
 46 47  1  0
 47 48  1  0
 48 49  2  0
 49 50  1  0
 49 51  1  0
 51 52  1  0
 52 53  1  0
 53 54  1  0
 53 55  2  0
 51 56  2  0
  1 25  1  6
 41 28  1  0
 56 43  1  0
 40  1  1  0
 48 44  1  0
 56  2  1  0
 10  5  1  0
 19 12  1  0
 39 30  1  0
 19  9  1  0
M  END
$$$$
