
     RDKit          3D

 56 65  0  0  0  0  0  0  0  0999 V2000
  191.8091  163.6843  131.0080 C   0  0  2  0  0  0  0  0  0  0  0  0
  191.0172  162.4339  130.6378 C   0  0  2  0  0  0  0  0  0  0  0  0
  192.1138  161.1697  129.9288 S   0  0  0  0  0  0  0  0  0  0  0  0
  191.4730  160.7540  128.2811 C   0  0  0  0  0  0  0  0  0  0  0  0
  192.6107  160.3312  127.4163 C   0  0  1  0  0  0  0  0  0  0  0  0
  193.2273  159.1214  127.9293 N   0  0  0  0  0  0  0  0  0  0  0  0
  192.3096  158.0497  128.1451 C   0  0  0  0  0  0  0  0  0  0  0  0
  191.4465  157.7369  126.9515 C   0  0  0  0  0  0  0  0  0  0  0  0
  191.5728  158.7386  125.8778 C   0  0  0  0  0  0  0  0  0  0  0  0
  192.1212  159.9941  126.0448 C   0  0  0  0  0  0  0  0  0  0  0  0
  192.0738  160.6324  124.8638 N   0  0  0  0  0  0  0  0  0  0  0  0
  191.5146  159.8354  123.9383 C   0  0  0  0  0  0  0  0  0  0  0  0
  191.2231  159.9742  122.5899 C   0  0  0  0  0  0  0  0  0  0  0  0
  190.6213  158.9485  121.8558 C   0  0  0  0  0  0  0  0  0  0  0  0
  190.2994  157.7563  122.4686 C   0  0  0  0  0  0  0  0  0  0  0  0
  189.7015  156.6872  121.8176 O   0  0  0  0  0  0  0  0  0  0  0  0
  190.4856  155.5029  121.6787 C   0  0  0  0  0  0  0  0  0  0  0  0
  190.5904  157.6205  123.8105 C   0  0  0  0  0  0  0  0  0  0  0  0
  191.1838  158.6244  124.5461 C   0  0  0  0  0  0  0  0  0  0  0  0
  193.6433  161.3943  127.3769 C   0  0  0  0  0  0  0  0  0  0  0  0
  194.7950  161.0678  126.8882 O   0  0  0  0  0  0  0  0  0  0  0  0
  193.5211  162.6767  127.7961 O   0  0  0  0  0  0  0  0  0  0  0  0
  192.6156  163.6742  127.4833 C   0  0  0  0  0  0  0  0  0  0  0  0
  191.9407  164.2732  128.7089 C   0  0  2  0  0  0  0  0  0  0  0  0
  192.6630  163.9744  129.9166 N   0  0  0  0  0  0  0  0  0  0  0  0
  193.6176  165.0299  130.1841 C   0  0  1  0  0  0  0  0  0  0  0  0
  193.0033  166.2590  130.3399 O   0  0  0  0  0  0  0  0  0  0  0  0
  194.3735  164.6210  131.4562 C   0  0  2  0  0  0  0  0  0  0  0  0
  194.9401  163.2662  131.2354 C   0  0  0  0  0  0  0  0  0  0  0  0
  194.4013  162.1956  132.1179 C   0  0  0  0  0  0  0  0  0  0  0  0
  195.1298  161.0479  132.3876 C   0  0  0  0  0  0  0  0  0  0  0  0
  194.6074  160.0786  133.2107 C   0  0  0  0  0  0  0  0  0  0  0  0
  195.3890  158.8216  133.5148 C   0  0  0  0  0  0  0  0  0  0  0  0
  193.3586  160.2409  133.7723 C   0  0  0  0  0  0  0  0  0  0  0  0
  192.8748  159.2367  134.5950 O   0  0  0  0  0  0  0  0  0  0  0  0
  192.4438  158.0265  133.9714 C   0  0  0  0  0  0  0  0  0  0  0  0
  192.6469  161.4069  133.4836 C   0  0  0  0  0  0  0  0  0  0  0  0
  191.3956  161.5419  134.0641 O   0  0  0  0  0  0  0  0  0  0  0  0
  193.1594  162.3737  132.6666 C   0  0  0  0  0  0  0  0  0  0  0  0
  192.4445  163.6187  132.3439 C   0  0  1  0  0  0  0  0  0  0  0  0
  193.4448  164.6583  132.5318 N   0  0  0  0  0  0  0  0  0  0  0  0
  192.9089  165.9327  132.8448 C   0  0  0  0  0  0  0  0  0  0  0  0
  190.5248  163.8318  128.7080 C   0  0  0  0  0  0  0  0  0  0  0  0
  189.6396  164.3351  127.7411 C   0  0  0  0  0  0  0  0  0  0  0  0
  189.7833  165.2345  126.6977 O   0  0  0  0  0  0  0  0  0  0  0  0
  188.5238  165.6763  126.2278 C   0  0  0  0  0  0  0  0  0  0  0  0
  187.6949  164.6051  126.6394 O   0  0  0  0  0  0  0  0  0  0  0  0
  188.3149  163.9333  127.7073 C   0  0  0  0  0  0  0  0  0  0  0  0
  187.8803  163.0267  128.6441 C   0  0  0  0  0  0  0  0  0  0  0  0
  186.4797  162.5678  128.6496 C   0  0  0  0  0  0  0  0  0  0  0  0
  188.7564  162.5224  129.6088 C   0  0  0  0  0  0  0  0  0  0  0  0
  188.3449  161.6125  130.5591 O   0  0  0  0  0  0  0  0  0  0  0  0
  187.7327  162.0045  131.7507 C   0  0  0  0  0  0  0  0  0  0  0  0
  187.5211  163.4369  132.0020 C   0  0  0  0  0  0  0  0  0  0  0  0
  187.4012  161.0902  132.5350 O   0  0  0  0  0  0  0  0  0  0  0  0
  190.0561  162.9255  129.6316 C   0  0  0  0  0  0  0  0  0  0  0  0
  1  2  1  0
  2  3  1  6
  3  4  1  0
  4  5  1  0
  5  6  1  1
  6  7  1  0
  7  8  1  0
  8  9  1  0
  9 10  2  0
 10 11  1  0
 11 12  1  0
 12 13  2  0
 13 14  1  0
 14 15  2  0
 15 16  1  0
 16 17  1  0
 15 18  1  0
 18 19  2  0
  5 20  1  0
 20 21  2  0
 20 22  1  0
 22 23  1  0
 24 23  1  6
 24 25  1  0
 25 26  1  0
 26 27  1  1
 26 28  1  0
 28 29  1  6
 29 30  1  0
 30 31  2  0
 31 32  1  0
 32 33  1  0
 32 34  2  0
 34 35  1  0
 35 36  1  0
 34 37  1  0
 37 38  1  0
 37 39  2  0
 40 39  1  6
 40 41  1  0
 41 42  1  0
 24 43  1  0
 43 44  2  0
 44 45  1  0
 45 46  1  0
 46 47  1  0
 47 48  1  0
 48 49  2  0
 49 50  1  0
 49 51  1  0
 51 52  1  0
 52 53  1  0
 53 54  1  0
 53 55  2  0
 51 56  2  0
  1 25  1  6
 41 28  1  0
 56 43  1  0
 40  1  1  0
 48 44  1  0
 56  2  1  0
 10  5  1  0
 19 12  1  0
 39 30  1  0
 19  9  1  0
M  END
$$$$
