
     RDKit          3D

 56 65  0  0  0  0  0  0  0  0999 V2000
  158.0913  142.7297  125.6275 C   0  0  2  0  0  0  0  0  0  0  0  0
  157.0352  143.5034  124.8443 C   0  0  2  0  0  0  0  0  0  0  0  0
  157.7240  144.1190  123.2790 S   0  0  0  0  0  0  0  0  0  0  0  0
  157.5089  145.9223  123.2602 C   0  0  0  0  0  0  0  0  0  0  0  0
  158.6031  146.5277  122.4497 C   0  0  1  0  0  0  0  0  0  0  0  0
  158.5213  146.0947  121.0666 N   0  0  0  0  0  0  0  0  0  0  0  0
  157.2450  146.3123  120.4657 C   0  0  0  0  0  0  0  0  0  0  0  0
  156.7369  147.7225  120.6080 C   0  0  0  0  0  0  0  0  0  0  0  0
  157.5581  148.5353  121.5232 C   0  0  0  0  0  0  0  0  0  0  0  0
  158.4658  148.0159  122.4239 C   0  0  0  0  0  0  0  0  0  0  0  0
  159.0291  149.0388  123.0878 N   0  0  0  0  0  0  0  0  0  0  0  0
  158.5189  150.2015  122.6493 C   0  0  0  0  0  0  0  0  0  0  0  0
  158.7293  151.5336  122.9713 C   0  0  0  0  0  0  0  0  0  0  0  0
  158.0360  152.5654  122.3327 C   0  0  0  0  0  0  0  0  0  0  0  0
  157.1120  152.2744  121.3518 C   0  0  0  0  0  0  0  0  0  0  0  0
  156.3802  153.2338  120.6676 O   0  0  0  0  0  0  0  0  0  0  0  0
  156.9352  153.7078  119.4412 C   0  0  0  0  0  0  0  0  0  0  0  0
  156.9043  150.9481  121.0332 C   0  0  0  0  0  0  0  0  0  0  0  0
  157.5815  149.9208  121.6555 C   0  0  0  0  0  0  0  0  0  0  0  0
  159.9224  146.1147  122.9851 C   0  0  0  0  0  0  0  0  0  0  0  0
  160.9509  146.3421  122.2352 O   0  0  0  0  0  0  0  0  0  0  0  0
  160.1787  145.5223  124.1761 O   0  0  0  0  0  0  0  0  0  0  0  0
  159.8663  145.8761  125.4762 C   0  0  0  0  0  0  0  0  0  0  0  0
  159.1330  144.7785  126.2336 C   0  0  2  0  0  0  0  0  0  0  0  0
  159.2800  143.4980  125.5945 N   0  0  0  0  0  0  0  0  0  0  0  0
  160.4348  142.8144  126.1386 C   0  0  1  0  0  0  0  0  0  0  0  0
  160.3218  142.6076  127.5013 O   0  0  0  0  0  0  0  0  0  0  0  0
  160.5492  141.4835  125.3820 C   0  0  2  0  0  0  0  0  0  0  0  0
  160.5921  141.7863  123.9288 C   0  0  0  0  0  0  0  0  0  0  0  0
  159.4434  141.2730  123.1340 C   0  0  0  0  0  0  0  0  0  0  0  0
  159.5571  141.0317  121.7739 C   0  0  0  0  0  0  0  0  0  0  0  0
  158.4793  140.5528  121.0674 C   0  0  0  0  0  0  0  0  0  0  0  0
  158.5871  140.2845  119.5842 C   0  0  0  0  0  0  0  0  0  0  0  0
  157.2811  140.3097  121.7048 C   0  0  0  0  0  0  0  0  0  0  0  0
  156.2239  139.8275  120.9505 O   0  0  0  0  0  0  0  0  0  0  0  0
  156.0186  140.4059  119.6611 C   0  0  0  0  0  0  0  0  0  0  0  0
  157.1949  140.5616  123.0754 C   0  0  0  0  0  0  0  0  0  0  0  0
  155.9783  140.3059  123.6881 O   0  0  0  0  0  0  0  0  0  0  0  0
  158.2611  141.0376  123.7836 C   0  0  0  0  0  0  0  0  0  0  0  0
  158.2126  141.3087  125.2290 C   0  0  1  0  0  0  0  0  0  0  0  0
  159.4255  140.6918  125.7441 N   0  0  0  0  0  0  0  0  0  0  0  0
  159.3503  140.3076  127.1065 C   0  0  0  0  0  0  0  0  0  0  0  0
  157.7297  145.2188  126.4242 C   0  0  0  0  0  0  0  0  0  0  0  0
  157.4455  146.2760  127.3036 C   0  0  0  0  0  0  0  0  0  0  0  0
  158.2334  147.0734  128.1170 O   0  0  0  0  0  0  0  0  0  0  0  0
  157.4476  147.7646  129.0693 C   0  0  0  0  0  0  0  0  0  0  0  0
  156.1892  147.7731  128.4210 O   0  0  0  0  0  0  0  0  0  0  0  0
  156.1468  146.7173  127.4939 C   0  0  0  0  0  0  0  0  0  0  0  0
  155.1351  146.0969  126.8012 C   0  0  0  0  0  0  0  0  0  0  0  0
  153.7363  146.5303  126.9693 C   0  0  0  0  0  0  0  0  0  0  0  0
  155.4116  145.0442  125.9250 C   0  0  0  0  0  0  0  0  0  0  0  0
  154.4146  144.4057  125.2189 O   0  0  0  0  0  0  0  0  0  0  0  0
  153.6389  143.3889  125.7784 C   0  0  0  0  0  0  0  0  0  0  0  0
  153.8544  143.0248  127.1858 C   0  0  0  0  0  0  0  0  0  0  0  0
  152.7993  142.8496  125.0267 O   0  0  0  0  0  0  0  0  0  0  0  0
  156.6923  144.6196  125.7468 C   0  0  0  0  0  0  0  0  0  0  0  0
  1  2  1  0
  2  3  1  6
  3  4  1  0
  4  5  1  0
  5  6  1  6
  6  7  1  0
  7  8  1  0
  8  9  1  0
  9 10  2  0
 10 11  1  0
 11 12  1  0
 12 13  2  0
 13 14  1  0
 14 15  2  0
 15 16  1  0
 16 17  1  0
 15 18  1  0
 18 19  2  0
  5 20  1  0
 20 21  2  0
 20 22  1  0
 22 23  1  0
 24 23  1  6
 24 25  1  0
 25 26  1  0
 26 27  1  1
 26 28  1  0
 28 29  1  6
 29 30  1  0
 30 31  2  0
 31 32  1  0
 32 33  1  0
 32 34  2  0
 34 35  1  0
 35 36  1  0
 34 37  1  0
 37 38  1  0
 37 39  2  0
 40 39  1  6
 40 41  1  0
 41 42  1  0
 24 43  1  0
 43 44  2  0
 44 45  1  0
 45 46  1  0
 46 47  1  0
 47 48  1  0
 48 49  2  0
 49 50  1  0
 49 51  1  0
 51 52  1  0
 52 53  1  0
 53 54  1  0
 53 55  2  0
 51 56  2  0
  1 25  1  6
 41 28  1  0
 56 43  1  0
 40  1  1  0
 48 44  1  0
 56  2  1  0
 10  5  1  0
 19 12  1  0
 39 30  1  0
 19  9  1  0
M  END
$$$$
