
     RDKit          3D

 56 65  0  0  0  0  0  0  0  0999 V2000
  115.9162  166.2558  142.7135 C   0  0  2  0  0  0  0  0  0  0  0  0
  116.7645  166.9070  143.8016 C   0  0  2  0  0  0  0  0  0  0  0  0
  118.4937  167.0538  143.2616 S   0  0  0  0  0  0  0  0  0  0  0  0
  119.5218  166.1880  144.4830 C   0  0  0  0  0  0  0  0  0  0  0  0
  120.7383  165.6633  143.8007 C   0  0  1  0  0  0  0  0  0  0  0  0
  121.5501  166.7503  143.2844 N   0  0  0  0  0  0  0  0  0  0  0  0
  121.8836  167.7382  144.2591 C   0  0  0  0  0  0  0  0  0  0  0  0
  122.4942  167.1739  145.5145 C   0  0  0  0  0  0  0  0  0  0  0  0
  122.4249  165.7027  145.5712 C   0  0  0  0  0  0  0  0  0  0  0  0
  121.6032  164.9307  144.7752 C   0  0  0  0  0  0  0  0  0  0  0  0
  121.8004  163.6413  145.0960 N   0  0  0  0  0  0  0  0  0  0  0  0
  122.7200  163.5508  146.0709 C   0  0  0  0  0  0  0  0  0  0  0  0
  123.2931  162.4969  146.7662 C   0  0  0  0  0  0  0  0  0  0  0  0
  124.2547  162.7042  147.7589 C   0  0  0  0  0  0  0  0  0  0  0  0
  124.6603  163.9838  148.0727 C   0  0  0  0  0  0  0  0  0  0  0  0
  125.6071  164.2807  149.0421 O   0  0  0  0  0  0  0  0  0  0  0  0
  126.7921  164.9409  148.5983 C   0  0  0  0  0  0  0  0  0  0  0  0
  124.0885  165.0309  147.3795 C   0  0  0  0  0  0  0  0  0  0  0  0
  123.1391  164.8402  146.3981 C   0  0  0  0  0  0  0  0  0  0  0  0
  120.3503  164.7964  142.6624 C   0  0  0  0  0  0  0  0  0  0  0  0
  121.2839  164.4868  141.8232 O   0  0  0  0  0  0  0  0  0  0  0  0
  119.1235  164.2872  142.3961 O   0  0  0  0  0  0  0  0  0  0  0  0
  118.2487  163.5278  143.1517 C   0  0  0  0  0  0  0  0  0  0  0  0
  116.8598  164.1418  143.2528 C   0  0  2  0  0  0  0  0  0  0  0  0
  116.6393  165.1358  142.2365 N   0  0  0  0  0  0  0  0  0  0  0  0
  116.0516  164.5130  141.0688 C   0  0  1  0  0  0  0  0  0  0  0  0
  114.8401  163.9109  141.3553 O   0  0  0  0  0  0  0  0  0  0  0  0
  115.8867  165.6224  140.0204 C   0  0  2  0  0  0  0  0  0  0  0  0
  117.2109  166.2651  139.8233 C   0  0  0  0  0  0  0  0  0  0  0  0
  117.2938  167.6959  140.2243 C   0  0  0  0  0  0  0  0  0  0  0  0
  118.2405  168.5459  139.6746 C   0  0  0  0  0  0  0  0  0  0  0  0
  118.2892  169.8642  140.0617 C   0  0  0  0  0  0  0  0  0  0  0  0
  119.3152  170.8038  139.4718 C   0  0  0  0  0  0  0  0  0  0  0  0
  117.3993  170.3488  140.9966 C   0  0  0  0  0  0  0  0  0  0  0  0
  117.4878  171.6842  141.3546 O   0  0  0  0  0  0  0  0  0  0  0  0
  116.6152  172.1478  142.3856 C   0  0  0  0  0  0  0  0  0  0  0  0
  116.4562  169.4704  141.5338 C   0  0  0  0  0  0  0  0  0  0  0  0
  115.5744  169.9873  142.4698 O   0  0  0  0  0  0  0  0  0  0  0  0
  116.4021  168.1597  141.1543 C   0  0  0  0  0  0  0  0  0  0  0  0
  115.4196  167.2049  141.6911 C   0  0  1  0  0  0  0  0  0  0  0  0
  114.9058  166.5269  140.5107 N   0  0  0  0  0  0  0  0  0  0  0  0
  113.5984  166.0013  140.6637 C   0  0  0  0  0  0  0  0  0  0  0  0
  116.6780  164.6255  144.6430 C   0  0  0  0  0  0  0  0  0  0  0  0
  116.5509  163.6994  145.6909 C   0  0  0  0  0  0  0  0  0  0  0  0
  116.5454  162.3154  145.7406 O   0  0  0  0  0  0  0  0  0  0  0  0
  116.0425  161.8513  146.9791 C   0  0  0  0  0  0  0  0  0  0  0  0
  116.2942  162.9723  147.8060 O   0  0  0  0  0  0  0  0  0  0  0  0
  116.3917  164.1202  147.0006 C   0  0  0  0  0  0  0  0  0  0  0  0
  116.3602  165.4700  147.2567 C   0  0  0  0  0  0  0  0  0  0  0  0
  116.1930  165.9678  148.6339 C   0  0  0  0  0  0  0  0  0  0  0  0
  116.4859  166.3962  146.2180 C   0  0  0  0  0  0  0  0  0  0  0  0
  116.4573  167.7549  146.4490 O   0  0  0  0  0  0  0  0  0  0  0  0
  115.2830  168.5032  146.3511 C   0  0  0  0  0  0  0  0  0  0  0  0
  114.0082  167.8753  146.7258 C   0  0  0  0  0  0  0  0  0  0  0  0
  115.4021  169.6781  145.9433 O   0  0  0  0  0  0  0  0  0  0  0  0
  116.6417  165.9699  144.9350 C   0  0  0  0  0  0  0  0  0  0  0  0
  1  2  1  0
  2  3  1  6
  3  4  1  0
  4  5  1  0
  5  6  1  6
  6  7  1  0
  7  8  1  0
  8  9  1  0
  9 10  2  0
 10 11  1  0
 11 12  1  0
 12 13  2  0
 13 14  1  0
 14 15  2  0
 15 16  1  0
 16 17  1  0
 15 18  1  0
 18 19  2  0
  5 20  1  0
 20 21  2  0
 20 22  1  0
 22 23  1  0
 24 23  1  1
 24 25  1  0
 25 26  1  0
 26 27  1  1
 26 28  1  0
 28 29  1  1
 29 30  1  0
 30 31  2  0
 31 32  1  0
 32 33  1  0
 32 34  2  0
 34 35  1  0
 35 36  1  0
 34 37  1  0
 37 38  1  0
 37 39  2  0
 40 39  1  6
 40 41  1  0
 41 42  1  0
 24 43  1  0
 43 44  2  0
 44 45  1  0
 45 46  1  0
 46 47  1  0
 47 48  1  0
 48 49  2  0
 49 50  1  0
 49 51  1  0
 51 52  1  0
 52 53  1  0
 53 54  1  0
 53 55  2  0
 51 56  2  0
  1 25  1  6
 41 28  1  0
 56 43  1  0
 40  1  1  0
 48 44  1  0
 56  2  1  0
 10  5  1  0
 19 12  1  0
 39 30  1  0
 19  9  1  0
M  END
$$$$
