
     RDKit          3D

 56 65  0  0  0  0  0  0  0  0999 V2000
  130.5797  183.4399  150.8638 C   0  0  2  0  0  0  0  0  0  0  0  0
  130.0455  183.0281  149.4954 C   0  0  2  0  0  0  0  0  0  0  0  0
  129.2665  181.3881  149.5806 S   0  0  0  0  0  0  0  0  0  0  0  0
  130.1090  180.3209  148.3766 C   0  0  0  0  0  0  0  0  0  0  0  0
  130.0520  178.9127  148.8608 C   0  0  1  0  0  0  0  0  0  0  0  0
  128.6795  178.4449  148.9274 N   0  0  0  0  0  0  0  0  0  0  0  0
  127.9518  178.6081  147.7105 C   0  0  0  0  0  0  0  0  0  0  0  0
  128.6464  178.0354  146.5035 C   0  0  0  0  0  0  0  0  0  0  0  0
  130.0307  177.6161  146.7874 C   0  0  0  0  0  0  0  0  0  0  0  0
  130.7498  178.0058  147.8991 C   0  0  0  0  0  0  0  0  0  0  0  0
  131.9653  177.4381  147.8318 N   0  0  0  0  0  0  0  0  0  0  0  0
  132.0590  176.6950  146.7167 C   0  0  0  0  0  0  0  0  0  0  0  0
  133.0562  175.9112  146.1568 C   0  0  0  0  0  0  0  0  0  0  0  0
  132.8700  175.2312  144.9501 C   0  0  0  0  0  0  0  0  0  0  0  0
  131.6693  175.3278  144.2798 C   0  0  0  0  0  0  0  0  0  0  0  0
  131.3985  174.6882  143.0791 O   0  0  0  0  0  0  0  0  0  0  0  0
  130.1685  175.0244  142.4380 C   0  0  0  0  0  0  0  0  0  0  0  0
  130.6784  176.1085  144.8390 C   0  0  0  0  0  0  0  0  0  0  0  0
  130.8492  176.7843  146.0285 C   0  0  0  0  0  0  0  0  0  0  0  0
  130.6386  178.8167  150.2190 C   0  0  0  0  0  0  0  0  0  0  0  0
  130.4211  177.7207  150.8696 O   0  0  0  0  0  0  0  0  0  0  0  0
  131.3806  179.7493  150.8631 O   0  0  0  0  0  0  0  0  0  0  0  0
  132.5377  180.4207  150.5122 C   0  0  0  0  0  0  0  0  0  0  0  0
  132.3994  181.9338  150.5991 C   0  0  2  0  0  0  0  0  0  0  0  0
  131.2664  182.3222  151.3961 N   0  0  0  0  0  0  0  0  0  0  0  0
  131.6779  182.4893  152.7744 C   0  0  1  0  0  0  0  0  0  0  0  0
  132.6557  183.4577  152.9110 O   0  0  0  0  0  0  0  0  0  0  0  0
  130.4145  182.8598  153.5639 C   0  0  2  0  0  0  0  0  0  0  0  0
  129.3925  181.8132  153.3080 C   0  0  0  0  0  0  0  0  0  0  0  0
  128.1696  182.2735  152.5956 C   0  0  0  0  0  0  0  0  0  0  0  0
  126.9665  181.5959  152.7149 C   0  0  0  0  0  0  0  0  0  0  0  0
  125.8527  182.0483  152.0482 C   0  0  0  0  0  0  0  0  0  0  0  0
  124.5336  181.3209  152.1680 C   0  0  0  0  0  0  0  0  0  0  0  0
  125.9240  183.1763  151.2584 C   0  0  0  0  0  0  0  0  0  0  0  0
  124.7750  183.5932  150.6065 O   0  0  0  0  0  0  0  0  0  0  0  0
  124.0208  184.6445  151.2108 C   0  0  0  0  0  0  0  0  0  0  0  0
  127.1486  183.8392  151.1564 C   0  0  0  0  0  0  0  0  0  0  0  0
  127.1884  184.9705  150.3567 O   0  0  0  0  0  0  0  0  0  0  0  0
  128.2592  183.3954  151.8154 C   0  0  0  0  0  0  0  0  0  0  0  0
  129.5649  184.0695  151.7395 C   0  0  1  0  0  0  0  0  0  0  0  0
  130.0024  184.1475  153.1249 N   0  0  0  0  0  0  0  0  0  0  0  0
  130.9000  185.2113  153.3933 C   0  0  0  0  0  0  0  0  0  0  0  0
  132.3971  182.4690  149.2160 C   0  0  0  0  0  0  0  0  0  0  0  0
  133.5757  182.4315  148.4534 C   0  0  0  0  0  0  0  0  0  0  0  0
  134.8598  181.9810  148.7104 O   0  0  0  0  0  0  0  0  0  0  0  0
  135.7755  182.4759  147.7518 C   0  0  0  0  0  0  0  0  0  0  0  0
  134.9077  182.7381  146.6646 O   0  0  0  0  0  0  0  0  0  0  0  0
  133.6021  182.9129  147.1553 C   0  0  0  0  0  0  0  0  0  0  0  0
  132.4455  183.4313  146.6243 C   0  0  0  0  0  0  0  0  0  0  0  0
  132.4226  183.9559  145.2470 C   0  0  0  0  0  0  0  0  0  0  0  0
  131.2698  183.4716  147.3782 C   0  0  0  0  0  0  0  0  0  0  0  0
  130.0971  183.9866  146.8685 O   0  0  0  0  0  0  0  0  0  0  0  0
  129.2296  183.2274  146.0814 C   0  0  0  0  0  0  0  0  0  0  0  0
  129.7856  182.4296  144.9795 C   0  0  0  0  0  0  0  0  0  0  0  0
  128.0167  183.2816  146.3761 O   0  0  0  0  0  0  0  0  0  0  0  0
  131.2568  182.9954  148.6532 C   0  0  0  0  0  0  0  0  0  0  0  0
  1  2  1  0
  2  3  1  1
  3  4  1  0
  4  5  1  0
  5  6  1  1
  6  7  1  0
  7  8  1  0
  8  9  1  0
  9 10  2  0
 10 11  1  0
 11 12  1  0
 12 13  2  0
 13 14  1  0
 14 15  2  0
 15 16  1  0
 16 17  1  0
 15 18  1  0
 18 19  2  0
  5 20  1  0
 20 21  2  0
 20 22  1  0
 22 23  1  0
 24 23  1  6
 24 25  1  0
 25 26  1  0
 26 27  1  6
 26 28  1  0
 28 29  1  6
 29 30  1  0
 30 31  2  0
 31 32  1  0
 32 33  1  0
 32 34  2  0
 34 35  1  0
 35 36  1  0
 34 37  1  0
 37 38  1  0
 37 39  2  0
 40 39  1  1
 40 41  1  0
 41 42  1  0
 24 43  1  0
 43 44  2  0
 44 45  1  0
 45 46  1  0
 46 47  1  0
 47 48  1  0
 48 49  2  0
 49 50  1  0
 49 51  1  0
 51 52  1  0
 52 53  1  0
 53 54  1  0
 53 55  2  0
 51 56  2  0
  1 25  1  1
 41 28  1  0
 56 43  1  0
 40  1  1  0
 48 44  1  0
 56  2  1  0
 10  5  1  0
 19 12  1  0
 39 30  1  0
 19  9  1  0
M  END
$$$$
