
     RDKit          3D

 56 65  0  0  0  0  0  0  0  0999 V2000
  153.6560  162.9976  116.1098 C   0  0  2  0  0  0  0  0  0  0  0  0
  153.1890  161.9452  117.1107 C   0  0  2  0  0  0  0  0  0  0  0  0
  151.7057  162.5159  117.9927 S   0  0  0  0  0  0  0  0  0  0  0  0
  152.0813  162.4832  119.7692 C   0  0  0  0  0  0  0  0  0  0  0  0
  151.2764  163.5369  120.4494 C   0  0  1  0  0  0  0  0  0  0  0  0
  149.8566  163.2598  120.3295 N   0  0  0  0  0  0  0  0  0  0  0  0
  149.4820  161.9536  120.7663 C   0  0  0  0  0  0  0  0  0  0  0  0
  149.9720  161.6092  122.1479 C   0  0  0  0  0  0  0  0  0  0  0  0
  150.9193  162.6041  122.6818 C   0  0  0  0  0  0  0  0  0  0  0  0
  151.5712  163.5485  121.9148 C   0  0  0  0  0  0  0  0  0  0  0  0
  152.3506  164.2819  122.7266 N   0  0  0  0  0  0  0  0  0  0  0  0
  152.2268  163.8465  123.9913 C   0  0  0  0  0  0  0  0  0  0  0  0
  152.7826  164.2245  125.2040 C   0  0  0  0  0  0  0  0  0  0  0  0
  152.4615  163.5727  126.3978 C   0  0  0  0  0  0  0  0  0  0  0  0
  151.5695  162.5217  126.3939 C   0  0  0  0  0  0  0  0  0  0  0  0
  151.1945  161.8195  127.5298 O   0  0  0  0  0  0  0  0  0  0  0  0
  151.8478  160.5708  127.7552 C   0  0  0  0  0  0  0  0  0  0  0  0
  151.0178  162.1473  125.1859 C   0  0  0  0  0  0  0  0  0  0  0  0
  151.3260  162.7818  124.0012 C   0  0  0  0  0  0  0  0  0  0  0  0
  151.5422  164.8587  119.8329 C   0  0  0  0  0  0  0  0  0  0  0  0
  150.7279  165.8159  120.1369 O   0  0  0  0  0  0  0  0  0  0  0  0
  152.5450  165.1836  118.9820 O   0  0  0  0  0  0  0  0  0  0  0  0
  153.9190  165.0536  119.0724 C   0  0  0  0  0  0  0  0  0  0  0  0
  154.5258  164.3013  117.8969 C   0  0  2  0  0  0  0  0  0  0  0  0
  153.6266  164.2469  116.7753 N   0  0  0  0  0  0  0  0  0  0  0  0
  153.8672  165.3797  115.9059 C   0  0  1  0  0  0  0  0  0  0  0  0
  155.1624  165.3973  115.4218 O   0  0  0  0  0  0  0  0  0  0  0  0
  152.8479  165.2751  114.7627 C   0  0  2  0  0  0  0  0  0  0  0  0
  151.4933  165.1879  115.3650 C   0  0  0  0  0  0  0  0  0  0  0  0
  150.7656  163.9127  115.1217 C   0  0  0  0  0  0  0  0  0  0  0  0
  149.3819  163.8508  115.1688 C   0  0  0  0  0  0  0  0  0  0  0  0
  148.7378  162.6590  114.9349 C   0  0  0  0  0  0  0  0  0  0  0  0
  147.2298  162.5749  114.9824 C   0  0  0  0  0  0  0  0  0  0  0  0
  149.4617  161.5199  114.6525 C   0  0  0  0  0  0  0  0  0  0  0  0
  148.7678  160.3428  114.4240 O   0  0  0  0  0  0  0  0  0  0  0  0
  148.2012  160.1547  113.1268 C   0  0  0  0  0  0  0  0  0  0  0  0
  150.8543  161.6111  114.6114 C   0  0  0  0  0  0  0  0  0  0  0  0
  151.5540  160.4499  114.3234 O   0  0  0  0  0  0  0  0  0  0  0  0
  151.5008  162.7914  114.8430 C   0  0  0  0  0  0  0  0  0  0  0  0
  152.9651  162.9302  114.8018 C   0  0  1  0  0  0  0  0  0  0  0  0
  153.1835  164.1239  113.9992 N   0  0  0  0  0  0  0  0  0  0  0  0
  154.4376  164.1609  113.3395 C   0  0  0  0  0  0  0  0  0  0  0  0
  154.9812  162.9792  118.3912 C   0  0  0  0  0  0  0  0  0  0  0  0
  156.0861  162.9018  119.2544 C   0  0  0  0  0  0  0  0  0  0  0  0
  156.9358  163.8510  119.7976 O   0  0  0  0  0  0  0  0  0  0  0  0
  158.1019  163.2487  120.3267 C   0  0  0  0  0  0  0  0  0  0  0  0
  157.6365  161.9339  120.5687 O   0  0  0  0  0  0  0  0  0  0  0  0
  156.5278  161.6833  119.7418 C   0  0  0  0  0  0  0  0  0  0  0  0
  155.8599  160.5439  119.3620 C   0  0  0  0  0  0  0  0  0  0  0  0
  156.2914  159.2231  119.8540 C   0  0  0  0  0  0  0  0  0  0  0  0
  154.7600  160.6145  118.5031 C   0  0  0  0  0  0  0  0  0  0  0  0
  154.0736  159.4864  118.1075 O   0  0  0  0  0  0  0  0  0  0  0  0
  154.4168  158.7689  116.9604 C   0  0  0  0  0  0  0  0  0  0  0  0
  155.8196  158.7599  116.5223 C   0  0  0  0  0  0  0  0  0  0  0  0
  153.4873  158.1732  116.3757 O   0  0  0  0  0  0  0  0  0  0  0  0
  154.3358  161.8183  118.0308 C   0  0  0  0  0  0  0  0  0  0  0  0
  1  2  1  0
  2  3  1  1
  3  4  1  0
  4  5  1  0
  5  6  1  1
  6  7  1  0
  7  8  1  0
  8  9  1  0
  9 10  2  0
 10 11  1  0
 11 12  1  0
 12 13  2  0
 13 14  1  0
 14 15  2  0
 15 16  1  0
 16 17  1  0
 15 18  1  0
 18 19  2  0
  5 20  1  0
 20 21  2  0
 20 22  1  0
 22 23  1  0
 24 23  1  1
 24 25  1  0
 25 26  1  0
 26 27  1  6
 26 28  1  0
 28 29  1  1
 29 30  1  0
 30 31  2  0
 31 32  1  0
 32 33  1  0
 32 34  2  0
 34 35  1  0
 35 36  1  0
 34 37  1  0
 37 38  1  0
 37 39  2  0
 40 39  1  1
 40 41  1  0
 41 42  1  0
 24 43  1  0
 43 44  2  0
 44 45  1  0
 45 46  1  0
 46 47  1  0
 47 48  1  0
 48 49  2  0
 49 50  1  0
 49 51  1  0
 51 52  1  0
 52 53  1  0
 53 54  1  0
 53 55  2  0
 51 56  2  0
  1 25  1  1
 41 28  1  0
 56 43  1  0
 40  1  1  0
 48 44  1  0
 56  2  1  0
 10  5  1  0
 19 12  1  0
 39 30  1  0
 19  9  1  0
M  END
$$$$
