
     RDKit          3D

 56 65  0  0  0  0  0  0  0  0999 V2000
  190.6409  158.8159  131.3110 C   0  0  2  0  0  0  0  0  0  0  0  0
  190.1631  160.2536  131.1310 C   0  0  2  0  0  0  0  0  0  0  0  0
  191.1731  161.1116  129.8871 S   0  0  0  0  0  0  0  0  0  0  0  0
  191.8801  162.5845  130.6803 C   0  0  0  0  0  0  0  0  0  0  0  0
  193.1839  162.9001  130.0311 C   0  0  1  0  0  0  0  0  0  0  0  0
  192.9949  163.2430  128.6333 N   0  0  0  0  0  0  0  0  0  0  0  0
  192.0387  164.2798  128.4149 C   0  0  0  0  0  0  0  0  0  0  0  0
  192.2861  165.5193  129.2334 C   0  0  0  0  0  0  0  0  0  0  0  0
  193.3360  165.3311  130.2507 C   0  0  0  0  0  0  0  0  0  0  0  0
  193.8028  164.1016  130.6696 C   0  0  0  0  0  0  0  0  0  0  0  0
  194.7506  164.3079  131.5987 N   0  0  0  0  0  0  0  0  0  0  0  0
  194.9142  165.6265  131.7965 C   0  0  0  0  0  0  0  0  0  0  0  0
  195.7330  166.3881  132.6161 C   0  0  0  0  0  0  0  0  0  0  0  0
  195.6872  167.7849  132.6120 C   0  0  0  0  0  0  0  0  0  0  0  0
  194.8109  168.4458  131.7778 C   0  0  0  0  0  0  0  0  0  0  0  0
  194.6991  169.8267  131.7089 O   0  0  0  0  0  0  0  0  0  0  0  0
  193.6111  170.3432  130.9431 C   0  0  0  0  0  0  0  0  0  0  0  0
  193.9971  167.6857  130.9631 C   0  0  0  0  0  0  0  0  0  0  0  0
  194.0324  166.3074  130.9574 C   0  0  0  0  0  0  0  0  0  0  0  0
  194.0853  161.7251  130.1002 C   0  0  0  0  0  0  0  0  0  0  0  0
  195.1408  161.7580  129.3542 O   0  0  0  0  0  0  0  0  0  0  0  0
  193.9315  160.6130  130.8582 O   0  0  0  0  0  0  0  0  0  0  0  0
  193.7455  160.4329  132.2168 C   0  0  0  0  0  0  0  0  0  0  0  0
  192.5146  159.6003  132.5454 C   0  0  2  0  0  0  0  0  0  0  0  0
  192.0530  158.8552  131.4046 N   0  0  0  0  0  0  0  0  0  0  0  0
  192.6775  157.5487  131.3941 C   0  0  1  0  0  0  0  0  0  0  0  0
  192.3826  156.8227  132.5335 O   0  0  0  0  0  0  0  0  0  0  0  0
  192.1708  156.8344  130.1331 C   0  0  2  0  0  0  0  0  0  0  0  0
  192.4588  157.7072  128.9668 C   0  0  0  0  0  0  0  0  0  0  0  0
  191.2650  158.2203  128.2412 C   0  0  0  0  0  0  0  0  0  0  0  0
  191.3386  158.6059  126.9120 C   0  0  0  0  0  0  0  0  0  0  0  0
  190.2172  159.0715  126.2673 C   0  0  0  0  0  0  0  0  0  0  0  0
  190.2809  159.4957  124.8183 C   0  0  0  0  0  0  0  0  0  0  0  0
  189.0147  159.1577  126.9362 C   0  0  0  0  0  0  0  0  0  0  0  0
  187.9127  159.6329  126.2441 O   0  0  0  0  0  0  0  0  0  0  0  0
  187.1690  160.6954  126.8417 C   0  0  0  0  0  0  0  0  0  0  0  0
  188.9692  158.7623  128.2745 C   0  0  0  0  0  0  0  0  0  0  0  0
  187.7462  158.8589  128.9194 O   0  0  0  0  0  0  0  0  0  0  0  0
  190.0791  158.2993  128.9215 C   0  0  0  0  0  0  0  0  0  0  0  0
  190.0708  157.8666  130.3279 C   0  0  1  0  0  0  0  0  0  0  0  0
  190.7805  156.5966  130.3101 N   0  0  0  0  0  0  0  0  0  0  0  0
  190.4307  155.7189  131.3667 C   0  0  0  0  0  0  0  0  0  0  0  0
  191.5035  160.5035  133.1465 C   0  0  0  0  0  0  0  0  0  0  0  0
  191.7191  161.0343  134.4285 C   0  0  0  0  0  0  0  0  0  0  0  0
  192.7395  160.8967  135.3547 O   0  0  0  0  0  0  0  0  0  0  0  0
  192.3344  161.3523  136.6316 C   0  0  0  0  0  0  0  0  0  0  0  0
  191.2936  162.2444  136.2786 O   0  0  0  0  0  0  0  0  0  0  0  0
  190.7991  161.8895  135.0116 C   0  0  0  0  0  0  0  0  0  0  0  0
  189.6638  162.2107  134.3070 C   0  0  0  0  0  0  0  0  0  0  0  0
  188.6548  163.1169  134.8843 C   0  0  0  0  0  0  0  0  0  0  0  0
  189.4437  161.6855  133.0310 C   0  0  0  0  0  0  0  0  0  0  0  0
  188.3131  161.9923  132.3043 O   0  0  0  0  0  0  0  0  0  0  0  0
  187.0688  162.1843  132.9070 C   0  0  0  0  0  0  0  0  0  0  0  0
  186.3700  163.4605  132.7011 C   0  0  0  0  0  0  0  0  0  0  0  0
  186.6289  161.2373  133.5931 O   0  0  0  0  0  0  0  0  0  0  0  0
  190.3554  160.8458  132.4690 C   0  0  0  0  0  0  0  0  0  0  0  0
  1  2  1  0
  2  3  1  6
  3  4  1  0
  4  5  1  0
  5  6  1  6
  6  7  1  0
  7  8  1  0
  8  9  1  0
  9 10  2  0
 10 11  1  0
 11 12  1  0
 12 13  2  0
 13 14  1  0
 14 15  2  0
 15 16  1  0
 16 17  1  0
 15 18  1  0
 18 19  2  0
  5 20  1  0
 20 21  2  0
 20 22  1  0
 22 23  1  0
 24 23  1  6
 24 25  1  0
 25 26  1  0
 26 27  1  1
 26 28  1  0
 28 29  1  6
 29 30  1  0
 30 31  2  0
 31 32  1  0
 32 33  1  0
 32 34  2  0
 34 35  1  0
 35 36  1  0
 34 37  1  0
 37 38  1  0
 37 39  2  0
 40 39  1  6
 40 41  1  0
 41 42  1  0
 24 43  1  0
 43 44  2  0
 44 45  1  0
 45 46  1  0
 46 47  1  0
 47 48  1  0
 48 49  2  0
 49 50  1  0
 49 51  1  0
 51 52  1  0
 52 53  1  0
 53 54  1  0
 53 55  2  0
 51 56  2  0
  1 25  1  6
 41 28  1  0
 56 43  1  0
 40  1  1  0
 48 44  1  0
 56  2  1  0
 10  5  1  0
 19 12  1  0
 39 30  1  0
 19  9  1  0
M  END
$$$$
