
     RDKit          3D

 56 65  0  0  0  0  0  0  0  0999 V2000
  203.0623  132.7676  136.3654 C   0  0  2  0  0  0  0  0  0  0  0  0
  203.2163  133.0567  134.8754 C   0  0  2  0  0  0  0  0  0  0  0  0
  203.0248  131.5316  133.9054 S   0  0  0  0  0  0  0  0  0  0  0  0
  204.5362  131.3179  132.9213 C   0  0  0  0  0  0  0  0  0  0  0  0
  204.7610  129.8618  132.6970 C   0  0  1  0  0  0  0  0  0  0  0  0
  203.6821  129.2875  131.9140 N   0  0  0  0  0  0  0  0  0  0  0  0
  203.4286  129.9715  130.6871 C   0  0  0  0  0  0  0  0  0  0  0  0
  204.6539  130.1667  129.8339 C   0  0  0  0  0  0  0  0  0  0  0  0
  205.8999  129.8057  130.5335 C   0  0  0  0  0  0  0  0  0  0  0  0
  206.0074  129.6470  131.9004 C   0  0  0  0  0  0  0  0  0  0  0  0
  207.2787  129.3203  132.1853 N   0  0  0  0  0  0  0  0  0  0  0  0
  207.9981  129.2617  131.0524 C   0  0  0  0  0  0  0  0  0  0  0  0
  209.3237  128.9784  130.7610 C   0  0  0  0  0  0  0  0  0  0  0  0
  209.8102  128.9918  129.4509 C   0  0  0  0  0  0  0  0  0  0  0  0
  208.9667  129.2924  128.4028 C   0  0  0  0  0  0  0  0  0  0  0  0
  209.3641  129.3285  127.0743 O   0  0  0  0  0  0  0  0  0  0  0  0
  208.3850  129.7485  126.1246 C   0  0  0  0  0  0  0  0  0  0  0  0
  207.6480  129.5739  128.6953 C   0  0  0  0  0  0  0  0  0  0  0  0
  207.1554  129.5642  129.9830 C   0  0  0  0  0  0  0  0  0  0  0  0
  204.8185  129.1491  133.9957 C   0  0  0  0  0  0  0  0  0  0  0  0
  204.7433  127.8589  133.9542 O   0  0  0  0  0  0  0  0  0  0  0  0
  204.9411  129.6947  135.2296 O   0  0  0  0  0  0  0  0  0  0  0  0
  205.8683  130.5656  135.7725 C   0  0  0  0  0  0  0  0  0  0  0  0
  205.2337  131.8008  136.3951 C   0  0  2  0  0  0  0  0  0  0  0  0
  203.8298  131.6116  136.6465 N   0  0  0  0  0  0  0  0  0  0  0  0
  203.6427  131.0956  137.9866 C   0  0  1  0  0  0  0  0  0  0  0  0
  204.1429  131.9541  138.9484 O   0  0  0  0  0  0  0  0  0  0  0  0
  202.1328  130.8815  138.1636 C   0  0  2  0  0  0  0  0  0  0  0  0
  201.6617  130.0123  137.0555 C   0  0  0  0  0  0  0  0  0  0  0  0
  200.6980  130.6430  136.1130 C   0  0  0  0  0  0  0  0  0  0  0  0
  199.8156  129.8799  135.3647 C   0  0  0  0  0  0  0  0  0  0  0  0
  198.9337  130.4917  134.5058 C   0  0  0  0  0  0  0  0  0  0  0  0
  197.9653  129.6739  133.6831 C   0  0  0  0  0  0  0  0  0  0  0  0
  198.9205  131.8650  134.3829 C   0  0  0  0  0  0  0  0  0  0  0  0
  198.0137  132.4353  133.5045 O   0  0  0  0  0  0  0  0  0  0  0  0
  196.8554  133.0543  134.0652 C   0  0  0  0  0  0  0  0  0  0  0  0
  199.8201  132.6090  135.1488 C   0  0  0  0  0  0  0  0  0  0  0  0
  199.7818  133.9869  135.0047 O   0  0  0  0  0  0  0  0  0  0  0  0
  200.6992  132.0081  136.0037 C   0  0  0  0  0  0  0  0  0  0  0  0
  201.6572  132.7566  136.8326 C   0  0  1  0  0  0  0  0  0  0  0  0
  201.5187  132.1635  138.1539 N   0  0  0  0  0  0  0  0  0  0  0  0
  201.8708  133.0283  139.2204 C   0  0  0  0  0  0  0  0  0  0  0  0
  205.5577  132.9616  135.5307 C   0  0  0  0  0  0  0  0  0  0  0  0
  206.8773  133.4380  135.4713 C   0  0  0  0  0  0  0  0  0  0  0  0
  208.0552  133.0536  136.0903 O   0  0  0  0  0  0  0  0  0  0  0  0
  209.0449  134.0579  135.9721 C   0  0  0  0  0  0  0  0  0  0  0  0
  208.5905  134.7461  134.8216 O   0  0  0  0  0  0  0  0  0  0  0  0
  207.2132  134.5124  134.6649 C   0  0  0  0  0  0  0  0  0  0  0  0
  206.2241  135.1073  133.9192 C   0  0  0  0  0  0  0  0  0  0  0  0
  206.5313  136.2538  133.0453 C   0  0  0  0  0  0  0  0  0  0  0  0
  204.9092  134.6379  133.9743 C   0  0  0  0  0  0  0  0  0  0  0  0
  203.8994  135.2174  133.2362 O   0  0  0  0  0  0  0  0  0  0  0  0
  203.1754  136.3178  133.6985 C   0  0  0  0  0  0  0  0  0  0  0  0
  201.7729  136.4684  133.2861 C   0  0  0  0  0  0  0  0  0  0  0  0
  203.7844  137.1126  134.4456 O   0  0  0  0  0  0  0  0  0  0  0  0
  204.5917  133.5811  134.7710 C   0  0  0  0  0  0  0  0  0  0  0  0
  1  2  1  0
  2  3  1  6
  3  4  1  0
  4  5  1  0
  5  6  1  6
  6  7  1  0
  7  8  1  0
  8  9  1  0
  9 10  2  0
 10 11  1  0
 11 12  1  0
 12 13  2  0
 13 14  1  0
 14 15  2  0
 15 16  1  0
 16 17  1  0
 15 18  1  0
 18 19  2  0
  5 20  1  0
 20 21  2  0
 20 22  1  0
 22 23  1  0
 24 23  1  6
 24 25  1  0
 25 26  1  0
 26 27  1  1
 26 28  1  0
 28 29  1  6
 29 30  1  0
 30 31  2  0
 31 32  1  0
 32 33  1  0
 32 34  2  0
 34 35  1  0
 35 36  1  0
 34 37  1  0
 37 38  1  0
 37 39  2  0
 40 39  1  6
 40 41  1  0
 41 42  1  0
 24 43  1  0
 43 44  2  0
 44 45  1  0
 45 46  1  0
 46 47  1  0
 47 48  1  0
 48 49  2  0
 49 50  1  0
 49 51  1  0
 51 52  1  0
 52 53  1  0
 53 54  1  0
 53 55  2  0
 51 56  2  0
  1 25  1  6
 41 28  1  0
 56 43  1  0
 40  1  1  0
 48 44  1  0
 56  2  1  0
 10  5  1  0
 19 12  1  0
 39 30  1  0
 19  9  1  0
M  END
$$$$
