
     RDKit          3D

 56 65  0  0  0  0  0  0  0  0999 V2000
  202.0828  132.4862  134.6738 C   0  0  2  0  0  0  0  0  0  0  0  0
  203.5058  131.9461  134.7780 C   0  0  2  0  0  0  0  0  0  0  0  0
  204.5282  133.0349  135.8137 S   0  0  0  0  0  0  0  0  0  0  0  0
  205.9510  133.5597  134.8144 C   0  0  0  0  0  0  0  0  0  0  0  0
  206.3915  134.9063  135.2765 C   0  0  1  0  0  0  0  0  0  0  0  0
  206.8576  134.8537  136.6502 N   0  0  0  0  0  0  0  0  0  0  0  0
  207.8622  133.8672  136.8841 C   0  0  0  0  0  0  0  0  0  0  0  0
  209.0278  133.9474  135.9342 C   0  0  0  0  0  0  0  0  0  0  0  0
  208.7946  134.8870  134.8229 C   0  0  0  0  0  0  0  0  0  0  0  0
  207.5551  135.3772  134.4648 C   0  0  0  0  0  0  0  0  0  0  0  0
  207.7175  136.2018  133.4170 N   0  0  0  0  0  0  0  0  0  0  0  0
  209.0173  136.2630  133.0837 C   0  0  0  0  0  0  0  0  0  0  0  0
  209.7360  136.9384  132.1092 C   0  0  0  0  0  0  0  0  0  0  0  0
  211.1227  136.8097  131.9929 C   0  0  0  0  0  0  0  0  0  0  0  0
  211.8168  135.9936  132.8605 C   0  0  0  0  0  0  0  0  0  0  0  0
  213.1908  135.8075  132.8174 O   0  0  0  0  0  0  0  0  0  0  0  0
  213.6499  134.5283  132.3818 C   0  0  0  0  0  0  0  0  0  0  0  0
  211.0995  135.3225  133.8294 C   0  0  0  0  0  0  0  0  0  0  0  0
  209.7315  135.4407  133.9549 C   0  0  0  0  0  0  0  0  0  0  0  0
  205.2612  135.8632  135.2090 C   0  0  0  0  0  0  0  0  0  0  0  0
  205.4177  136.9913  135.8212 O   0  0  0  0  0  0  0  0  0  0  0  0
  204.0750  135.6931  134.5772 O   0  0  0  0  0  0  0  0  0  0  0  0
  203.7562  135.3683  133.2712 C   0  0  0  0  0  0  0  0  0  0  0  0
  202.8362  134.1607  133.1643 C   0  0  2  0  0  0  0  0  0  0  0  0
  202.1824  133.8743  134.4134 N   0  0  0  0  0  0  0  0  0  0  0  0
  200.9154  134.5732  134.4687 C   0  0  1  0  0  0  0  0  0  0  0  0
  200.0694  134.1976  133.4413 O   0  0  0  0  0  0  0  0  0  0  0  0
  200.3016  134.2537  135.8391 C   0  0  2  0  0  0  0  0  0  0  0  0
  201.2958  134.6168  136.8808 C   0  0  0  0  0  0  0  0  0  0  0  0
  201.8168  133.4824  137.6912 C   0  0  0  0  0  0  0  0  0  0  0  0
  202.3317  133.6801  138.9626 C   0  0  0  0  0  0  0  0  0  0  0  0
  202.8013  132.6115  139.6889 C   0  0  0  0  0  0  0  0  0  0  0  0
  203.3657  132.8104  141.0765 C   0  0  0  0  0  0  0  0  0  0  0  0
  202.7633  131.3390  139.1594 C   0  0  0  0  0  0  0  0  0  0  0  0
  203.2481  130.2944  139.9294 O   0  0  0  0  0  0  0  0  0  0  0  0
  202.3561  129.2151  140.2097 C   0  0  0  0  0  0  0  0  0  0  0  0
  202.2392  131.1689  137.8765 C   0  0  0  0  0  0  0  0  0  0  0  0
  202.2130  129.8782  137.3722 O   0  0  0  0  0  0  0  0  0  0  0  0
  201.7714  132.2256  137.1491 C   0  0  0  0  0  0  0  0  0  0  0  0
  201.2055  132.0869  135.7980 C   0  0  1  0  0  0  0  0  0  0  0  0
  199.9797  132.8692  135.8472 N   0  0  0  0  0  0  0  0  0  0  0  0
  198.9882  132.4572  134.9218 C   0  0  0  0  0  0  0  0  0  0  0  0
  203.6264  133.0366  132.6061 C   0  0  0  0  0  0  0  0  0  0  0  0
  204.0413  133.0761  131.2651 C   0  0  0  0  0  0  0  0  0  0  0  0
  203.8656  133.9936  130.2427 O   0  0  0  0  0  0  0  0  0  0  0  0
  204.1757  133.4225  128.9858 C   0  0  0  0  0  0  0  0  0  0  0  0
  205.0453  132.3757  129.3757 O   0  0  0  0  0  0  0  0  0  0  0  0
  204.7899  132.0474  130.7185 C   0  0  0  0  0  0  0  0  0  0  0  0
  205.1212  130.9803  131.5185 C   0  0  0  0  0  0  0  0  0  0  0  0
  205.9167  129.8608  130.9834 C   0  0  0  0  0  0  0  0  0  0  0  0
  204.7109  130.9353  132.8535 C   0  0  0  0  0  0  0  0  0  0  0  0
  205.0302  129.8763  133.6762 O   0  0  0  0  0  0  0  0  0  0  0  0
  205.1775  130.0227  135.0566 C   0  0  0  0  0  0  0  0  0  0  0  0
  203.9743  130.1756  135.8864 C   0  0  0  0  0  0  0  0  0  0  0  0
  206.3465  130.0131  135.4972 O   0  0  0  0  0  0  0  0  0  0  0  0
  203.9753  131.9526  133.3790 C   0  0  0  0  0  0  0  0  0  0  0  0
  1  2  1  0
  2  3  1  1
  3  4  1  0
  4  5  1  0
  5  6  1  1
  6  7  1  0
  7  8  1  0
  8  9  1  0
  9 10  2  0
 10 11  1  0
 11 12  1  0
 12 13  2  0
 13 14  1  0
 14 15  2  0
 15 16  1  0
 16 17  1  0
 15 18  1  0
 18 19  2  0
  5 20  1  0
 20 21  2  0
 20 22  1  0
 22 23  1  0
 24 23  1  1
 24 25  1  0
 25 26  1  0
 26 27  1  6
 26 28  1  0
 28 29  1  1
 29 30  1  0
 30 31  2  0
 31 32  1  0
 32 33  1  0
 32 34  2  0
 34 35  1  0
 35 36  1  0
 34 37  1  0
 37 38  1  0
 37 39  2  0
 40 39  1  1
 40 41  1  0
 41 42  1  0
 24 43  1  0
 43 44  2  0
 44 45  1  0
 45 46  1  0
 46 47  1  0
 47 48  1  0
 48 49  2  0
 49 50  1  0
 49 51  1  0
 51 52  1  0
 52 53  1  0
 53 54  1  0
 53 55  2  0
 51 56  2  0
  1 25  1  1
 41 28  1  0
 56 43  1  0
 40  1  1  0
 48 44  1  0
 56  2  1  0
 10  5  1  0
 19 12  1  0
 39 30  1  0
 19  9  1  0
M  END
$$$$
