
     RDKit          3D

 56 65  0  0  0  0  0  0  0  0999 V2000
  188.8283  162.0357  124.0614 C   0  0  2  0  0  0  0  0  0  0  0  0
  188.8956  160.5385  123.7759 C   0  0  2  0  0  0  0  0  0  0  0  0
  190.6101  159.9445  123.8809 S   0  0  0  0  0  0  0  0  0  0  0  0
  191.0184  159.1730  122.2882 C   0  0  0  0  0  0  0  0  0  0  0  0
  192.4812  159.3201  122.0447 C   0  0  1  0  0  0  0  0  0  0  0  0
  193.2464  158.6053  123.0500 N   0  0  0  0  0  0  0  0  0  0  0  0
  192.8765  157.2343  123.1936 C   0  0  0  0  0  0  0  0  0  0  0  0
  192.8626  156.4679  121.8975 C   0  0  0  0  0  0  0  0  0  0  0  0
  193.0224  157.3379  120.7185 C   0  0  0  0  0  0  0  0  0  0  0  0
  192.8519  158.7075  120.7326 C   0  0  0  0  0  0  0  0  0  0  0  0
  193.0757  159.1702  119.4916 N   0  0  0  0  0  0  0  0  0  0  0  0
  193.3848  158.1497  118.6746 C   0  0  0  0  0  0  0  0  0  0  0  0
  193.7012  158.0490  117.3285 C   0  0  0  0  0  0  0  0  0  0  0  0
  193.9871  156.8200  116.7277 C   0  0  0  0  0  0  0  0  0  0  0  0
  193.9598  155.6618  117.4749 C   0  0  0  0  0  0  0  0  0  0  0  0
  194.2298  154.4018  116.9613 O   0  0  0  0  0  0  0  0  0  0  0  0
  195.5495  153.8975  117.1637 C   0  0  0  0  0  0  0  0  0  0  0  0
  193.6447  155.7645  118.8143 C   0  0  0  0  0  0  0  0  0  0  0  0
  193.3607  156.9705  119.4191 C   0  0  0  0  0  0  0  0  0  0  0  0
  192.8662  160.7506  122.1026 C   0  0  0  0  0  0  0  0  0  0  0  0
  194.1310  161.0095  122.1741 O   0  0  0  0  0  0  0  0  0  0  0  0
  192.0426  161.8261  122.0899 O   0  0  0  0  0  0  0  0  0  0  0  0
  191.0491  162.2252  121.2143 C   0  0  0  0  0  0  0  0  0  0  0  0
  189.7153  162.4805  121.9015 C   0  0  2  0  0  0  0  0  0  0  0  0
  189.8691  162.6476  123.3221 N   0  0  0  0  0  0  0  0  0  0  0  0
  190.0582  164.0505  123.6273 C   0  0  1  0  0  0  0  0  0  0  0  0
  188.9868  164.8211  123.2143 O   0  0  0  0  0  0  0  0  0  0  0  0
  190.2559  164.1423  125.1470 C   0  0  2  0  0  0  0  0  0  0  0  0
  191.3716  163.2352  125.5182 C   0  0  0  0  0  0  0  0  0  0  0  0
  191.0012  162.0907  126.3945 C   0  0  0  0  0  0  0  0  0  0  0  0
  191.9375  161.4712  127.2071 C   0  0  0  0  0  0  0  0  0  0  0  0
  191.5641  160.4191  128.0093 C   0  0  0  0  0  0  0  0  0  0  0  0
  192.5728  159.7331  128.9011 C   0  0  0  0  0  0  0  0  0  0  0  0
  190.2591  159.9740  128.0113 C   0  0  0  0  0  0  0  0  0  0  0  0
  189.9310  158.9106  128.8365 O   0  0  0  0  0  0  0  0  0  0  0  0
  188.6555  158.2981  128.6441 C   0  0  0  0  0  0  0  0  0  0  0  0
  189.3369  160.6165  127.1830 C   0  0  0  0  0  0  0  0  0  0  0  0
  188.0329  160.1475  127.2082 O   0  0  0  0  0  0  0  0  0  0  0  0
  189.7007  161.6618  126.3833 C   0  0  0  0  0  0  0  0  0  0  0  0
  188.7580  162.3693  125.5024 C   0  0  1  0  0  0  0  0  0  0  0  0
  189.0255  163.7765  125.7577 N   0  0  0  0  0  0  0  0  0  0  0  0
  187.9264  164.6342  125.5014 C   0  0  0  0  0  0  0  0  0  0  0  0
  188.7847  161.3971  121.5019 C   0  0  0  0  0  0  0  0  0  0  0  0
  188.3083  161.3405  120.1821 C   0  0  0  0  0  0  0  0  0  0  0  0
  188.5113  162.1320  119.0638 O   0  0  0  0  0  0  0  0  0  0  0  0
  187.5428  161.8652  118.0673 C   0  0  0  0  0  0  0  0  0  0  0  0
  187.1550  160.5497  118.4178 O   0  0  0  0  0  0  0  0  0  0  0  0
  187.4477  160.3347  119.7758 C   0  0  0  0  0  0  0  0  0  0  0  0
  187.0662  159.3869  120.6948 C   0  0  0  0  0  0  0  0  0  0  0  0
  186.1520  158.2962  120.3111 C   0  0  0  0  0  0  0  0  0  0  0  0
  187.5367  159.4380  122.0095 C   0  0  0  0  0  0  0  0  0  0  0  0
  187.1687  158.4996  122.9498 O   0  0  0  0  0  0  0  0  0  0  0  0
  188.1065  157.7982  123.7097 C   0  0  0  0  0  0  0  0  0  0  0  0
  189.4204  157.5047  123.1206 C   0  0  0  0  0  0  0  0  0  0  0  0
  187.7542  157.4632  124.8605 O   0  0  0  0  0  0  0  0  0  0  0  0
  188.3820  160.4319  122.3965 C   0  0  0  0  0  0  0  0  0  0  0  0
  1  2  1  0
  2  3  1  6
  3  4  1  0
  4  5  1  0
  5  6  1  1
  6  7  1  0
  7  8  1  0
  8  9  1  0
  9 10  2  0
 10 11  1  0
 11 12  1  0
 12 13  2  0
 13 14  1  0
 14 15  2  0
 15 16  1  0
 16 17  1  0
 15 18  1  0
 18 19  2  0
  5 20  1  0
 20 21  2  0
 20 22  1  0
 22 23  1  0
 24 23  1  6
 24 25  1  0
 25 26  1  0
 26 27  1  1
 26 28  1  0
 28 29  1  1
 29 30  1  0
 30 31  2  0
 31 32  1  0
 32 33  1  0
 32 34  2  0
 34 35  1  0
 35 36  1  0
 34 37  1  0
 37 38  1  0
 37 39  2  0
 40 39  1  1
 40 41  1  0
 41 42  1  0
 24 43  1  0
 43 44  2  0
 44 45  1  0
 45 46  1  0
 46 47  1  0
 47 48  1  0
 48 49  2  0
 49 50  1  0
 49 51  1  0
 51 52  1  0
 52 53  1  0
 53 54  1  0
 53 55  2  0
 51 56  2  0
  1 25  1  1
 41 28  1  0
 56 43  1  0
 40  1  1  0
 48 44  1  0
 56  2  1  0
 10  5  1  0
 19 12  1  0
 39 30  1  0
 19  9  1  0
M  END
$$$$
