
     RDKit          3D

 56 65  0  0  0  0  0  0  0  0999 V2000
  191.5391  162.8947  120.4051 C   0  0  2  0  0  0  0  0  0  0  0  0
  190.7261  161.6756  119.9806 C   0  0  2  0  0  0  0  0  0  0  0  0
  189.6837  161.0938  121.3512 S   0  0  0  0  0  0  0  0  0  0  0  0
  190.1122  159.3568  121.6630 C   0  0  0  0  0  0  0  0  0  0  0  0
  189.8765  159.0553  123.1033 C   0  0  1  0  0  0  0  0  0  0  0  0
  188.4702  159.1926  123.4360 N   0  0  0  0  0  0  0  0  0  0  0  0
  187.5992  158.4365  122.5953 C   0  0  0  0  0  0  0  0  0  0  0  0
  187.9745  156.9829  122.4791 C   0  0  0  0  0  0  0  0  0  0  0  0
  189.2857  156.6823  123.0814 C   0  0  0  0  0  0  0  0  0  0  0  0
  190.2328  157.6343  123.4000 C   0  0  0  0  0  0  0  0  0  0  0  0
  191.2969  157.0064  123.9271 N   0  0  0  0  0  0  0  0  0  0  0  0
  191.0728  155.6824  123.9612 C   0  0  0  0  0  0  0  0  0  0  0  0
  191.8066  154.5872  124.3907 C   0  0  0  0  0  0  0  0  0  0  0  0
  191.3079  153.2846  124.3029 C   0  0  0  0  0  0  0  0  0  0  0  0
  190.0535  153.0581  123.7779 C   0  0  0  0  0  0  0  0  0  0  0  0
  189.4812  151.8007  123.6534 O   0  0  0  0  0  0  0  0  0  0  0  0
  188.1325  151.6644  124.1000 C   0  0  0  0  0  0  0  0  0  0  0  0
  189.3252  154.1496  123.3511 C   0  0  0  0  0  0  0  0  0  0  0  0
  189.8055  155.4394  123.4321 C   0  0  0  0  0  0  0  0  0  0  0  0
  190.6456  159.9955  123.9533 C   0  0  0  0  0  0  0  0  0  0  0  0
  190.3381  160.0281  125.2087 O   0  0  0  0  0  0  0  0  0  0  0  0
  191.6394  160.8307  123.5662 O   0  0  0  0  0  0  0  0  0  0  0  0
  192.8286  160.6115  122.8947 C   0  0  0  0  0  0  0  0  0  0  0  0
  192.9856  161.4852  121.6585 C   0  0  2  0  0  0  0  0  0  0  0  0
  192.0858  162.6075  121.6792 N   0  0  0  0  0  0  0  0  0  0  0  0
  192.7365  163.7390  122.3062 C   0  0  1  0  0  0  0  0  0  0  0  0
  193.8842  164.1167  121.6335 O   0  0  0  0  0  0  0  0  0  0  0  0
  191.7056  164.8764  122.3287 C   0  0  2  0  0  0  0  0  0  0  0  0
  190.4816  164.3702  123.0002 C   0  0  0  0  0  0  0  0  0  0  0  0
  189.2656  164.2989  122.1450 C   0  0  0  0  0  0  0  0  0  0  0  0
  187.9937  164.3337  122.6944 C   0  0  0  0  0  0  0  0  0  0  0  0
  186.8893  164.2708  121.8781 C   0  0  0  0  0  0  0  0  0  0  0  0
  185.4958  164.3077  122.4615 C   0  0  0  0  0  0  0  0  0  0  0  0
  187.0387  164.1731  120.5109 C   0  0  0  0  0  0  0  0  0  0  0  0
  185.8960  164.1126  119.7298 O   0  0  0  0  0  0  0  0  0  0  0  0
  186.0697  164.0610  118.3134 C   0  0  0  0  0  0  0  0  0  0  0  0
  188.3314  164.1402  119.9846 C   0  0  0  0  0  0  0  0  0  0  0  0
  188.4492  164.0434  118.6070 O   0  0  0  0  0  0  0  0  0  0  0  0
  189.4330  164.2019  120.7893 C   0  0  0  0  0  0  0  0  0  0  0  0
  190.8108  164.1773  120.2734 C   0  0  1  0  0  0  0  0  0  0  0  0
  191.4715  165.2634  120.9811 N   0  0  0  0  0  0  0  0  0  0  0  0
  192.5800  165.8175  120.2932 C   0  0  0  0  0  0  0  0  0  0  0  0
  192.8597  160.6115  120.4667 C   0  0  0  0  0  0  0  0  0  0  0  0
  193.8737  159.6856  120.1725 C   0  0  0  0  0  0  0  0  0  0  0  0
  195.0778  159.3701  120.7796 O   0  0  0  0  0  0  0  0  0  0  0  0
  195.9029  158.6138  119.9140 C   0  0  0  0  0  0  0  0  0  0  0  0
  194.9350  158.0482  119.0496 O   0  0  0  0  0  0  0  0  0  0  0  0
  193.7794  158.8482  119.0736 C   0  0  0  0  0  0  0  0  0  0  0  0
  192.6675  158.9413  118.2715 C   0  0  0  0  0  0  0  0  0  0  0  0
  192.5205  158.0718  117.0904 C   0  0  0  0  0  0  0  0  0  0  0  0
  191.6554  159.8609  118.5590 C   0  0  0  0  0  0  0  0  0  0  0  0
  190.5307  159.9736  117.7700 O   0  0  0  0  0  0  0  0  0  0  0  0
  189.8039  161.1615  117.6734 C   0  0  0  0  0  0  0  0  0  0  0  0
  190.4074  162.4051  118.1722 C   0  0  0  0  0  0  0  0  0  0  0  0
  188.6683  161.0807  117.1589 O   0  0  0  0  0  0  0  0  0  0  0  0
  191.7600  160.6785  119.6420 C   0  0  0  0  0  0  0  0  0  0  0  0
  1  2  1  0
  2  3  1  1
  3  4  1  0
  4  5  1  0
  5  6  1  1
  6  7  1  0
  7  8  1  0
  8  9  1  0
  9 10  2  0
 10 11  1  0
 11 12  1  0
 12 13  2  0
 13 14  1  0
 14 15  2  0
 15 16  1  0
 16 17  1  0
 15 18  1  0
 18 19  2  0
  5 20  1  0
 20 21  2  0
 20 22  1  0
 22 23  1  0
 24 23  1  1
 24 25  1  0
 25 26  1  0
 26 27  1  6
 26 28  1  0
 28 29  1  6
 29 30  1  0
 30 31  2  0
 31 32  1  0
 32 33  1  0
 32 34  2  0
 34 35  1  0
 35 36  1  0
 34 37  1  0
 37 38  1  0
 37 39  2  0
 40 39  1  1
 40 41  1  0
 41 42  1  0
 24 43  1  0
 43 44  2  0
 44 45  1  0
 45 46  1  0
 46 47  1  0
 47 48  1  0
 48 49  2  0
 49 50  1  0
 49 51  1  0
 51 52  1  0
 52 53  1  0
 53 54  1  0
 53 55  2  0
 51 56  2  0
  1 25  1  1
 41 28  1  0
 56 43  1  0
 40  1  1  0
 48 44  1  0
 56  2  1  0
 10  5  1  0
 19 12  1  0
 39 30  1  0
 19  9  1  0
M  END
$$$$
