
     RDKit          3D

 56 65  0  0  0  0  0  0  0  0999 V2000
  117.8383  168.0687  145.9413 C   0  0  2  0  0  0  0  0  0  0  0  0
  118.3065  166.6917  145.4809 C   0  0  2  0  0  0  0  0  0  0  0  0
  119.1665  166.8100  143.8840 S   0  0  0  0  0  0  0  0  0  0  0  0
  118.3035  165.7177  142.7176 C   0  0  0  0  0  0  0  0  0  0  0  0
  118.4572  166.2681  141.3413 C   0  0  1  0  0  0  0  0  0  0  0  0
  119.8520  166.2706  140.9391 N   0  0  0  0  0  0  0  0  0  0  0  0
  120.4951  165.0030  141.0690 C   0  0  0  0  0  0  0  0  0  0  0  0
  119.7557  163.8734  140.4023 C   0  0  0  0  0  0  0  0  0  0  0  0
  118.4131  164.2658  139.9378 C   0  0  0  0  0  0  0  0  0  0  0  0
  117.7458  165.3999  140.3541 C   0  0  0  0  0  0  0  0  0  0  0  0
  116.5568  165.4391  139.7302 N   0  0  0  0  0  0  0  0  0  0  0  0
  116.4304  164.3713  138.9250 C   0  0  0  0  0  0  0  0  0  0  0  0
  115.4392  163.9165  138.0689 C   0  0  0  0  0  0  0  0  0  0  0  0
  115.5832  162.7363  137.3343 C   0  0  0  0  0  0  0  0  0  0  0  0
  116.7347  161.9868  137.4481 C   0  0  0  0  0  0  0  0  0  0  0  0
  116.9614  160.8052  136.7578 O   0  0  0  0  0  0  0  0  0  0  0  0
  118.1652  160.1040  137.0676 C   0  0  0  0  0  0  0  0  0  0  0  0
  117.7196  162.4415  138.3007 C   0  0  0  0  0  0  0  0  0  0  0  0
  117.5901  163.6038  139.0310 C   0  0  0  0  0  0  0  0  0  0  0  0
  117.9603  167.6639  141.2921 C   0  0  0  0  0  0  0  0  0  0  0  0
  118.2693  168.3541  140.2433 O   0  0  0  0  0  0  0  0  0  0  0  0
  117.2156  168.3060  142.2240 O   0  0  0  0  0  0  0  0  0  0  0  0
  116.0084  167.9961  142.8236 C   0  0  0  0  0  0  0  0  0  0  0  0
  116.0796  167.9972  144.3438 C   0  0  2  0  0  0  0  0  0  0  0  0
  117.2395  168.6997  144.8243 N   0  0  0  0  0  0  0  0  0  0  0  0
  116.9058  170.0912  145.0465 C   0  0  1  0  0  0  0  0  0  0  0  0
  115.8933  170.2406  145.9765 O   0  0  0  0  0  0  0  0  0  0  0  0
  118.1962  170.7788  145.5145 C   0  0  2  0  0  0  0  0  0  0  0  0
  119.2493  170.5115  144.5020 C   0  0  0  0  0  0  0  0  0  0  0  0
  120.4028  169.7003  144.9774 C   0  0  0  0  0  0  0  0  0  0  0  0
  121.6419  169.7768  144.3612 C   0  0  0  0  0  0  0  0  0  0  0  0
  122.6900  169.0184  144.8263 C   0  0  0  0  0  0  0  0  0  0  0  0
  124.0471  169.0905  144.1656 C   0  0  0  0  0  0  0  0  0  0  0  0
  122.5166  168.1787  145.9061 C   0  0  0  0  0  0  0  0  0  0  0  0
  123.6024  167.4345  146.3380 O   0  0  0  0  0  0  0  0  0  0  0  0
  123.3624  166.0773  146.7118 C   0  0  0  0  0  0  0  0  0  0  0  0
  121.2579  168.1215  146.5076 C   0  0  0  0  0  0  0  0  0  0  0  0
  121.1153  167.2696  147.5916 O   0  0  0  0  0  0  0  0  0  0  0  0
  120.2122  168.8716  146.0508 C   0  0  0  0  0  0  0  0  0  0  0  0
  118.8736  168.8450  146.6612 C   0  0  1  0  0  0  0  0  0  0  0  0
  118.5188  170.2497  146.7938 N   0  0  0  0  0  0  0  0  0  0  0  0
  117.5897  170.5206  147.8295 C   0  0  0  0  0  0  0  0  0  0  0  0
  115.9715  166.5914  144.8039 C   0  0  0  0  0  0  0  0  0  0  0  0
  114.7515  165.9084  144.6734 C   0  0  0  0  0  0  0  0  0  0  0  0
  113.5084  166.2692  144.1807 O   0  0  0  0  0  0  0  0  0  0  0  0
  112.5132  165.3471  144.5824 C   0  0  0  0  0  0  0  0  0  0  0  0
  113.2992  164.1949  144.8242 O   0  0  0  0  0  0  0  0  0  0  0  0
  114.6226  164.5919  145.0829 C   0  0  0  0  0  0  0  0  0  0  0  0
  115.7184  163.9627  145.6230 C   0  0  0  0  0  0  0  0  0  0  0  0
  115.6318  162.5619  146.0736 C   0  0  0  0  0  0  0  0  0  0  0  0
  116.9349  164.6372  145.7557 C   0  0  0  0  0  0  0  0  0  0  0  0
  118.0482  164.0282  146.2942 O   0  0  0  0  0  0  0  0  0  0  0  0
  118.3769  164.1376  147.6465 C   0  0  0  0  0  0  0  0  0  0  0  0
  117.3802  163.7460  148.6529 C   0  0  0  0  0  0  0  0  0  0  0  0
  119.5192  164.5697  147.9100 O   0  0  0  0  0  0  0  0  0  0  0  0
  117.0487  165.9311  145.3495 C   0  0  0  0  0  0  0  0  0  0  0  0
  1  2  1  0
  2  3  1  6
  3  4  1  0
  4  5  1  0
  5  6  1  6
  6  7  1  0
  7  8  1  0
  8  9  1  0
  9 10  2  0
 10 11  1  0
 11 12  1  0
 12 13  2  0
 13 14  1  0
 14 15  2  0
 15 16  1  0
 16 17  1  0
 15 18  1  0
 18 19  2  0
  5 20  1  0
 20 21  2  0
 20 22  1  0
 22 23  1  0
 24 23  1  6
 24 25  1  0
 25 26  1  0
 26 27  1  1
 26 28  1  0
 28 29  1  6
 29 30  1  0
 30 31  2  0
 31 32  1  0
 32 33  1  0
 32 34  2  0
 34 35  1  0
 35 36  1  0
 34 37  1  0
 37 38  1  0
 37 39  2  0
 40 39  1  6
 40 41  1  0
 41 42  1  0
 24 43  1  0
 43 44  2  0
 44 45  1  0
 45 46  1  0
 46 47  1  0
 47 48  1  0
 48 49  2  0
 49 50  1  0
 49 51  1  0
 51 52  1  0
 52 53  1  0
 53 54  1  0
 53 55  2  0
 51 56  2  0
  1 25  1  6
 41 28  1  0
 56 43  1  0
 40  1  1  0
 48 44  1  0
 56  2  1  0
 10  5  1  0
 19 12  1  0
 39 30  1  0
 19  9  1  0
M  END
$$$$
