
     RDKit          3D

 56 65  0  0  0  0  0  0  0  0999 V2000
  168.1922  147.3221  126.4001 C   0  0  2  0  0  0  0  0  0  0  0  0
  168.8402  148.3739  127.2952 C   0  0  2  0  0  0  0  0  0  0  0  0
  170.5931  147.9829  127.5747 S   0  0  0  0  0  0  0  0  0  0  0  0
  170.8446  147.8575  129.3690 C   0  0  0  0  0  0  0  0  0  0  0  0
  171.9553  146.8994  129.6321 C   0  0  1  0  0  0  0  0  0  0  0  0
  173.2041  147.3929  129.0807 N   0  0  0  0  0  0  0  0  0  0  0  0
  173.5428  148.7134  129.5034 C   0  0  0  0  0  0  0  0  0  0  0  0
  173.5150  148.9010  130.9972 C   0  0  0  0  0  0  0  0  0  0  0  0
  172.9352  147.7463  131.7066 C   0  0  0  0  0  0  0  0  0  0  0  0
  172.1814  146.7602  131.1031 C   0  0  0  0  0  0  0  0  0  0  0  0
  171.8211  145.8730  132.0451 N   0  0  0  0  0  0  0  0  0  0  0  0
  172.3144  146.2492  133.2365 C   0  0  0  0  0  0  0  0  0  0  0  0
  172.2558  145.7235  134.5182 C   0  0  0  0  0  0  0  0  0  0  0  0
  172.8825  146.3469  135.6007 C   0  0  0  0  0  0  0  0  0  0  0  0
  173.5844  147.5184  135.4127 C   0  0  0  0  0  0  0  0  0  0  0  0
  174.2355  148.2030  136.4284 O   0  0  0  0  0  0  0  0  0  0  0  0
  173.4628  148.5162  137.5867 C   0  0  0  0  0  0  0  0  0  0  0  0
  173.6413  148.0396  134.1364 C   0  0  0  0  0  0  0  0  0  0  0  0
  173.0276  147.4347  133.0601 C   0  0  0  0  0  0  0  0  0  0  0  0
  171.6587  145.5901  129.0033 C   0  0  0  0  0  0  0  0  0  0  0  0
  172.6383  144.7502  128.9203 O   0  0  0  0  0  0  0  0  0  0  0  0
  170.4736  145.1674  128.5013 O   0  0  0  0  0  0  0  0  0  0  0  0
  169.2078  145.0843  129.0523 C   0  0  0  0  0  0  0  0  0  0  0  0
  168.1496  145.8029  128.2277 C   0  0  2  0  0  0  0  0  0  0  0  0
  168.5988  146.0555  126.8846 N   0  0  0  0  0  0  0  0  0  0  0  0
  168.2165  144.9509  126.0298 C   0  0  1  0  0  0  0  0  0  0  0  0
  166.8463  144.7668  126.0004 O   0  0  0  0  0  0  0  0  0  0  0  0
  168.7642  145.2724  124.6321 C   0  0  2  0  0  0  0  0  0  0  0  0
  170.2216  145.5273  124.7601 C   0  0  0  0  0  0  0  0  0  0  0  0
  170.6613  146.9091  124.4251 C   0  0  0  0  0  0  0  0  0  0  0  0
  171.9597  147.1752  124.0199 C   0  0  0  0  0  0  0  0  0  0  0  0
  172.3349  148.4615  123.7125 C   0  0  0  0  0  0  0  0  0  0  0  0
  173.7466  148.7681  123.2690 C   0  0  0  0  0  0  0  0  0  0  0  0
  171.4249  149.4933  123.8049 C   0  0  0  0  0  0  0  0  0  0  0  0
  171.8501  150.7723  123.4847 O   0  0  0  0  0  0  0  0  0  0  0  0
  171.0052  151.5538  122.6394 C   0  0  0  0  0  0  0  0  0  0  0  0
  170.1239  149.1966  124.2156 C   0  0  0  0  0  0  0  0  0  0  0  0
  169.2318  150.2542  124.2971 O   0  0  0  0  0  0  0  0  0  0  0  0
  169.7442  147.9214  124.5228 C   0  0  0  0  0  0  0  0  0  0  0  0
  168.3821  147.5670  124.9521 C   0  0  1  0  0  0  0  0  0  0  0  0
  168.0506  146.4017  124.1464 N   0  0  0  0  0  0  0  0  0  0  0  0
  166.6613  146.2147  123.9366 C   0  0  0  0  0  0  0  0  0  0  0  0
  167.7322  147.0113  128.9794 C   0  0  0  0  0  0  0  0  0  0  0  0
  166.9871  146.8726  130.1615 C   0  0  0  0  0  0  0  0  0  0  0  0
  166.4960  145.7772  130.8522 O   0  0  0  0  0  0  0  0  0  0  0  0
  165.5159  146.1665  131.7957 C   0  0  0  0  0  0  0  0  0  0  0  0
  165.8717  147.5203  132.0067 O   0  0  0  0  0  0  0  0  0  0  0  0
  166.5927  147.9813  130.8916 C   0  0  0  0  0  0  0  0  0  0  0  0
  166.9468  149.2278  130.4341 C   0  0  0  0  0  0  0  0  0  0  0  0
  166.5512  150.4386  131.1757 C   0  0  0  0  0  0  0  0  0  0  0  0
  167.6880  149.3721  129.2584 C   0  0  0  0  0  0  0  0  0  0  0  0
  168.0553  150.6112  128.7787 O   0  0  0  0  0  0  0  0  0  0  0  0
  169.2423  151.2373  129.1627 C   0  0  0  0  0  0  0  0  0  0  0  0
  170.0094  151.9830  128.1551 C   0  0  0  0  0  0  0  0  0  0  0  0
  169.5748  151.1164  130.3609 O   0  0  0  0  0  0  0  0  0  0  0  0
  168.0694  148.2746  128.5497 C   0  0  0  0  0  0  0  0  0  0  0  0
  1  2  1  0
  2  3  1  1
  3  4  1  0
  4  5  1  0
  5  6  1  6
  6  7  1  0
  7  8  1  0
  8  9  1  0
  9 10  2  0
 10 11  1  0
 11 12  1  0
 12 13  2  0
 13 14  1  0
 14 15  2  0
 15 16  1  0
 16 17  1  0
 15 18  1  0
 18 19  2  0
  5 20  1  0
 20 21  2  0
 20 22  1  0
 22 23  1  0
 24 23  1  1
 24 25  1  0
 25 26  1  0
 26 27  1  6
 26 28  1  0
 28 29  1  1
 29 30  1  0
 30 31  2  0
 31 32  1  0
 32 33  1  0
 32 34  2  0
 34 35  1  0
 35 36  1  0
 34 37  1  0
 37 38  1  0
 37 39  2  0
 40 39  1  1
 40 41  1  0
 41 42  1  0
 24 43  1  0
 43 44  2  0
 44 45  1  0
 45 46  1  0
 46 47  1  0
 47 48  1  0
 48 49  2  0
 49 50  1  0
 49 51  1  0
 51 52  1  0
 52 53  1  0
 53 54  1  0
 53 55  2  0
 51 56  2  0
  1 25  1  1
 41 28  1  0
 56 43  1  0
 40  1  1  0
 48 44  1  0
 56  2  1  0
 10  5  1  0
 19 12  1  0
 39 30  1  0
 19  9  1  0
M  END
$$$$
