
     RDKit          3D

 56 65  0  0  0  0  0  0  0  0999 V2000
  148.9833  176.8717  156.5582 C   0  0  2  0  0  0  0  0  0  0  0  0
  147.8672  175.8448  156.7235 C   0  0  2  0  0  0  0  0  0  0  0  0
  148.5549  174.1661  156.8353 S   0  0  0  0  0  0  0  0  0  0  0  0
  147.8007  173.1785  155.5109 C   0  0  0  0  0  0  0  0  0  0  0  0
  148.7619  172.1178  155.0963 C   0  0  1  0  0  0  0  0  0  0  0  0
  149.0209  171.1995  156.1902 N   0  0  0  0  0  0  0  0  0  0  0  0
  147.8423  170.6388  156.7677 C   0  0  0  0  0  0  0  0  0  0  0  0
  146.9098  170.0141  155.7639 C   0  0  0  0  0  0  0  0  0  0  0  0
  147.2976  170.2984  154.3707 C   0  0  0  0  0  0  0  0  0  0  0  0
  148.1786  171.2922  153.9951 C   0  0  0  0  0  0  0  0  0  0  0  0
  148.2962  171.2641  152.6573 N   0  0  0  0  0  0  0  0  0  0  0  0
  147.5231  170.2880  152.1533 C   0  0  0  0  0  0  0  0  0  0  0  0
  147.2639  169.8220  150.8734 C   0  0  0  0  0  0  0  0  0  0  0  0
  146.3883  168.7583  150.6388 C   0  0  0  0  0  0  0  0  0  0  0  0
  145.7529  168.1396  151.6944 C   0  0  0  0  0  0  0  0  0  0  0  0
  144.8701  167.0791  151.5532 O   0  0  0  0  0  0  0  0  0  0  0  0
  145.1494  165.9076  152.3191 C   0  0  0  0  0  0  0  0  0  0  0  0
  146.0125  168.6052  152.9670 C   0  0  0  0  0  0  0  0  0  0  0  0
  146.8739  169.6534  153.2121 C   0  0  0  0  0  0  0  0  0  0  0  0
  150.0508  172.7282  154.6912 C   0  0  0  0  0  0  0  0  0  0  0  0
  151.0577  171.9274  154.5618 O   0  0  0  0  0  0  0  0  0  0  0  0
  150.2994  174.0359  154.4395 O   0  0  0  0  0  0  0  0  0  0  0  0
  149.7062  174.9466  153.5841 C   0  0  0  0  0  0  0  0  0  0  0  0
  149.2435  176.2136  154.2890 C   0  0  2  0  0  0  0  0  0  0  0  0
  149.8694  176.3689  155.5750 N   0  0  0  0  0  0  0  0  0  0  0  0
  151.0855  177.1418  155.4320 C   0  0  1  0  0  0  0  0  0  0  0  0
  150.8432  178.4007  154.9137 O   0  0  0  0  0  0  0  0  0  0  0  0
  151.7135  177.2278  156.8303 C   0  0  2  0  0  0  0  0  0  0  0  0
  151.8737  175.8440  157.3450 C   0  0  0  0  0  0  0  0  0  0  0  0
  151.0683  175.5129  158.5518 C   0  0  0  0  0  0  0  0  0  0  0  0
  151.4488  174.5002  159.4181 C   0  0  0  0  0  0  0  0  0  0  0  0
  150.6865  174.2208  160.5276 C   0  0  0  0  0  0  0  0  0  0  0  0
  151.0878  173.1199  161.4818 C   0  0  0  0  0  0  0  0  0  0  0  0
  149.5414  174.9440  160.7858 C   0  0  0  0  0  0  0  0  0  0  0  0
  148.8064  174.6255  161.9161 O   0  0  0  0  0  0  0  0  0  0  0  0
  147.6411  173.8198  161.7371 C   0  0  0  0  0  0  0  0  0  0  0  0
  149.1818  175.9586  159.8965 C   0  0  0  0  0  0  0  0  0  0  0  0
  148.0269  176.6688  160.1837 O   0  0  0  0  0  0  0  0  0  0  0  0
  149.9339  176.2414  158.7923 C   0  0  0  0  0  0  0  0  0  0  0  0
  149.5930  177.3063  157.8358 C   0  0  1  0  0  0  0  0  0  0  0  0
  150.8475  178.0157  157.6364 N   0  0  0  0  0  0  0  0  0  0  0  0
  150.6953  179.3693  157.2439 C   0  0  0  0  0  0  0  0  0  0  0  0
  147.7608  176.2003  154.3186 C   0  0  0  0  0  0  0  0  0  0  0  0
  147.0394  176.3743  153.1265 C   0  0  0  0  0  0  0  0  0  0  0  0
  147.4155  176.5834  151.8101 O   0  0  0  0  0  0  0  0  0  0  0  0
  146.3245  177.0418  151.0344 C   0  0  0  0  0  0  0  0  0  0  0  0
  145.2338  176.5543  151.7939 O   0  0  0  0  0  0  0  0  0  0  0  0
  145.6548  176.3552  153.1202 C   0  0  0  0  0  0  0  0  0  0  0  0
  144.9960  176.1614  154.3106 C   0  0  0  0  0  0  0  0  0  0  0  0
  143.5230  176.1327  154.3559 C   0  0  0  0  0  0  0  0  0  0  0  0
  145.7084  175.9879  155.5001 C   0  0  0  0  0  0  0  0  0  0  0  0
  145.0710  175.7920  156.7066 O   0  0  0  0  0  0  0  0  0  0  0  0
  144.1733  176.7213  157.2349 C   0  0  0  0  0  0  0  0  0  0  0  0
  144.6820  178.0271  157.6771 C   0  0  0  0  0  0  0  0  0  0  0  0
  142.9762  176.3689  157.2952 O   0  0  0  0  0  0  0  0  0  0  0  0
  147.0692  176.0089  155.4930 C   0  0  0  0  0  0  0  0  0  0  0  0
  1  2  1  0
  2  3  1  6
  3  4  1  0
  4  5  1  0
  5  6  1  1
  6  7  1  0
  7  8  1  0
  8  9  1  0
  9 10  2  0
 10 11  1  0
 11 12  1  0
 12 13  2  0
 13 14  1  0
 14 15  2  0
 15 16  1  0
 16 17  1  0
 15 18  1  0
 18 19  2  0
  5 20  1  0
 20 21  2  0
 20 22  1  0
 22 23  1  0
 24 23  1  1
 24 25  1  0
 25 26  1  0
 26 27  1  1
 26 28  1  0
 28 29  1  1
 29 30  1  0
 30 31  2  0
 31 32  1  0
 32 33  1  0
 32 34  2  0
 34 35  1  0
 35 36  1  0
 34 37  1  0
 37 38  1  0
 37 39  2  0
 40 39  1  1
 40 41  1  0
 41 42  1  0
 24 43  1  0
 43 44  2  0
 44 45  1  0
 45 46  1  0
 46 47  1  0
 47 48  1  0
 48 49  2  0
 49 50  1  0
 49 51  1  0
 51 52  1  0
 52 53  1  0
 53 54  1  0
 53 55  2  0
 51 56  2  0
  1 25  1  6
 41 28  1  0
 56 43  1  0
 40  1  1  0
 48 44  1  0
 56  2  1  0
 10  5  1  0
 19 12  1  0
 39 30  1  0
 19  9  1  0
M  END
$$$$
