
     RDKit          3D

 56 65  0  0  0  0  0  0  0  0999 V2000
  131.1022  166.0198  148.9162 C   0  0  2  0  0  0  0  0  0  0  0  0
  129.7152  166.4647  148.4627 C   0  0  2  0  0  0  0  0  0  0  0  0
  128.4467  165.3060  149.0560 S   0  0  0  0  0  0  0  0  0  0  0  0
  127.5451  164.6937  147.6032 C   0  0  0  0  0  0  0  0  0  0  0  0
  127.0475  163.3189  147.8915 C   0  0  1  0  0  0  0  0  0  0  0  0
  126.0930  163.3340  148.9850 N   0  0  0  0  0  0  0  0  0  0  0  0
  125.0150  164.2512  148.8008 C   0  0  0  0  0  0  0  0  0  0  0  0
  124.3042  164.0992  147.4821 C   0  0  0  0  0  0  0  0  0  0  0  0
  124.9999  163.1824  146.5613 C   0  0  0  0  0  0  0  0  0  0  0  0
  126.3107  162.7764  146.7095 C   0  0  0  0  0  0  0  0  0  0  0  0
  126.6098  161.9481  145.6953 N   0  0  0  0  0  0  0  0  0  0  0  0
  125.5401  161.8032  144.8958 C   0  0  0  0  0  0  0  0  0  0  0  0
  125.2885  161.0867  143.7358 C   0  0  0  0  0  0  0  0  0  0  0  0
  124.0444  161.1246  143.1003 C   0  0  0  0  0  0  0  0  0  0  0  0
  123.0234  161.8891  143.6236 C   0  0  0  0  0  0  0  0  0  0  0  0
  121.7597  161.9847  143.0595 O   0  0  0  0  0  0  0  0  0  0  0  0
  120.9761  163.1174  143.4333 C   0  0  0  0  0  0  0  0  0  0  0  0
  123.2762  162.6012  144.7780 C   0  0  0  0  0  0  0  0  0  0  0  0
  124.4988  162.5725  145.4147 C   0  0  0  0  0  0  0  0  0  0  0  0
  128.1765  162.4386  148.2768 C   0  0  0  0  0  0  0  0  0  0  0  0
  127.8706  161.2998  148.8070 O   0  0  0  0  0  0  0  0  0  0  0  0
  129.5005  162.6895  148.1379 O   0  0  0  0  0  0  0  0  0  0  0  0
  130.2699  163.0408  147.0436 C   0  0  0  0  0  0  0  0  0  0  0  0
  131.0841  164.3068  147.2684 C   0  0  2  0  0  0  0  0  0  0  0  0
  131.1960  164.6295  148.6659 N   0  0  0  0  0  0  0  0  0  0  0  0
  132.3884  164.0151  149.2113 C   0  0  1  0  0  0  0  0  0  0  0  0
  133.5355  164.4505  148.5734 O   0  0  0  0  0  0  0  0  0  0  0  0
  132.4153  164.3676  150.7052 C   0  0  2  0  0  0  0  0  0  0  0  0
  131.1252  163.9349  151.3000 C   0  0  0  0  0  0  0  0  0  0  0  0
  130.2658  165.0286  151.8293 C   0  0  0  0  0  0  0  0  0  0  0  0
  129.3206  164.7913  152.8147 C   0  0  0  0  0  0  0  0  0  0  0  0
  128.5447  165.8233  153.2871 C   0  0  0  0  0  0  0  0  0  0  0  0
  127.5099  165.5810  154.3613 C   0  0  0  0  0  0  0  0  0  0  0  0
  128.7009  167.0980  152.7854 C   0  0  0  0  0  0  0  0  0  0  0  0
  127.8959  168.1048  153.2930 O   0  0  0  0  0  0  0  0  0  0  0  0
  126.7787  168.5144  152.5034 C   0  0  0  0  0  0  0  0  0  0  0  0
  129.6606  167.3085  151.7934 C   0  0  0  0  0  0  0  0  0  0  0  0
  129.7952  168.6006  151.3104 O   0  0  0  0  0  0  0  0  0  0  0  0
  130.4345  166.2883  151.3192 C   0  0  0  0  0  0  0  0  0  0  0  0
  131.4607  166.4704  150.2805 C   0  0  1  0  0  0  0  0  0  0  0  0
  132.6227  165.7703  150.8064 N   0  0  0  0  0  0  0  0  0  0  0  0
  133.8631  166.2510  150.3172 C   0  0  0  0  0  0  0  0  0  0  0  0
  130.4959  165.3792  146.4297 C   0  0  0  0  0  0  0  0  0  0  0  0
  130.6238  165.3190  145.0325 C   0  0  0  0  0  0  0  0  0  0  0  0
  131.2313  164.4200  144.1718 O   0  0  0  0  0  0  0  0  0  0  0  0
  131.3859  164.9756  142.8797 C   0  0  0  0  0  0  0  0  0  0  0  0
  130.3696  165.9610  142.8898 O   0  0  0  0  0  0  0  0  0  0  0  0
  130.0756  166.2989  144.2222 C   0  0  0  0  0  0  0  0  0  0  0  0
  129.3996  167.3380  144.8152 C   0  0  0  0  0  0  0  0  0  0  0  0
  128.7979  168.4054  143.9958 C   0  0  0  0  0  0  0  0  0  0  0  0
  129.2691  167.4035  146.2049 C   0  0  0  0  0  0  0  0  0  0  0  0
  128.5961  168.4352  146.8236 O   0  0  0  0  0  0  0  0  0  0  0  0
  129.1530  169.7068  146.9698 C   0  0  0  0  0  0  0  0  0  0  0  0
  128.8301  170.4891  148.1712 C   0  0  0  0  0  0  0  0  0  0  0  0
  129.9021  170.0973  146.0493 O   0  0  0  0  0  0  0  0  0  0  0  0
  129.8127  166.4342  146.9905 C   0  0  0  0  0  0  0  0  0  0  0  0
  1  2  1  0
  2  3  1  6
  3  4  1  0
  4  5  1  0
  5  6  1  1
  6  7  1  0
  7  8  1  0
  8  9  1  0
  9 10  2  0
 10 11  1  0
 11 12  1  0
 12 13  2  0
 13 14  1  0
 14 15  2  0
 15 16  1  0
 16 17  1  0
 15 18  1  0
 18 19  2  0
  5 20  1  0
 20 21  2  0
 20 22  1  0
 22 23  1  0
 24 23  1  1
 24 25  1  0
 25 26  1  0
 26 27  1  6
 26 28  1  0
 28 29  1  6
 29 30  1  0
 30 31  2  0
 31 32  1  0
 32 33  1  0
 32 34  2  0
 34 35  1  0
 35 36  1  0
 34 37  1  0
 37 38  1  0
 37 39  2  0
 40 39  1  1
 40 41  1  0
 41 42  1  0
 24 43  1  0
 43 44  2  0
 44 45  1  0
 45 46  1  0
 46 47  1  0
 47 48  1  0
 48 49  2  0
 49 50  1  0
 49 51  1  0
 51 52  1  0
 52 53  1  0
 53 54  1  0
 53 55  2  0
 51 56  2  0
  1 25  1  1
 41 28  1  0
 56 43  1  0
 40  1  1  0
 48 44  1  0
 56  2  1  0
 10  5  1  0
 19 12  1  0
 39 30  1  0
 19  9  1  0
M  END
$$$$
