
     RDKit          3D

 56 65  0  0  0  0  0  0  0  0999 V2000
  126.7590  139.3160  134.8745 C   0  0  2  0  0  0  0  0  0  0  0  0
  126.9706  139.3748  133.3647 C   0  0  2  0  0  0  0  0  0  0  0  0
  127.9884  137.9759  132.8072 S   0  0  0  0  0  0  0  0  0  0  0  0
  129.4366  138.6617  131.9525 C   0  0  0  0  0  0  0  0  0  0  0  0
  130.5788  137.7176  132.1104 C   0  0  1  0  0  0  0  0  0  0  0  0
  130.2917  136.4480  131.4680 N   0  0  0  0  0  0  0  0  0  0  0  0
  129.8974  136.5660  130.1013 C   0  0  0  0  0  0  0  0  0  0  0  0
  130.8460  137.3798  129.2615 C   0  0  0  0  0  0  0  0  0  0  0  0
  131.8722  138.0684  130.0647 C   0  0  0  0  0  0  0  0  0  0  0  0
  131.7950  138.2577  131.4297 C   0  0  0  0  0  0  0  0  0  0  0  0
  132.8966  138.9175  131.8240 N   0  0  0  0  0  0  0  0  0  0  0  0
  133.6841  139.1621  130.7635 C   0  0  0  0  0  0  0  0  0  0  0  0
  134.9075  139.7914  130.5910 C   0  0  0  0  0  0  0  0  0  0  0  0
  135.5092  139.9027  129.3345 C   0  0  0  0  0  0  0  0  0  0  0  0
  134.8873  139.3795  128.2209 C   0  0  0  0  0  0  0  0  0  0  0  0
  135.4115  139.4446  126.9383 O   0  0  0  0  0  0  0  0  0  0  0  0
  134.6395  140.1491  125.9665 C   0  0  0  0  0  0  0  0  0  0  0  0
  133.6700  138.7537  128.3952 C   0  0  0  0  0  0  0  0  0  0  0  0
  133.0656  138.6372  129.6290 C   0  0  0  0  0  0  0  0  0  0  0  0
  130.8321  137.4602  133.5483 C   0  0  0  0  0  0  0  0  0  0  0  0
  131.6102  136.4673  133.8325 O   0  0  0  0  0  0  0  0  0  0  0  0
  130.3403  138.1476  134.6069 O   0  0  0  0  0  0  0  0  0  0  0  0
  130.3700  139.4902  134.9378 C   0  0  0  0  0  0  0  0  0  0  0  0
  128.9887  140.0686  135.2093 C   0  0  2  0  0  0  0  0  0  0  0  0
  128.0173  139.0376  135.4606 N   0  0  0  0  0  0  0  0  0  0  0  0
  127.9547  138.7667  136.8817 C   0  0  1  0  0  0  0  0  0  0  0  0
  127.5951  139.8867  137.6088 O   0  0  0  0  0  0  0  0  0  0  0  0
  126.9343  137.6342  137.0643 C   0  0  2  0  0  0  0  0  0  0  0  0
  127.3501  136.5009  136.1994 C   0  0  0  0  0  0  0  0  0  0  0  0
  126.4073  136.1549  135.1010 C   0  0  0  0  0  0  0  0  0  0  0  0
  126.3809  134.8854  134.5456 C   0  0  0  0  0  0  0  0  0  0  0  0
  125.4953  134.5945  133.5351 C   0  0  0  0  0  0  0  0  0  0  0  0
  125.4539  133.2152  132.9191 C   0  0  0  0  0  0  0  0  0  0  0  0
  124.6293  135.5607  133.0685 C   0  0  0  0  0  0  0  0  0  0  0  0
  123.7554  135.2198  132.0490 O   0  0  0  0  0  0  0  0  0  0  0  0
  122.4256  134.8530  132.4180 C   0  0  0  0  0  0  0  0  0  0  0  0
  124.6775  136.8308  133.6463 C   0  0  0  0  0  0  0  0  0  0  0  0
  123.7939  137.7799  133.1572 O   0  0  0  0  0  0  0  0  0  0  0  0
  125.5548  137.1270  134.6500 C   0  0  0  0  0  0  0  0  0  0  0  0
  125.6316  138.4501  135.2893 C   0  0  1  0  0  0  0  0  0  0  0  0
  125.6581  138.1525  136.7132 N   0  0  0  0  0  0  0  0  0  0  0  0
  125.1645  139.1961  137.5357 C   0  0  0  0  0  0  0  0  0  0  0  0
  128.6503  140.9794  134.0889 C   0  0  0  0  0  0  0  0  0  0  0  0
  129.3388  142.1952  133.9483 C   0  0  0  0  0  0  0  0  0  0  0  0
  130.3445  142.8076  134.6774 O   0  0  0  0  0  0  0  0  0  0  0  0
  130.4605  144.1762  134.3371 C   0  0  0  0  0  0  0  0  0  0  0  0
  129.8994  144.1762  133.0374 O   0  0  0  0  0  0  0  0  0  0  0  0
  129.0535  143.0612  132.9061 C   0  0  0  0  0  0  0  0  0  0  0  0
  128.0775  142.7058  132.0063 C   0  0  0  0  0  0  0  0  0  0  0  0
  127.7375  143.5934  130.8798 C   0  0  0  0  0  0  0  0  0  0  0  0
  127.3889  141.4975  132.1412 C   0  0  0  0  0  0  0  0  0  0  0  0
  126.4058  141.1184  131.2522 O   0  0  0  0  0  0  0  0  0  0  0  0
  125.0820  141.5425  131.3793 C   0  0  0  0  0  0  0  0  0  0  0  0
  124.0627  140.9613  130.4945 C   0  0  0  0  0  0  0  0  0  0  0  0
  124.8535  142.4041  132.2547 O   0  0  0  0  0  0  0  0  0  0  0  0
  127.6784  140.6550  133.1701 C   0  0  0  0  0  0  0  0  0  0  0  0
  1  2  1  0
  2  3  1  1
  3  4  1  0
  4  5  1  0
  5  6  1  6
  6  7  1  0
  7  8  1  0
  8  9  1  0
  9 10  2  0
 10 11  1  0
 11 12  1  0
 12 13  2  0
 13 14  1  0
 14 15  2  0
 15 16  1  0
 16 17  1  0
 15 18  1  0
 18 19  2  0
  5 20  1  0
 20 21  2  0
 20 22  1  0
 22 23  1  0
 24 23  1  6
 24 25  1  0
 25 26  1  0
 26 27  1  1
 26 28  1  0
 28 29  1  6
 29 30  1  0
 30 31  2  0
 31 32  1  0
 32 33  1  0
 32 34  2  0
 34 35  1  0
 35 36  1  0
 34 37  1  0
 37 38  1  0
 37 39  2  0
 40 39  1  6
 40 41  1  0
 41 42  1  0
 24 43  1  0
 43 44  2  0
 44 45  1  0
 45 46  1  0
 46 47  1  0
 47 48  1  0
 48 49  2  0
 49 50  1  0
 49 51  1  0
 51 52  1  0
 52 53  1  0
 53 54  1  0
 53 55  2  0
 51 56  2  0
  1 25  1  1
 41 28  1  0
 56 43  1  0
 40  1  1  0
 48 44  1  0
 56  2  1  0
 10  5  1  0
 19 12  1  0
 39 30  1  0
 19  9  1  0
M  END
$$$$
