
     RDKit          3D

 56 65  0  0  0  0  0  0  0  0999 V2000
  132.0220  185.1113  150.9381 C   0  0  2  0  0  0  0  0  0  0  0  0
  130.6657  184.9601  151.6202 C   0  0  2  0  0  0  0  0  0  0  0  0
  130.3427  183.2170  152.0209 S   0  0  0  0  0  0  0  0  0  0  0  0
  128.7825  182.7523  151.2157 C   0  0  0  0  0  0  0  0  0  0  0  0
  128.8222  181.2974  150.8957 C   0  0  1  0  0  0  0  0  0  0  0  0
  128.9051  180.5042  152.1085 N   0  0  0  0  0  0  0  0  0  0  0  0
  127.8884  180.8004  153.0655 C   0  0  0  0  0  0  0  0  0  0  0  0
  126.4921  180.7605  152.5033 C   0  0  0  0  0  0  0  0  0  0  0  0
  126.4716  180.6370  151.0347 C   0  0  0  0  0  0  0  0  0  0  0  0
  127.5567  180.8817  150.2175 C   0  0  0  0  0  0  0  0  0  0  0  0
  127.1790  180.6716  148.9457 N   0  0  0  0  0  0  0  0  0  0  0  0
  125.8886  180.2999  148.9100 C   0  0  0  0  0  0  0  0  0  0  0  0
  125.0052  179.9658  147.8949 C   0  0  0  0  0  0  0  0  0  0  0  0
  123.6802  179.6080  148.1581 C   0  0  0  0  0  0  0  0  0  0  0  0
  123.2161  179.5794  149.4560 C   0  0  0  0  0  0  0  0  0  0  0  0
  121.9188  179.2366  149.8076 O   0  0  0  0  0  0  0  0  0  0  0  0
  121.4799  177.9296  149.4387 C   0  0  0  0  0  0  0  0  0  0  0  0
  124.0971  179.9122  150.4644 C   0  0  0  0  0  0  0  0  0  0  0  0
  125.4065  180.2670  150.2183 C   0  0  0  0  0  0  0  0  0  0  0  0
  130.0093  180.9912  150.0621 C   0  0  0  0  0  0  0  0  0  0  0  0
  130.3195  179.7431  149.9291 O   0  0  0  0  0  0  0  0  0  0  0  0
  130.8132  181.8719  149.4191 O   0  0  0  0  0  0  0  0  0  0  0  0
  130.5481  182.8772  148.5070 C   0  0  0  0  0  0  0  0  0  0  0  0
  131.1033  184.2293  148.9311 C   0  0  2  0  0  0  0  0  0  0  0  0
  132.1076  184.0982  149.9528 N   0  0  0  0  0  0  0  0  0  0  0  0
  133.4137  183.9884  149.3373 C   0  0  1  0  0  0  0  0  0  0  0  0
  133.7205  185.0961  148.5684 O   0  0  0  0  0  0  0  0  0  0  0  0
  134.4208  183.8104  150.4823 C   0  0  2  0  0  0  0  0  0  0  0  0
  133.9826  182.6507  151.2999 C   0  0  0  0  0  0  0  0  0  0  0  0
  133.5912  182.9667  152.7006 C   0  0  0  0  0  0  0  0  0  0  0  0
  133.6407  182.0058  153.6982 C   0  0  0  0  0  0  0  0  0  0  0  0
  133.2772  182.3292  154.9839 C   0  0  0  0  0  0  0  0  0  0  0  0
  133.3257  181.2932  156.0829 C   0  0  0  0  0  0  0  0  0  0  0  0
  132.8621  183.6081  155.2895 C   0  0  0  0  0  0  0  0  0  0  0  0
  132.5060  183.8858  156.5992 O   0  0  0  0  0  0  0  0  0  0  0  0
  133.2990  184.8383  157.3084 C   0  0  0  0  0  0  0  0  0  0  0  0
  132.8220  184.5559  154.2652 C   0  0  0  0  0  0  0  0  0  0  0  0
  132.4023  185.8327  154.6036 O   0  0  0  0  0  0  0  0  0  0  0  0
  133.1812  184.2418  152.9857 C   0  0  0  0  0  0  0  0  0  0  0  0
  133.1596  185.2132  151.8806 C   0  0  1  0  0  0  0  0  0  0  0  0
  134.4426  185.0249  151.2207 N   0  0  0  0  0  0  0  0  0  0  0  0
  134.9123  186.1664  150.5239 C   0  0  0  0  0  0  0  0  0  0  0  0
  129.9566  185.0959  149.2965 C   0  0  0  0  0  0  0  0  0  0  0  0
  129.0855  185.5560  148.2958 C   0  0  0  0  0  0  0  0  0  0  0  0
  129.0419  185.3857  146.9220 O   0  0  0  0  0  0  0  0  0  0  0  0
  128.1770  186.3288  146.3182 C   0  0  0  0  0  0  0  0  0  0  0  0
  127.3293  186.6480  147.4061 O   0  0  0  0  0  0  0  0  0  0  0  0
  127.9996  186.3569  148.6069 C   0  0  0  0  0  0  0  0  0  0  0  0
  127.7894  186.6951  149.9222 C   0  0  0  0  0  0  0  0  0  0  0  0
  126.6474  187.5451  150.3042 C   0  0  0  0  0  0  0  0  0  0  0  0
  128.6529  186.2406  150.9223 C   0  0  0  0  0  0  0  0  0  0  0  0
  128.4637  186.5659  152.2484 O   0  0  0  0  0  0  0  0  0  0  0  0
  128.2289  185.5987  153.2271 C   0  0  0  0  0  0  0  0  0  0  0  0
  127.4856  184.3849  152.8613 C   0  0  0  0  0  0  0  0  0  0  0  0
  128.6769  185.8391  154.3683 O   0  0  0  0  0  0  0  0  0  0  0  0
  129.7169  185.4541  150.6035 C   0  0  0  0  0  0  0  0  0  0  0  0
  1  2  1  0
  2  3  1  6
  3  4  1  0
  4  5  1  0
  5  6  1  1
  6  7  1  0
  7  8  1  0
  8  9  1  0
  9 10  2  0
 10 11  1  0
 11 12  1  0
 12 13  2  0
 13 14  1  0
 14 15  2  0
 15 16  1  0
 16 17  1  0
 15 18  1  0
 18 19  2  0
  5 20  1  0
 20 21  2  0
 20 22  1  0
 22 23  1  0
 24 23  1  1
 24 25  1  0
 25 26  1  0
 26 27  1  1
 26 28  1  0
 28 29  1  1
 29 30  1  0
 30 31  2  0
 31 32  1  0
 32 33  1  0
 32 34  2  0
 34 35  1  0
 35 36  1  0
 34 37  1  0
 37 38  1  0
 37 39  2  0
 40 39  1  1
 40 41  1  0
 41 42  1  0
 24 43  1  0
 43 44  2  0
 44 45  1  0
 45 46  1  0
 46 47  1  0
 47 48  1  0
 48 49  2  0
 49 50  1  0
 49 51  1  0
 51 52  1  0
 52 53  1  0
 53 54  1  0
 53 55  2  0
 51 56  2  0
  1 25  1  6
 41 28  1  0
 56 43  1  0
 40  1  1  0
 48 44  1  0
 56  2  1  0
 10  5  1  0
 19 12  1  0
 39 30  1  0
 19  9  1  0
M  END
$$$$
