
     RDKit          3D

 56 65  0  0  0  0  0  0  0  0999 V2000
  188.9719  161.2808  121.6958 C   0  0  2  0  0  0  0  0  0  0  0  0
  190.1612  162.1142  121.2284 C   0  0  2  0  0  0  0  0  0  0  0  0
  190.0034  162.5194  119.4637 S   0  0  0  0  0  0  0  0  0  0  0  0
  191.4885  161.8945  118.6258 C   0  0  0  0  0  0  0  0  0  0  0  0
  191.1361  161.5466  117.2202 C   0  0  1  0  0  0  0  0  0  0  0  0
  190.7214  162.7272  116.4846 N   0  0  0  0  0  0  0  0  0  0  0  0
  191.6595  163.8018  116.5367 C   0  0  0  0  0  0  0  0  0  0  0  0
  193.0609  163.4064  116.1533 C   0  0  0  0  0  0  0  0  0  0  0  0
  193.2239  161.9484  116.0117 C   0  0  0  0  0  0  0  0  0  0  0  0
  192.3343  161.0142  116.5025 C   0  0  0  0  0  0  0  0  0  0  0  0
  192.7973  159.7919  116.1927 N   0  0  0  0  0  0  0  0  0  0  0  0
  193.9543  159.9011  115.5190 C   0  0  0  0  0  0  0  0  0  0  0  0
  194.8439  158.9908  114.9693 C   0  0  0  0  0  0  0  0  0  0  0  0
  196.0026  159.4011  114.3042 C   0  0  0  0  0  0  0  0  0  0  0  0
  196.2896  160.7436  114.1789 C   0  0  0  0  0  0  0  0  0  0  0  0
  197.4147  161.2387  113.5361 O   0  0  0  0  0  0  0  0  0  0  0  0
  197.4746  162.6523  113.3487 C   0  0  0  0  0  0  0  0  0  0  0  0
  195.4027  161.6476  114.7268 C   0  0  0  0  0  0  0  0  0  0  0  0
  194.2564  161.2561  115.3853 C   0  0  0  0  0  0  0  0  0  0  0  0
  190.0170  160.5744  117.2011 C   0  0  0  0  0  0  0  0  0  0  0  0
  189.4319  160.3842  116.0639 O   0  0  0  0  0  0  0  0  0  0  0  0
  189.5316  159.8573  118.2429 O   0  0  0  0  0  0  0  0  0  0  0  0
  190.1376  159.0003  119.1435 C   0  0  0  0  0  0  0  0  0  0  0  0
  189.8799  159.3801  120.5946 C   0  0  2  0  0  0  0  0  0  0  0  0
  188.7605  160.2746  120.7225 N   0  0  0  0  0  0  0  0  0  0  0  0
  187.5486  159.5085  120.9253 C   0  0  1  0  0  0  0  0  0  0  0  0
  187.6116  158.7284  122.0654 O   0  0  0  0  0  0  0  0  0  0  0  0
  186.4005  160.5244  121.0096 C   0  0  2  0  0  0  0  0  0  0  0  0
  186.4457  161.3672  119.7878 C   0  0  0  0  0  0  0  0  0  0  0  0
  186.7340  162.8094  120.0156 C   0  0  0  0  0  0  0  0  0  0  0  0
  186.3363  163.7773  119.1068 C   0  0  0  0  0  0  0  0  0  0  0  0
  186.6130  165.1023  119.3473 C   0  0  0  0  0  0  0  0  0  0  0  0
  186.1861  166.1697  118.3665 C   0  0  0  0  0  0  0  0  0  0  0  0
  187.2861  165.4767  120.4909 C   0  0  0  0  0  0  0  0  0  0  0  0
  187.5418  166.8238  120.6890 O   0  0  0  0  0  0  0  0  0  0  0  0
  188.3611  167.1807  121.8029 C   0  0  0  0  0  0  0  0  0  0  0  0
  187.6748  164.4809  121.3890 C   0  0  0  0  0  0  0  0  0  0  0  0
  188.3480  164.8885  122.5299 O   0  0  0  0  0  0  0  0  0  0  0  0
  187.4037  163.1629  121.1566 C   0  0  0  0  0  0  0  0  0  0  0  0
  187.7897  162.0851  122.0810 C   0  0  1  0  0  0  0  0  0  0  0  0
  186.5863  161.2763  122.2016 N   0  0  0  0  0  0  0  0  0  0  0  0
  186.4922  160.5494  123.4148 C   0  0  0  0  0  0  0  0  0  0  0  0
  191.1508  159.8923  121.1618 C   0  0  0  0  0  0  0  0  0  0  0  0
  192.2191  159.0088  121.3857 C   0  0  0  0  0  0  0  0  0  0  0  0
  192.3818  157.6468  121.1941 O   0  0  0  0  0  0  0  0  0  0  0  0
  193.5142  157.1651  121.8926 C   0  0  0  0  0  0  0  0  0  0  0  0
  194.2795  158.3502  122.0094 O   0  0  0  0  0  0  0  0  0  0  0  0
  193.4220  159.4590  121.9032 C   0  0  0  0  0  0  0  0  0  0  0  0
  193.5512  160.7955  122.1954 C   0  0  0  0  0  0  0  0  0  0  0  0
  194.8116  161.3235  122.7477 C   0  0  0  0  0  0  0  0  0  0  0  0
  192.4917  161.6795  121.9751 C   0  0  0  0  0  0  0  0  0  0  0  0
  192.5963  163.0241  122.2601 O   0  0  0  0  0  0  0  0  0  0  0  0
  192.7693  163.9861  121.2635 C   0  0  0  0  0  0  0  0  0  0  0  0
  193.9548  163.9066  120.3987 C   0  0  0  0  0  0  0  0  0  0  0  0
  191.8853  164.8646  121.1761 O   0  0  0  0  0  0  0  0  0  0  0  0
  191.3143  161.2245  121.4661 C   0  0  0  0  0  0  0  0  0  0  0  0
  1  2  1  0
  2  3  1  6
  3  4  1  0
  4  5  1  0
  5  6  1  6
  6  7  1  0
  7  8  1  0
  8  9  1  0
  9 10  2  0
 10 11  1  0
 11 12  1  0
 12 13  2  0
 13 14  1  0
 14 15  2  0
 15 16  1  0
 16 17  1  0
 15 18  1  0
 18 19  2  0
  5 20  1  0
 20 21  2  0
 20 22  1  0
 22 23  1  0
 24 23  1  6
 24 25  1  0
 25 26  1  0
 26 27  1  1
 26 28  1  0
 28 29  1  6
 29 30  1  0
 30 31  2  0
 31 32  1  0
 32 33  1  0
 32 34  2  0
 34 35  1  0
 35 36  1  0
 34 37  1  0
 37 38  1  0
 37 39  2  0
 40 39  1  6
 40 41  1  0
 41 42  1  0
 24 43  1  0
 43 44  2  0
 44 45  1  0
 45 46  1  0
 46 47  1  0
 47 48  1  0
 48 49  2  0
 49 50  1  0
 49 51  1  0
 51 52  1  0
 52 53  1  0
 53 54  1  0
 53 55  2  0
 51 56  2  0
  1 25  1  6
 41 28  1  0
 56 43  1  0
 40  1  1  0
 48 44  1  0
 56  2  1  0
 10  5  1  0
 19 12  1  0
 39 30  1  0
 19  9  1  0
M  END
$$$$
