
     RDKit          3D

 56 65  0  0  0  0  0  0  0  0999 V2000
  130.1384  138.1432  134.0273 C   0  0  2  0  0  0  0  0  0  0  0  0
  130.4078  138.8141  132.6839 C   0  0  2  0  0  0  0  0  0  0  0  0
  129.1658  138.3088  131.4568 S   0  0  0  0  0  0  0  0  0  0  0  0
  130.0537  137.5779  130.0512 C   0  0  0  0  0  0  0  0  0  0  0  0
  129.1766  136.5604  129.4061 C   0  0  1  0  0  0  0  0  0  0  0  0
  127.9852  137.1804  128.8556 N   0  0  0  0  0  0  0  0  0  0  0  0
  128.2535  138.2715  127.9754 C   0  0  0  0  0  0  0  0  0  0  0  0
  129.2322  137.9435  126.8791 C   0  0  0  0  0  0  0  0  0  0  0  0
  129.8780  136.6316  127.0644 C   0  0  0  0  0  0  0  0  0  0  0  0
  129.8820  135.9264  128.2508 C   0  0  0  0  0  0  0  0  0  0  0  0
  130.5578  134.7821  128.0555 N   0  0  0  0  0  0  0  0  0  0  0  0
  130.9914  134.7210  126.7856 C   0  0  0  0  0  0  0  0  0  0  0  0
  131.7193  133.7945  126.0547 C   0  0  0  0  0  0  0  0  0  0  0  0
  132.0340  133.9996  124.7086 C   0  0  0  0  0  0  0  0  0  0  0  0
  131.6196  135.1481  124.0685 C   0  0  0  0  0  0  0  0  0  0  0  0
  131.8868  135.4327  122.7374 O   0  0  0  0  0  0  0  0  0  0  0  0
  131.1406  136.4970  122.1483 C   0  0  0  0  0  0  0  0  0  0  0  0
  130.8954  136.0686  124.7979 C   0  0  0  0  0  0  0  0  0  0  0  0
  130.5783  135.8785  126.1262 C   0  0  0  0  0  0  0  0  0  0  0  0
  128.7516  135.5485  130.4027 C   0  0  0  0  0  0  0  0  0  0  0  0
  127.7851  134.7623  130.0567 O   0  0  0  0  0  0  0  0  0  0  0  0
  129.2602  135.3497  131.6425 O   0  0  0  0  0  0  0  0  0  0  0  0
  130.5470  135.1162  132.0924 C   0  0  0  0  0  0  0  0  0  0  0  0
  130.9901  136.0970  133.1684 C   0  0  2  0  0  0  0  0  0  0  0  0
  129.8718  136.7778  133.7646 N   0  0  0  0  0  0  0  0  0  0  0  0
  129.4142  136.0370  134.9217 C   0  0  1  0  0  0  0  0  0  0  0  0
  130.4028  135.9073  135.8799 O   0  0  0  0  0  0  0  0  0  0  0  0
  128.2011  136.7986  135.4742 C   0  0  2  0  0  0  0  0  0  0  0  0
  127.2211  136.9595  134.3701 C   0  0  0  0  0  0  0  0  0  0  0  0
  126.9583  138.3619  133.9471 C   0  0  0  0  0  0  0  0  0  0  0  0
  125.7732  138.7174  133.3224 C   0  0  0  0  0  0  0  0  0  0  0  0
  125.5573  140.0223  132.9475 C   0  0  0  0  0  0  0  0  0  0  0  0
  124.2706  140.4261  132.2657 C   0  0  0  0  0  0  0  0  0  0  0  0
  126.5152  140.9840  133.1896 C   0  0  0  0  0  0  0  0  0  0  0  0
  126.2518  142.2851  132.7934 O   0  0  0  0  0  0  0  0  0  0  0  0
  126.5062  143.3246  133.7389 C   0  0  0  0  0  0  0  0  0  0  0  0
  127.6994  140.5979  133.8204 C   0  0  0  0  0  0  0  0  0  0  0  0
  128.6422  141.5872  134.0515 O   0  0  0  0  0  0  0  0  0  0  0  0
  127.9209  139.3037  134.1953 C   0  0  0  0  0  0  0  0  0  0  0  0
  129.1515  138.8585  134.8682 C   0  0  1  0  0  0  0  0  0  0  0  0
  128.6732  138.0428  135.9740 N   0  0  0  0  0  0  0  0  0  0  0  0
  129.5647  137.9718  137.0736 C   0  0  0  0  0  0  0  0  0  0  0  0
  132.0143  136.9899  132.5741 C   0  0  0  0  0  0  0  0  0  0  0  0
  133.2819  136.4780  132.2529 C   0  0  0  0  0  0  0  0  0  0  0  0
  133.8606  135.2259  132.3779 O   0  0  0  0  0  0  0  0  0  0  0  0
  135.2665  135.2971  132.2348 C   0  0  0  0  0  0  0  0  0  0  0  0
  135.3981  136.4907  131.4851 O   0  0  0  0  0  0  0  0  0  0  0  0
  134.2551  137.2838  131.6863 C   0  0  0  0  0  0  0  0  0  0  0  0
  133.9548  138.6024  131.4428 C   0  0  0  0  0  0  0  0  0  0  0  0
  134.9567  139.5005  130.8410 C   0  0  0  0  0  0  0  0  0  0  0  0
  132.6954  139.1176  131.7604 C   0  0  0  0  0  0  0  0  0  0  0  0
  132.3698  140.4365  131.5261 O   0  0  0  0  0  0  0  0  0  0  0  0
  133.1481  141.4925  132.0032 C   0  0  0  0  0  0  0  0  0  0  0  0
  133.0883  141.8289  133.4325 C   0  0  0  0  0  0  0  0  0  0  0  0
  133.8549  142.0889  131.1631 O   0  0  0  0  0  0  0  0  0  0  0  0
  131.7474  138.3154  132.3172 C   0  0  0  0  0  0  0  0  0  0  0  0
  1  2  1  0
  2  3  1  6
  3  4  1  0
  4  5  1  0
  5  6  1  6
  6  7  1  0
  7  8  1  0
  8  9  1  0
  9 10  2  0
 10 11  1  0
 11 12  1  0
 12 13  2  0
 13 14  1  0
 14 15  2  0
 15 16  1  0
 16 17  1  0
 15 18  1  0
 18 19  2  0
  5 20  1  0
 20 21  2  0
 20 22  1  0
 22 23  1  0
 24 23  1  6
 24 25  1  0
 25 26  1  0
 26 27  1  1
 26 28  1  0
 28 29  1  6
 29 30  1  0
 30 31  2  0
 31 32  1  0
 32 33  1  0
 32 34  2  0
 34 35  1  0
 35 36  1  0
 34 37  1  0
 37 38  1  0
 37 39  2  0
 40 39  1  6
 40 41  1  0
 41 42  1  0
 24 43  1  0
 43 44  2  0
 44 45  1  0
 45 46  1  0
 46 47  1  0
 47 48  1  0
 48 49  2  0
 49 50  1  0
 49 51  1  0
 51 52  1  0
 52 53  1  0
 53 54  1  0
 53 55  2  0
 51 56  2  0
  1 25  1  6
 41 28  1  0
 56 43  1  0
 40  1  1  0
 48 44  1  0
 56  2  1  0
 10  5  1  0
 19 12  1  0
 39 30  1  0
 19  9  1  0
M  END
$$$$
