
     RDKit          3D

 56 65  0  0  0  0  0  0  0  0999 V2000
  126.3084  144.2849  137.9454 C   0  0  2  0  0  0  0  0  0  0  0  0
  126.2329  144.2946  136.4217 C   0  0  2  0  0  0  0  0  0  0  0  0
  127.0891  142.8481  135.7303 S   0  0  0  0  0  0  0  0  0  0  0  0
  128.3681  143.4620  134.5964 C   0  0  0  0  0  0  0  0  0  0  0  0
  129.4936  142.4856  134.5686 C   0  0  1  0  0  0  0  0  0  0  0  0
  129.0563  141.2087  134.0344 N   0  0  0  0  0  0  0  0  0  0  0  0
  128.4146  141.3016  132.7628 C   0  0  0  0  0  0  0  0  0  0  0  0
  129.2093  142.0601  131.7331 C   0  0  0  0  0  0  0  0  0  0  0  0
  130.3868  142.7367  132.3059 C   0  0  0  0  0  0  0  0  0  0  0  0
  130.5737  142.9664  133.6539 C   0  0  0  0  0  0  0  0  0  0  0  0
  131.7473  143.6004  133.8121 N   0  0  0  0  0  0  0  0  0  0  0  0
  132.3269  143.7894  132.6151 C   0  0  0  0  0  0  0  0  0  0  0  0
  133.5123  144.3732  132.1949 C   0  0  0  0  0  0  0  0  0  0  0  0
  133.8689  144.4296  130.8448 C   0  0  0  0  0  0  0  0  0  0  0  0
  133.0342  143.8963  129.8860 C   0  0  0  0  0  0  0  0  0  0  0  0
  133.3086  143.9085  128.5263 O   0  0  0  0  0  0  0  0  0  0  0  0
  132.8479  142.7890  127.7704 C   0  0  0  0  0  0  0  0  0  0  0  0
  131.8552  143.3159  130.3065 C   0  0  0  0  0  0  0  0  0  0  0  0
  131.4916  143.2537  131.6351 C   0  0  0  0  0  0  0  0  0  0  0  0
  130.0066  142.2601  135.9411 C   0  0  0  0  0  0  0  0  0  0  0  0
  130.7972  141.2506  136.1074 O   0  0  0  0  0  0  0  0  0  0  0  0
  129.7421  142.9926  137.0496 O   0  0  0  0  0  0  0  0  0  0  0  0
  129.8699  144.3422  137.3239 C   0  0  0  0  0  0  0  0  0  0  0  0
  128.5807  144.9729  137.8303 C   0  0  2  0  0  0  0  0  0  0  0  0
  127.6467  143.9817  138.2939 N   0  0  0  0  0  0  0  0  0  0  0  0
  127.8460  143.7527  139.7098 C   0  0  1  0  0  0  0  0  0  0  0  0
  127.6604  144.9037  140.4535 O   0  0  0  0  0  0  0  0  0  0  0  0
  126.8483  142.6599  140.1186 C   0  0  2  0  0  0  0  0  0  0  0  0
  127.0626  141.4899  139.2295 C   0  0  0  0  0  0  0  0  0  0  0  0
  125.9206  141.1445  138.3398 C   0  0  0  0  0  0  0  0  0  0  0  0
  125.7556  139.8616  137.8421 C   0  0  0  0  0  0  0  0  0  0  0  0
  124.6877  139.5719  137.0262 C   0  0  0  0  0  0  0  0  0  0  0  0
  124.4937  138.1782  136.4754 C   0  0  0  0  0  0  0  0  0  0  0  0
  123.7757  140.5526  136.6983 C   0  0  0  0  0  0  0  0  0  0  0  0
  122.7163  140.2123  135.8730 O   0  0  0  0  0  0  0  0  0  0  0  0
  121.6600  141.1631  135.7331 C   0  0  0  0  0  0  0  0  0  0  0  0
  123.9663  141.8361  137.2138 C   0  0  0  0  0  0  0  0  0  0  0  0
  123.0322  142.7997  136.8678 O   0  0  0  0  0  0  0  0  0  0  0  0
  125.0248  142.1312  138.0245 C   0  0  0  0  0  0  0  0  0  0  0  0
  125.2566  143.4683  138.5933 C   0  0  1  0  0  0  0  0  0  0  0  0
  125.5432  143.2098  139.9961 N   0  0  0  0  0  0  0  0  0  0  0  0
  125.2419  144.2915  140.8611 C   0  0  0  0  0  0  0  0  0  0  0  0
  128.0617  145.8628  136.7635 C   0  0  0  0  0  0  0  0  0  0  0  0
  128.7439  147.0510  136.4554 C   0  0  0  0  0  0  0  0  0  0  0  0
  129.8852  147.6501  136.9619 O   0  0  0  0  0  0  0  0  0  0  0  0
  129.9718  149.0041  136.5601 C   0  0  0  0  0  0  0  0  0  0  0  0
  129.1758  148.9864  135.3896 O   0  0  0  0  0  0  0  0  0  0  0  0
  128.2906  147.8965  135.4568 C   0  0  0  0  0  0  0  0  0  0  0  0
  127.1531  147.5484  134.7688 C   0  0  0  0  0  0  0  0  0  0  0  0
  126.6308  148.4150  133.6970 C   0  0  0  0  0  0  0  0  0  0  0  0
  126.4699  146.3675  135.0709 C   0  0  0  0  0  0  0  0  0  0  0  0
  125.3270  145.9963  134.3955 O   0  0  0  0  0  0  0  0  0  0  0  0
  125.3467  145.6056  133.0555 C   0  0  0  0  0  0  0  0  0  0  0  0
  126.5953  145.7467  132.2935 C   0  0  0  0  0  0  0  0  0  0  0  0
  124.2787  145.1545  132.5900 O   0  0  0  0  0  0  0  0  0  0  0  0
  126.9255  145.5450  136.0548 C   0  0  0  0  0  0  0  0  0  0  0  0
  1  2  1  0
  2  3  1  6
  3  4  1  0
  4  5  1  0
  5  6  1  6
  6  7  1  0
  7  8  1  0
  8  9  1  0
  9 10  2  0
 10 11  1  0
 11 12  1  0
 12 13  2  0
 13 14  1  0
 14 15  2  0
 15 16  1  0
 16 17  1  0
 15 18  1  0
 18 19  2  0
  5 20  1  0
 20 21  2  0
 20 22  1  0
 22 23  1  0
 24 23  1  6
 24 25  1  0
 25 26  1  0
 26 27  1  1
 26 28  1  0
 28 29  1  6
 29 30  1  0
 30 31  2  0
 31 32  1  0
 32 33  1  0
 32 34  2  0
 34 35  1  0
 35 36  1  0
 34 37  1  0
 37 38  1  0
 37 39  2  0
 40 39  1  6
 40 41  1  0
 41 42  1  0
 24 43  1  0
 43 44  2  0
 44 45  1  0
 45 46  1  0
 46 47  1  0
 47 48  1  0
 48 49  2  0
 49 50  1  0
 49 51  1  0
 51 52  1  0
 52 53  1  0
 53 54  1  0
 53 55  2  0
 51 56  2  0
  1 25  1  6
 41 28  1  0
 56 43  1  0
 40  1  1  0
 48 44  1  0
 56  2  1  0
 10  5  1  0
 19 12  1  0
 39 30  1  0
 19  9  1  0
M  END
$$$$
