
     RDKit          3D

 56 65  0  0  0  0  0  0  0  0999 V2000
  128.3182  146.0552  136.5602 C   0  0  2  0  0  0  0  0  0  0  0  0
  129.2915  145.8383  135.4055 C   0  0  2  0  0  0  0  0  0  0  0  0
  128.4238  145.9360  133.8115 S   0  0  0  0  0  0  0  0  0  0  0  0
  128.7169  144.3730  132.9343 C   0  0  0  0  0  0  0  0  0  0  0  0
  127.5510  144.0934  132.0493 C   0  0  1  0  0  0  0  0  0  0  0  0
  127.4227  145.1151  131.0262 N   0  0  0  0  0  0  0  0  0  0  0  0
  128.6132  145.3297  130.2687 C   0  0  0  0  0  0  0  0  0  0  0  0
  129.2003  144.0712  129.6868 C   0  0  0  0  0  0  0  0  0  0  0  0
  128.5504  142.8500  130.1956 C   0  0  0  0  0  0  0  0  0  0  0  0
  127.7518  142.8039  131.3203 C   0  0  0  0  0  0  0  0  0  0  0  0
  127.3323  141.5385  131.4846 N   0  0  0  0  0  0  0  0  0  0  0  0
  127.8305  140.7637  130.5068 C   0  0  0  0  0  0  0  0  0  0  0  0
  127.7276  139.4176  130.1911 C   0  0  0  0  0  0  0  0  0  0  0  0
  128.3736  138.8689  129.0799 C   0  0  0  0  0  0  0  0  0  0  0  0
  129.1402  139.6695  128.2603 C   0  0  0  0  0  0  0  0  0  0  0  0
  129.8147  139.2096  127.1388 O   0  0  0  0  0  0  0  0  0  0  0  0
  130.7940  140.0832  126.5780 C   0  0  0  0  0  0  0  0  0  0  0  0
  129.2411  141.0088  128.5764 C   0  0  0  0  0  0  0  0  0  0  0  0
  128.6091  141.5626  129.6695 C   0  0  0  0  0  0  0  0  0  0  0  0
  126.2999  144.0770  132.8445 C   0  0  0  0  0  0  0  0  0  0  0  0
  125.1900  144.1107  132.1821 O   0  0  0  0  0  0  0  0  0  0  0  0
  126.1822  144.0310  134.1932 O   0  0  0  0  0  0  0  0  0  0  0  0
  126.6857  143.1581  135.1406 C   0  0  0  0  0  0  0  0  0  0  0  0
  127.4645  143.8595  136.2441 C   0  0  2  0  0  0  0  0  0  0  0  0
  127.1727  145.2674  136.2926 N   0  0  0  0  0  0  0  0  0  0  0  0
  126.0732  145.5033  137.2049 C   0  0  1  0  0  0  0  0  0  0  0  0
  126.3620  145.0766  138.4882 O   0  0  0  0  0  0  0  0  0  0  0  0
  125.7952  147.0127  137.1703 C   0  0  2  0  0  0  0  0  0  0  0  0
  125.5676  147.4030  135.7556 C   0  0  0  0  0  0  0  0  0  0  0  0
  126.5718  148.3388  135.1805 C   0  0  0  0  0  0  0  0  0  0  0  0
  126.2619  149.1602  134.1081 C   0  0  0  0  0  0  0  0  0  0  0  0
  127.2096  150.0179  133.6017 C   0  0  0  0  0  0  0  0  0  0  0  0
  126.8876  150.9200  132.4329 C   0  0  0  0  0  0  0  0  0  0  0  0
  128.4714  150.0669  134.1554 C   0  0  0  0  0  0  0  0  0  0  0  0
  129.3920  150.9471  133.6105 O   0  0  0  0  0  0  0  0  0  0  0  0
  129.2089  152.3381  133.8765 C   0  0  0  0  0  0  0  0  0  0  0  0
  128.7560  149.2285  135.2349 C   0  0  0  0  0  0  0  0  0  0  0  0
  130.0320  149.3018  135.7710 O   0  0  0  0  0  0  0  0  0  0  0  0
  127.8199  148.3739  135.7430 C   0  0  0  0  0  0  0  0  0  0  0  0
  128.0782  147.4803  136.8832 C   0  0  1  0  0  0  0  0  0  0  0  0
  126.9203  147.6645  137.7446 N   0  0  0  0  0  0  0  0  0  0  0  0
  127.1637  147.3909  139.1140 C   0  0  0  0  0  0  0  0  0  0  0  0
  128.8994  143.5295  136.0663 C   0  0  0  0  0  0  0  0  0  0  0  0
  129.3497  142.2237  136.3193 C   0  0  0  0  0  0  0  0  0  0  0  0
  128.7181  141.0660  136.7424 O   0  0  0  0  0  0  0  0  0  0  0  0
  129.6579  140.1028  137.1796 C   0  0  0  0  0  0  0  0  0  0  0  0
  130.8147  140.5218  136.4795 O   0  0  0  0  0  0  0  0  0  0  0  0
  130.6811  141.8821  136.1513 C   0  0  0  0  0  0  0  0  0  0  0  0
  131.5589  142.8517  135.7295 C   0  0  0  0  0  0  0  0  0  0  0  0
  132.9859  142.5376  135.5356 C   0  0  0  0  0  0  0  0  0  0  0  0
  131.1168  144.1528  135.4764 C   0  0  0  0  0  0  0  0  0  0  0  0
  131.9774  145.1429  135.0528 O   0  0  0  0  0  0  0  0  0  0  0  0
  132.3232  146.2265  135.8621 C   0  0  0  0  0  0  0  0  0  0  0  0
  131.7828  146.2936  137.2271 C   0  0  0  0  0  0  0  0  0  0  0  0
  133.0834  147.0798  135.3574 O   0  0  0  0  0  0  0  0  0  0  0  0
  129.8057  144.4760  135.6456 C   0  0  0  0  0  0  0  0  0  0  0  0
  1  2  1  0
  2  3  1  6
  3  4  1  0
  4  5  1  0
  5  6  1  6
  6  7  1  0
  7  8  1  0
  8  9  1  0
  9 10  2  0
 10 11  1  0
 11 12  1  0
 12 13  2  0
 13 14  1  0
 14 15  2  0
 15 16  1  0
 16 17  1  0
 15 18  1  0
 18 19  2  0
  5 20  1  0
 20 21  2  0
 20 22  1  0
 22 23  1  0
 24 23  1  6
 24 25  1  0
 25 26  1  0
 26 27  1  1
 26 28  1  0
 28 29  1  6
 29 30  1  0
 30 31  2  0
 31 32  1  0
 32 33  1  0
 32 34  2  0
 34 35  1  0
 35 36  1  0
 34 37  1  0
 37 38  1  0
 37 39  2  0
 40 39  1  6
 40 41  1  0
 41 42  1  0
 24 43  1  0
 43 44  2  0
 44 45  1  0
 45 46  1  0
 46 47  1  0
 47 48  1  0
 48 49  2  0
 49 50  1  0
 49 51  1  0
 51 52  1  0
 52 53  1  0
 53 54  1  0
 53 55  2  0
 51 56  2  0
  1 25  1  6
 41 28  1  0
 56 43  1  0
 40  1  1  0
 48 44  1  0
 56  2  1  0
 10  5  1  0
 19 12  1  0
 39 30  1  0
 19  9  1  0
M  END
$$$$
