
     RDKit          3D

 60 67  0  0  0  0  0  0  0  0999 V2000
  130.8493  141.5285  130.5787 N   0  0  0  0  0  0  0  0  0  0  0  0
  131.0662  142.5676  131.5578 C   0  0  0  0  0  0  0  0  0  0  0  0
  130.1656  142.8178  132.3749 O   0  0  0  0  0  0  0  0  0  0  0  0
  132.3456  143.2523  131.5097 C   0  0  0  0  0  0  0  0  0  0  0  0
  132.5995  144.2129  132.3820 C   0  0  0  0  0  0  0  0  0  0  0  0
  133.2897  142.9022  130.5596 O   0  0  0  0  0  0  0  0  0  0  0  0
  133.0724  141.9014  129.6214 C   0  0  0  0  0  0  0  0  0  0  0  0
  134.0375  141.5836  128.6920 C   0  0  0  0  0  0  0  0  0  0  0  0
  133.8259  140.5963  127.7648 C   0  0  0  0  0  0  0  0  0  0  0  0
  134.7896  140.2665  126.8250 O   0  0  0  0  0  0  0  0  0  0  0  0
  135.6798  139.1921  127.0353 C   0  0  0  0  0  0  0  0  0  0  0  0
  132.6267  139.9510  127.8061 C   0  0  0  0  0  0  0  0  0  0  0  0
  131.6066  140.2133  128.7098 C   0  0  0  0  0  0  0  0  0  0  0  0
  130.3797  139.4366  128.6433 C   0  0  0  0  0  0  0  0  0  0  0  0
  130.0491  139.0229  127.4625 O   0  0  0  0  0  0  0  0  0  0  0  0
  129.5334  139.0817  129.6303 O   0  0  0  0  0  0  0  0  0  0  0  0
  129.3845  137.8050  130.1510 C   0  0  1  0  0  0  0  0  0  0  0  0
  130.7119  136.9846  130.1127 C   0  0  0  0  0  0  0  0  0  0  0  0
  130.7588  135.9934  131.0346 O   0  0  0  0  0  0  0  0  0  0  0  0
  130.8842  134.6771  131.1527 C   0  0  0  0  0  0  0  0  0  0  0  0
  129.9416  133.8039  131.0805 O   0  0  0  0  0  0  0  0  0  0  0  0
  132.2226  134.0666  131.3963 C   0  0  0  0  0  0  0  0  0  0  0  0
  132.4501  133.6767  132.8411 C   0  0  1  0  0  0  0  0  0  0  0  0
  131.5455  134.4586  133.7984 C   0  0  0  0  0  0  0  0  0  0  0  0
  130.2594  134.0654  134.0838 C   0  0  0  0  0  0  0  0  0  0  0  0
  129.3925  134.8347  134.9266 C   0  0  0  0  0  0  0  0  0  0  0  0
  128.1227  134.1336  135.0411 O   0  0  0  0  0  0  0  0  0  0  0  0
  129.7980  136.0016  135.4841 C   0  0  0  0  0  0  0  0  0  0  0  0
  128.9425  136.7899  136.2902 O   0  0  0  0  0  0  0  0  0  0  0  0
  127.8560  137.5688  135.7183 C   0  0  2  0  0  0  0  0  0  0  0  0
  127.9331  137.4672  134.2511 C   0  0  0  0  0  0  0  0  0  0  0  0
  128.8251  138.4558  133.8680 C   0  0  0  0  0  0  0  0  0  0  0  0
  129.2706  138.5769  132.5263 C   0  0  0  0  0  0  0  0  0  0  0  0
  128.8172  137.7105  131.5670 C   0  0  0  0  0  0  0  0  0  0  0  0
  127.9203  136.7293  131.9397 C   0  0  0  0  0  0  0  0  0  0  0  0
  127.5056  136.6466  133.2977 C   0  0  0  0  0  0  0  0  0  0  0  0
  129.1038  139.2959  135.0290 C   0  0  0  0  0  0  0  0  0  0  0  0
  129.8203  140.1511  135.6849 C   0  0  0  0  0  0  0  0  0  0  0  0
  129.1976  140.4442  136.9904 C   0  0  0  0  0  0  0  0  0  0  0  0
  128.0518  139.7406  137.0963 C   0  0  0  0  0  0  0  0  0  0  0  0
  127.8921  139.0186  135.8951 C   0  0  2  0  0  0  0  0  0  0  0  0
  126.7345  139.4557  135.1685 O   0  0  0  0  0  0  0  0  0  0  0  0
  125.9066  140.2803  135.8755 C   0  0  2  0  0  0  0  0  0  0  0  0
  125.7792  139.7295  137.1463 O   0  0  0  0  0  0  0  0  0  0  0  0
  124.6887  140.1724  137.8806 C   0  0  0  0  0  0  0  0  0  0  0  0
  124.6492  141.6330  138.0545 C   0  0  0  0  0  0  0  0  0  0  0  0
  124.9174  139.5775  139.2866 C   0  0  0  0  0  0  0  0  0  0  0  0
  123.4738  139.5193  137.2845 C   0  0  2  0  0  0  0  0  0  0  0  0
  123.6610  139.3239  135.8229 C   0  0  1  0  0  0  0  0  0  0  0  0
  122.5303  139.2582  135.0531 O   0  0  0  0  0  0  0  0  0  0  0  0
  124.5794  140.3339  135.1587 C   0  0  1  0  0  0  0  0  0  0  0  0
  124.0478  141.5900  135.0363 O   0  0  0  0  0  0  0  0  0  0  0  0
  122.2313  140.1874  137.5773 N   0  0  0  0  0  0  0  0  0  0  0  0
  121.8724  140.1203  138.9774 C   0  0  0  0  0  0  0  0  0  0  0  0
  121.1808  139.4227  136.8817 C   0  0  0  0  0  0  0  0  0  0  0  0
  131.0768  136.3832  135.2089 C   0  0  0  0  0  0  0  0  0  0  0  0
  132.0343  137.7571  135.9310 Cl  0  0  0  0  0  0  0  0  0  0  0  0
  131.9639  135.6397  134.3740 C   0  0  0  0  0  0  0  0  0  0  0  0
  132.3593  132.2290  132.9786 N   0  0  0  0  0  4  0  0  0  0  0  0
  131.8466  141.2193  129.6398 C   0  0  0  0  0  0  0  0  0  0  0  0
  1  2  1  0
  2  3  2  0
  2  4  1  0
  4  5  2  0
  4  6  1  0
  6  7  1  0
  7  8  2  0
  8  9  1  0
  9 10  1  0
 10 11  1  0
  9 12  2  0
 12 13  1  0
 13 14  1  0
 14 15  2  0
 14 16  1  0
 17 16  1  1
 17 18  1  0
 18 19  1  0
 19 20  1  0
 20 21  2  0
 20 22  1  0
 22 23  1  0
 23 24  1  0
 24 25  2  0
 25 26  1  0
 26 27  1  0
 26 28  2  0
 28 29  1  0
 30 29  1  1
 30 31  1  0
 31 32  2  0
 32 33  1  0
 33 34  2  0
 34 35  1  0
 35 36  2  0
 32 37  1  0
 37 38  2  0
 38 39  1  0
 39 40  2  0
 40 41  1  0
 41 42  1  6
 43 42  1  6
 43 44  1  0
 44 45  1  0
 45 46  1  0
 45 47  1  0
 45 48  1  0
 48 49  1  0
 49 50  1  6
 49 51  1  0
 51 52  1  1
 48 53  1  6
 53 54  1  0
 53 55  1  0
 28 56  1  0
 56 57  1  0
 56 58  2  0
 23 59  1  6
 13 60  2  0
 60  1  1  0
 60  7  1  0
 34 17  1  0
 41 37  1  0
 51 43  1  0
 58 24  1  0
 41 30  1  0
 36 31  1  0
M  CHG  1  59   1
M  END
$$$$
