
     RDKit          3D

 60 67  0  0  0  0  0  0  0  0999 V2000
  121.1476  164.2794  145.6677 N   0  0  0  0  0  0  0  0  0  0  0  0
  122.3945  164.9876  145.4974 C   0  0  0  0  0  0  0  0  0  0  0  0
  122.3768  166.2281  145.4486 O   0  0  0  0  0  0  0  0  0  0  0  0
  123.5956  164.1783  145.3948 C   0  0  0  0  0  0  0  0  0  0  0  0
  124.7660  164.7729  145.2377 C   0  0  0  0  0  0  0  0  0  0  0  0
  123.5151  162.7978  145.4609 O   0  0  0  0  0  0  0  0  0  0  0  0
  122.3112  162.1250  145.6246 C   0  0  0  0  0  0  0  0  0  0  0  0
  122.2738  160.7498  145.6849 C   0  0  0  0  0  0  0  0  0  0  0  0
  121.0870  160.0828  145.8464 C   0  0  0  0  0  0  0  0  0  0  0  0
  121.0364  158.6993  145.9096 O   0  0  0  0  0  0  0  0  0  0  0  0
  120.9860  158.0243  147.1477 C   0  0  0  0  0  0  0  0  0  0  0  0
  119.9573  160.8381  145.9432 C   0  0  0  0  0  0  0  0  0  0  0  0
  119.9137  162.2243  145.8916 C   0  0  0  0  0  0  0  0  0  0  0  0
  118.6336  162.9013  146.0187 C   0  0  0  0  0  0  0  0  0  0  0  0
  118.1306  162.9162  147.2110 O   0  0  0  0  0  0  0  0  0  0  0  0
  117.8909  163.5176  145.0780 O   0  0  0  0  0  0  0  0  0  0  0  0
  118.3449  164.4792  144.1877 C   0  0  1  0  0  0  0  0  0  0  0  0
  118.6657  163.8870  142.7796 C   0  0  0  0  0  0  0  0  0  0  0  0
  118.6025  164.8026  141.7834 O   0  0  0  0  0  0  0  0  0  0  0  0
  119.3348  165.3672  140.8310 C   0  0  0  0  0  0  0  0  0  0  0  0
  120.1131  166.3841  140.9585 O   0  0  0  0  0  0  0  0  0  0  0  0
  119.3085  164.8280  139.4410 C   0  0  0  0  0  0  0  0  0  0  0  0
  118.4375  165.6339  138.5013 C   0  0  1  0  0  0  0  0  0  0  0  0
  117.3797  166.4486  139.2519 C   0  0  0  0  0  0  0  0  0  0  0  0
  117.6436  167.6897  139.7812 C   0  0  0  0  0  0  0  0  0  0  0  0
  116.6729  168.4205  140.5409 C   0  0  0  0  0  0  0  0  0  0  0  0
  117.2589  169.6941  140.9305 O   0  0  0  0  0  0  0  0  0  0  0  0
  115.4378  167.9180  140.7835 C   0  0  0  0  0  0  0  0  0  0  0  0
  114.4804  168.6122  141.5610 O   0  0  0  0  0  0  0  0  0  0  0  0
  114.6001  168.7181  143.0063 C   0  0  2  0  0  0  0  0  0  0  0  0
  115.7490  167.9044  143.4385 C   0  0  0  0  0  0  0  0  0  0  0  0
  115.2462  166.6219  143.5880 C   0  0  0  0  0  0  0  0  0  0  0  0
  116.0941  165.5172  143.8600 C   0  0  0  0  0  0  0  0  0  0  0  0
  117.4457  165.6988  143.9881 C   0  0  0  0  0  0  0  0  0  0  0  0
  117.9525  166.9758  143.8504 C   0  0  0  0  0  0  0  0  0  0  0  0
  117.0624  168.0505  143.5753 C   0  0  0  0  0  0  0  0  0  0  0  0
  113.7913  166.6861  143.4877 C   0  0  0  0  0  0  0  0  0  0  0  0
  112.6274  166.1572  143.2857 C   0  0  0  0  0  0  0  0  0  0  0  0
  111.5726  167.1821  143.4074 C   0  0  0  0  0  0  0  0  0  0  0  0
  112.1448  168.3645  143.7137 C   0  0  0  0  0  0  0  0  0  0  0  0
  113.5335  168.1414  143.8212 C   0  0  2  0  0  0  0  0  0  0  0  0
  114.0003  168.3655  145.1594 O   0  0  0  0  0  0  0  0  0  0  0  0
  113.4432  169.4507  145.7737 C   0  0  2  0  0  0  0  0  0  0  0  0
  114.4567  170.3909  145.9265 O   0  0  0  0  0  0  0  0  0  0  0  0
  114.2139  171.3801  146.8684 C   0  0  0  0  0  0  0  0  0  0  0  0
  112.9771  172.1381  146.6218 C   0  0  0  0  0  0  0  0  0  0  0  0
  115.3761  172.3771  146.6725 C   0  0  0  0  0  0  0  0  0  0  0  0
  114.3671  170.7372  148.2179 C   0  0  2  0  0  0  0  0  0  0  0  0
  113.9480  169.3122  148.1582 C   0  0  1  0  0  0  0  0  0  0  0  0
  113.5148  168.7407  149.3249 O   0  0  0  0  0  0  0  0  0  0  0  0
  112.8973  169.0018  147.1074 C   0  0  1  0  0  0  0  0  0  0  0  0
  111.6455  169.4743  147.3993 O   0  0  0  0  0  0  0  0  0  0  0  0
  113.7134  171.4396  149.2926 N   0  0  0  0  0  0  0  0  0  0  0  0
  113.4209  172.8189  148.9678 C   0  0  0  0  0  0  0  0  0  0  0  0
  114.6930  171.5107  150.3915 C   0  0  0  0  0  0  0  0  0  0  0  0
  115.1749  166.6928  140.2482 C   0  0  0  0  0  0  0  0  0  0  0  0
  113.5874  165.7979  140.1803 Cl  0  0  0  0  0  0  0  0  0  0  0  0
  116.1197  165.9406  139.4878 C   0  0  0  0  0  0  0  0  0  0  0  0
  119.2774  166.4207  137.6076 N   0  0  0  0  0  4  0  0  0  0  0  0
  121.1311  162.8766  145.7274 C   0  0  0  0  0  0  0  0  0  0  0  0
  1  2  1  0
  2  3  2  0
  2  4  1  0
  4  5  2  0
  4  6  1  0
  6  7  1  0
  7  8  2  0
  8  9  1  0
  9 10  1  0
 10 11  1  0
  9 12  2  0
 12 13  1  0
 13 14  1  0
 14 15  2  0
 14 16  1  0
 17 16  1  1
 17 18  1  0
 18 19  1  0
 19 20  1  0
 20 21  2  0
 20 22  1  0
 22 23  1  0
 23 24  1  0
 24 25  2  0
 25 26  1  0
 26 27  1  0
 26 28  2  0
 28 29  1  0
 30 29  1  6
 30 31  1  0
 31 32  2  0
 32 33  1  0
 33 34  2  0
 34 35  1  0
 35 36  2  0
 32 37  1  0
 37 38  2  0
 38 39  1  0
 39 40  2  0
 40 41  1  0
 41 42  1  1
 43 42  1  1
 43 44  1  0
 44 45  1  0
 45 46  1  0
 45 47  1  0
 45 48  1  0
 48 49  1  0
 49 50  1  1
 49 51  1  0
 51 52  1  1
 48 53  1  1
 53 54  1  0
 53 55  1  0
 28 56  1  0
 56 57  1  0
 56 58  2  0
 23 59  1  1
 13 60  2  0
 60  1  1  0
 60  7  1  0
 34 17  1  0
 41 37  1  0
 51 43  1  0
 58 24  1  0
 41 30  1  0
 36 31  1  0
M  CHG  1  59   1
M  END
$$$$
