
     RDKit          3D

 60 67  0  0  0  0  0  0  0  0999 V2000
  119.5574  167.9900  141.5447 N   0  0  0  0  0  0  0  0  0  0  0  0
  119.3533  169.3915  141.2629 C   0  0  0  0  0  0  0  0  0  0  0  0
  119.9177  170.2346  141.9785 O   0  0  0  0  0  0  0  0  0  0  0  0
  118.4871  169.7122  140.1427 C   0  0  0  0  0  0  0  0  0  0  0  0
  118.2639  170.9794  139.8384 C   0  0  0  0  0  0  0  0  0  0  0  0
  117.9012  168.7005  139.4011 O   0  0  0  0  0  0  0  0  0  0  0  0
  118.1030  167.3550  139.6796 C   0  0  0  0  0  0  0  0  0  0  0  0
  117.5008  166.3786  138.9178 C   0  0  0  0  0  0  0  0  0  0  0  0
  117.6982  165.0496  139.1902 C   0  0  0  0  0  0  0  0  0  0  0  0
  117.0987  164.0576  138.4303 O   0  0  0  0  0  0  0  0  0  0  0  0
  115.8882  164.2919  137.7442 C   0  0  0  0  0  0  0  0  0  0  0  0
  118.5103  164.7439  140.2405 C   0  0  0  0  0  0  0  0  0  0  0  0
  119.1513  165.6685  141.0530 C   0  0  0  0  0  0  0  0  0  0  0  0
  119.9994  165.1975  142.1355 C   0  0  0  0  0  0  0  0  0  0  0  0
  120.5196  164.0253  141.9621 O   0  0  0  0  0  0  0  0  0  0  0  0
  120.3260  165.8010  143.2954 O   0  0  0  0  0  0  0  0  0  0  0  0
  119.6551  165.6583  144.5008 C   0  0  1  0  0  0  0  0  0  0  0  0
  120.4683  166.2210  145.7085 C   0  0  0  0  0  0  0  0  0  0  0  0
  119.6931  166.5749  146.7613 O   0  0  0  0  0  0  0  0  0  0  0  0
  119.4900  166.3153  148.0473 C   0  0  0  0  0  0  0  0  0  0  0  0
  118.7551  165.3795  148.5376 O   0  0  0  0  0  0  0  0  0  0  0  0
  120.1441  167.1487  149.0966 C   0  0  0  0  0  0  0  0  0  0  0  0
  119.2173  168.1755  149.7113 C   0  0  1  0  0  0  0  0  0  0  0  0
  118.0389  168.5117  148.7924 C   0  0  0  0  0  0  0  0  0  0  0  0
  116.8894  167.7582  148.7620 C   0  0  0  0  0  0  0  0  0  0  0  0
  115.8160  168.0349  147.8537 C   0  0  0  0  0  0  0  0  0  0  0  0
  114.7505  167.0741  148.0958 O   0  0  0  0  0  0  0  0  0  0  0  0
  115.8834  169.0577  146.9672 C   0  0  0  0  0  0  0  0  0  0  0  0
  114.8468  169.3223  146.0405 O   0  0  0  0  0  0  0  0  0  0  0  0
  114.6249  168.4763  144.8789 C   0  0  2  0  0  0  0  0  0  0  0  0
  115.7006  167.4719  144.8229 C   0  0  0  0  0  0  0  0  0  0  0  0
  116.7409  168.0952  144.1529 C   0  0  0  0  0  0  0  0  0  0  0  0
  118.0163  167.4862  144.0277 C   0  0  0  0  0  0  0  0  0  0  0  0
  118.2473  166.2494  144.5692 C   0  0  0  0  0  0  0  0  0  0  0  0
  117.2121  165.6180  145.2294 C   0  0  0  0  0  0  0  0  0  0  0  0
  115.9524  166.2704  145.3309 C   0  0  0  0  0  0  0  0  0  0  0  0
  116.2426  169.3519  143.6018 C   0  0  0  0  0  0  0  0  0  0  0  0
  116.4058  170.5430  143.1226 C   0  0  0  0  0  0  0  0  0  0  0  0
  115.0988  171.1459  142.7970 C   0  0  0  0  0  0  0  0  0  0  0  0
  114.1243  170.2580  143.0820 C   0  0  0  0  0  0  0  0  0  0  0  0
  114.7515  169.0876  143.5580 C   0  0  2  0  0  0  0  0  0  0  0  0
  114.5366  167.9786  142.6733 O   0  0  0  0  0  0  0  0  0  0  0  0
  113.6255  168.2180  141.6844 C   0  0  2  0  0  0  0  0  0  0  0  0
  112.4759  168.6969  142.3037 O   0  0  0  0  0  0  0  0  0  0  0  0
  111.3159  168.6205  141.5467 C   0  0  0  0  0  0  0  0  0  0  0  0
  111.4103  169.3134  140.2520 C   0  0  0  0  0  0  0  0  0  0  0  0
  110.2744  169.4004  142.3773 C   0  0  0  0  0  0  0  0  0  0  0  0
  110.9115  167.1735  141.5225 C   0  0  2  0  0  0  0  0  0  0  0  0
  112.1157  166.3031  141.5670 C   0  0  1  0  0  0  0  0  0  0  0  0
  111.9981  165.0488  141.0302 O   0  0  0  0  0  0  0  0  0  0  0  0
  113.3666  166.9168  140.9646 C   0  0  1  0  0  0  0  0  0  0  0  0
  113.3499  167.0145  139.5986 O   0  0  0  0  0  0  0  0  0  0  0  0
  110.0358  166.8153  140.4360 N   0  0  0  0  0  0  0  0  0  0  0  0
  110.0695  165.4018  140.1285 C   0  0  0  0  0  0  0  0  0  0  0  0
  110.5803  167.4752  139.2359 C   0  0  0  0  0  0  0  0  0  0  0  0
  117.0188  169.8100  147.0071 C   0  0  0  0  0  0  0  0  0  0  0  0
  117.3824  171.3683  146.1324 Cl  0  0  0  0  0  0  0  0  0  0  0  0
  118.1045  169.5600  147.8990 C   0  0  0  0  0  0  0  0  0  0  0  0
  118.8309  167.7484  151.0498 N   0  0  0  0  0  4  0  0  0  0  0  0
  118.9347  167.0098  140.7554 C   0  0  0  0  0  0  0  0  0  0  0  0
  1  2  1  0
  2  3  2  0
  2  4  1  0
  4  5  2  0
  4  6  1  0
  6  7  1  0
  7  8  2  0
  8  9  1  0
  9 10  1  0
 10 11  1  0
  9 12  2  0
 12 13  1  0
 13 14  1  0
 14 15  2  0
 14 16  1  0
 17 16  1  6
 17 18  1  0
 18 19  1  0
 19 20  1  0
 20 21  2  0
 20 22  1  0
 22 23  1  0
 23 24  1  0
 24 25  2  0
 25 26  1  0
 26 27  1  0
 26 28  2  0
 28 29  1  0
 30 29  1  1
 30 31  1  0
 31 32  2  0
 32 33  1  0
 33 34  2  0
 34 35  1  0
 35 36  2  0
 32 37  1  0
 37 38  2  0
 38 39  1  0
 39 40  2  0
 40 41  1  0
 41 42  1  6
 43 42  1  1
 43 44  1  0
 44 45  1  0
 45 46  1  0
 45 47  1  0
 45 48  1  0
 48 49  1  0
 49 50  1  6
 49 51  1  0
 51 52  1  6
 48 53  1  6
 53 54  1  0
 53 55  1  0
 28 56  1  0
 56 57  1  0
 56 58  2  0
 23 59  1  1
 13 60  2  0
 60  1  1  0
 60  7  1  0
 34 17  1  0
 41 37  1  0
 51 43  1  0
 58 24  1  0
 41 30  1  0
 36 31  1  0
M  CHG  1  59   1
M  END
$$$$
