
     RDKit          3D

 60 67  0  0  0  0  0  0  0  0999 V2000
  125.2840  138.5704  132.1188 N   0  0  0  0  0  0  0  0  0  0  0  0
  124.0567  138.5347  131.3586 C   0  0  0  0  0  0  0  0  0  0  0  0
  123.5285  137.4355  131.1255 O   0  0  0  0  0  0  0  0  0  0  0  0
  123.5252  139.8117  130.9175 C   0  0  0  0  0  0  0  0  0  0  0  0
  122.4038  139.8398  130.2175 C   0  0  0  0  0  0  0  0  0  0  0  0
  124.1867  140.9879  131.2272 O   0  0  0  0  0  0  0  0  0  0  0  0
  125.3670  141.0127  131.9588 C   0  0  0  0  0  0  0  0  0  0  0  0
  125.9947  142.2043  132.2453 C   0  0  0  0  0  0  0  0  0  0  0  0
  127.1599  142.2321  132.9672 C   0  0  0  0  0  0  0  0  0  0  0  0
  127.8005  143.4249  133.2629 O   0  0  0  0  0  0  0  0  0  0  0  0
  129.1112  143.4420  133.7853 C   0  0  0  0  0  0  0  0  0  0  0  0
  127.6623  141.0361  133.3832 C   0  0  0  0  0  0  0  0  0  0  0  0
  127.0894  139.7966  133.1350 C   0  0  0  0  0  0  0  0  0  0  0  0
  127.7325  138.5993  133.6505 C   0  0  0  0  0  0  0  0  0  0  0  0
  128.8741  138.7890  134.2297 O   0  0  0  0  0  0  0  0  0  0  0  0
  127.3161  137.3180  133.6155 O   0  0  0  0  0  0  0  0  0  0  0  0
  127.6495  136.3831  132.6469 C   0  0  1  0  0  0  0  0  0  0  0  0
  126.6481  136.3788  131.4496 C   0  0  0  0  0  0  0  0  0  0  0  0
  127.1837  135.8997  130.3015 O   0  0  0  0  0  0  0  0  0  0  0  0
  127.0326  134.9426  129.3941 C   0  0  0  0  0  0  0  0  0  0  0  0
  127.4975  133.7440  129.4538 O   0  0  0  0  0  0  0  0  0  0  0  0
  126.2579  135.2024  128.1468 C   0  0  0  0  0  0  0  0  0  0  0  0
  127.1337  135.4639  126.9402 C   0  0  1  0  0  0  0  0  0  0  0  0
  128.5336  135.9425  127.3369 C   0  0  0  0  0  0  0  0  0  0  0  0
  129.5473  135.0711  127.6576 C   0  0  0  0  0  0  0  0  0  0  0  0
  130.8358  135.5221  128.0934 C   0  0  0  0  0  0  0  0  0  0  0  0
  131.6756  134.3568  128.3262 O   0  0  0  0  0  0  0  0  0  0  0  0
  131.1202  136.8412  128.2187 C   0  0  0  0  0  0  0  0  0  0  0  0
  132.3762  137.3016  128.6808 O   0  0  0  0  0  0  0  0  0  0  0  0
  132.7612  137.1991  130.0793 C   0  0  2  0  0  0  0  0  0  0  0  0
  131.6095  136.6887  130.8423 C   0  0  0  0  0  0  0  0  0  0  0  0
  130.8537  137.8094  131.1467 C   0  0  0  0  0  0  0  0  0  0  0  0
  129.5786  137.7031  131.7598 C   0  0  0  0  0  0  0  0  0  0  0  0
  129.0633  136.4733  132.0735 C   0  0  0  0  0  0  0  0  0  0  0  0
  129.8154  135.3527  131.7822 C   0  0  0  0  0  0  0  0  0  0  0  0
  131.0869  135.5105  131.1647 C   0  0  0  0  0  0  0  0  0  0  0  0
  131.6309  138.9945  130.7963 C   0  0  0  0  0  0  0  0  0  0  0  0
  131.7462  140.2510  130.5081 C   0  0  0  0  0  0  0  0  0  0  0  0
  133.1604  140.5896  130.2568 C   0  0  0  0  0  0  0  0  0  0  0  0
  133.9118  139.4819  130.4240 C   0  0  0  0  0  0  0  0  0  0  0  0
  133.0402  138.4386  130.8005 C   0  0  2  0  0  0  0  0  0  0  0  0
  133.3167  137.9765  132.1305 O   0  0  0  0  0  0  0  0  0  0  0  0
  134.6049  138.1768  132.5378 C   0  0  2  0  0  0  0  0  0  0  0  0
  135.3713  137.1716  131.9574 O   0  0  0  0  0  0  0  0  0  0  0  0
  136.6067  136.9488  132.5480 C   0  0  0  0  0  0  0  0  0  0  0  0
  137.4604  138.1462  132.5984 C   0  0  0  0  0  0  0  0  0  0  0  0
  137.3069  135.9609  131.5906 C   0  0  0  0  0  0  0  0  0  0  0  0
  136.3422  136.2396  133.8460 C   0  0  2  0  0  0  0  0  0  0  0  0
  135.0444  136.6840  134.4188 C   0  0  1  0  0  0  0  0  0  0  0  0
  134.8938  136.5795  135.7759 O   0  0  0  0  0  0  0  0  0  0  0  0
  134.6348  138.0970  134.0447 C   0  0  1  0  0  0  0  0  0  0  0  0
  135.3680  139.0806  134.6533 O   0  0  0  0  0  0  0  0  0  0  0  0
  137.4097  136.3364  134.8088 N   0  0  0  0  0  0  0  0  0  0  0  0
  138.6686  135.8302  134.3061 C   0  0  0  0  0  0  0  0  0  0  0  0
  137.0511  135.4268  135.9115 C   0  0  0  0  0  0  0  0  0  0  0  0
  130.1175  137.7031  127.8893 C   0  0  0  0  0  0  0  0  0  0  0  0
  130.1842  139.5185  127.7300 Cl  0  0  0  0  0  0  0  0  0  0  0  0
  128.8246  137.2854  127.4526 C   0  0  0  0  0  0  0  0  0  0  0  0
  127.1241  134.2986  126.0654 N   0  0  0  0  0  4  0  0  0  0  0  0
  125.9081  139.7961  132.4008 C   0  0  0  0  0  0  0  0  0  0  0  0
  1  2  1  0
  2  3  2  0
  2  4  1  0
  4  5  2  0
  4  6  1  0
  6  7  1  0
  7  8  2  0
  8  9  1  0
  9 10  1  0
 10 11  1  0
  9 12  2  0
 12 13  1  0
 13 14  1  0
 14 15  2  0
 14 16  1  0
 17 16  1  1
 17 18  1  0
 18 19  1  0
 19 20  1  0
 20 21  2  0
 20 22  1  0
 22 23  1  0
 23 24  1  0
 24 25  2  0
 25 26  1  0
 26 27  1  0
 26 28  2  0
 28 29  1  0
 30 29  1  6
 30 31  1  0
 31 32  2  0
 32 33  1  0
 33 34  2  0
 34 35  1  0
 35 36  2  0
 32 37  1  0
 37 38  2  0
 38 39  1  0
 39 40  2  0
 40 41  1  0
 41 42  1  1
 43 42  1  6
 43 44  1  0
 44 45  1  0
 45 46  1  0
 45 47  1  0
 45 48  1  0
 48 49  1  0
 49 50  1  1
 49 51  1  0
 51 52  1  6
 48 53  1  1
 53 54  1  0
 53 55  1  0
 28 56  1  0
 56 57  1  0
 56 58  2  0
 23 59  1  1
 13 60  2  0
 60  1  1  0
 60  7  1  0
 34 17  1  0
 41 37  1  0
 51 43  1  0
 58 24  1  0
 41 30  1  0
 36 31  1  0
M  CHG  1  59   1
M  END
$$$$
