
     RDKit          3D

 60 67  0  0  0  0  0  0  0  0999 V2000
  136.8109  164.7029  153.4669 N   0  0  0  0  0  0  0  0  0  0  0  0
  137.8502  165.4248  154.1627 C   0  0  0  0  0  0  0  0  0  0  0  0
  138.6156  164.7978  154.9127 O   0  0  0  0  0  0  0  0  0  0  0  0
  137.9208  166.8556  153.9265 C   0  0  0  0  0  0  0  0  0  0  0  0
  138.8525  167.5679  154.5371 C   0  0  0  0  0  0  0  0  0  0  0  0
  137.0211  167.4672  153.0702 O   0  0  0  0  0  0  0  0  0  0  0  0
  136.0244  166.7648  152.4052 C   0  0  0  0  0  0  0  0  0  0  0  0
  135.1483  167.4110  151.5620 C   0  0  0  0  0  0  0  0  0  0  0  0
  134.1635  166.7204  150.9042 C   0  0  0  0  0  0  0  0  0  0  0  0
  133.2764  167.3591  150.0521 O   0  0  0  0  0  0  0  0  0  0  0  0
  133.4730  167.3566  148.6548 C   0  0  0  0  0  0  0  0  0  0  0  0
  134.0934  165.3775  151.1228 C   0  0  0  0  0  0  0  0  0  0  0  0
  134.9375  164.6564  151.9554 C   0  0  0  0  0  0  0  0  0  0  0  0
  134.7520  163.2206  152.0863 C   0  0  0  0  0  0  0  0  0  0  0  0
  135.4397  162.4958  151.2638 O   0  0  0  0  0  0  0  0  0  0  0  0
  133.9692  162.5300  152.9386 O   0  0  0  0  0  0  0  0  0  0  0  0
  134.3539  162.0412  154.1781 C   0  0  1  0  0  0  0  0  0  0  0  0
  134.9790  163.1442  155.0886 C   0  0  0  0  0  0  0  0  0  0  0  0
  134.8853  162.8674  156.4112 O   0  0  0  0  0  0  0  0  0  0  0  0
  135.6248  162.6777  157.4972 C   0  0  0  0  0  0  0  0  0  0  0  0
  136.1689  161.5746  157.8757 O   0  0  0  0  0  0  0  0  0  0  0  0
  135.9001  163.8093  158.4284 C   0  0  0  0  0  0  0  0  0  0  0  0
  135.0346  163.7887  159.6700 C   0  0  1  0  0  0  0  0  0  0  0  0
  133.7450  162.9892  159.4605 C   0  0  0  0  0  0  0  0  0  0  0  0
  133.6895  161.6247  159.6189 C   0  0  0  0  0  0  0  0  0  0  0  0
  132.4991  160.8710  159.3569 C   0  0  0  0  0  0  0  0  0  0  0  0
  132.7702  159.4704  159.6433 O   0  0  0  0  0  0  0  0  0  0  0  0
  131.3606  161.4695  158.9299 C   0  0  0  0  0  0  0  0  0  0  0  0
  130.1876  160.7350  158.6338 O   0  0  0  0  0  0  0  0  0  0  0  0
  130.0777  159.9202  157.4345 C   0  0  2  0  0  0  0  0  0  0  0  0
  131.2870  160.1266  156.6196 C   0  0  0  0  0  0  0  0  0  0  0  0
  131.0216  161.2550  155.8606 C   0  0  0  0  0  0  0  0  0  0  0  0
  132.0167  161.8554  155.0466 C   0  0  0  0  0  0  0  0  0  0  0  0
  133.2767  161.3211  154.9888 C   0  0  0  0  0  0  0  0  0  0  0  0
  133.5453  160.1908  155.7347 C   0  0  0  0  0  0  0  0  0  0  0  0
  132.5154  159.6272  156.5376 C   0  0  0  0  0  0  0  0  0  0  0  0
  129.6104  161.5929  156.0208 C   0  0  0  0  0  0  0  0  0  0  0  0
  128.6096  162.4114  155.9627 C   0  0  0  0  0  0  0  0  0  0  0  0
  127.3725  161.7374  156.4022 C   0  0  0  0  0  0  0  0  0  0  0  0
  127.6594  160.4571  156.7151 C   0  0  0  0  0  0  0  0  0  0  0  0
  129.0354  160.2654  156.4707 C   0  0  2  0  0  0  0  0  0  0  0  0
  129.2553  159.3205  155.4135 O   0  0  0  0  0  0  0  0  0  0  0  0
  128.7136  158.0876  155.6411 C   0  0  2  0  0  0  0  0  0  0  0  0
  129.1922  157.2471  154.6416 O   0  0  0  0  0  0  0  0  0  0  0  0
  128.4677  156.0800  154.4478 C   0  0  0  0  0  0  0  0  0  0  0  0
  128.3427  155.2555  155.6601 C   0  0  0  0  0  0  0  0  0  0  0  0
  129.3286  155.2645  153.4595 C   0  0  0  0  0  0  0  0  0  0  0  0
  127.1956  156.4731  153.7512 C   0  0  2  0  0  0  0  0  0  0  0  0
  126.7739  157.8322  154.1809 C   0  0  1  0  0  0  0  0  0  0  0  0
  125.4398  158.1280  154.0917 O   0  0  0  0  0  0  0  0  0  0  0  0
  127.2113  158.2206  155.5816 C   0  0  1  0  0  0  0  0  0  0  0  0
  126.5414  157.5734  156.5855 O   0  0  0  0  0  0  0  0  0  0  0  0
  126.1242  155.5183  153.8788 N   0  0  0  0  0  0  0  0  0  0  0  0
  126.4939  154.3588  154.6615 C   0  0  0  0  0  0  0  0  0  0  0  0
  125.8776  154.9951  152.5233 C   0  0  0  0  0  0  0  0  0  0  0  0
  131.4150  162.8233  158.7846 C   0  0  0  0  0  0  0  0  0  0  0  0
  130.0531  163.9859  158.4389 Cl  0  0  0  0  0  0  0  0  0  0  0  0
  132.5843  163.6015  159.0372 C   0  0  0  0  0  0  0  0  0  0  0  0
  135.8279  163.3577  160.8138 N   0  0  0  0  0  4  0  0  0  0  0  0
  135.9280  165.3804  152.6108 C   0  0  0  0  0  0  0  0  0  0  0  0
  1  2  1  0
  2  3  2  0
  2  4  1  0
  4  5  2  0
  4  6  1  0
  6  7  1  0
  7  8  2  0
  8  9  1  0
  9 10  1  0
 10 11  1  0
  9 12  2  0
 12 13  1  0
 13 14  1  0
 14 15  2  0
 14 16  1  0
 17 16  1  6
 17 18  1  0
 18 19  1  0
 19 20  1  0
 20 21  2  0
 20 22  1  0
 22 23  1  0
 23 24  1  0
 24 25  2  0
 25 26  1  0
 26 27  1  0
 26 28  2  0
 28 29  1  0
 30 29  1  1
 30 31  1  0
 31 32  2  0
 32 33  1  0
 33 34  2  0
 34 35  1  0
 35 36  2  0
 32 37  1  0
 37 38  2  0
 38 39  1  0
 39 40  2  0
 40 41  1  0
 41 42  1  6
 43 42  1  6
 43 44  1  0
 44 45  1  0
 45 46  1  0
 45 47  1  0
 45 48  1  0
 48 49  1  0
 49 50  1  1
 49 51  1  0
 51 52  1  1
 48 53  1  1
 53 54  1  0
 53 55  1  0
 28 56  1  0
 56 57  1  0
 56 58  2  0
 23 59  1  1
 13 60  2  0
 60  1  1  0
 60  7  1  0
 34 17  1  0
 41 37  1  0
 51 43  1  0
 58 24  1  0
 41 30  1  0
 36 31  1  0
M  CHG  1  59   1
M  END
$$$$
