
     RDKit          3D

 60 67  0  0  0  0  0  0  0  0999 V2000
  167.2943  169.8699  110.2091 N   0  0  0  0  0  0  0  0  0  0  0  0
  166.0798  170.1655  110.9324 C   0  0  0  0  0  0  0  0  0  0  0  0
  166.0598  169.9986  112.1626 O   0  0  0  0  0  0  0  0  0  0  0  0
  164.9546  170.6441  110.1497 C   0  0  0  0  0  0  0  0  0  0  0  0
  163.8166  170.9306  110.7591 C   0  0  0  0  0  0  0  0  0  0  0  0
  165.0729  170.7989  108.7791 O   0  0  0  0  0  0  0  0  0  0  0  0
  166.2450  170.5119  108.0916 C   0  0  0  0  0  0  0  0  0  0  0  0
  166.3216  170.6788  106.7269 C   0  0  0  0  0  0  0  0  0  0  0  0
  167.4772  170.3963  106.0455 C   0  0  0  0  0  0  0  0  0  0  0  0
  167.5672  170.5612  104.6724 O   0  0  0  0  0  0  0  0  0  0  0  0
  168.0832  171.7478  104.1097 C   0  0  0  0  0  0  0  0  0  0  0  0
  168.5358  169.9468  106.7758 C   0  0  0  0  0  0  0  0  0  0  0  0
  168.5364  169.7534  108.1501 C   0  0  0  0  0  0  0  0  0  0  0  0
  169.7453  169.2765  108.8012 C   0  0  0  0  0  0  0  0  0  0  0  0
  170.6835  170.1568  108.9412 O   0  0  0  0  0  0  0  0  0  0  0  0
  170.0356  168.0514  109.2823 O   0  0  0  0  0  0  0  0  0  0  0  0
  170.1963  166.9003  108.5258 C   0  0  1  0  0  0  0  0  0  0  0  0
  170.6147  167.2054  107.0533 C   0  0  0  0  0  0  0  0  0  0  0  0
  171.2655  166.1792  106.4550 O   0  0  0  0  0  0  0  0  0  0  0  0
  171.1906  165.3525  105.4190 C   0  0  0  0  0  0  0  0  0  0  0  0
  170.5470  164.2392  105.3668 O   0  0  0  0  0  0  0  0  0  0  0  0
  171.8979  165.6735  104.1462 C   0  0  0  0  0  0  0  0  0  0  0  0
  173.1948  164.9125  103.9722 C   0  0  1  0  0  0  0  0  0  0  0  0
  173.7639  164.4300  105.3099 C   0  0  0  0  0  0  0  0  0  0  0  0
  173.3640  163.2547  105.9004 C   0  0  0  0  0  0  0  0  0  0  0  0
  173.8477  162.8389  107.1836 C   0  0  0  0  0  0  0  0  0  0  0  0
  173.2507  161.5513  107.5042 O   0  0  0  0  0  0  0  0  0  0  0  0
  174.7262  163.5927  107.8885 C   0  0  0  0  0  0  0  0  0  0  0  0
  175.1864  163.2127  109.1718 O   0  0  0  0  0  0  0  0  0  0  0  0
  174.3355  163.3035  110.3474 C   0  0  2  0  0  0  0  0  0  0  0  0
  173.0687  163.9447  109.9561 C   0  0  0  0  0  0  0  0  0  0  0  0
  173.3117  165.3059  110.0440 C   0  0  0  0  0  0  0  0  0  0  0  0
  172.3604  166.2617  109.6028 C   0  0  0  0  0  0  0  0  0  0  0  0
  171.1626  165.8531  109.0789 C   0  0  0  0  0  0  0  0  0  0  0  0
  170.9095  164.4983  108.9977 C   0  0  0  0  0  0  0  0  0  0  0  0
  171.8958  163.5789  109.4504 C   0  0  0  0  0  0  0  0  0  0  0  0
  174.6026  165.4991  110.6978 C   0  0  0  0  0  0  0  0  0  0  0  0
  175.6517  166.1990  110.9886 C   0  0  0  0  0  0  0  0  0  0  0  0
  176.5654  165.4180  111.8448 C   0  0  0  0  0  0  0  0  0  0  0  0
  176.0163  164.2090  112.0819 C   0  0  0  0  0  0  0  0  0  0  0  0
  174.7648  164.1836  111.4315 C   0  0  2  0  0  0  0  0  0  0  0  0
  173.6856  164.0790  112.3714 O   0  0  0  0  0  0  0  0  0  0  0  0
  174.0375  163.5288  113.5709 C   0  0  2  0  0  0  0  0  0  0  0  0
  174.9485  162.5143  113.2965 O   0  0  0  0  0  0  0  0  0  0  0  0
  175.1213  161.5798  114.3072 C   0  0  0  0  0  0  0  0  0  0  0  0
  175.5299  162.1697  115.5918 C   0  0  0  0  0  0  0  0  0  0  0  0
  176.3137  160.7251  113.8273 C   0  0  0  0  0  0  0  0  0  0  0  0
  173.8923  160.7152  114.3094 C   0  0  2  0  0  0  0  0  0  0  0  0
  172.7053  161.5091  113.8966 C   0  0  1  0  0  0  0  0  0  0  0  0
  171.4830  161.0784  114.3391 O   0  0  0  0  0  0  0  0  0  0  0  0
  172.7865  162.9898  114.2210 C   0  0  1  0  0  0  0  0  0  0  0  0
  172.6623  163.2871  115.5521 O   0  0  0  0  0  0  0  0  0  0  0  0
  173.6585  160.0112  115.5445 N   0  0  0  0  0  0  0  0  0  0  0  0
  173.6579  158.5735  115.3815 C   0  0  0  0  0  0  0  0  0  0  0  0
  172.2821  160.3449  115.9523 C   0  0  0  0  0  0  0  0  0  0  0  0
  175.1298  164.7516  107.2960 C   0  0  0  0  0  0  0  0  0  0  0  0
  176.4378  165.9057  107.8279 Cl  0  0  0  0  0  0  0  0  0  0  0  0
  174.6665  165.1929  106.0203 C   0  0  0  0  0  0  0  0  0  0  0  0
  173.0159  163.8587  102.9819 N   0  0  0  0  0  4  0  0  0  0  0  0
  167.3519  170.0473  108.8175 C   0  0  0  0  0  0  0  0  0  0  0  0
  1  2  1  0
  2  3  2  0
  2  4  1  0
  4  5  2  0
  4  6  1  0
  6  7  1  0
  7  8  2  0
  8  9  1  0
  9 10  1  0
 10 11  1  0
  9 12  2  0
 12 13  1  0
 13 14  1  0
 14 15  2  0
 14 16  1  0
 17 16  1  1
 17 18  1  0
 18 19  1  0
 19 20  1  0
 20 21  2  0
 20 22  1  0
 22 23  1  0
 23 24  1  0
 24 25  2  0
 25 26  1  0
 26 27  1  0
 26 28  2  0
 28 29  1  0
 30 29  1  6
 30 31  1  0
 31 32  2  0
 32 33  1  0
 33 34  2  0
 34 35  1  0
 35 36  2  0
 32 37  1  0
 37 38  2  0
 38 39  1  0
 39 40  2  0
 40 41  1  0
 41 42  1  1
 43 42  1  6
 43 44  1  0
 44 45  1  0
 45 46  1  0
 45 47  1  0
 45 48  1  0
 48 49  1  0
 49 50  1  1
 49 51  1  0
 51 52  1  1
 48 53  1  1
 53 54  1  0
 53 55  1  0
 28 56  1  0
 56 57  1  0
 56 58  2  0
 23 59  1  6
 13 60  2  0
 60  1  1  0
 60  7  1  0
 34 17  1  0
 41 37  1  0
 51 43  1  0
 58 24  1  0
 41 30  1  0
 36 31  1  0
M  CHG  1  59   1
M  END
$$$$
