
     RDKit          3D

 60 67  0  0  0  0  0  0  0  0999 V2000
  205.7766  130.3042  128.9198 N   0  0  0  0  0  0  0  0  0  0  0  0
  205.5316  130.7604  127.5717 C   0  0  0  0  0  0  0  0  0  0  0  0
  206.3557  130.4812  126.6860 O   0  0  0  0  0  0  0  0  0  0  0  0
  204.3168  131.5247  127.3524 C   0  0  0  0  0  0  0  0  0  0  0  0
  204.0409  131.9683  126.1377 C   0  0  0  0  0  0  0  0  0  0  0  0
  203.4565  131.7860  128.4052 O   0  0  0  0  0  0  0  0  0  0  0  0
  203.7004  131.3434  129.6988 C   0  0  0  0  0  0  0  0  0  0  0  0
  202.8194  131.6253  130.7189 C   0  0  0  0  0  0  0  0  0  0  0  0
  203.0574  131.1898  131.9969 C   0  0  0  0  0  0  0  0  0  0  0  0
  202.1780  131.4660  133.0319 O   0  0  0  0  0  0  0  0  0  0  0  0
  200.9258  132.0686  132.7874 C   0  0  0  0  0  0  0  0  0  0  0  0
  204.1961  130.4722  132.2075 C   0  0  0  0  0  0  0  0  0  0  0  0
  205.1304  130.1482  131.2337 C   0  0  0  0  0  0  0  0  0  0  0  0
  206.2987  129.3651  131.6008 C   0  0  0  0  0  0  0  0  0  0  0  0
  206.0484  128.2050  132.1169 O   0  0  0  0  0  0  0  0  0  0  0  0
  207.6068  129.6673  131.4831 O   0  0  0  0  0  0  0  0  0  0  0  0
  208.5052  129.8030  132.5309 C   0  0  1  0  0  0  0  0  0  0  0  0
  209.9856  129.8851  132.0429 C   0  0  0  0  0  0  0  0  0  0  0  0
  210.8063  130.5154  132.9169 O   0  0  0  0  0  0  0  0  0  0  0  0
  211.8972  130.3300  133.6503 C   0  0  0  0  0  0  0  0  0  0  0  0
  211.9548  129.8174  134.8294 O   0  0  0  0  0  0  0  0  0  0  0  0
  213.2344  130.7313  133.1266 C   0  0  0  0  0  0  0  0  0  0  0  0
  213.7305  132.0449  133.6918 C   0  0  1  0  0  0  0  0  0  0  0  0
  212.5847  132.9177  134.2129 C   0  0  0  0  0  0  0  0  0  0  0  0
  212.0670  132.7763  135.4786 C   0  0  0  0  0  0  0  0  0  0  0  0
  210.9510  133.5477  135.9402 C   0  0  0  0  0  0  0  0  0  0  0  0
  210.6731  133.1737  137.3187 O   0  0  0  0  0  0  0  0  0  0  0  0
  210.3405  134.4583  135.1435 C   0  0  0  0  0  0  0  0  0  0  0  0
  209.2160  135.2027  135.5728 O   0  0  0  0  0  0  0  0  0  0  0  0
  207.9005  134.5963  135.7003 C   0  0  2  0  0  0  0  0  0  0  0  0
  207.9753  133.2136  135.1989 C   0  0  0  0  0  0  0  0  0  0  0  0
  207.7806  133.3154  133.8309 C   0  0  0  0  0  0  0  0  0  0  0  0
  207.9269  132.1949  132.9729 C   0  0  0  0  0  0  0  0  0  0  0  0
  208.2627  130.9704  133.4870 C   0  0  0  0  0  0  0  0  0  0  0  0
  208.4483  130.8594  134.8506 C   0  0  0  0  0  0  0  0  0  0  0  0
  208.2930  132.0123  135.6690 C   0  0  0  0  0  0  0  0  0  0  0  0
  207.3596  134.6803  133.5289 C   0  0  0  0  0  0  0  0  0  0  0  0
  207.1909  135.6812  132.7258 C   0  0  0  0  0  0  0  0  0  0  0  0
  206.6127  136.8277  133.4533 C   0  0  0  0  0  0  0  0  0  0  0  0
  206.4162  136.4750  134.7403 C   0  0  0  0  0  0  0  0  0  0  0  0
  206.8222  135.1304  134.8719 C   0  0  2  0  0  0  0  0  0  0  0  0
  205.7167  134.2770  135.2011 O   0  0  0  0  0  0  0  0  0  0  0  0
  204.7057  134.9025  135.8735 C   0  0  2  0  0  0  0  0  0  0  0  0
  204.8561  134.5790  137.2179 O   0  0  0  0  0  0  0  0  0  0  0  0
  203.7303  134.7699  138.0057 C   0  0  0  0  0  0  0  0  0  0  0  0
  203.2083  136.1450  137.9645 C   0  0  0  0  0  0  0  0  0  0  0  0
  204.2384  134.5453  139.4459 C   0  0  0  0  0  0  0  0  0  0  0  0
  202.7734  133.6624  137.6655 C   0  0  2  0  0  0  0  0  0  0  0  0
  202.9203  133.2776  136.2372 C   0  0  1  0  0  0  0  0  0  0  0  0
  201.8317  132.7115  135.6292 O   0  0  0  0  0  0  0  0  0  0  0  0
  203.3956  134.3930  135.3238 C   0  0  1  0  0  0  0  0  0  0  0  0
  202.4621  135.3655  135.0820 O   0  0  0  0  0  0  0  0  0  0  0  0
  201.3997  133.9334  138.0050 N   0  0  0  0  0  0  0  0  0  0  0  0
  200.9668  135.2505  137.5907 C   0  0  0  0  0  0  0  0  0  0  0  0
  201.3393  133.9625  139.4773 C   0  0  0  0  0  0  0  0  0  0  0  0
  210.8625  134.6045  133.8934 C   0  0  0  0  0  0  0  0  0  0  0  0
  210.4551  135.8545  132.6294 Cl  0  0  0  0  0  0  0  0  0  0  0  0
  211.9721  133.8518  133.4045 C   0  0  0  0  0  0  0  0  0  0  0  0
  214.7833  131.7928  134.6671 N   0  0  0  0  0  4  0  0  0  0  0  0
  204.8654  130.6018  129.9458 C   0  0  0  0  0  0  0  0  0  0  0  0
  1  2  1  0
  2  3  2  0
  2  4  1  0
  4  5  2  0
  4  6  1  0
  6  7  1  0
  7  8  2  0
  8  9  1  0
  9 10  1  0
 10 11  1  0
  9 12  2  0
 12 13  1  0
 13 14  1  0
 14 15  2  0
 14 16  1  0
 17 16  1  6
 17 18  1  0
 18 19  1  0
 19 20  1  0
 20 21  2  0
 20 22  1  0
 22 23  1  0
 23 24  1  0
 24 25  2  0
 25 26  1  0
 26 27  1  0
 26 28  2  0
 28 29  1  0
 30 29  1  6
 30 31  1  0
 31 32  2  0
 32 33  1  0
 33 34  2  0
 34 35  1  0
 35 36  2  0
 32 37  1  0
 37 38  2  0
 38 39  1  0
 39 40  2  0
 40 41  1  0
 41 42  1  1
 43 42  1  6
 43 44  1  0
 44 45  1  0
 45 46  1  0
 45 47  1  0
 45 48  1  0
 48 49  1  0
 49 50  1  6
 49 51  1  0
 51 52  1  1
 48 53  1  6
 53 54  1  0
 53 55  1  0
 28 56  1  0
 56 57  1  0
 56 58  2  0
 23 59  1  1
 13 60  2  0
 60  1  1  0
 60  7  1  0
 34 17  1  0
 41 37  1  0
 51 43  1  0
 58 24  1  0
 41 30  1  0
 36 31  1  0
M  CHG  1  59   1
M  END
$$$$
