
     RDKit          3D

 60 67  0  0  0  0  0  0  0  0999 V2000
  189.0852  159.1170  129.2004 N   0  0  0  0  0  0  0  0  0  0  0  0
  188.0968  159.8626  129.9437 C   0  0  0  0  0  0  0  0  0  0  0  0
  186.9361  159.4256  130.0021 O   0  0  0  0  0  0  0  0  0  0  0  0
  188.5458  161.0893  130.5775 C   0  0  0  0  0  0  0  0  0  0  0  0
  187.6839  161.8132  131.2713 C   0  0  0  0  0  0  0  0  0  0  0  0
  189.8636  161.4961  130.4562 O   0  0  0  0  0  0  0  0  0  0  0  0
  190.8075  160.7726  129.7390 C   0  0  0  0  0  0  0  0  0  0  0  0
  192.1088  161.2121  129.6418 C   0  0  0  0  0  0  0  0  0  0  0  0
  193.0428  160.5002  128.9345 C   0  0  0  0  0  0  0  0  0  0  0  0
  194.3558  160.9314  128.8302 O   0  0  0  0  0  0  0  0  0  0  0  0
  194.6701  162.3035  128.7308 C   0  0  0  0  0  0  0  0  0  0  0  0
  192.6261  159.3484  128.3380 C   0  0  0  0  0  0  0  0  0  0  0  0
  191.3354  158.8410  128.3901 C   0  0  0  0  0  0  0  0  0  0  0  0
  191.0341  157.5910  127.7120 C   0  0  0  0  0  0  0  0  0  0  0  0
  190.7831  156.5862  128.4879 O   0  0  0  0  0  0  0  0  0  0  0  0
  190.9767  157.3219  126.3926 O   0  0  0  0  0  0  0  0  0  0  0  0
  189.8566  157.4551  125.5858 C   0  0  1  0  0  0  0  0  0  0  0  0
  188.7429  158.3261  126.2472 C   0  0  0  0  0  0  0  0  0  0  0  0
  187.9044  158.8992  125.3510 O   0  0  0  0  0  0  0  0  0  0  0  0
  186.6253  158.9560  125.0001 C   0  0  0  0  0  0  0  0  0  0  0  0
  186.0038  158.1431  124.2196 O   0  0  0  0  0  0  0  0  0  0  0  0
  185.7490  160.0446  125.5201 C   0  0  0  0  0  0  0  0  0  0  0  0
  185.5159  161.1565  124.5199 C   0  0  1  0  0  0  0  0  0  0  0  0
  186.6155  161.2139  123.4551 C   0  0  0  0  0  0  0  0  0  0  0  0
  186.5868  160.4347  122.3228 C   0  0  0  0  0  0  0  0  0  0  0  0
  187.6497  160.4408  121.3616 C   0  0  0  0  0  0  0  0  0  0  0  0
  187.2978  159.5308  120.2822 O   0  0  0  0  0  0  0  0  0  0  0  0
  188.7489  161.2166  121.5251 C   0  0  0  0  0  0  0  0  0  0  0  0
  189.8223  161.2078  120.6027 O   0  0  0  0  0  0  0  0  0  0  0  0
  190.7551  160.0951  120.5252 C   0  0  2  0  0  0  0  0  0  0  0  0
  190.4395  159.1474  121.6074 C   0  0  0  0  0  0  0  0  0  0  0  0
  191.1222  159.6246  122.7147 C   0  0  0  0  0  0  0  0  0  0  0  0
  190.9487  159.0502  124.0004 C   0  0  0  0  0  0  0  0  0  0  0  0
  190.0951  157.9933  124.1754 C   0  0  0  0  0  0  0  0  0  0  0  0
  189.4192  157.5061  123.0745 C   0  0  0  0  0  0  0  0  0  0  0  0
  189.6244  158.1173  121.8068 C   0  0  0  0  0  0  0  0  0  0  0  0
  192.0200  160.6886  122.2753 C   0  0  0  0  0  0  0  0  0  0  0  0
  192.7582  161.7308  122.4848 C   0  0  0  0  0  0  0  0  0  0  0  0
  193.3674  162.1875  121.2206 C   0  0  0  0  0  0  0  0  0  0  0  0
  192.9822  161.3619  120.2260 C   0  0  0  0  0  0  0  0  0  0  0  0
  192.1635  160.3677  120.8016 C   0  0  2  0  0  0  0  0  0  0  0  0
  192.7640  159.0684  120.7005 O   0  0  0  0  0  0  0  0  0  0  0  0
  193.7092  158.9618  119.7203 C   0  0  2  0  0  0  0  0  0  0  0  0
  193.0300  158.9436  118.5067 O   0  0  0  0  0  0  0  0  0  0  0  0
  193.7481  158.4438  117.4300 C   0  0  0  0  0  0  0  0  0  0  0  0
  195.0152  159.1515  117.1872 C   0  0  0  0  0  0  0  0  0  0  0  0
  192.8492  158.7396  116.2105 C   0  0  0  0  0  0  0  0  0  0  0  0
  193.8185  156.9541  117.6132 C   0  0  2  0  0  0  0  0  0  0  0  0
  193.8532  156.6158  119.0603 C   0  0  1  0  0  0  0  0  0  0  0  0
  194.4376  155.4273  119.4086 O   0  0  0  0  0  0  0  0  0  0  0  0
  194.4733  157.6801  119.9475 C   0  0  1  0  0  0  0  0  0  0  0  0
  195.8324  157.7978  119.8278 O   0  0  0  0  0  0  0  0  0  0  0  0
  194.8875  156.3125  116.8910 N   0  0  0  0  0  0  0  0  0  0  0  0
  194.4191  155.2798  115.9922 C   0  0  0  0  0  0  0  0  0  0  0  0
  195.6924  155.5988  117.8984 C   0  0  0  0  0  0  0  0  0  0  0  0
  188.7698  161.9963  122.6424 C   0  0  0  0  0  0  0  0  0  0  0  0
  189.9572  163.3045  123.0946 Cl  0  0  0  0  0  0  0  0  0  0  0  0
  187.7278  162.0125  123.6175 C   0  0  0  0  0  0  0  0  0  0  0  0
  184.1654  161.0572  123.9820 N   0  0  0  0  0  4  0  0  0  0  0  0
  190.4072  159.5821  129.1139 C   0  0  0  0  0  0  0  0  0  0  0  0
  1  2  1  0
  2  3  2  0
  2  4  1  0
  4  5  2  0
  4  6  1  0
  6  7  1  0
  7  8  2  0
  8  9  1  0
  9 10  1  0
 10 11  1  0
  9 12  2  0
 12 13  1  0
 13 14  1  0
 14 15  2  0
 14 16  1  0
 17 16  1  1
 17 18  1  0
 18 19  1  0
 19 20  1  0
 20 21  2  0
 20 22  1  0
 22 23  1  0
 23 24  1  0
 24 25  2  0
 25 26  1  0
 26 27  1  0
 26 28  2  0
 28 29  1  0
 30 29  1  1
 30 31  1  0
 31 32  2  0
 32 33  1  0
 33 34  2  0
 34 35  1  0
 35 36  2  0
 32 37  1  0
 37 38  2  0
 38 39  1  0
 39 40  2  0
 40 41  1  0
 41 42  1  1
 43 42  1  1
 43 44  1  0
 44 45  1  0
 45 46  1  0
 45 47  1  0
 45 48  1  0
 48 49  1  0
 49 50  1  6
 49 51  1  0
 51 52  1  6
 48 53  1  6
 53 54  1  0
 53 55  1  0
 28 56  1  0
 56 57  1  0
 56 58  2  0
 23 59  1  6
 13 60  2  0
 60  1  1  0
 60  7  1  0
 34 17  1  0
 41 37  1  0
 51 43  1  0
 58 24  1  0
 41 30  1  0
 36 31  1  0
M  CHG  1  59   1
M  END
$$$$
