
     RDKit          3D

 60 67  0  0  0  0  0  0  0  0999 V2000
  203.2243  136.5806  130.2892 N   0  0  0  0  0  0  0  0  0  0  0  0
  203.6492  137.9582  130.2049 C   0  0  0  0  0  0  0  0  0  0  0  0
  204.8315  138.2036  129.9162 O   0  0  0  0  0  0  0  0  0  0  0  0
  202.6411  138.9691  130.4695 C   0  0  0  0  0  0  0  0  0  0  0  0
  202.9733  140.2474  130.4068 C   0  0  0  0  0  0  0  0  0  0  0  0
  201.3451  138.5973  130.7841 O   0  0  0  0  0  0  0  0  0  0  0  0
  200.9454  137.2696  130.8631 C   0  0  0  0  0  0  0  0  0  0  0  0
  199.6461  136.9415  131.1799 C   0  0  0  0  0  0  0  0  0  0  0  0
  199.2485  135.6318  131.2587 C   0  0  0  0  0  0  0  0  0  0  0  0
  197.9437  135.2887  131.5755 O   0  0  0  0  0  0  0  0  0  0  0  0
  196.9487  136.2744  131.7478 C   0  0  0  0  0  0  0  0  0  0  0  0
  200.1911  134.6797  131.0112 C   0  0  0  0  0  0  0  0  0  0  0  0
  201.5169  134.9305  130.6866 C   0  0  0  0  0  0  0  0  0  0  0  0
  202.4124  133.8128  130.4380 C   0  0  0  0  0  0  0  0  0  0  0  0
  202.2660  133.2297  129.2920 O   0  0  0  0  0  0  0  0  0  0  0  0
  203.3749  133.2921  131.2246 O   0  0  0  0  0  0  0  0  0  0  0  0
  203.1881  132.7647  132.4936 C   0  0  1  0  0  0  0  0  0  0  0  0
  202.7215  131.2755  132.4600 C   0  0  0  0  0  0  0  0  0  0  0  0
  203.0215  130.5918  133.5900 O   0  0  0  0  0  0  0  0  0  0  0  0
  202.4619  129.9108  134.5827 C   0  0  0  0  0  0  0  0  0  0  0  0
  201.9777  130.3952  135.6723 O   0  0  0  0  0  0  0  0  0  0  0  0
  202.3442  128.4263  134.5056 C   0  0  0  0  0  0  0  0  0  0  0  0
  203.3950  127.6983  135.3161 C   0  0  1  0  0  0  0  0  0  0  0  0
  204.6303  128.5671  135.5714 C   0  0  0  0  0  0  0  0  0  0  0  0
  204.7019  129.4582  136.6158 C   0  0  0  0  0  0  0  0  0  0  0  0
  205.8312  130.3181  136.8130 C   0  0  0  0  0  0  0  0  0  0  0  0
  205.6003  131.1120  138.0103 O   0  0  0  0  0  0  0  0  0  0  0  0
  206.8915  130.3006  135.9690 C   0  0  0  0  0  0  0  0  0  0  0  0
  207.9984  131.1676  136.1304 O   0  0  0  0  0  0  0  0  0  0  0  0
  207.9124  132.5847  135.8157 C   0  0  2  0  0  0  0  0  0  0  0  0
  206.5907  132.8498  135.2224 C   0  0  0  0  0  0  0  0  0  0  0  0
  206.7396  132.5733  133.8729 C   0  0  0  0  0  0  0  0  0  0  0  0
  205.6320  132.5756  132.9861 C   0  0  0  0  0  0  0  0  0  0  0  0
  204.3755  132.8609  133.4510 C   0  0  0  0  0  0  0  0  0  0  0  0
  204.2213  133.1474  134.7928 C   0  0  0  0  0  0  0  0  0  0  0  0
  205.3618  133.1298  135.6425 C   0  0  0  0  0  0  0  0  0  0  0  0
  208.1604  132.3785  133.5997 C   0  0  0  0  0  0  0  0  0  0  0  0
  209.1444  131.9357  132.8851 C   0  0  0  0  0  0  0  0  0  0  0  0
  210.4314  132.2679  133.5265 C   0  0  0  0  0  0  0  0  0  0  0  0
  210.1897  132.9545  134.6621 C   0  0  0  0  0  0  0  0  0  0  0  0
  208.7912  133.1040  134.7706 C   0  0  2  0  0  0  0  0  0  0  0  0
  208.4012  134.4821  134.6838 O   0  0  0  0  0  0  0  0  0  0  0  0
  209.4470  135.3584  134.6216 C   0  0  2  0  0  0  0  0  0  0  0  0
  210.5874  134.6505  134.9862 O   0  0  0  0  0  0  0  0  0  0  0  0
  211.6701  135.4256  135.3754 C   0  0  0  0  0  0  0  0  0  0  0  0
  212.0933  136.4004  134.3577 C   0  0  0  0  0  0  0  0  0  0  0  0
  212.8273  134.4126  135.5086 C   0  0  0  0  0  0  0  0  0  0  0  0
  211.3497  135.9576  136.7437 C   0  0  2  0  0  0  0  0  0  0  0  0
  209.8855  136.1746  136.8802 C   0  0  1  0  0  0  0  0  0  0  0  0
  209.4767  137.1125  137.7906 O   0  0  0  0  0  0  0  0  0  0  0  0
  209.1653  136.4887  135.5813 C   0  0  1  0  0  0  0  0  0  0  0  0
  209.4171  137.7382  135.0803 O   0  0  0  0  0  0  0  0  0  0  0  0
  212.0987  137.1292  137.1204 N   0  0  0  0  0  0  0  0  0  0  0  0
  211.8467  138.2608  136.2547 C   0  0  0  0  0  0  0  0  0  0  0  0
  213.5178  136.7963  136.9022 C   0  0  0  0  0  0  0  0  0  0  0  0
  206.8231  129.4085  134.9413 C   0  0  0  0  0  0  0  0  0  0  0  0
  208.1202  128.9511  133.7438 Cl  0  0  0  0  0  0  0  0  0  0  0  0
  205.7132  128.5396  134.7182 C   0  0  0  0  0  0  0  0  0  0  0  0
  202.7899  127.1475  136.5218 N   0  0  0  0  0  4  0  0  0  0  0  0
  201.8945  136.2671  130.6132 C   0  0  0  0  0  0  0  0  0  0  0  0
  1  2  1  0
  2  3  2  0
  2  4  1  0
  4  5  2  0
  4  6  1  0
  6  7  1  0
  7  8  2  0
  8  9  1  0
  9 10  1  0
 10 11  1  0
  9 12  2  0
 12 13  1  0
 13 14  1  0
 14 15  2  0
 14 16  1  0
 17 16  1  6
 17 18  1  0
 18 19  1  0
 19 20  1  0
 20 21  2  0
 20 22  1  0
 22 23  1  0
 23 24  1  0
 24 25  2  0
 25 26  1  0
 26 27  1  0
 26 28  2  0
 28 29  1  0
 30 29  1  6
 30 31  1  0
 31 32  2  0
 32 33  1  0
 33 34  2  0
 34 35  1  0
 35 36  2  0
 32 37  1  0
 37 38  2  0
 38 39  1  0
 39 40  2  0
 40 41  1  0
 41 42  1  6
 43 42  1  1
 43 44  1  0
 44 45  1  0
 45 46  1  0
 45 47  1  0
 45 48  1  0
 48 49  1  0
 49 50  1  1
 49 51  1  0
 51 52  1  6
 48 53  1  6
 53 54  1  0
 53 55  1  0
 28 56  1  0
 56 57  1  0
 56 58  2  0
 23 59  1  1
 13 60  2  0
 60  1  1  0
 60  7  1  0
 34 17  1  0
 41 37  1  0
 51 43  1  0
 58 24  1  0
 41 30  1  0
 36 31  1  0
M  CHG  1  59   1
M  END
$$$$
