
     RDKit          3D

 60 67  0  0  0  0  0  0  0  0999 V2000
  129.2283  147.2699  132.5630 N   0  0  0  0  0  0  0  0  0  0  0  0
  129.3932  148.6712  132.8709 C   0  0  0  0  0  0  0  0  0  0  0  0
  130.0686  148.9909  133.8624 O   0  0  0  0  0  0  0  0  0  0  0  0
  128.7440  149.6156  131.9795 C   0  0  0  0  0  0  0  0  0  0  0  0
  128.8608  150.9119  132.2128 C   0  0  0  0  0  0  0  0  0  0  0  0
  128.0103  149.1626  130.8964 O   0  0  0  0  0  0  0  0  0  0  0  0
  127.8568  147.8127  130.6081 C   0  0  0  0  0  0  0  0  0  0  0  0
  127.1178  147.4030  129.5208 C   0  0  0  0  0  0  0  0  0  0  0  0
  126.9645  146.0713  129.2335 C   0  0  0  0  0  0  0  0  0  0  0  0
  126.2242  145.6463  128.1417 O   0  0  0  0  0  0  0  0  0  0  0  0
  125.2781  146.4920  127.5247 C   0  0  0  0  0  0  0  0  0  0  0  0
  127.5719  145.1813  130.0672 C   0  0  0  0  0  0  0  0  0  0  0  0
  128.3311  145.5155  131.1798 C   0  0  0  0  0  0  0  0  0  0  0  0
  128.9307  144.4576  131.9763 C   0  0  0  0  0  0  0  0  0  0  0  0
  128.4414  144.3143  133.1658 O   0  0  0  0  0  0  0  0  0  0  0  0
  129.9221  143.6012  131.6599 O   0  0  0  0  0  0  0  0  0  0  0  0
  129.7695  142.3938  130.9951 C   0  0  1  0  0  0  0  0  0  0  0  0
  130.8460  142.1816  129.8848 C   0  0  0  0  0  0  0  0  0  0  0  0
  131.0629  140.8781  129.5874 O   0  0  0  0  0  0  0  0  0  0  0  0
  131.0115  140.0093  128.5850 C   0  0  0  0  0  0  0  0  0  0  0  0
  129.9800  139.3487  128.1903 O   0  0  0  0  0  0  0  0  0  0  0  0
  132.2328  139.7108  127.7833 C   0  0  0  0  0  0  0  0  0  0  0  0
  132.8993  138.4074  128.1683 C   0  0  1  0  0  0  0  0  0  0  0  0
  132.5356  137.9722  129.5911 C   0  0  0  0  0  0  0  0  0  0  0  0
  131.3930  137.2627  129.8758 C   0  0  0  0  0  0  0  0  0  0  0  0
  131.0210  136.9152  131.2154 C   0  0  0  0  0  0  0  0  0  0  0  0
  129.7830  136.1523  131.1648 O   0  0  0  0  0  0  0  0  0  0  0  0
  131.7796  137.2773  132.2784 C   0  0  0  0  0  0  0  0  0  0  0  0
  131.4078  136.9719  133.6095 O   0  0  0  0  0  0  0  0  0  0  0  0
  130.3269  137.6745  134.2822 C   0  0  2  0  0  0  0  0  0  0  0  0
  129.8545  138.7548  133.3998 C   0  0  0  0  0  0  0  0  0  0  0  0
  130.6942  139.8258  133.6602 C   0  0  0  0  0  0  0  0  0  0  0  0
  130.6409  141.0172  132.8916 C   0  0  0  0  0  0  0  0  0  0  0  0
  129.7417  141.1377  131.8653 C   0  0  0  0  0  0  0  0  0  0  0  0
  128.8949  140.0782  131.6067 C   0  0  0  0  0  0  0  0  0  0  0  0
  128.9884  138.9037  132.4033 C   0  0  0  0  0  0  0  0  0  0  0  0
  131.5011  139.5002  134.8324 C   0  0  0  0  0  0  0  0  0  0  0  0
  132.5315  139.6574  135.5995 C   0  0  0  0  0  0  0  0  0  0  0  0
  132.4747  138.7117  136.7311 C   0  0  0  0  0  0  0  0  0  0  0  0
  131.3472  137.9780  136.6318 C   0  0  0  0  0  0  0  0  0  0  0  0
  130.6540  138.4296  135.4893 C   0  0  2  0  0  0  0  0  0  0  0  0
  129.3979  139.0287  135.8387 O   0  0  0  0  0  0  0  0  0  0  0  0
  129.4835  139.9862  136.8089 C   0  0  2  0  0  0  0  0  0  0  0  0
  128.7832  139.5064  137.9107 O   0  0  0  0  0  0  0  0  0  0  0  0
  128.4065  140.4649  138.8402 C   0  0  0  0  0  0  0  0  0  0  0  0
  129.5346  141.2456  139.3721 C   0  0  0  0  0  0  0  0  0  0  0  0
  127.8560  139.6422  140.0246 C   0  0  0  0  0  0  0  0  0  0  0  0
  127.2679  141.2327  138.2303 C   0  0  2  0  0  0  0  0  0  0  0  0
  127.4293  141.3044  136.7543 C   0  0  1  0  0  0  0  0  0  0  0  0
  126.8372  142.3596  136.1131 O   0  0  0  0  0  0  0  0  0  0  0  0
  128.8667  141.2534  136.2686 C   0  0  1  0  0  0  0  0  0  0  0  0
  129.5900  142.3898  136.5153 O   0  0  0  0  0  0  0  0  0  0  0  0
  127.0488  142.5353  138.8055 N   0  0  0  0  0  0  0  0  0  0  0  0
  126.1265  142.5106  139.9201 C   0  0  0  0  0  0  0  0  0  0  0  0
  126.3670  143.3316  137.7696 C   0  0  0  0  0  0  0  0  0  0  0  0
  132.9173  137.9706  131.9928 C   0  0  0  0  0  0  0  0  0  0  0  0
  134.2756  138.4402  133.1155 Cl  0  0  0  0  0  0  0  0  0  0  0  0
  133.3148  138.3316  130.6705 C   0  0  0  0  0  0  0  0  0  0  0  0
  132.6351  137.4013  127.1478 N   0  0  0  0  0  4  0  0  0  0  0  0
  128.4713  146.8729  131.4491 C   0  0  0  0  0  0  0  0  0  0  0  0
  1  2  1  0
  2  3  2  0
  2  4  1  0
  4  5  2  0
  4  6  1  0
  6  7  1  0
  7  8  2  0
  8  9  1  0
  9 10  1  0
 10 11  1  0
  9 12  2  0
 12 13  1  0
 13 14  1  0
 14 15  2  0
 14 16  1  0
 17 16  1  1
 17 18  1  0
 18 19  1  0
 19 20  1  0
 20 21  2  0
 20 22  1  0
 22 23  1  0
 23 24  1  0
 24 25  2  0
 25 26  1  0
 26 27  1  0
 26 28  2  0
 28 29  1  0
 30 29  1  6
 30 31  1  0
 31 32  2  0
 32 33  1  0
 33 34  2  0
 34 35  1  0
 35 36  2  0
 32 37  1  0
 37 38  2  0
 38 39  1  0
 39 40  2  0
 40 41  1  0
 41 42  1  1
 43 42  1  6
 43 44  1  0
 44 45  1  0
 45 46  1  0
 45 47  1  0
 45 48  1  0
 48 49  1  0
 49 50  1  1
 49 51  1  0
 51 52  1  1
 48 53  1  1
 53 54  1  0
 53 55  1  0
 28 56  1  0
 56 57  1  0
 56 58  2  0
 23 59  1  6
 13 60  2  0
 60  1  1  0
 60  7  1  0
 34 17  1  0
 41 37  1  0
 51 43  1  0
 58 24  1  0
 41 30  1  0
 36 31  1  0
M  CHG  1  59   1
M  END
$$$$
