
     RDKit          3D

 60 67  0  0  0  0  0  0  0  0999 V2000
  129.7253  160.7960  154.1091 N   0  0  0  0  0  0  0  0  0  0  0  0
  129.7066  162.0361  153.3694 C   0  0  0  0  0  0  0  0  0  0  0  0
  130.0402  163.0831  153.9473 O   0  0  0  0  0  0  0  0  0  0  0  0
  129.2910  161.9609  151.9803 C   0  0  0  0  0  0  0  0  0  0  0  0
  129.2546  163.0653  151.2542 C   0  0  0  0  0  0  0  0  0  0  0  0
  128.9368  160.7444  151.4223 O   0  0  0  0  0  0  0  0  0  0  0  0
  128.9576  159.5564  152.1415 C   0  0  0  0  0  0  0  0  0  0  0  0
  128.5969  158.3666  151.5494 C   0  0  0  0  0  0  0  0  0  0  0  0
  128.6165  157.1924  152.2567 C   0  0  0  0  0  0  0  0  0  0  0  0
  128.2567  155.9885  151.6719 O   0  0  0  0  0  0  0  0  0  0  0  0
  127.4432  155.9484  150.5197 C   0  0  0  0  0  0  0  0  0  0  0  0
  129.0057  157.2581  153.5606 C   0  0  0  0  0  0  0  0  0  0  0  0
  129.3828  158.4159  154.2266 C   0  0  0  0  0  0  0  0  0  0  0  0
  129.7858  158.3357  155.6209 C   0  0  0  0  0  0  0  0  0  0  0  0
  129.0063  157.6392  156.3838 O   0  0  0  0  0  0  0  0  0  0  0  0
  130.8528  158.8795  156.2392 O   0  0  0  0  0  0  0  0  0  0  0  0
  130.8340  160.0045  157.0498 C   0  0  1  0  0  0  0  0  0  0  0  0
  130.4932  159.6663  158.5350 C   0  0  0  0  0  0  0  0  0  0  0  0
  130.9571  160.5843  159.4163 O   0  0  0  0  0  0  0  0  0  0  0  0
  130.5549  161.4339  160.3537 C   0  0  0  0  0  0  0  0  0  0  0  0
  130.1389  162.6385  160.1743 O   0  0  0  0  0  0  0  0  0  0  0  0
  130.5555  161.0284  161.7886 C   0  0  0  0  0  0  0  0  0  0  0  0
  131.7369  161.5700  162.5645 C   0  0  1  0  0  0  0  0  0  0  0  0
  132.9136  161.9240  161.6502 C   0  0  0  0  0  0  0  0  0  0  0  0
  133.0103  163.1361  161.0088 C   0  0  0  0  0  0  0  0  0  0  0  0
  134.0771  163.4396  160.1013 C   0  0  0  0  0  0  0  0  0  0  0  0
  133.8966  164.8006  159.6193 O   0  0  0  0  0  0  0  0  0  0  0  0
  135.0489  162.5371  159.8223 C   0  0  0  0  0  0  0  0  0  0  0  0
  136.0894  162.8091  158.9023 O   0  0  0  0  0  0  0  0  0  0  0  0
  135.8546  162.8342  157.4675 C   0  0  2  0  0  0  0  0  0  0  0  0
  134.4644  162.4179  157.2165 C   0  0  0  0  0  0  0  0  0  0  0  0
  134.5053  161.0337  157.1716 C   0  0  0  0  0  0  0  0  0  0  0  0
  133.3212  160.2565  157.0886 C   0  0  0  0  0  0  0  0  0  0  0  0
  132.0958  160.8670  157.0446 C   0  0  0  0  0  0  0  0  0  0  0  0
  132.0480  162.2464  157.0786 C   0  0  0  0  0  0  0  0  0  0  0  0
  133.2625  162.9817  157.1649 C   0  0  0  0  0  0  0  0  0  0  0  0
  135.9045  160.6176  157.1531 C   0  0  0  0  0  0  0  0  0  0  0  0
  136.8489  159.7491  157.3230 C   0  0  0  0  0  0  0  0  0  0  0  0
  138.1591  160.3513  157.0089 C   0  0  0  0  0  0  0  0  0  0  0  0
  137.9711  161.6286  156.6185 C   0  0  0  0  0  0  0  0  0  0  0  0
  136.5819  161.8728  156.6423 C   0  0  2  0  0  0  0  0  0  0  0  0
  136.0709  162.1329  155.3270 O   0  0  0  0  0  0  0  0  0  0  0  0
  137.0029  162.0349  154.3334 C   0  0  2  0  0  0  0  0  0  0  0  0
  138.0595  162.8665  154.6894 O   0  0  0  0  0  0  0  0  0  0  0  0
  138.9109  163.2236  153.6539 C   0  0  0  0  0  0  0  0  0  0  0  0
  139.5044  162.0727  152.9552 C   0  0  0  0  0  0  0  0  0  0  0  0
  140.0774  163.9465  154.3606 C   0  0  0  0  0  0  0  0  0  0  0  0
  138.1723  164.2286  152.8159 C   0  0  2  0  0  0  0  0  0  0  0  0
  136.7141  163.9404  152.8348 C   0  0  1  0  0  0  0  0  0  0  0  0
  135.9794  164.3730  151.7632 O   0  0  0  0  0  0  0  0  0  0  0  0
  136.3572  162.4798  153.0437 C   0  0  1  0  0  0  0  0  0  0  0  0
  136.6166  161.6726  151.9682 O   0  0  0  0  0  0  0  0  0  0  0  0
  138.6699  164.3671  151.4709 N   0  0  0  0  0  0  0  0  0  0  0  0
  139.8919  165.1387  151.3996 C   0  0  0  0  0  0  0  0  0  0  0  0
  137.6721  165.1734  150.7455 C   0  0  0  0  0  0  0  0  0  0  0  0
  134.9571  161.3407  160.4680 C   0  0  0  0  0  0  0  0  0  0  0  0
  136.1667  159.9766  160.5131 Cl  0  0  0  0  0  0  0  0  0  0  0  0
  133.9078  161.0085  161.3765 C   0  0  0  0  0  0  0  0  0  0  0  0
  131.2992  162.6596  163.4272 N   0  0  0  0  0  4  0  0  0  0  0  0
  129.3544  159.5933  153.4866 C   0  0  0  0  0  0  0  0  0  0  0  0
  1  2  1  0
  2  3  2  0
  2  4  1  0
  4  5  2  0
  4  6  1  0
  6  7  1  0
  7  8  2  0
  8  9  1  0
  9 10  1  0
 10 11  1  0
  9 12  2  0
 12 13  1  0
 13 14  1  0
 14 15  2  0
 14 16  1  0
 17 16  1  6
 17 18  1  0
 18 19  1  0
 19 20  1  0
 20 21  2  0
 20 22  1  0
 22 23  1  0
 23 24  1  0
 24 25  2  0
 25 26  1  0
 26 27  1  0
 26 28  2  0
 28 29  1  0
 30 29  1  1
 30 31  1  0
 31 32  2  0
 32 33  1  0
 33 34  2  0
 34 35  1  0
 35 36  2  0
 32 37  1  0
 37 38  2  0
 38 39  1  0
 39 40  2  0
 40 41  1  0
 41 42  1  6
 43 42  1  1
 43 44  1  0
 44 45  1  0
 45 46  1  0
 45 47  1  0
 45 48  1  0
 48 49  1  0
 49 50  1  6
 49 51  1  0
 51 52  1  6
 48 53  1  6
 53 54  1  0
 53 55  1  0
 28 56  1  0
 56 57  1  0
 56 58  2  0
 23 59  1  6
 13 60  2  0
 60  1  1  0
 60  7  1  0
 34 17  1  0
 41 37  1  0
 51 43  1  0
 58 24  1  0
 41 30  1  0
 36 31  1  0
M  CHG  1  59   1
M  END
$$$$
