
     RDKit          3D

 60 67  0  0  0  0  0  0  0  0999 V2000
  129.5160  137.1761  135.6250 N   0  0  0  0  0  0  0  0  0  0  0  0
  128.6434  137.9815  136.4468 C   0  0  0  0  0  0  0  0  0  0  0  0
  127.4547  138.1090  136.1118 O   0  0  0  0  0  0  0  0  0  0  0  0
  129.2353  138.5912  137.6239 C   0  0  0  0  0  0  0  0  0  0  0  0
  128.4836  139.3396  138.4134 C   0  0  0  0  0  0  0  0  0  0  0  0
  130.5736  138.3906  137.9162 O   0  0  0  0  0  0  0  0  0  0  0  0
  131.4056  137.6144  137.1199 C   0  0  0  0  0  0  0  0  0  0  0  0
  132.7322  137.4401  137.4451 C   0  0  0  0  0  0  0  0  0  0  0  0
  133.5560  136.6745  136.6610 C   0  0  0  0  0  0  0  0  0  0  0  0
  134.8926  136.4906  136.9782 O   0  0  0  0  0  0  0  0  0  0  0  0
  135.6233  137.4791  137.6710 C   0  0  0  0  0  0  0  0  0  0  0  0
  133.0049  136.1003  135.5553 C   0  0  0  0  0  0  0  0  0  0  0  0
  131.6802  136.2286  135.1619 C   0  0  0  0  0  0  0  0  0  0  0  0
  131.2257  135.5493  133.9599 C   0  0  0  0  0  0  0  0  0  0  0  0
  131.0395  134.2744  134.0807 O   0  0  0  0  0  0  0  0  0  0  0  0
  130.9683  136.0503  132.7355 O   0  0  0  0  0  0  0  0  0  0  0  0
  129.8745  136.8308  132.3922 C   0  0  1  0  0  0  0  0  0  0  0  0
  129.3967  137.7412  133.5666 C   0  0  0  0  0  0  0  0  0  0  0  0
  128.7207  138.8404  133.1550 O   0  0  0  0  0  0  0  0  0  0  0  0
  127.5461  139.4496  133.2623 C   0  0  0  0  0  0  0  0  0  0  0  0
  126.4943  139.2248  132.5556 O   0  0  0  0  0  0  0  0  0  0  0  0
  127.3419  140.5179  134.2823 C   0  0  0  0  0  0  0  0  0  0  0  0
  127.4085  141.9167  133.7075 C   0  0  1  0  0  0  0  0  0  0  0  0
  128.1881  141.9619  132.3899 C   0  0  0  0  0  0  0  0  0  0  0  0
  127.6026  141.6865  131.1769 C   0  0  0  0  0  0  0  0  0  0  0  0
  128.3489  141.6636  129.9538 C   0  0  0  0  0  0  0  0  0  0  0  0
  127.4332  141.3660  128.8628 O   0  0  0  0  0  0  0  0  0  0  0  0
  129.6818  141.9077  129.9318 C   0  0  0  0  0  0  0  0  0  0  0  0
  130.4389  141.8546  128.7372 O   0  0  0  0  0  0  0  0  0  0  0  0
  130.7719  140.5916  128.0981 C   0  0  2  0  0  0  0  0  0  0  0  0
  130.3078  139.4953  128.9651 C   0  0  0  0  0  0  0  0  0  0  0  0
  131.3364  139.2923  129.8710 C   0  0  0  0  0  0  0  0  0  0  0  0
  131.1979  138.4022  130.9672 C   0  0  0  0  0  0  0  0  0  0  0  0
  130.0300  137.7106  131.1522 C   0  0  0  0  0  0  0  0  0  0  0  0
  129.0044  137.9004  130.2475 C   0  0  0  0  0  0  0  0  0  0  0  0
  129.1903  138.8056  129.1663 C   0  0  0  0  0  0  0  0  0  0  0  0
  132.4930  140.0671  129.4314 C   0  0  0  0  0  0  0  0  0  0  0  0
  133.6303  140.6512  129.6322 C   0  0  0  0  0  0  0  0  0  0  0  0
  134.1075  141.2821  128.3864 C   0  0  0  0  0  0  0  0  0  0  0  0
  133.2155  141.0401  127.4040 C   0  0  0  0  0  0  0  0  0  0  0  0
  132.1859  140.2516  127.9593 C   0  0  2  0  0  0  0  0  0  0  0  0
  132.1415  138.9478  127.3620 O   0  0  0  0  0  0  0  0  0  0  0  0
  132.9651  138.7964  126.2831 C   0  0  2  0  0  0  0  0  0  0  0  0
  132.7658  139.9044  125.4662 O   0  0  0  0  0  0  0  0  0  0  0  0
  133.1889  139.7597  124.1529 C   0  0  0  0  0  0  0  0  0  0  0  0
  134.6104  139.4008  124.0277 C   0  0  0  0  0  0  0  0  0  0  0  0
  133.0482  141.1762  123.5558 C   0  0  0  0  0  0  0  0  0  0  0  0
  132.1924  138.8617  123.4757 C   0  0  2  0  0  0  0  0  0  0  0  0
  131.6448  137.8781  124.4464 C   0  0  1  0  0  0  0  0  0  0  0  0
  131.1718  136.6978  123.9379 O   0  0  0  0  0  0  0  0  0  0  0  0
  132.5841  137.5151  125.5823 C   0  0  1  0  0  0  0  0  0  0  0  0
  133.6440  136.7300  125.2137 O   0  0  0  0  0  0  0  0  0  0  0  0
  132.6815  138.2172  122.2836 N   0  0  0  0  0  0  0  0  0  0  0  0
  132.2986  138.9094  121.0720 C   0  0  0  0  0  0  0  0  0  0  0  0
  131.9924  136.9166  122.2085 C   0  0  0  0  0  0  0  0  0  0  0  0
  130.2576  142.1916  131.1338 C   0  0  0  0  0  0  0  0  0  0  0  0
  131.9534  142.7695  131.4746 Cl  0  0  0  0  0  0  0  0  0  0  0  0
  129.5421  142.2220  132.3682 C   0  0  0  0  0  0  0  0  0  0  0  0
  126.0666  142.4793  133.6297 N   0  0  0  0  0  4  0  0  0  0  0  0
  130.8658  137.0103  135.9745 C   0  0  0  0  0  0  0  0  0  0  0  0
  1  2  1  0
  2  3  2  0
  2  4  1  0
  4  5  2  0
  4  6  1  0
  6  7  1  0
  7  8  2  0
  8  9  1  0
  9 10  1  0
 10 11  1  0
  9 12  2  0
 12 13  1  0
 13 14  1  0
 14 15  2  0
 14 16  1  0
 17 16  1  1
 17 18  1  0
 18 19  1  0
 19 20  1  0
 20 21  2  0
 20 22  1  0
 22 23  1  0
 23 24  1  0
 24 25  2  0
 25 26  1  0
 26 27  1  0
 26 28  2  0
 28 29  1  0
 30 29  1  1
 30 31  1  0
 31 32  2  0
 32 33  1  0
 33 34  2  0
 34 35  1  0
 35 36  2  0
 32 37  1  0
 37 38  2  0
 38 39  1  0
 39 40  2  0
 40 41  1  0
 41 42  1  6
 43 42  1  1
 43 44  1  0
 44 45  1  0
 45 46  1  0
 45 47  1  0
 45 48  1  0
 48 49  1  0
 49 50  1  6
 49 51  1  0
 51 52  1  6
 48 53  1  6
 53 54  1  0
 53 55  1  0
 28 56  1  0
 56 57  1  0
 56 58  2  0
 23 59  1  6
 13 60  2  0
 60  1  1  0
 60  7  1  0
 34 17  1  0
 41 37  1  0
 51 43  1  0
 58 24  1  0
 41 30  1  0
 36 31  1  0
M  CHG  1  59   1
M  END
$$$$
