
     RDKit          3D

 60 67  0  0  0  0  0  0  0  0999 V2000
  190.3184  156.1186  125.2354 N   0  0  0  0  0  0  0  0  0  0  0  0
  189.7515  155.2604  126.2491 C   0  0  0  0  0  0  0  0  0  0  0  0
  189.4236  154.1037  125.9395 O   0  0  0  0  0  0  0  0  0  0  0  0
  189.6063  155.8279  127.5776 C   0  0  0  0  0  0  0  0  0  0  0  0
  189.0929  155.0880  128.5457 C   0  0  0  0  0  0  0  0  0  0  0  0
  190.0019  157.1310  127.8273 O   0  0  0  0  0  0  0  0  0  0  0  0
  190.5461  157.9493  126.8459 C   0  0  0  0  0  0  0  0  0  0  0  0
  190.9265  159.2408  127.1351 C   0  0  0  0  0  0  0  0  0  0  0  0
  191.4639  160.0510  126.1686 C   0  0  0  0  0  0  0  0  0  0  0  0
  191.8516  161.3520  126.4473 O   0  0  0  0  0  0  0  0  0  0  0  0
  192.5627  161.6679  127.6245 C   0  0  0  0  0  0  0  0  0  0  0  0
  191.6021  159.5227  124.9204 C   0  0  0  0  0  0  0  0  0  0  0  0
  191.2432  158.2337  124.5520 C   0  0  0  0  0  0  0  0  0  0  0  0
  191.4574  157.7995  123.1813 C   0  0  0  0  0  0  0  0  0  0  0  0
  192.6230  157.2937  122.9360 O   0  0  0  0  0  0  0  0  0  0  0  0
  190.6211  157.8450  122.1254 O   0  0  0  0  0  0  0  0  0  0  0  0
  190.8459  158.5320  120.9419 C   0  0  1  0  0  0  0  0  0  0  0  0
  189.7167  158.2974  119.8901 C   0  0  0  0  0  0  0  0  0  0  0  0
  189.6121  159.2959  118.9808 O   0  0  0  0  0  0  0  0  0  0  0  0
  189.6766  159.5370  117.6770 C   0  0  0  0  0  0  0  0  0  0  0  0
  190.7377  159.7784  116.9899 O   0  0  0  0  0  0  0  0  0  0  0  0
  188.4356  159.5482  116.8505 C   0  0  0  0  0  0  0  0  0  0  0  0
  187.9361  160.9423  116.5372 C   0  0  1  0  0  0  0  0  0  0  0  0
  188.4474  161.9776  117.5437 C   0  0  0  0  0  0  0  0  0  0  0  0
  189.6744  162.5847  117.4178 C   0  0  0  0  0  0  0  0  0  0  0  0
  190.1790  163.5022  118.3962 C   0  0  0  0  0  0  0  0  0  0  0  0
  191.4810  163.9766  117.9523 O   0  0  0  0  0  0  0  0  0  0  0  0
  189.4690  163.8151  119.5073 C   0  0  0  0  0  0  0  0  0  0  0  0
  189.9683  164.6923  120.4994 O   0  0  0  0  0  0  0  0  0  0  0  0
  191.0192  164.2878  121.4194 C   0  0  2  0  0  0  0  0  0  0  0  0
  191.3119  162.8622  121.1931 C   0  0  0  0  0  0  0  0  0  0  0  0
  190.3893  162.1777  121.9678 C   0  0  0  0  0  0  0  0  0  0  0  0
  190.2633  160.7660  121.9013 C   0  0  0  0  0  0  0  0  0  0  0  0
  191.0664  160.0395  121.0625 C   0  0  0  0  0  0  0  0  0  0  0  0
  191.9950  160.7142  120.2952 C   0  0  0  0  0  0  0  0  0  0  0  0
  192.0814  162.1303  120.3949 C   0  0  0  0  0  0  0  0  0  0  0  0
  189.7096  163.1413  122.8284 C   0  0  0  0  0  0  0  0  0  0  0  0
  188.7287  163.5172  123.5845 C   0  0  0  0  0  0  0  0  0  0  0  0
  188.9659  164.8844  124.0866 C   0  0  0  0  0  0  0  0  0  0  0  0
  190.1517  165.3233  123.6169 C   0  0  0  0  0  0  0  0  0  0  0  0
  190.7080  164.2806  122.8468 C   0  0  2  0  0  0  0  0  0  0  0  0
  191.9191  163.7822  123.4330 O   0  0  0  0  0  0  0  0  0  0  0  0
  192.3025  164.4352  124.5697 C   0  0  2  0  0  0  0  0  0  0  0  0
  191.1880  165.1277  125.0312 O   0  0  0  0  0  0  0  0  0  0  0  0
  191.4537  166.1568  125.9228 C   0  0  0  0  0  0  0  0  0  0  0  0
  192.1989  165.7253  127.1159 C   0  0  0  0  0  0  0  0  0  0  0  0
  190.0584  166.5909  126.4204 C   0  0  0  0  0  0  0  0  0  0  0  0
  192.0387  167.2833  125.1187 C   0  0  2  0  0  0  0  0  0  0  0  0
  192.8228  166.7454  123.9761 C   0  0  1  0  0  0  0  0  0  0  0  0
  193.8251  167.5362  123.4808 O   0  0  0  0  0  0  0  0  0  0  0  0
  193.4289  165.3735  124.2105 C   0  0  1  0  0  0  0  0  0  0  0  0
  194.4827  165.3603  125.0850 O   0  0  0  0  0  0  0  0  0  0  0  0
  192.8018  168.2334  125.8873 N   0  0  0  0  0  0  0  0  0  0  0  0
  194.0496  167.6885  126.3771 C   0  0  0  0  0  0  0  0  0  0  0  0
  192.0101  168.5108  127.0991 C   0  0  0  0  0  0  0  0  0  0  0  0
  188.2484  163.2207  119.6241 C   0  0  0  0  0  0  0  0  0  0  0  0
  186.9370  163.5464  120.8489 Cl  0  0  0  0  0  0  0  0  0  0  0  0
  187.7185  162.3034  118.6678 C   0  0  0  0  0  0  0  0  0  0  0  0
  188.2244  161.2656  115.1460 N   0  0  0  0  0  4  0  0  0  0  0  0
  190.7005  157.4323  125.5509 C   0  0  0  0  0  0  0  0  0  0  0  0
  1  2  1  0
  2  3  2  0
  2  4  1  0
  4  5  2  0
  4  6  1  0
  6  7  1  0
  7  8  2  0
  8  9  1  0
  9 10  1  0
 10 11  1  0
  9 12  2  0
 12 13  1  0
 13 14  1  0
 14 15  2  0
 14 16  1  0
 17 16  1  1
 17 18  1  0
 18 19  1  0
 19 20  1  0
 20 21  2  0
 20 22  1  0
 22 23  1  0
 23 24  1  0
 24 25  2  0
 25 26  1  0
 26 27  1  0
 26 28  2  0
 28 29  1  0
 30 29  1  6
 30 31  1  0
 31 32  2  0
 32 33  1  0
 33 34  2  0
 34 35  1  0
 35 36  2  0
 32 37  1  0
 37 38  2  0
 38 39  1  0
 39 40  2  0
 40 41  1  0
 41 42  1  1
 43 42  1  6
 43 44  1  0
 44 45  1  0
 45 46  1  0
 45 47  1  0
 45 48  1  0
 48 49  1  0
 49 50  1  1
 49 51  1  0
 51 52  1  1
 48 53  1  1
 53 54  1  0
 53 55  1  0
 28 56  1  0
 56 57  1  0
 56 58  2  0
 23 59  1  6
 13 60  2  0
 60  1  1  0
 60  7  1  0
 34 17  1  0
 41 37  1  0
 51 43  1  0
 58 24  1  0
 41 30  1  0
 36 31  1  0
M  CHG  1  59   1
M  END
$$$$
