
     RDKit          3D

 60 67  0  0  0  0  0  0  0  0999 V2000
  189.0643  157.6857  128.3652 N   0  0  0  0  0  0  0  0  0  0  0  0
  189.0965  158.9796  129.0057 C   0  0  0  0  0  0  0  0  0  0  0  0
  188.2213  159.2559  129.8418 O   0  0  0  0  0  0  0  0  0  0  0  0
  190.1710  159.8744  128.6146 C   0  0  0  0  0  0  0  0  0  0  0  0
  190.2502  161.0725  129.1683 C   0  0  0  0  0  0  0  0  0  0  0  0
  191.1029  159.4762  127.6713 O   0  0  0  0  0  0  0  0  0  0  0  0
  191.0639  158.2297  127.0602 C   0  0  0  0  0  0  0  0  0  0  0  0
  192.0099  157.8720  126.1257 C   0  0  0  0  0  0  0  0  0  0  0  0
  191.9741  156.6423  125.5207 C   0  0  0  0  0  0  0  0  0  0  0  0
  192.9209  156.2702  124.5795 O   0  0  0  0  0  0  0  0  0  0  0  0
  193.7958  155.1873  124.8097 C   0  0  0  0  0  0  0  0  0  0  0  0
  190.9676  155.7993  125.8845 C   0  0  0  0  0  0  0  0  0  0  0  0
  189.9797  156.0863  126.8161 C   0  0  0  0  0  0  0  0  0  0  0  0
  188.9699  155.0841  127.1143 C   0  0  0  0  0  0  0  0  0  0  0  0
  189.4224  153.8949  127.3508 O   0  0  0  0  0  0  0  0  0  0  0  0
  187.6297  155.2088  127.1819 O   0  0  0  0  0  0  0  0  0  0  0  0
  186.8893  155.3880  128.3408 C   0  0  1  0  0  0  0  0  0  0  0  0
  186.8256  154.0969  129.2157 C   0  0  0  0  0  0  0  0  0  0  0  0
  186.5883  154.3456  130.5258 O   0  0  0  0  0  0  0  0  0  0  0  0
  185.7265  154.0879  131.5021 C   0  0  0  0  0  0  0  0  0  0  0  0
  184.6404  154.7283  131.7599 O   0  0  0  0  0  0  0  0  0  0  0  0
  185.9693  152.9562  132.4422 C   0  0  0  0  0  0  0  0  0  0  0  0
  186.5260  153.3960  133.7793 C   0  0  1  0  0  0  0  0  0  0  0  0
  187.2175  154.7602  133.6953 C   0  0  0  0  0  0  0  0  0  0  0  0
  186.5268  155.9444  133.7975 C   0  0  0  0  0  0  0  0  0  0  0  0
  187.1656  157.2188  133.6512 C   0  0  0  0  0  0  0  0  0  0  0  0
  186.1647  158.2583  133.8381 O   0  0  0  0  0  0  0  0  0  0  0  0
  188.4927  157.3215  133.3961 C   0  0  0  0  0  0  0  0  0  0  0  0
  189.1314  158.5714  133.2146 O   0  0  0  0  0  0  0  0  0  0  0  0
  188.9505  159.3541  132.0026 C   0  0  2  0  0  0  0  0  0  0  0  0
  188.1473  158.5638  131.0543 C   0  0  0  0  0  0  0  0  0  0  0  0
  189.0614  157.7654  130.3858 C   0  0  0  0  0  0  0  0  0  0  0  0
  188.6450  156.7533  129.4828 C   0  0  0  0  0  0  0  0  0  0  0  0
  187.3121  156.5451  129.2452 C   0  0  0  0  0  0  0  0  0  0  0  0
  186.3960  157.3438  129.9002 C   0  0  0  0  0  0  0  0  0  0  0  0
  186.8624  158.3434  130.7982 C   0  0  0  0  0  0  0  0  0  0  0  0
  190.4050  158.2173  130.7348 C   0  0  0  0  0  0  0  0  0  0  0  0
  191.6842  158.0505  130.8383 C   0  0  0  0  0  0  0  0  0  0  0  0
  192.3137  159.2629  131.3967 C   0  0  0  0  0  0  0  0  0  0  0  0
  191.3593  160.1911  131.6134 C   0  0  0  0  0  0  0  0  0  0  0  0
  190.1329  159.6358  131.1920 C   0  0  2  0  0  0  0  0  0  0  0  0
  189.5880  160.3514  130.0741 O   0  0  0  0  0  0  0  0  0  0  0  0
  189.8508  161.6916  130.0836 C   0  0  2  0  0  0  0  0  0  0  0  0
  191.2345  161.8305  130.0607 O   0  0  0  0  0  0  0  0  0  0  0  0
  191.7156  163.0668  130.4664 C   0  0  0  0  0  0  0  0  0  0  0  0
  191.1715  164.1939  129.6927 C   0  0  0  0  0  0  0  0  0  0  0  0
  193.2230  163.0080  130.1393 C   0  0  0  0  0  0  0  0  0  0  0  0
  191.5593  163.1211  131.9599 C   0  0  2  0  0  0  0  0  0  0  0  0
  190.3622  162.3459  132.3794 C   0  0  1  0  0  0  0  0  0  0  0  0
  189.7690  162.7057  133.5600 O   0  0  0  0  0  0  0  0  0  0  0  0
  189.2558  162.2740  131.3426 C   0  0  1  0  0  0  0  0  0  0  0  0
  188.5715  163.4462  131.1604 O   0  0  0  0  0  0  0  0  0  0  0  0
  191.5521  164.4516  132.5126 N   0  0  0  0  0  0  0  0  0  0  0  0
  190.2212  164.9217  132.8309 C   0  0  0  0  0  0  0  0  0  0  0  0
  192.0204  165.3446  131.4378 C   0  0  0  0  0  0  0  0  0  0  0  0
  189.1771  156.1466  133.3065 C   0  0  0  0  0  0  0  0  0  0  0  0
  190.9779  155.8855  133.1852 Cl  0  0  0  0  0  0  0  0  0  0  0  0
  188.5700  154.8627  133.4472 C   0  0  0  0  0  0  0  0  0  0  0  0
  185.4848  153.3134  134.7953 N   0  0  0  0  0  4  0  0  0  0  0  0
  190.0387  157.3402  127.4152 C   0  0  0  0  0  0  0  0  0  0  0  0
  1  2  1  0
  2  3  2  0
  2  4  1  0
  4  5  2  0
  4  6  1  0
  6  7  1  0
  7  8  2  0
  8  9  1  0
  9 10  1  0
 10 11  1  0
  9 12  2  0
 12 13  1  0
 13 14  1  0
 14 15  2  0
 14 16  1  0
 17 16  1  6
 17 18  1  0
 18 19  1  0
 19 20  1  0
 20 21  2  0
 20 22  1  0
 22 23  1  0
 23 24  1  0
 24 25  2  0
 25 26  1  0
 26 27  1  0
 26 28  2  0
 28 29  1  0
 30 29  1  1
 30 31  1  0
 31 32  2  0
 32 33  1  0
 33 34  2  0
 34 35  1  0
 35 36  2  0
 32 37  1  0
 37 38  2  0
 38 39  1  0
 39 40  2  0
 40 41  1  0
 41 42  1  6
 43 42  1  1
 43 44  1  0
 44 45  1  0
 45 46  1  0
 45 47  1  0
 45 48  1  0
 48 49  1  0
 49 50  1  1
 49 51  1  0
 51 52  1  6
 48 53  1  6
 53 54  1  0
 53 55  1  0
 28 56  1  0
 56 57  1  0
 56 58  2  0
 23 59  1  1
 13 60  2  0
 60  1  1  0
 60  7  1  0
 34 17  1  0
 41 37  1  0
 51 43  1  0
 58 24  1  0
 41 30  1  0
 36 31  1  0
M  CHG  1  59   1
M  END
$$$$
