
     RDKit          3D

 60 67  0  0  0  0  0  0  0  0999 V2000
  126.7672  148.1012  132.5528 N   0  0  0  0  0  0  0  0  0  0  0  0
  125.4636  148.3633  131.9894 C   0  0  0  0  0  0  0  0  0  0  0  0
  125.0858  147.6912  131.0163 O   0  0  0  0  0  0  0  0  0  0  0  0
  124.6808  149.4128  132.6169 C   0  0  0  0  0  0  0  0  0  0  0  0
  123.4795  149.6964  132.1429 C   0  0  0  0  0  0  0  0  0  0  0  0
  125.1880  150.1091  133.7007 O   0  0  0  0  0  0  0  0  0  0  0  0
  126.4431  149.8503  134.2360 C   0  0  0  0  0  0  0  0  0  0  0  0
  126.9115  150.5664  135.3149 C   0  0  0  0  0  0  0  0  0  0  0  0
  128.1500  150.3132  135.8455 C   0  0  0  0  0  0  0  0  0  0  0  0
  128.6322  151.0262  136.9317 O   0  0  0  0  0  0  0  0  0  0  0  0
  127.9653  152.1748  137.4080 C   0  0  0  0  0  0  0  0  0  0  0  0
  128.8882  149.3293  135.2599 C   0  0  0  0  0  0  0  0  0  0  0  0
  128.4864  148.5657  134.1729 C   0  0  0  0  0  0  0  0  0  0  0  0
  129.3766  147.5392  133.6562 C   0  0  0  0  0  0  0  0  0  0  0  0
  130.4208  147.9759  133.0288 O   0  0  0  0  0  0  0  0  0  0  0  0
  129.2767  146.1974  133.7336 O   0  0  0  0  0  0  0  0  0  0  0  0
  129.4364  145.4373  134.8826 C   0  0  1  0  0  0  0  0  0  0  0  0
  128.2498  145.6075  135.8823 C   0  0  0  0  0  0  0  0  0  0  0  0
  128.0964  144.5542  136.7200 O   0  0  0  0  0  0  0  0  0  0  0  0
  128.0885  144.2318  138.0078 C   0  0  0  0  0  0  0  0  0  0  0  0
  129.1100  143.9460  138.7366 O   0  0  0  0  0  0  0  0  0  0  0  0
  126.8033  144.1710  138.7614 C   0  0  0  0  0  0  0  0  0  0  0  0
  126.2896  142.7609  138.9584 C   0  0  1  0  0  0  0  0  0  0  0  0
  126.8582  141.7898  137.9192 C   0  0  0  0  0  0  0  0  0  0  0  0
  128.0773  141.1738  138.0752 C   0  0  0  0  0  0  0  0  0  0  0  0
  128.6373  140.3185  137.0709 C   0  0  0  0  0  0  0  0  0  0  0  0
  129.9134  139.8151  137.5562 O   0  0  0  0  0  0  0  0  0  0  0  0
  127.9910  140.0770  135.9045 C   0  0  0  0  0  0  0  0  0  0  0  0
  128.5465  139.2628  134.8888 O   0  0  0  0  0  0  0  0  0  0  0  0
  129.6464  139.7224  134.0561 C   0  0  2  0  0  0  0  0  0  0  0  0
  129.9234  141.1304  134.3871 C   0  0  0  0  0  0  0  0  0  0  0  0
  129.0443  141.8637  133.6066 C   0  0  0  0  0  0  0  0  0  0  0  0
  128.9123  143.2687  133.7541 C   0  0  0  0  0  0  0  0  0  0  0  0
  129.6660  143.9399  134.6802 C   0  0  0  0  0  0  0  0  0  0  0  0
  130.5515  143.2169  135.4545 C   0  0  0  0  0  0  0  0  0  0  0  0
  130.6459  141.8096  135.2713 C   0  0  0  0  0  0  0  0  0  0  0  0
  128.4154  140.9570  132.6507 C   0  0  0  0  0  0  0  0  0  0  0  0
  127.4789  140.6309  131.8190 C   0  0  0  0  0  0  0  0  0  0  0  0
  127.7462  139.2973  131.2463 C   0  0  0  0  0  0  0  0  0  0  0  0
  128.9047  138.8279  131.7531 C   0  0  0  0  0  0  0  0  0  0  0  0
  129.4153  139.8194  132.6168 C   0  0  2  0  0  0  0  0  0  0  0  0
  130.6564  140.3515  132.1314 O   0  0  0  0  0  0  0  0  0  0  0  0
  131.5410  139.4056  131.6977 C   0  0  2  0  0  0  0  0  0  0  0  0
  132.7609  140.0487  131.5162 O   0  0  0  0  0  0  0  0  0  0  0  0
  133.6723  139.3805  130.7115 C   0  0  0  0  0  0  0  0  0  0  0  0
  133.9844  138.0204  131.1783 C   0  0  0  0  0  0  0  0  0  0  0  0
  134.9738  140.1966  130.8621 C   0  0  0  0  0  0  0  0  0  0  0  0
  133.1860  139.5258  129.2971 C   0  0  2  0  0  0  0  0  0  0  0  0
  131.7006  139.5769  129.2676 C   0  0  1  0  0  0  0  0  0  0  0  0
  131.0862  139.1752  128.1115 O   0  0  0  0  0  0  0  0  0  0  0  0
  131.0162  138.8361  130.4021 C   0  0  1  0  0  0  0  0  0  0  0  0
  131.0827  137.4713  130.3109 O   0  0  0  0  0  0  0  0  0  0  0  0
  133.7028  138.5396  128.3827 N   0  0  0  0  0  0  0  0  0  0  0  0
  134.9470  137.9529  128.8318 C   0  0  0  0  0  0  0  0  0  0  0  0
  134.0525  139.2672  127.1497 C   0  0  0  0  0  0  0  0  0  0  0  0
  126.7777  140.6796  135.7572 C   0  0  0  0  0  0  0  0  0  0  0  0
  125.5374  140.4336  134.4431 Cl  0  0  0  0  0  0  0  0  0  0  0  0
  126.1936  141.5362  136.7379 C   0  0  0  0  0  0  0  0  0  0  0  0
  126.5004  142.3507  140.3406 N   0  0  0  0  0  4  0  0  0  0  0  0
  127.2260  148.8423  133.6536 C   0  0  0  0  0  0  0  0  0  0  0  0
  1  2  1  0
  2  3  2  0
  2  4  1  0
  4  5  2  0
  4  6  1  0
  6  7  1  0
  7  8  2  0
  8  9  1  0
  9 10  1  0
 10 11  1  0
  9 12  2  0
 12 13  1  0
 13 14  1  0
 14 15  2  0
 14 16  1  0
 17 16  1  6
 17 18  1  0
 18 19  1  0
 19 20  1  0
 20 21  2  0
 20 22  1  0
 22 23  1  0
 23 24  1  0
 24 25  2  0
 25 26  1  0
 26 27  1  0
 26 28  2  0
 28 29  1  0
 30 29  1  1
 30 31  1  0
 31 32  2  0
 32 33  1  0
 33 34  2  0
 34 35  1  0
 35 36  2  0
 32 37  1  0
 37 38  2  0
 38 39  1  0
 39 40  2  0
 40 41  1  0
 41 42  1  6
 43 42  1  6
 43 44  1  0
 44 45  1  0
 45 46  1  0
 45 47  1  0
 45 48  1  0
 48 49  1  0
 49 50  1  6
 49 51  1  0
 51 52  1  1
 48 53  1  6
 53 54  1  0
 53 55  1  0
 28 56  1  0
 56 57  1  0
 56 58  2  0
 23 59  1  1
 13 60  2  0
 60  1  1  0
 60  7  1  0
 34 17  1  0
 41 37  1  0
 51 43  1  0
 58 24  1  0
 41 30  1  0
 36 31  1  0
M  CHG  1  59   1
M  END
$$$$
