
     RDKit          3D

 60 67  0  0  0  0  0  0  0  0999 V2000
  125.4424  138.0479  130.2897 N   0  0  0  0  0  0  0  0  0  0  0  0
  124.6698  139.2453  130.0552 C   0  0  0  0  0  0  0  0  0  0  0  0
  124.4529  140.0137  131.0060 O   0  0  0  0  0  0  0  0  0  0  0  0
  124.1975  139.4618  128.6995 C   0  0  0  0  0  0  0  0  0  0  0  0
  123.4850  140.5416  128.4263 C   0  0  0  0  0  0  0  0  0  0  0  0
  124.4909  138.5463  127.7032 O   0  0  0  0  0  0  0  0  0  0  0  0
  125.2347  137.3971  127.9380 C   0  0  0  0  0  0  0  0  0  0  0  0
  125.5042  136.5107  126.9193 C   0  0  0  0  0  0  0  0  0  0  0  0
  126.2381  135.3754  127.1478 C   0  0  0  0  0  0  0  0  0  0  0  0
  126.5169  134.4762  126.1308 O   0  0  0  0  0  0  0  0  0  0  0  0
  125.5990  134.2473  125.0838 C   0  0  0  0  0  0  0  0  0  0  0  0
  126.6833  135.1680  128.4185 C   0  0  0  0  0  0  0  0  0  0  0  0
  126.4536  136.0125  129.4957 C   0  0  0  0  0  0  0  0  0  0  0  0
  126.9998  135.6693  130.7983 C   0  0  0  0  0  0  0  0  0  0  0  0
  126.5881  134.5467  131.2934 O   0  0  0  0  0  0  0  0  0  0  0  0
  127.8733  136.3471  131.5690 O   0  0  0  0  0  0  0  0  0  0  0  0
  129.2159  136.5500  131.2869 C   0  0  1  0  0  0  0  0  0  0  0  0
  129.5364  136.4053  129.7662 C   0  0  0  0  0  0  0  0  0  0  0  0
  130.6498  137.0755  129.3845 O   0  0  0  0  0  0  0  0  0  0  0  0
  131.8456  136.8951  128.8371 C   0  0  0  0  0  0  0  0  0  0  0  0
  132.9304  136.5666  129.4468 O   0  0  0  0  0  0  0  0  0  0  0  0
  132.0369  137.0731  127.3690 C   0  0  0  0  0  0  0  0  0  0  0  0
  132.6651  138.4006  127.0025 C   0  0  1  0  0  0  0  0  0  0  0  0
  132.4633  139.4550  128.0951 C   0  0  0  0  0  0  0  0  0  0  0  0
  133.3019  139.5631  129.1792 C   0  0  0  0  0  0  0  0  0  0  0  0
  133.0724  140.5057  130.2340 C   0  0  0  0  0  0  0  0  0  0  0  0
  134.1478  140.3780  131.2058 O   0  0  0  0  0  0  0  0  0  0  0  0
  132.0048  141.3403  130.2191 C   0  0  0  0  0  0  0  0  0  0  0  0
  131.7455  142.2523  131.2699 O   0  0  0  0  0  0  0  0  0  0  0  0
  131.2414  141.8097  132.5600 C   0  0  2  0  0  0  0  0  0  0  0  0
  130.9618  140.3659  132.4794 C   0  0  0  0  0  0  0  0  0  0  0  0
  129.6793  140.2757  131.9628 C   0  0  0  0  0  0  0  0  0  0  0  0
  129.1077  139.0277  131.6039 C   0  0  0  0  0  0  0  0  0  0  0  0
  129.8195  137.8690  131.7684 C   0  0  0  0  0  0  0  0  0  0  0  0
  131.0944  137.9505  132.2921 C   0  0  0  0  0  0  0  0  0  0  0  0
  131.6248  139.2251  132.6341 C   0  0  0  0  0  0  0  0  0  0  0  0
  129.0952  141.6136  131.9515 C   0  0  0  0  0  0  0  0  0  0  0  0
  128.2377  142.4912  131.5398 C   0  0  0  0  0  0  0  0  0  0  0  0
  128.4771  143.7886  132.2012 C   0  0  0  0  0  0  0  0  0  0  0  0
  129.5132  143.6596  133.0551 C   0  0  0  0  0  0  0  0  0  0  0  0
  129.9416  142.3170  132.9928 C   0  0  2  0  0  0  0  0  0  0  0  0
  129.7371  141.6411  134.2419 O   0  0  0  0  0  0  0  0  0  0  0  0
  128.9355  142.3140  135.1194 C   0  0  2  0  0  0  0  0  0  0  0  0
  128.4050  143.3988  134.4292 O   0  0  0  0  0  0  0  0  0  0  0  0
  127.8993  144.4190  135.2217 C   0  0  0  0  0  0  0  0  0  0  0  0
  126.8580  143.9744  136.1614 C   0  0  0  0  0  0  0  0  0  0  0  0
  127.2000  145.3610  134.2185 C   0  0  0  0  0  0  0  0  0  0  0  0
  129.0826  145.1419  135.8006 C   0  0  2  0  0  0  0  0  0  0  0  0
  130.2076  144.1946  136.0168 C   0  0  1  0  0  0  0  0  0  0  0  0
  131.1197  144.5208  136.9848 O   0  0  0  0  0  0  0  0  0  0  0  0
  129.7886  142.7598  136.2820 C   0  0  1  0  0  0  0  0  0  0  0  0
  129.2281  142.5504  137.5138 O   0  0  0  0  0  0  0  0  0  0  0  0
  128.7946  145.9059  136.9877 N   0  0  0  0  0  0  0  0  0  0  0  0
  127.7305  146.8671  136.7941 C   0  0  0  0  0  0  0  0  0  0  0  0
  129.9943  146.7199  137.2525 C   0  0  0  0  0  0  0  0  0  0  0  0
  131.1815  141.2390  129.1380 C   0  0  0  0  0  0  0  0  0  0  0  0
  129.7869  142.3148  128.6653 Cl  0  0  0  0  0  0  0  0  0  0  0  0
  131.3828  140.3113  128.0724 C   0  0  0  0  0  0  0  0  0  0  0  0
  134.0551  138.1956  126.6167 N   0  0  0  0  0  4  0  0  0  0  0  0
  125.7067  137.1571  129.2371 C   0  0  0  0  0  0  0  0  0  0  0  0
  1  2  1  0
  2  3  2  0
  2  4  1  0
  4  5  2  0
  4  6  1  0
  6  7  1  0
  7  8  2  0
  8  9  1  0
  9 10  1  0
 10 11  1  0
  9 12  2  0
 12 13  1  0
 13 14  1  0
 14 15  2  0
 14 16  1  0
 17 16  1  6
 17 18  1  0
 18 19  1  0
 19 20  1  0
 20 21  2  0
 20 22  1  0
 22 23  1  0
 23 24  1  0
 24 25  2  0
 25 26  1  0
 26 27  1  0
 26 28  2  0
 28 29  1  0
 30 29  1  6
 30 31  1  0
 31 32  2  0
 32 33  1  0
 33 34  2  0
 34 35  1  0
 35 36  2  0
 32 37  1  0
 37 38  2  0
 38 39  1  0
 39 40  2  0
 40 41  1  0
 41 42  1  1
 43 42  1  6
 43 44  1  0
 44 45  1  0
 45 46  1  0
 45 47  1  0
 45 48  1  0
 48 49  1  0
 49 50  1  1
 49 51  1  0
 51 52  1  1
 48 53  1  1
 53 54  1  0
 53 55  1  0
 28 56  1  0
 56 57  1  0
 56 58  2  0
 23 59  1  1
 13 60  2  0
 60  1  1  0
 60  7  1  0
 34 17  1  0
 41 37  1  0
 51 43  1  0
 58 24  1  0
 41 30  1  0
 36 31  1  0
M  CHG  1  59   1
M  END
$$$$
