
     RDKit          3D

 60 67  0  0  0  0  0  0  0  0999 V2000
  184.2990  159.4545  143.2238 N   0  0  0  0  0  0  0  0  0  0  0  0
  184.7436  160.6296  143.9358 C   0  0  0  0  0  0  0  0  0  0  0  0
  185.8594  161.1046  143.6696 O   0  0  0  0  0  0  0  0  0  0  0  0
  183.8335  161.1751  144.9268 C   0  0  0  0  0  0  0  0  0  0  0  0
  184.1880  162.2505  145.6096 C   0  0  0  0  0  0  0  0  0  0  0  0
  182.6069  160.5746  145.1539 O   0  0  0  0  0  0  0  0  0  0  0  0
  182.1876  159.4444  144.4644 C   0  0  0  0  0  0  0  0  0  0  0  0
  180.9595  158.8766  144.7206 C   0  0  0  0  0  0  0  0  0  0  0  0
  180.5428  157.7609  144.0416 C   0  0  0  0  0  0  0  0  0  0  0  0
  179.3087  157.1808  144.2896 O   0  0  0  0  0  0  0  0  0  0  0  0
  178.4026  156.9115  143.2419 C   0  0  0  0  0  0  0  0  0  0  0  0
  181.3935  157.2454  143.1107 C   0  0  0  0  0  0  0  0  0  0  0  0
  182.6438  157.7593  142.7966 C   0  0  0  0  0  0  0  0  0  0  0  0
  183.4430  157.1098  141.7706 C   0  0  0  0  0  0  0  0  0  0  0  0
  183.7331  155.8691  141.9969 O   0  0  0  0  0  0  0  0  0  0  0  0
  183.9276  157.6080  140.6160 O   0  0  0  0  0  0  0  0  0  0  0  0
  183.3131  157.5246  139.3755 C   0  0  1  0  0  0  0  0  0  0  0  0
  181.8398  158.0397  139.4018 C   0  0  0  0  0  0  0  0  0  0  0  0
  181.3941  158.4577  138.1930 O   0  0  0  0  0  0  0  0  0  0  0  0
  180.4538  158.2254  137.2852 C   0  0  0  0  0  0  0  0  0  0  0  0
  180.4916  157.3488  136.3437 O   0  0  0  0  0  0  0  0  0  0  0  0
  179.1922  159.0203  137.2868 C   0  0  0  0  0  0  0  0  0  0  0  0
  179.1721  160.1160  136.2427 C   0  0  1  0  0  0  0  0  0  0  0  0
  180.5831  160.5261  135.8104 C   0  0  0  0  0  0  0  0  0  0  0  0
  181.2785  159.8558  134.8321 C   0  0  0  0  0  0  0  0  0  0  0  0
  182.6236  160.1992  134.4766 C   0  0  0  0  0  0  0  0  0  0  0  0
  183.0532  159.3187  133.4008 O   0  0  0  0  0  0  0  0  0  0  0  0
  183.2856  161.2063  135.0965 C   0  0  0  0  0  0  0  0  0  0  0  0
  184.6256  161.5348  134.7809 O   0  0  0  0  0  0  0  0  0  0  0  0
  185.7375  160.6956  135.1977 C   0  0  2  0  0  0  0  0  0  0  0  0
  185.2114  159.6170  136.0515 C   0  0  0  0  0  0  0  0  0  0  0  0
  185.1604  160.1586  137.3258 C   0  0  0  0  0  0  0  0  0  0  0  0
  184.5665  159.4596  138.4082 C   0  0  0  0  0  0  0  0  0  0  0  0
  184.0289  158.2146  138.2148 C   0  0  0  0  0  0  0  0  0  0  0  0
  184.0853  157.6646  136.9497 C   0  0  0  0  0  0  0  0  0  0  0  0
  184.6885  158.4056  135.8962 C   0  0  0  0  0  0  0  0  0  0  0  0
  185.8557  161.4422  137.3057 C   0  0  0  0  0  0  0  0  0  0  0  0
  186.1218  162.6141  137.7861 C   0  0  0  0  0  0  0  0  0  0  0  0
  187.1062  163.3051  136.9309 C   0  0  0  0  0  0  0  0  0  0  0  0
  187.4468  162.4912  135.9106 C   0  0  0  0  0  0  0  0  0  0  0  0
  186.7384  161.2838  136.0847 C   0  0  2  0  0  0  0  0  0  0  0  0
  187.6260  160.1845  136.3347 O   0  0  0  0  0  0  0  0  0  0  0  0
  188.9106  160.3953  135.9216 C   0  0  2  0  0  0  0  0  0  0  0  0
  189.4240  161.4195  136.7102 O   0  0  0  0  0  0  0  0  0  0  0  0
  190.5478  162.0553  136.2029 C   0  0  0  0  0  0  0  0  0  0  0  0
  191.6677  161.1417  135.9268 C   0  0  0  0  0  0  0  0  0  0  0  0
  191.0130  162.9704  137.3558 C   0  0  0  0  0  0  0  0  0  0  0  0
  190.0770  162.9251  135.0716 C   0  0  2  0  0  0  0  0  0  0  0  0
  188.9111  162.2996  134.3939 C   0  0  1  0  0  0  0  0  0  0  0  0
  188.6974  162.6362  133.0838 O   0  0  0  0  0  0  0  0  0  0  0  0
  188.8732  160.7836  134.4635 C   0  0  1  0  0  0  0  0  0  0  0  0
  189.8065  160.1559  133.6822 O   0  0  0  0  0  0  0  0  0  0  0  0
  191.1051  163.2920  134.1314 N   0  0  0  0  0  0  0  0  0  0  0  0
  190.6981  164.3557  133.2389 C   0  0  0  0  0  0  0  0  0  0  0  0
  191.2991  162.1208  133.2581 C   0  0  0  0  0  0  0  0  0  0  0  0
  182.5903  161.8764  136.0578 C   0  0  0  0  0  0  0  0  0  0  0  0
  183.0589  163.3967  136.9494 Cl  0  0  0  0  0  0  0  0  0  0  0  0
  181.2509  161.5586  136.4344 C   0  0  0  0  0  0  0  0  0  0  0  0
  178.2967  159.7301  135.1436 N   0  0  0  0  0  4  0  0  0  0  0  0
  183.0427  158.8913  143.4995 C   0  0  0  0  0  0  0  0  0  0  0  0
  1  2  1  0
  2  3  2  0
  2  4  1  0
  4  5  2  0
  4  6  1  0
  6  7  1  0
  7  8  2  0
  8  9  1  0
  9 10  1  0
 10 11  1  0
  9 12  2  0
 12 13  1  0
 13 14  1  0
 14 15  2  0
 14 16  1  0
 17 16  1  1
 17 18  1  0
 18 19  1  0
 19 20  1  0
 20 21  2  0
 20 22  1  0
 22 23  1  0
 23 24  1  0
 24 25  2  0
 25 26  1  0
 26 27  1  0
 26 28  2  0
 28 29  1  0
 30 29  1  1
 30 31  1  0
 31 32  2  0
 32 33  1  0
 33 34  2  0
 34 35  1  0
 35 36  2  0
 32 37  1  0
 37 38  2  0
 38 39  1  0
 39 40  2  0
 40 41  1  0
 41 42  1  1
 43 42  1  1
 43 44  1  0
 44 45  1  0
 45 46  1  0
 45 47  1  0
 45 48  1  0
 48 49  1  0
 49 50  1  6
 49 51  1  0
 51 52  1  6
 48 53  1  6
 53 54  1  0
 53 55  1  0
 28 56  1  0
 56 57  1  0
 56 58  2  0
 23 59  1  6
 13 60  2  0
 60  1  1  0
 60  7  1  0
 34 17  1  0
 41 37  1  0
 51 43  1  0
 58 24  1  0
 41 30  1  0
 36 31  1  0
M  CHG  1  59   1
M  END
$$$$
