
     RDKit          3D

 60 67  0  0  0  0  0  0  0  0999 V2000
  205.7161  130.8596  129.0354 N   0  0  0  0  0  0  0  0  0  0  0  0
  205.6182  132.0070  128.1639 C   0  0  0  0  0  0  0  0  0  0  0  0
  204.6100  132.7280  128.2343 O   0  0  0  0  0  0  0  0  0  0  0  0
  206.7281  132.2326  127.2555 C   0  0  0  0  0  0  0  0  0  0  0  0
  206.6928  133.2682  126.4342 C   0  0  0  0  0  0  0  0  0  0  0  0
  207.8122  131.3716  127.2501 O   0  0  0  0  0  0  0  0  0  0  0  0
  207.8978  130.2702  128.0919 C   0  0  0  0  0  0  0  0  0  0  0  0
  208.9937  129.4373  128.0549 C   0  0  0  0  0  0  0  0  0  0  0  0
  209.0810  128.3493  128.8845 C   0  0  0  0  0  0  0  0  0  0  0  0
  210.1790  127.5041  128.8576 O   0  0  0  0  0  0  0  0  0  0  0  0
  210.8965  127.2738  127.6646 C   0  0  0  0  0  0  0  0  0  0  0  0
  208.0418  128.1335  129.7387 C   0  0  0  0  0  0  0  0  0  0  0  0
  206.9063  128.9256  129.8349 C   0  0  0  0  0  0  0  0  0  0  0  0
  205.8776  128.5804  130.8022 C   0  0  0  0  0  0  0  0  0  0  0  0
  205.1432  127.5614  130.4903 O   0  0  0  0  0  0  0  0  0  0  0  0
  205.5740  129.1643  131.9783 O   0  0  0  0  0  0  0  0  0  0  0  0
  206.4590  129.3974  133.0203 C   0  0  1  0  0  0  0  0  0  0  0  0
  207.9429  129.4660  132.5410 C   0  0  0  0  0  0  0  0  0  0  0  0
  208.7440  130.1770  133.3700 O   0  0  0  0  0  0  0  0  0  0  0  0
  209.8300  130.0687  134.1258 C   0  0  0  0  0  0  0  0  0  0  0  0
  209.8836  129.6517  135.3421 O   0  0  0  0  0  0  0  0  0  0  0  0
  211.1660  130.4501  133.5843 C   0  0  0  0  0  0  0  0  0  0  0  0
  211.6347  131.8124  134.0485 C   0  0  1  0  0  0  0  0  0  0  0  0
  210.4695  132.7039  134.4884 C   0  0  0  0  0  0  0  0  0  0  0  0
  209.9409  132.6541  135.7565 C   0  0  0  0  0  0  0  0  0  0  0  0
  208.8078  133.4404  136.1455 C   0  0  0  0  0  0  0  0  0  0  0  0
  208.5215  133.1715  137.5465 O   0  0  0  0  0  0  0  0  0  0  0  0
  208.1909  134.2747  135.2737 C   0  0  0  0  0  0  0  0  0  0  0  0
  207.0500  135.0315  135.6325 O   0  0  0  0  0  0  0  0  0  0  0  0
  205.7433  134.4148  135.7954 C   0  0  2  0  0  0  0  0  0  0  0  0
  205.8458  132.9983  135.4055 C   0  0  0  0  0  0  0  0  0  0  0  0
  205.6638  132.9886  134.0320 C   0  0  0  0  0  0  0  0  0  0  0  0
  205.8374  131.8065  133.2666 C   0  0  0  0  0  0  0  0  0  0  0  0
  206.1876  130.6323  133.8789 C   0  0  0  0  0  0  0  0  0  0  0  0
  206.3606  130.6324  135.2487 C   0  0  0  0  0  0  0  0  0  0  0  0
  206.1780  131.8433  135.9720 C   0  0  0  0  0  0  0  0  0  0  0  0
  205.2240  134.3180  133.6192 C   0  0  0  0  0  0  0  0  0  0  0  0
  205.0475  135.2495  132.7381 C   0  0  0  0  0  0  0  0  0  0  0  0
  204.4432  136.4397  133.3674 C   0  0  0  0  0  0  0  0  0  0  0  0
  204.2389  136.1863  134.6764 C   0  0  0  0  0  0  0  0  0  0  0  0
  204.6652  134.8635  134.9175 C   0  0  2  0  0  0  0  0  0  0  0  0
  203.5703  134.0200  135.3029 O   0  0  0  0  0  0  0  0  0  0  0  0
  202.4631  134.6970  135.7285 C   0  0  2  0  0  0  0  0  0  0  0  0
  201.3692  133.8734  135.4842 O   0  0  0  0  0  0  0  0  0  0  0  0
  200.1370  134.5105  135.4646 C   0  0  0  0  0  0  0  0  0  0  0  0
  199.8347  135.2475  136.7018 C   0  0  0  0  0  0  0  0  0  0  0  0
  199.1181  133.3531  135.3932 C   0  0  0  0  0  0  0  0  0  0  0  0
  200.0693  135.2782  134.1747 C   0  0  2  0  0  0  0  0  0  0  0  0
  201.4248  135.7471  133.7844 C   0  0  1  0  0  0  0  0  0  0  0  0
  201.4944  136.8596  132.9890 O   0  0  0  0  0  0  0  0  0  0  0  0
  202.3743  135.9839  134.9449 C   0  0  1  0  0  0  0  0  0  0  0  0
  202.0857  137.0910  135.6977 O   0  0  0  0  0  0  0  0  0  0  0  0
  199.1117  136.3547  134.1690 N   0  0  0  0  0  0  0  0  0  0  0  0
  198.2929  136.3734  132.9762 C   0  0  0  0  0  0  0  0  0  0  0  0
  199.8962  137.6009  134.1072 C   0  0  0  0  0  0  0  0  0  0  0  0
  208.7237  134.3308  134.0208 C   0  0  0  0  0  0  0  0  0  0  0  0
  208.3093  135.4701  132.6584 Cl  0  0  0  0  0  0  0  0  0  0  0  0
  209.8504  133.5609  133.6031 C   0  0  0  0  0  0  0  0  0  0  0  0
  212.6811  131.6559  135.0503 N   0  0  0  0  0  4  0  0  0  0  0  0
  206.8424  130.0229  128.9825 C   0  0  0  0  0  0  0  0  0  0  0  0
  1  2  1  0
  2  3  2  0
  2  4  1  0
  4  5  2  0
  4  6  1  0
  6  7  1  0
  7  8  2  0
  8  9  1  0
  9 10  1  0
 10 11  1  0
  9 12  2  0
 12 13  1  0
 13 14  1  0
 14 15  2  0
 14 16  1  0
 17 16  1  6
 17 18  1  0
 18 19  1  0
 19 20  1  0
 20 21  2  0
 20 22  1  0
 22 23  1  0
 23 24  1  0
 24 25  2  0
 25 26  1  0
 26 27  1  0
 26 28  2  0
 28 29  1  0
 30 29  1  6
 30 31  1  0
 31 32  2  0
 32 33  1  0
 33 34  2  0
 34 35  1  0
 35 36  2  0
 32 37  1  0
 37 38  2  0
 38 39  1  0
 39 40  2  0
 40 41  1  0
 41 42  1  1
 43 42  1  6
 43 44  1  0
 44 45  1  0
 45 46  1  0
 45 47  1  0
 45 48  1  0
 48 49  1  0
 49 50  1  1
 49 51  1  0
 51 52  1  1
 48 53  1  1
 53 54  1  0
 53 55  1  0
 28 56  1  0
 56 57  1  0
 56 58  2  0
 23 59  1  1
 13 60  2  0
 60  1  1  0
 60  7  1  0
 34 17  1  0
 41 37  1  0
 51 43  1  0
 58 24  1  0
 41 30  1  0
 36 31  1  0
M  CHG  1  59   1
M  END
$$$$
