
     RDKit          3D

 60 67  0  0  0  0  0  0  0  0999 V2000
  114.3204  164.8649  140.5195 N   0  0  0  0  0  0  0  0  0  0  0  0
  113.0588  165.3056  139.9722 C   0  0  0  0  0  0  0  0  0  0  0  0
  112.8849  165.2452  138.7444 O   0  0  0  0  0  0  0  0  0  0  0  0
  112.0725  165.7946  140.9188 C   0  0  0  0  0  0  0  0  0  0  0  0
  110.8990  166.2115  140.4745 C   0  0  0  0  0  0  0  0  0  0  0  0
  112.3586  165.8236  142.2731 O   0  0  0  0  0  0  0  0  0  0  0  0
  113.5751  165.3978  142.7905 C   0  0  0  0  0  0  0  0  0  0  0  0
  113.8208  165.4436  144.1447 C   0  0  0  0  0  0  0  0  0  0  0  0
  115.0205  165.0239  144.6585 C   0  0  0  0  0  0  0  0  0  0  0  0
  115.2795  165.0640  146.0194 O   0  0  0  0  0  0  0  0  0  0  0  0
  115.8556  163.9628  146.6877 C   0  0  0  0  0  0  0  0  0  0  0  0
  115.9492  164.5643  143.7740 C   0  0  0  0  0  0  0  0  0  0  0  0
  115.7767  164.4874  142.3990 C   0  0  0  0  0  0  0  0  0  0  0  0
  116.8539  163.9646  141.5747 C   0  0  0  0  0  0  0  0  0  0  0  0
  117.1960  162.7410  141.8207 O   0  0  0  0  0  0  0  0  0  0  0  0
  117.5507  164.5653  140.5899 O   0  0  0  0  0  0  0  0  0  0  0  0
  118.8181  165.1149  140.7122 C   0  0  1  0  0  0  0  0  0  0  0  0
  119.3699  165.6543  139.3554 C   0  0  0  0  0  0  0  0  0  0  0  0
  120.3091  166.6193  139.5017 O   0  0  0  0  0  0  0  0  0  0  0  0
  121.5734  166.9035  139.2136 C   0  0  0  0  0  0  0  0  0  0  0  0
  122.6125  166.5709  139.8961 O   0  0  0  0  0  0  0  0  0  0  0  0
  121.9097  167.6867  137.9901 C   0  0  0  0  0  0  0  0  0  0  0  0
  122.2104  169.1428  138.2737 C   0  0  1  0  0  0  0  0  0  0  0  0
  121.5912  169.6128  139.5934 C   0  0  0  0  0  0  0  0  0  0  0  0
  122.2156  169.4353  140.8053 C   0  0  0  0  0  0  0  0  0  0  0  0
  121.6045  169.8149  142.0447 C   0  0  0  0  0  0  0  0  0  0  0  0
  122.5325  169.5157  143.1247 O   0  0  0  0  0  0  0  0  0  0  0  0
  120.3673  170.3666  142.0854 C   0  0  0  0  0  0  0  0  0  0  0  0
  119.7363  170.7147  143.3035 O   0  0  0  0  0  0  0  0  0  0  0  0
  119.1952  169.7061  144.2003 C   0  0  2  0  0  0  0  0  0  0  0  0
  119.3189  168.3907  143.5494 C   0  0  0  0  0  0  0  0  0  0  0  0
  118.1883  168.2731  142.7572 C   0  0  0  0  0  0  0  0  0  0  0  0
  118.0197  167.1891  141.8573 C   0  0  0  0  0  0  0  0  0  0  0  0
  118.9819  166.2195  141.7557 C   0  0  0  0  0  0  0  0  0  0  0  0
  120.1066  166.3250  142.5496 C   0  0  0  0  0  0  0  0  0  0  0  0
  120.2312  167.4318  143.4343 C   0  0  0  0  0  0  0  0  0  0  0  0
  117.2801  169.3663  143.0905 C   0  0  0  0  0  0  0  0  0  0  0  0
  116.2864  170.1551  142.8347 C   0  0  0  0  0  0  0  0  0  0  0  0
  116.0835  171.0993  143.9506 C   0  0  0  0  0  0  0  0  0  0  0  0
  116.9904  170.8387  144.9144 C   0  0  0  0  0  0  0  0  0  0  0  0
  117.7612  169.7411  144.4773 C   0  0  2  0  0  0  0  0  0  0  0  0
  117.5732  168.5966  145.3221 O   0  0  0  0  0  0  0  0  0  0  0  0
  116.6295  168.7661  146.2948 C   0  0  2  0  0  0  0  0  0  0  0  0
  116.7276  170.0850  146.7252 O   0  0  0  0  0  0  0  0  0  0  0  0
  116.1542  170.3526  147.9598 C   0  0  0  0  0  0  0  0  0  0  0  0
  114.7292  169.9943  148.0380 C   0  0  0  0  0  0  0  0  0  0  0  0
  116.2185  171.8904  148.0773 C   0  0  0  0  0  0  0  0  0  0  0  0
  117.0679  169.7621  148.9963 C   0  0  2  0  0  0  0  0  0  0  0  0
  117.7291  168.5423  148.4629 C   0  0  1  0  0  0  0  0  0  0  0  0
  118.1438  167.6088  149.3750 O   0  0  0  0  0  0  0  0  0  0  0  0
  116.9307  167.7949  147.4102 C   0  0  1  0  0  0  0  0  0  0  0  0
  115.8379  167.1266  147.8949 O   0  0  0  0  0  0  0  0  0  0  0  0
  116.4450  169.5152  150.2718 N   0  0  0  0  0  0  0  0  0  0  0  0
  116.0575  170.7311  150.9537 C   0  0  0  0  0  0  0  0  0  0  0  0
  117.4859  168.9183  151.1276 C   0  0  0  0  0  0  0  0  0  0  0  0
  119.7552  170.5520  140.8822 C   0  0  0  0  0  0  0  0  0  0  0  0
  118.2048  171.4409  140.5195 Cl  0  0  0  0  0  0  0  0  0  0  0  0
  120.3370  170.1846  139.6318 C   0  0  0  0  0  0  0  0  0  0  0  0
  123.6446  169.3772  138.1674 N   0  0  0  0  0  4  0  0  0  0  0  0
  114.5509  164.9191  141.9034 C   0  0  0  0  0  0  0  0  0  0  0  0
  1  2  1  0
  2  3  2  0
  2  4  1  0
  4  5  2  0
  4  6  1  0
  6  7  1  0
  7  8  2  0
  8  9  1  0
  9 10  1  0
 10 11  1  0
  9 12  2  0
 12 13  1  0
 13 14  1  0
 14 15  2  0
 14 16  1  0
 17 16  1  6
 17 18  1  0
 18 19  1  0
 19 20  1  0
 20 21  2  0
 20 22  1  0
 22 23  1  0
 23 24  1  0
 24 25  2  0
 25 26  1  0
 26 27  1  0
 26 28  2  0
 28 29  1  0
 30 29  1  6
 30 31  1  0
 31 32  2  0
 32 33  1  0
 33 34  2  0
 34 35  1  0
 35 36  2  0
 32 37  1  0
 37 38  2  0
 38 39  1  0
 39 40  2  0
 40 41  1  0
 41 42  1  1
 43 42  1  6
 43 44  1  0
 44 45  1  0
 45 46  1  0
 45 47  1  0
 45 48  1  0
 48 49  1  0
 49 50  1  1
 49 51  1  0
 51 52  1  1
 48 53  1  1
 53 54  1  0
 53 55  1  0
 28 56  1  0
 56 57  1  0
 56 58  2  0
 23 59  1  1
 13 60  2  0
 60  1  1  0
 60  7  1  0
 34 17  1  0
 41 37  1  0
 51 43  1  0
 58 24  1  0
 41 30  1  0
 36 31  1  0
M  CHG  1  59   1
M  END
$$$$
