
     RDKit          3D

 60 67  0  0  0  0  0  0  0  0999 V2000
  204.9340  129.2134  128.6566 N   0  0  0  0  0  0  0  0  0  0  0  0
  205.8517  128.1319  128.3847 C   0  0  0  0  0  0  0  0  0  0  0  0
  206.2974  127.4713  129.3367 O   0  0  0  0  0  0  0  0  0  0  0  0
  206.1882  127.8965  126.9921 C   0  0  0  0  0  0  0  0  0  0  0  0
  207.0239  126.9194  126.6838 C   0  0  0  0  0  0  0  0  0  0  0  0
  205.6389  128.6877  125.9976 O   0  0  0  0  0  0  0  0  0  0  0  0
  204.7572  129.7260  126.2684 C   0  0  0  0  0  0  0  0  0  0  0  0
  204.2332  130.4906  125.2500 C   0  0  0  0  0  0  0  0  0  0  0  0
  203.3627  131.5162  125.5142 C   0  0  0  0  0  0  0  0  0  0  0  0
  202.8277  132.2921  124.4980 O   0  0  0  0  0  0  0  0  0  0  0  0
  201.9279  131.7476  123.5574 C   0  0  0  0  0  0  0  0  0  0  0  0
  203.0440  131.7408  126.8195 C   0  0  0  0  0  0  0  0  0  0  0  0
  203.5292  131.0157  127.8988 C   0  0  0  0  0  0  0  0  0  0  0  0
  203.0941  131.3614  129.2419 C   0  0  0  0  0  0  0  0  0  0  0  0
  201.8149  131.3286  129.4357 O   0  0  0  0  0  0  0  0  0  0  0  0
  203.8256  131.7115  130.3183 O   0  0  0  0  0  0  0  0  0  0  0  0
  204.7032  130.8864  131.0056 C   0  0  1  0  0  0  0  0  0  0  0  0
  206.0880  130.7623  130.2960 C   0  0  0  0  0  0  0  0  0  0  0  0
  207.0956  130.4273  131.1369 O   0  0  0  0  0  0  0  0  0  0  0  0
  208.0177  129.4962  131.3490 C   0  0  0  0  0  0  0  0  0  0  0  0
  207.8637  128.3917  131.9913 O   0  0  0  0  0  0  0  0  0  0  0  0
  209.4016  129.6725  130.8224 C   0  0  0  0  0  0  0  0  0  0  0  0
  210.3905  130.1267  131.8744 C   0  0  1  0  0  0  0  0  0  0  0  0
  209.7002  130.8177  133.0544 C   0  0  0  0  0  0  0  0  0  0  0  0
  209.1720  130.1170  134.1127 C   0  0  0  0  0  0  0  0  0  0  0  0
  208.4676  130.7605  135.1820 C   0  0  0  0  0  0  0  0  0  0  0  0
  208.0638  129.7448  136.1425 O   0  0  0  0  0  0  0  0  0  0  0  0
  208.2793  132.1024  135.2006 C   0  0  0  0  0  0  0  0  0  0  0  0
  207.5561  132.7485  136.2314 O   0  0  0  0  0  0  0  0  0  0  0  0
  206.1079  132.6555  136.3239 C   0  0  2  0  0  0  0  0  0  0  0  0
  205.6124  131.9277  135.1433 C   0  0  0  0  0  0  0  0  0  0  0  0
  205.4737  132.8918  134.1578 C   0  0  0  0  0  0  0  0  0  0  0  0
  205.1496  132.5474  132.8201 C   0  0  0  0  0  0  0  0  0  0  0  0
  204.9587  131.2366  132.4711 C   0  0  0  0  0  0  0  0  0  0  0  0
  205.0853  130.2715  133.4503 C   0  0  0  0  0  0  0  0  0  0  0  0
  205.4142  130.6662  134.7765 C   0  0  0  0  0  0  0  0  0  0  0  0
  205.6444  134.2042  134.7742 C   0  0  0  0  0  0  0  0  0  0  0  0
  205.8965  135.4728  134.7283 C   0  0  0  0  0  0  0  0  0  0  0  0
  205.8364  136.0547  136.0832 C   0  0  0  0  0  0  0  0  0  0  0  0
  205.5155  135.0835  136.9625 C   0  0  0  0  0  0  0  0  0  0  0  0
  205.3391  133.8938  136.2253 C   0  0  2  0  0  0  0  0  0  0  0  0
  203.9824  133.4310  136.2903 O   0  0  0  0  0  0  0  0  0  0  0  0
  203.5166  133.2350  137.5591 C   0  0  2  0  0  0  0  0  0  0  0  0
  202.1327  133.1292  137.4678 O   0  0  0  0  0  0  0  0  0  0  0  0
  201.4408  133.3298  138.6533 C   0  0  0  0  0  0  0  0  0  0  0  0
  201.8563  132.4271  139.7384 C   0  0  0  0  0  0  0  0  0  0  0  0
  199.9861  132.9463  138.3075 C   0  0  0  0  0  0  0  0  0  0  0  0
  201.4850  134.8054  138.9337 C   0  0  2  0  0  0  0  0  0  0  0  0
  202.7557  135.3866  138.4264 C   0  0  1  0  0  0  0  0  0  0  0  0
  203.2049  136.5287  139.0339 O   0  0  0  0  0  0  0  0  0  0  0  0
  203.9279  134.4225  138.3950 C   0  0  1  0  0  0  0  0  0  0  0  0
  204.4346  134.1045  139.6269 O   0  0  0  0  0  0  0  0  0  0  0  0
  201.2498  135.1600  140.3101 N   0  0  0  0  0  0  0  0  0  0  0  0
  202.1956  134.5484  141.2185 C   0  0  0  0  0  0  0  0  0  0  0  0
  199.9475  134.5705  140.6687 C   0  0  0  0  0  0  0  0  0  0  0  0
  208.8136  132.7958  134.1563 C   0  0  0  0  0  0  0  0  0  0  0  0
  208.9482  134.6015  133.9397 Cl  0  0  0  0  0  0  0  0  0  0  0  0
  209.5197  132.1845  133.0772 C   0  0  0  0  0  0  0  0  0  0  0  0
  211.2511  129.0131  132.2519 N   0  0  0  0  0  4  0  0  0  0  0  0
  204.4105  129.9808  127.6037 C   0  0  0  0  0  0  0  0  0  0  0  0
  1  2  1  0
  2  3  2  0
  2  4  1  0
  4  5  2  0
  4  6  1  0
  6  7  1  0
  7  8  2  0
  8  9  1  0
  9 10  1  0
 10 11  1  0
  9 12  2  0
 12 13  1  0
 13 14  1  0
 14 15  2  0
 14 16  1  0
 17 16  1  6
 17 18  1  0
 18 19  1  0
 19 20  1  0
 20 21  2  0
 20 22  1  0
 22 23  1  0
 23 24  1  0
 24 25  2  0
 25 26  1  0
 26 27  1  0
 26 28  2  0
 28 29  1  0
 30 29  1  6
 30 31  1  0
 31 32  2  0
 32 33  1  0
 33 34  2  0
 34 35  1  0
 35 36  2  0
 32 37  1  0
 37 38  2  0
 38 39  1  0
 39 40  2  0
 40 41  1  0
 41 42  1  6
 43 42  1  6
 43 44  1  0
 44 45  1  0
 45 46  1  0
 45 47  1  0
 45 48  1  0
 48 49  1  0
 49 50  1  1
 49 51  1  0
 51 52  1  1
 48 53  1  1
 53 54  1  0
 53 55  1  0
 28 56  1  0
 56 57  1  0
 56 58  2  0
 23 59  1  1
 13 60  2  0
 60  1  1  0
 60  7  1  0
 34 17  1  0
 41 37  1  0
 51 43  1  0
 58 24  1  0
 41 30  1  0
 36 31  1  0
M  CHG  1  59   1
M  END
$$$$
