
     RDKit          3D

 60 67  0  0  0  0  0  0  0  0999 V2000
  167.3070  149.0157  132.9151 N   0  0  0  0  0  0  0  0  0  0  0  0
  166.7243  148.4909  134.1278 C   0  0  0  0  0  0  0  0  0  0  0  0
  166.2786  147.3322  134.1252 O   0  0  0  0  0  0  0  0  0  0  0  0
  166.7047  149.3763  135.2783 C   0  0  0  0  0  0  0  0  0  0  0  0
  166.1831  148.9492  136.4157 C   0  0  0  0  0  0  0  0  0  0  0  0
  167.2272  150.6550  135.1844 O   0  0  0  0  0  0  0  0  0  0  0  0
  167.7855  151.1515  134.0137 C   0  0  0  0  0  0  0  0  0  0  0  0
  168.2942  152.4301  133.9614 C   0  0  0  0  0  0  0  0  0  0  0  0
  168.8460  152.9230  132.8073 C   0  0  0  0  0  0  0  0  0  0  0  0
  169.3621  154.2076  132.7422 O   0  0  0  0  0  0  0  0  0  0  0  0
  168.6080  155.3220  133.1671 C   0  0  0  0  0  0  0  0  0  0  0  0
  168.8665  152.0957  131.7250 C   0  0  0  0  0  0  0  0  0  0  0  0
  168.3751  150.7981  131.6993 C   0  0  0  0  0  0  0  0  0  0  0  0
  168.4728  150.0243  130.4726 C   0  0  0  0  0  0  0  0  0  0  0  0
  167.8631  150.5293  129.4488 O   0  0  0  0  0  0  0  0  0  0  0  0
  169.1054  148.8569  130.2416 O   0  0  0  0  0  0  0  0  0  0  0  0
  168.4941  147.6492  129.9398 C   0  0  1  0  0  0  0  0  0  0  0  0
  167.0255  147.5745  130.4633 C   0  0  0  0  0  0  0  0  0  0  0  0
  166.2540  146.6965  129.7788 O   0  0  0  0  0  0  0  0  0  0  0  0
  165.5203  145.6015  129.9366 C   0  0  0  0  0  0  0  0  0  0  0  0
  165.9394  144.3848  129.9223 O   0  0  0  0  0  0  0  0  0  0  0  0
  164.0493  145.7055  130.1572 C   0  0  0  0  0  0  0  0  0  0  0  0
  163.2346  145.4217  128.9134 C   0  0  1  0  0  0  0  0  0  0  0  0
  164.0464  145.6333  127.6319 C   0  0  0  0  0  0  0  0  0  0  0  0
  164.8579  144.6575  127.1035 C   0  0  0  0  0  0  0  0  0  0  0  0
  165.6680  144.8806  125.9427 C   0  0  0  0  0  0  0  0  0  0  0  0
  166.3805  143.6494  125.6365 O   0  0  0  0  0  0  0  0  0  0  0  0
  165.6800  146.0768  125.3058 C   0  0  0  0  0  0  0  0  0  0  0  0
  166.5005  146.3234  124.1793 O   0  0  0  0  0  0  0  0  0  0  0  0
  167.9384  146.5005  124.3043 C   0  0  2  0  0  0  0  0  0  0  0  0
  168.2839  146.5025  125.7359 C   0  0  0  0  0  0  0  0  0  0  0  0
  168.1006  147.8124  126.1489 C   0  0  0  0  0  0  0  0  0  0  0  0
  168.1988  148.1826  127.5151 C   0  0  0  0  0  0  0  0  0  0  0  0
  168.4868  147.2407  128.4671 C   0  0  0  0  0  0  0  0  0  0  0  0
  168.6807  145.9353  128.0614 C   0  0  0  0  0  0  0  0  0  0  0  0
  168.5689  145.6129  126.6807 C   0  0  0  0  0  0  0  0  0  0  0  0
  167.8844  148.6394  124.9655 C   0  0  0  0  0  0  0  0  0  0  0  0
  167.4653  149.7098  124.3708 C   0  0  0  0  0  0  0  0  0  0  0  0
  167.7129  149.6176  122.9189 C   0  0  0  0  0  0  0  0  0  0  0  0
  168.3231  148.4445  122.6529 C   0  0  0  0  0  0  0  0  0  0  0  0
  168.5053  147.7796  123.8836 C   0  0  2  0  0  0  0  0  0  0  0  0
  169.8969  147.6290  124.1992 O   0  0  0  0  0  0  0  0  0  0  0  0
  170.7302  148.4075  123.4477 C   0  0  2  0  0  0  0  0  0  0  0  0
  170.4373  148.1401  122.1145 O   0  0  0  0  0  0  0  0  0  0  0  0
  171.4174  148.5081  121.2043 C   0  0  0  0  0  0  0  0  0  0  0  0
  171.7807  149.9323  121.2728 C   0  0  0  0  0  0  0  0  0  0  0  0
  170.7482  148.3001  119.8289 C   0  0  0  0  0  0  0  0  0  0  0  0
  172.5309  147.5086  121.3424 C   0  0  2  0  0  0  0  0  0  0  0  0
  172.6229  147.0335  122.7480 C   0  0  1  0  0  0  0  0  0  0  0  0
  173.8409  146.5725  123.1715 O   0  0  0  0  0  0  0  0  0  0  0  0
  172.1519  148.0327  123.7891 C   0  0  1  0  0  0  0  0  0  0  0  0
  172.9930  149.0972  123.9758 O   0  0  0  0  0  0  0  0  0  0  0  0
  173.8064  147.9623  120.8495 N   0  0  0  0  0  0  0  0  0  0  0  0
  173.7964  148.2336  119.4283 C   0  0  0  0  0  0  0  0  0  0  0  0
  174.7348  146.8291  121.0104 C   0  0  0  0  0  0  0  0  0  0  0  0
  164.8663  147.0388  125.8246 C   0  0  0  0  0  0  0  0  0  0  0  0
  164.4581  148.6769  125.1350 Cl  0  0  0  0  0  0  0  0  0  0  0  0
  164.0485  146.8476  126.9785 C   0  0  0  0  0  0  0  0  0  0  0  0
  162.6169  144.1064  129.0213 N   0  0  0  0  0  4  0  0  0  0  0  0
  167.8208  150.3221  132.8828 C   0  0  0  0  0  0  0  0  0  0  0  0
  1  2  1  0
  2  3  2  0
  2  4  1  0
  4  5  2  0
  4  6  1  0
  6  7  1  0
  7  8  2  0
  8  9  1  0
  9 10  1  0
 10 11  1  0
  9 12  2  0
 12 13  1  0
 13 14  1  0
 14 15  2  0
 14 16  1  0
 17 16  1  6
 17 18  1  0
 18 19  1  0
 19 20  1  0
 20 21  2  0
 20 22  1  0
 22 23  1  0
 23 24  1  0
 24 25  2  0
 25 26  1  0
 26 27  1  0
 26 28  2  0
 28 29  1  0
 30 29  1  1
 30 31  1  0
 31 32  2  0
 32 33  1  0
 33 34  2  0
 34 35  1  0
 35 36  2  0
 32 37  1  0
 37 38  2  0
 38 39  1  0
 39 40  2  0
 40 41  1  0
 41 42  1  1
 43 42  1  1
 43 44  1  0
 44 45  1  0
 45 46  1  0
 45 47  1  0
 45 48  1  0
 48 49  1  0
 49 50  1  1
 49 51  1  0
 51 52  1  6
 48 53  1  1
 53 54  1  0
 53 55  1  0
 28 56  1  0
 56 57  1  0
 56 58  2  0
 23 59  1  1
 13 60  2  0
 60  1  1  0
 60  7  1  0
 34 17  1  0
 41 37  1  0
 51 43  1  0
 58 24  1  0
 41 30  1  0
 36 31  1  0
M  CHG  1  59   1
M  END
$$$$
