
     RDKit          3D

 60 67  0  0  0  0  0  0  0  0999 V2000
  169.8251  170.1572  108.1752 N   0  0  0  0  0  0  0  0  0  0  0  0
  169.2428  171.2453  108.9250 C   0  0  0  0  0  0  0  0  0  0  0  0
  168.4576  170.9823  109.8501 O   0  0  0  0  0  0  0  0  0  0  0  0
  169.6284  172.5886  108.5314 C   0  0  0  0  0  0  0  0  0  0  0  0
  169.1263  173.6239  109.1827 C   0  0  0  0  0  0  0  0  0  0  0  0
  170.5133  172.7825  107.4844 O   0  0  0  0  0  0  0  0  0  0  0  0
  171.0683  171.7297  106.7685 C   0  0  0  0  0  0  0  0  0  0  0  0
  171.9445  171.9651  105.7326 C   0  0  0  0  0  0  0  0  0  0  0  0
  172.4940  170.9280  105.0241 C   0  0  0  0  0  0  0  0  0  0  0  0
  173.3779  171.1518  103.9804 O   0  0  0  0  0  0  0  0  0  0  0  0
  174.6710  171.6663  104.2135 C   0  0  0  0  0  0  0  0  0  0  0  0
  172.1351  169.6657  105.3900 C   0  0  0  0  0  0  0  0  0  0  0  0
  171.2605  169.3484  106.4198 C   0  0  0  0  0  0  0  0  0  0  0  0
  170.9753  167.9522  106.7064 C   0  0  0  0  0  0  0  0  0  0  0  0
  169.9595  167.4538  106.0783 O   0  0  0  0  0  0  0  0  0  0  0  0
  171.6126  167.0970  107.5304 O   0  0  0  0  0  0  0  0  0  0  0  0
  172.7321  166.3440  107.2094 C   0  0  1  0  0  0  0  0  0  0  0  0
  173.8998  167.2161  106.6505 C   0  0  0  0  0  0  0  0  0  0  0  0
  175.1199  166.6512  106.8146 O   0  0  0  0  0  0  0  0  0  0  0  0
  176.1770  166.2241  106.1347 C   0  0  0  0  0  0  0  0  0  0  0  0
  176.3308  165.0644  105.5983 O   0  0  0  0  0  0  0  0  0  0  0  0
  177.3511  167.1194  105.9266 C   0  0  0  0  0  0  0  0  0  0  0  0
  178.5051  166.8221  106.8600 C   0  0  1  0  0  0  0  0  0  0  0  0
  178.0490  166.0893  108.1253 C   0  0  0  0  0  0  0  0  0  0  0  0
  177.8960  164.7239  108.1720 C   0  0  0  0  0  0  0  0  0  0  0  0
  177.4047  164.0475  109.3359 C   0  0  0  0  0  0  0  0  0  0  0  0
  177.3869  162.6183  109.0631 O   0  0  0  0  0  0  0  0  0  0  0  0
  177.0570  164.7260  110.4564 C   0  0  0  0  0  0  0  0  0  0  0  0
  176.5378  164.0760  111.6013 O   0  0  0  0  0  0  0  0  0  0  0  0
  175.1828  163.5493  111.6333 C   0  0  2  0  0  0  0  0  0  0  0  0
  174.5053  163.9326  110.3831 C   0  0  0  0  0  0  0  0  0  0  0  0
  174.0027  165.2018  110.6202 C   0  0  0  0  0  0  0  0  0  0  0  0
  173.4016  165.9688  109.5889 C   0  0  0  0  0  0  0  0  0  0  0  0
  173.2987  165.4611  108.3208 C   0  0  0  0  0  0  0  0  0  0  0  0
  173.7882  164.1928  108.0798 C   0  0  0  0  0  0  0  0  0  0  0  0
  174.3848  163.4642  109.1456 C   0  0  0  0  0  0  0  0  0  0  0  0
  174.1528  165.4952  112.0423 C   0  0  0  0  0  0  0  0  0  0  0  0
  174.2211  166.3059  113.0489 C   0  0  0  0  0  0  0  0  0  0  0  0
  174.4275  165.5506  114.2998 C   0  0  0  0  0  0  0  0  0  0  0  0
  174.4633  164.2328  114.0143 C   0  0  0  0  0  0  0  0  0  0  0  0
  174.2619  164.1007  112.6244 C   0  0  2  0  0  0  0  0  0  0  0  0
  173.0352  163.4156  112.3334 O   0  0  0  0  0  0  0  0  0  0  0  0
  172.6181  162.5682  113.3199 C   0  0  2  0  0  0  0  0  0  0  0  0
  173.5755  161.5641  113.4193 O   0  0  0  0  0  0  0  0  0  0  0  0
  173.1597  160.4064  114.0607 C   0  0  0  0  0  0  0  0  0  0  0  0
  172.6551  160.6364  115.4236 C   0  0  0  0  0  0  0  0  0  0  0  0
  174.4533  159.5782  114.2145 C   0  0  0  0  0  0  0  0  0  0  0  0
  172.2505  159.6870  113.1048 C   0  0  2  0  0  0  0  0  0  0  0  0
  171.5111  160.6653  112.2646 C   0  0  1  0  0  0  0  0  0  0  0  0
  170.3074  160.2616  111.7513 O   0  0  0  0  0  0  0  0  0  0  0  0
  171.2726  162.0138  112.9197 C   0  0  1  0  0  0  0  0  0  0  0  0
  170.3401  162.0007  113.9227 O   0  0  0  0  0  0  0  0  0  0  0  0
  171.3608  158.7384  113.7248 N   0  0  0  0  0  0  0  0  0  0  0  0
  171.5579  158.6331  115.1544 C   0  0  0  0  0  0  0  0  0  0  0  0
  171.7369  157.4160  113.1939 C   0  0  0  0  0  0  0  0  0  0  0  0
  177.2203  166.0781  110.4115 C   0  0  0  0  0  0  0  0  0  0  0  0
  177.0646  167.2883  111.7668 Cl  0  0  0  0  0  0  0  0  0  0  0  0
  177.7066  166.7805  109.2683 C   0  0  0  0  0  0  0  0  0  0  0  0
  179.5677  166.1469  106.1264 N   0  0  0  0  0  4  0  0  0  0  0  0
  170.7171  170.4185  107.1228 C   0  0  0  0  0  0  0  0  0  0  0  0
  1  2  1  0
  2  3  2  0
  2  4  1  0
  4  5  2  0
  4  6  1  0
  6  7  1  0
  7  8  2  0
  8  9  1  0
  9 10  1  0
 10 11  1  0
  9 12  2  0
 12 13  1  0
 13 14  1  0
 14 15  2  0
 14 16  1  0
 17 16  1  1
 17 18  1  0
 18 19  1  0
 19 20  1  0
 20 21  2  0
 20 22  1  0
 22 23  1  0
 23 24  1  0
 24 25  2  0
 25 26  1  0
 26 27  1  0
 26 28  2  0
 28 29  1  0
 30 29  1  6
 30 31  1  0
 31 32  2  0
 32 33  1  0
 33 34  2  0
 34 35  1  0
 35 36  2  0
 32 37  1  0
 37 38  2  0
 38 39  1  0
 39 40  2  0
 40 41  1  0
 41 42  1  1
 43 42  1  6
 43 44  1  0
 44 45  1  0
 45 46  1  0
 45 47  1  0
 45 48  1  0
 48 49  1  0
 49 50  1  1
 49 51  1  0
 51 52  1  1
 48 53  1  1
 53 54  1  0
 53 55  1  0
 28 56  1  0
 56 57  1  0
 56 58  2  0
 23 59  1  6
 13 60  2  0
 60  1  1  0
 60  7  1  0
 34 17  1  0
 41 37  1  0
 51 43  1  0
 58 24  1  0
 41 30  1  0
 36 31  1  0
M  CHG  1  59   1
M  END
$$$$
