
     RDKit          3D

 60 67  0  0  0  0  0  0  0  0999 V2000
  209.2999  127.3924  131.4848 N   0  0  0  0  0  0  0  0  0  0  0  0
  210.4911  126.6623  131.1192 C   0  0  0  0  0  0  0  0  0  0  0  0
  210.7877  125.6410  131.7598 O   0  0  0  0  0  0  0  0  0  0  0  0
  211.2644  127.1896  130.0092 C   0  0  0  0  0  0  0  0  0  0  0  0
  212.3650  126.5623  129.6305 C   0  0  0  0  0  0  0  0  0  0  0  0
  210.8526  128.3378  129.3544 O   0  0  0  0  0  0  0  0  0  0  0  0
  209.7054  129.0337  129.7130 C   0  0  0  0  0  0  0  0  0  0  0  0
  209.3305  130.1728  129.0362 C   0  0  0  0  0  0  0  0  0  0  0  0
  208.1987  130.8619  129.3879 C   0  0  0  0  0  0  0  0  0  0  0  0
  207.8102  132.0089  128.7140 O   0  0  0  0  0  0  0  0  0  0  0  0
  207.0219  131.9400  127.5457 C   0  0  0  0  0  0  0  0  0  0  0  0
  207.4698  130.3708  130.4290 C   0  0  0  0  0  0  0  0  0  0  0  0
  207.7817  129.2321  131.1584 C   0  0  0  0  0  0  0  0  0  0  0  0
  206.9047  128.8182  132.2412 C   0  0  0  0  0  0  0  0  0  0  0  0
  205.7705  128.3146  131.8740 O   0  0  0  0  0  0  0  0  0  0  0  0
  207.0970  128.8803  133.5737 O   0  0  0  0  0  0  0  0  0  0  0  0
  207.8623  129.8261  134.2393 C   0  0  1  0  0  0  0  0  0  0  0  0
  209.1640  130.1974  133.4620 C   0  0  0  0  0  0  0  0  0  0  0  0
  209.6478  131.4228  133.7765 O   0  0  0  0  0  0  0  0  0  0  0  0
  210.7207  132.0318  134.2664 C   0  0  0  0  0  0  0  0  0  0  0  0
  211.0005  132.2186  135.5087 O   0  0  0  0  0  0  0  0  0  0  0  0
  211.7571  132.5864  133.3490 C   0  0  0  0  0  0  0  0  0  0  0  0
  211.6545  134.0853  133.1643 C   0  0  1  0  0  0  0  0  0  0  0  0
  210.2514  134.6106  133.4826 C   0  0  0  0  0  0  0  0  0  0  0  0
  209.8536  134.9231  134.7610 C   0  0  0  0  0  0  0  0  0  0  0  0
  208.5199  135.3501  135.0653 C   0  0  0  0  0  0  0  0  0  0  0  0
  208.4389  135.6204  136.4927 O   0  0  0  0  0  0  0  0  0  0  0  0
  207.5740  135.4620  134.1012 C   0  0  0  0  0  0  0  0  0  0  0  0
  206.2437  135.8488  134.3909 O   0  0  0  0  0  0  0  0  0  0  0  0
  205.3105  134.9470  135.0469 C   0  0  2  0  0  0  0  0  0  0  0  0
  205.9600  133.6337  135.1961 C   0  0  0  0  0  0  0  0  0  0  0  0
  205.7285  132.9790  133.9971 C   0  0  0  0  0  0  0  0  0  0  0  0
  206.3286  131.7269  133.7049 C   0  0  0  0  0  0  0  0  0  0  0  0
  207.1562  131.1278  134.6173 C   0  0  0  0  0  0  0  0  0  0  0  0
  207.3833  131.7698  135.8184 C   0  0  0  0  0  0  0  0  0  0  0  0
  206.7611  133.0250  136.0638 C   0  0  0  0  0  0  0  0  0  0  0  0
  204.7661  133.7611  133.2269 C   0  0  0  0  0  0  0  0  0  0  0  0
  204.1820  134.1038  132.1240 C   0  0  0  0  0  0  0  0  0  0  0  0
  203.1787  135.1547  132.3826 C   0  0  0  0  0  0  0  0  0  0  0  0
  203.1615  135.4275  133.7034 C   0  0  0  0  0  0  0  0  0  0  0  0
  204.1003  134.5732  134.3189 C   0  0  2  0  0  0  0  0  0  0  0  0
  203.4637  133.6503  135.2144 O   0  0  0  0  0  0  0  0  0  0  0  0
  202.6534  134.2382  136.1434 C   0  0  2  0  0  0  0  0  0  0  0  0
  202.9653  133.6633  137.3709 O   0  0  0  0  0  0  0  0  0  0  0  0
  202.0056  133.8160  138.3609 C   0  0  0  0  0  0  0  0  0  0  0  0
  201.6596  135.2197  138.6349 C   0  0  0  0  0  0  0  0  0  0  0  0
  202.6953  133.2858  139.6361 C   0  0  0  0  0  0  0  0  0  0  0  0
  200.8772  132.8863  138.0143 C   0  0  2  0  0  0  0  0  0  0  0  0
  200.7552  132.7546  136.5387 C   0  0  1  0  0  0  0  0  0  0  0  0
  199.5244  132.4161  136.0428 O   0  0  0  0  0  0  0  0  0  0  0  0
  201.2214  133.9659  135.7515 C   0  0  1  0  0  0  0  0  0  0  0  0
  200.3910  135.0517  135.8356 O   0  0  0  0  0  0  0  0  0  0  0  0
  199.6161  133.2227  138.6245 N   0  0  0  0  0  0  0  0  0  0  0  0
  198.4791  132.7517  137.8635 C   0  0  0  0  0  0  0  0  0  0  0  0
  199.5176  134.6925  138.5787 C   0  0  0  0  0  0  0  0  0  0  0  0
  207.9739  135.1627  132.8334 C   0  0  0  0  0  0  0  0  0  0  0  0
  207.0639  135.3917  131.2697 Cl  0  0  0  0  0  0  0  0  0  0  0  0
  209.2935  134.7349  132.4985 C   0  0  0  0  0  0  0  0  0  0  0  0
  212.7234  134.7448  133.9030 N   0  0  0  0  0  4  0  0  0  0  0  0
  208.9347  128.5515  130.7815 C   0  0  0  0  0  0  0  0  0  0  0  0
  1  2  1  0
  2  3  2  0
  2  4  1  0
  4  5  2  0
  4  6  1  0
  6  7  1  0
  7  8  2  0
  8  9  1  0
  9 10  1  0
 10 11  1  0
  9 12  2  0
 12 13  1  0
 13 14  1  0
 14 15  2  0
 14 16  1  0
 17 16  1  6
 17 18  1  0
 18 19  1  0
 19 20  1  0
 20 21  2  0
 20 22  1  0
 22 23  1  0
 23 24  1  0
 24 25  2  0
 25 26  1  0
 26 27  1  0
 26 28  2  0
 28 29  1  0
 30 29  1  6
 30 31  1  0
 31 32  2  0
 32 33  1  0
 33 34  2  0
 34 35  1  0
 35 36  2  0
 32 37  1  0
 37 38  2  0
 38 39  1  0
 39 40  2  0
 40 41  1  0
 41 42  1  1
 43 42  1  6
 43 44  1  0
 44 45  1  0
 45 46  1  0
 45 47  1  0
 45 48  1  0
 48 49  1  0
 49 50  1  1
 49 51  1  0
 51 52  1  1
 48 53  1  6
 53 54  1  0
 53 55  1  0
 28 56  1  0
 56 57  1  0
 56 58  2  0
 23 59  1  1
 13 60  2  0
 60  1  1  0
 60  7  1  0
 34 17  1  0
 41 37  1  0
 51 43  1  0
 58 24  1  0
 41 30  1  0
 36 31  1  0
M  CHG  1  59   1
M  END
$$$$
