
     RDKit          3D

 60 67  0  0  0  0  0  0  0  0999 V2000
  202.6573  135.0187  130.4043 N   0  0  0  0  0  0  0  0  0  0  0  0
  202.9601  136.3834  130.7669 C   0  0  0  0  0  0  0  0  0  0  0  0
  202.3542  136.8981  131.7205 O   0  0  0  0  0  0  0  0  0  0  0  0
  203.9693  137.0607  129.9727 C   0  0  0  0  0  0  0  0  0  0  0  0
  204.2872  138.3118  130.2592 C   0  0  0  0  0  0  0  0  0  0  0  0
  204.5921  136.4024  128.9261 O   0  0  0  0  0  0  0  0  0  0  0  0
  204.2943  135.0896  128.5843 C   0  0  0  0  0  0  0  0  0  0  0  0
  204.9364  134.4706  127.5351 C   0  0  0  0  0  0  0  0  0  0  0  0
  204.6446  133.1748  127.1953 C   0  0  0  0  0  0  0  0  0  0  0  0
  205.2845  132.5404  126.1423 O   0  0  0  0  0  0  0  0  0  0  0  0
  204.8190  131.3072  125.6389 C   0  0  0  0  0  0  0  0  0  0  0  0
  203.6982  132.5352  127.9378 C   0  0  0  0  0  0  0  0  0  0  0  0
  203.0092  133.0900  129.0072 C   0  0  0  0  0  0  0  0  0  0  0  0
  202.0295  132.2844  129.7175 C   0  0  0  0  0  0  0  0  0  0  0  0
  200.9501  132.0145  129.0566 O   0  0  0  0  0  0  0  0  0  0  0  0
  202.0780  131.7752  130.9643 O   0  0  0  0  0  0  0  0  0  0  0  0
  202.7878  130.6491  131.3534 C   0  0  1  0  0  0  0  0  0  0  0  0
  203.8105  130.1826  130.2704 C   0  0  0  0  0  0  0  0  0  0  0  0
  204.8399  129.4626  130.7768 O   0  0  0  0  0  0  0  0  0  0  0  0
  205.4275  128.2749  130.6965 C   0  0  0  0  0  0  0  0  0  0  0  0
  205.0993  127.2082  131.3374 O   0  0  0  0  0  0  0  0  0  0  0  0
  206.5969  128.0723  129.7938 C   0  0  0  0  0  0  0  0  0  0  0  0
  207.9245  128.0803  130.5209 C   0  0  1  0  0  0  0  0  0  0  0  0
  207.8429  128.8163  131.8617 C   0  0  0  0  0  0  0  0  0  0  0  0
  207.4201  128.2009  133.0160 C   0  0  0  0  0  0  0  0  0  0  0  0
  207.2804  128.9084  134.2543 C   0  0  0  0  0  0  0  0  0  0  0  0
  206.8407  127.9677  135.2736 O   0  0  0  0  0  0  0  0  0  0  0  0
  207.5541  130.2324  134.3491 C   0  0  0  0  0  0  0  0  0  0  0  0
  207.3879  130.9525  135.5561 O   0  0  0  0  0  0  0  0  0  0  0  0
  206.0706  131.3014  136.0635 C   0  0  2  0  0  0  0  0  0  0  0  0
  205.0658  130.8968  135.0656 C   0  0  0  0  0  0  0  0  0  0  0  0
  204.9905  131.9590  134.1791 C   0  0  0  0  0  0  0  0  0  0  0  0
  204.2242  131.8809  132.9875 C   0  0  0  0  0  0  0  0  0  0  0  0
  203.5283  130.7398  132.6873 C   0  0  0  0  0  0  0  0  0  0  0  0
  203.5907  129.6811  133.5713 C   0  0  0  0  0  0  0  0  0  0  0  0
  204.3748  129.8065  134.7513 C   0  0  0  0  0  0  0  0  0  0  0  0
  205.7405  133.0783  134.7411 C   0  0  0  0  0  0  0  0  0  0  0  0
  206.3717  134.2041  134.6451 C   0  0  0  0  0  0  0  0  0  0  0  0
  206.8724  134.6232  135.9686 C   0  0  0  0  0  0  0  0  0  0  0  0
  206.5005  133.7079  136.8869 C   0  0  0  0  0  0  0  0  0  0  0  0
  205.7530  132.7196  136.2130 C   0  0  2  0  0  0  0  0  0  0  0  0
  204.3902  132.6939  136.6613 O   0  0  0  0  0  0  0  0  0  0  0  0
  204.0883  133.6449  137.5940 C   0  0  2  0  0  0  0  0  0  0  0  0
  204.9943  133.4871  138.6374 O   0  0  0  0  0  0  0  0  0  0  0  0
  204.6230  134.0679  139.8413 C   0  0  0  0  0  0  0  0  0  0  0  0
  204.3514  135.5105  139.7408 C   0  0  0  0  0  0  0  0  0  0  0  0
  205.8785  133.9270  140.7282 C   0  0  0  0  0  0  0  0  0  0  0  0
  203.5380  133.2042  140.4199 C   0  0  2  0  0  0  0  0  0  0  0  0
  202.7293  132.5970  139.3304 C   0  0  1  0  0  0  0  0  0  0  0  0
  201.4402  132.2469  139.6320 O   0  0  0  0  0  0  0  0  0  0  0  0
  202.6689  133.4138  138.0523 C   0  0  1  0  0  0  0  0  0  0  0  0
  201.9059  134.5478  138.1388 O   0  0  0  0  0  0  0  0  0  0  0  0
  202.7071  133.8615  141.3963 N   0  0  0  0  0  0  0  0  0  0  0  0
  203.2917  133.8681  142.7199 C   0  0  0  0  0  0  0  0  0  0  0  0
  201.4933  133.0355  141.5244 C   0  0  0  0  0  0  0  0  0  0  0  0
  207.9839  130.8375  133.2064 C   0  0  0  0  0  0  0  0  0  0  0  0
  208.6385  132.5258  132.9901 Cl  0  0  0  0  0  0  0  0  0  0  0  0
  208.1330  130.1608  131.9587 C   0  0  0  0  0  0  0  0  0  0  0  0
  208.4411  126.7210  130.6137 N   0  0  0  0  0  4  0  0  0  0  0  0
  203.3238  134.4055  129.3314 C   0  0  0  0  0  0  0  0  0  0  0  0
  1  2  1  0
  2  3  2  0
  2  4  1  0
  4  5  2  0
  4  6  1  0
  6  7  1  0
  7  8  2  0
  8  9  1  0
  9 10  1  0
 10 11  1  0
  9 12  2  0
 12 13  1  0
 13 14  1  0
 14 15  2  0
 14 16  1  0
 17 16  1  6
 17 18  1  0
 18 19  1  0
 19 20  1  0
 20 21  2  0
 20 22  1  0
 22 23  1  0
 23 24  1  0
 24 25  2  0
 25 26  1  0
 26 27  1  0
 26 28  2  0
 28 29  1  0
 30 29  1  6
 30 31  1  0
 31 32  2  0
 32 33  1  0
 33 34  2  0
 34 35  1  0
 35 36  2  0
 32 37  1  0
 37 38  2  0
 38 39  1  0
 39 40  2  0
 40 41  1  0
 41 42  1  1
 43 42  1  6
 43 44  1  0
 44 45  1  0
 45 46  1  0
 45 47  1  0
 45 48  1  0
 48 49  1  0
 49 50  1  1
 49 51  1  0
 51 52  1  1
 48 53  1  1
 53 54  1  0
 53 55  1  0
 28 56  1  0
 56 57  1  0
 56 58  2  0
 23 59  1  1
 13 60  2  0
 60  1  1  0
 60  7  1  0
 34 17  1  0
 41 37  1  0
 51 43  1  0
 58 24  1  0
 41 30  1  0
 36 31  1  0
M  CHG  1  59   1
M  END
$$$$
