
     RDKit          3D

 32 36  0  0  0  0  0  0  0  0999 V2000
  166.5806  151.8923  128.2285 C   0  0  2  0  0  0  0  0  0  0  0  0
  167.4809  150.7599  127.8299 C   0  0  0  0  0  0  0  0  0  0  0  0
  166.9415  149.7206  126.9633 C   0  0  0  0  0  0  0  0  0  0  0  0
  165.6383  149.9057  126.2926 C   0  0  2  0  0  0  0  0  0  0  0  0
  165.8070  149.9078  124.7649 C   0  0  0  0  0  0  0  0  0  0  0  0
  164.8941  151.1320  126.7241 C   0  0  2  0  0  0  0  0  0  0  0  0
  163.6996  151.4283  125.8619 C   0  0  0  0  0  0  0  0  0  0  0  0
  162.7614  150.2378  126.0776 C   0  0  0  0  0  0  0  0  0  0  0  0
  163.4498  148.9477  125.7813 C   0  0  0  0  0  0  0  0  0  0  0  0
  162.9369  148.1436  124.8993 C   0  0  0  0  0  0  0  0  0  0  0  0
  161.6660  148.4034  124.1184 C   0  0  0  0  0  0  0  0  0  0  0  0
  160.5757  147.4575  124.6421 C   0  0  0  0  0  0  0  0  0  0  0  0
  159.8390  146.9278  123.4508 C   0  0  0  0  0  0  0  0  0  0  0  0
  159.6523  148.1498  125.6112 C   0  0  0  0  0  0  0  0  0  0  0  0
  161.2429  146.3068  125.3832 C   0  0  0  0  0  0  0  0  0  0  0  0
  162.4140  145.8214  124.5541 C   0  0  0  0  0  0  0  0  0  0  0  0
  163.5699  146.8334  124.5739 C   0  0  1  0  0  0  0  0  0  0  0  0
  164.1562  146.8222  123.1639 C   0  0  0  0  0  0  0  0  0  0  0  0
  164.5294  146.3830  125.5884 C   0  0  1  0  0  0  0  0  0  0  0  0
  165.3465  145.3899  125.0210 O   0  0  0  0  0  0  0  0  0  0  0  0
  165.4494  147.4628  126.0985 C   0  0  0  0  0  0  0  0  0  0  0  0
  164.7044  148.6906  126.5423 C   0  0  1  0  0  0  0  0  0  0  0  0
  164.4068  148.5568  128.0066 C   0  0  0  0  0  0  0  0  0  0  0  0
  165.7612  152.3181  127.0418 C   0  0  2  0  0  0  0  0  0  0  0  0
  166.5925  152.8076  125.8928 C   0  0  0  0  0  0  0  0  0  0  0  0
  164.8802  153.4565  127.4620 C   0  0  0  0  0  0  0  0  0  0  0  0
  165.6317  154.6026  128.0346 C   0  0  0  0  0  0  0  0  0  0  0  0
  166.6934  154.2914  129.0160 C   0  0  2  0  0  0  0  0  0  0  0  0
  167.7175  155.2568  128.8342 O   0  0  0  0  0  0  0  0  0  0  0  0
  167.2917  152.9413  128.9798 C   0  0  0  0  0  0  0  0  0  0  0  0
  167.3717  152.4556  130.4494 C   0  0  0  0  0  0  0  0  0  0  0  0
  168.7865  153.0301  128.6259 C   0  0  0  0  0  0  0  0  0  0  0  0
  1  2  1  6
  2  3  1  0
  3  4  1  0
  4  5  1  6
  4  6  1  0
  6  7  1  6
  7  8  1  0
  8  9  1  0
  9 10  2  0
 10 11  1  0
 11 12  1  0
 12 13  1  0
 12 14  1  0
 12 15  1  0
 15 16  1  0
 16 17  1  0
 17 18  1  6
 17 19  1  0
 19 20  1  6
 19 21  1  0
 21 22  1  0
 22 23  1  1
  6 24  1  0
 24 25  1  6
 24 26  1  0
 26 27  1  0
 27 28  1  0
 28 29  1  6
 28 30  1  0
 30 31  1  0
 30 32  1  0
 24  1  1  0
 30  1  1  0
 22  4  1  0
 22  9  1  0
 17 10  1  0
M  END
$$$$
