
     RDKit          3D

 32 36  0  0  0  0  0  0  0  0999 V2000
  168.7192  146.0464  126.8483 C   0  0  2  0  0  0  0  0  0  0  0  0
  167.3102  145.6470  126.5212 C   0  0  0  0  0  0  0  0  0  0  0  0
  166.3259  146.6993  126.3069 C   0  0  0  0  0  0  0  0  0  0  0  0
  166.7524  148.1063  126.1623 C   0  0  2  0  0  0  0  0  0  0  0  0
  166.3835  148.6476  124.7719 C   0  0  0  0  0  0  0  0  0  0  0  0
  168.2083  148.3373  126.4285 C   0  0  2  0  0  0  0  0  0  0  0  0
  168.6652  149.7153  126.0407 C   0  0  0  0  0  0  0  0  0  0  0  0
  167.8877  150.6556  126.9657 C   0  0  0  0  0  0  0  0  0  0  0  0
  166.4176  150.4241  126.8585 C   0  0  0  0  0  0  0  0  0  0  0  0
  165.6408  151.4171  126.5456 C   0  0  0  0  0  0  0  0  0  0  0  0
  166.1039  152.8319  126.2692 C   0  0  0  0  0  0  0  0  0  0  0  0
  165.6644  153.7213  127.4411 C   0  0  0  0  0  0  0  0  0  0  0  0
  165.1457  154.9991  126.8574 C   0  0  0  0  0  0  0  0  0  0  0  0
  166.7907  153.9642  128.4126 C   0  0  0  0  0  0  0  0  0  0  0  0
  164.5476  153.0150  128.1976 C   0  0  0  0  0  0  0  0  0  0  0  0
  163.5679  152.4548  127.1872 C   0  0  0  0  0  0  0  0  0  0  0  0
  164.1628  151.2509  126.4407 C   0  0  1  0  0  0  0  0  0  0  0  0
  163.6796  151.3766  124.9975 C   0  0  0  0  0  0  0  0  0  0  0  0
  163.6657  150.0376  127.0993 C   0  0  1  0  0  0  0  0  0  0  0  0
  162.3761  149.7616  126.6130 O   0  0  0  0  0  0  0  0  0  0  0  0
  164.4977  148.8062  126.8463 C   0  0  0  0  0  0  0  0  0  0  0  0
  165.9578  149.0320  127.1230 C   0  0  1  0  0  0  0  0  0  0  0  0
  166.2301  148.6561  128.5496 C   0  0  0  0  0  0  0  0  0  0  0  0
  169.1149  147.2194  125.9948 C   0  0  2  0  0  0  0  0  0  0  0  0
  169.0775  146.9218  124.5248 C   0  0  0  0  0  0  0  0  0  0  0  0
  170.5281  147.5911  126.3313 C   0  0  0  0  0  0  0  0  0  0  0  0
  171.4859  146.4665  126.1756 C   0  0  0  0  0  0  0  0  0  0  0  0
  171.0803  145.1535  126.7221 C   0  0  2  0  0  0  0  0  0  0  0  0
  171.6297  144.1641  125.8658 O   0  0  0  0  0  0  0  0  0  0  0  0
  169.6363  144.8943  126.8940 C   0  0  0  0  0  0  0  0  0  0  0  0
  169.4681  144.2506  128.2939 C   0  0  0  0  0  0  0  0  0  0  0  0
  169.1919  143.7319  125.9892 C   0  0  0  0  0  0  0  0  0  0  0  0
  1  2  1  6
  2  3  1  0
  3  4  1  0
  4  5  1  6
  4  6  1  0
  6  7  1  6
  7  8  1  0
  8  9  1  0
  9 10  2  0
 10 11  1  0
 11 12  1  0
 12 13  1  0
 12 14  1  0
 12 15  1  0
 15 16  1  0
 16 17  1  0
 17 18  1  6
 17 19  1  0
 19 20  1  6
 19 21  1  0
 21 22  1  0
 22 23  1  1
  6 24  1  0
 24 25  1  6
 24 26  1  0
 26 27  1  0
 27 28  1  0
 28 29  1  6
 28 30  1  0
 30 31  1  0
 30 32  1  0
 24  1  1  0
 30  1  1  0
 22  4  1  0
 22  9  1  0
 17 10  1  0
M  END
$$$$
