
     RDKit          3D

 32 36  0  0  0  0  0  0  0  0999 V2000
  113.8009  159.3077  164.8057 C   0  0  2  0  0  0  0  0  0  0  0  0
  112.3735  159.7498  164.6674 C   0  0  0  0  0  0  0  0  0  0  0  0
  112.0461  160.7107  163.6226 C   0  0  0  0  0  0  0  0  0  0  0  0
  113.0320  161.0422  162.5736 C   0  0  2  0  0  0  0  0  0  0  0  0
  112.5094  160.6364  161.1864 C   0  0  0  0  0  0  0  0  0  0  0  0
  114.3902  160.4518  162.7984 C   0  0  2  0  0  0  0  0  0  0  0  0
  115.2978  160.5959  161.6095 C   0  0  0  0  0  0  0  0  0  0  0  0
  115.4889  162.1066  161.4491 C   0  0  0  0  0  0  0  0  0  0  0  0
  114.1767  162.8068  161.3306 C   0  0  0  0  0  0  0  0  0  0  0  0
  113.9474  163.5516  160.2913 C   0  0  0  0  0  0  0  0  0  0  0  0
  114.9184  163.7810  159.1525 C   0  0  0  0  0  0  0  0  0  0  0  0
  115.4395  165.2224  159.2452 C   0  0  0  0  0  0  0  0  0  0  0  0
  115.4579  165.7772  157.8544 C   0  0  0  0  0  0  0  0  0  0  0  0
  116.7988  165.2856  159.8930 C   0  0  0  0  0  0  0  0  0  0  0  0
  114.4805  166.0334  160.1060 C   0  0  0  0  0  0  0  0  0  0  0  0
  113.0643  165.7042  159.6812 C   0  0  0  0  0  0  0  0  0  0  0  0
  112.6623  164.2897  160.1263 C   0  0  1  0  0  0  0  0  0  0  0  0
  111.8232  163.7179  158.9856 C   0  0  0  0  0  0  0  0  0  0  0  0
  111.9031  164.4221  161.3748 C   0  0  1  0  0  0  0  0  0  0  0  0
  110.5739  164.7506  161.0568 O   0  0  0  0  0  0  0  0  0  0  0  0
  111.8524  163.1676  162.2091 C   0  0  0  0  0  0  0  0  0  0  0  0
  113.2152  162.5789  162.4454 C   0  0  1  0  0  0  0  0  0  0  0  0
  113.7573  163.1456  163.7243 C   0  0  0  0  0  0  0  0  0  0  0  0
  114.3897  159.0919  163.4391 C   0  0  2  0  0  0  0  0  0  0  0  0
  113.6808  158.0315  162.6492 C   0  0  0  0  0  0  0  0  0  0  0  0
  115.8099  158.6399  163.6043 C   0  0  0  0  0  0  0  0  0  0  0  0
  115.9468  157.4238  164.4460 C   0  0  0  0  0  0  0  0  0  0  0  0
  115.1694  157.3817  165.7034 C   0  0  2  0  0  0  0  0  0  0  0  0
  114.7990  156.0279  165.9129 O   0  0  0  0  0  0  0  0  0  0  0  0
  113.9648  158.2313  165.7982 C   0  0  0  0  0  0  0  0  0  0  0  0
  114.0165  158.9154  167.1879 C   0  0  0  0  0  0  0  0  0  0  0  0
  112.7077  157.3581  165.9557 C   0  0  0  0  0  0  0  0  0  0  0  0
  1  2  1  6
  2  3  1  0
  3  4  1  0
  4  5  1  6
  4  6  1  0
  6  7  1  6
  7  8  1  0
  8  9  1  0
  9 10  2  0
 10 11  1  0
 11 12  1  0
 12 13  1  0
 12 14  1  0
 12 15  1  0
 15 16  1  0
 16 17  1  0
 17 18  1  6
 17 19  1  0
 19 20  1  6
 19 21  1  0
 21 22  1  0
 22 23  1  1
  6 24  1  0
 24 25  1  6
 24 26  1  0
 26 27  1  0
 27 28  1  0
 28 29  1  6
 28 30  1  0
 30 31  1  0
 30 32  1  0
 24  1  1  0
 30  1  1  0
 22  4  1  0
 22  9  1  0
 17 10  1  0
M  END
$$$$
