
     RDKit          3D

 32 36  0  0  0  0  0  0  0  0999 V2000
  162.7796  147.8313  125.9392 C   0  0  2  0  0  0  0  0  0  0  0  0
  162.2358  148.4261  127.2050 C   0  0  0  0  0  0  0  0  0  0  0  0
  163.1251  149.2383  128.0245 C   0  0  0  0  0  0  0  0  0  0  0  0
  164.4363  149.6740  127.5018 C   0  0  2  0  0  0  0  0  0  0  0  0
  164.5047  151.2067  127.4101 C   0  0  0  0  0  0  0  0  0  0  0  0
  164.8035  149.0684  126.1818 C   0  0  2  0  0  0  0  0  0  0  0  0
  166.0135  149.7056  125.5591 C   0  0  0  0  0  0  0  0  0  0  0  0
  167.1575  149.3926  126.5274 C   0  0  0  0  0  0  0  0  0  0  0  0
  166.8383  149.8587  127.9084 C   0  0  0  0  0  0  0  0  0  0  0  0
  167.6501  150.6797  128.5036 C   0  0  0  0  0  0  0  0  0  0  0  0
  168.9298  151.2258  127.9064 C   0  0  0  0  0  0  0  0  0  0  0  0
  170.1169  150.5728  128.6290 C   0  0  0  0  0  0  0  0  0  0  0  0
  171.1274  151.6485  128.8827 C   0  0  0  0  0  0  0  0  0  0  0  0
  170.6983  149.4328  127.8331 C   0  0  0  0  0  0  0  0  0  0  0  0
  169.6292  150.0071  129.9558 C   0  0  0  0  0  0  0  0  0  0  0  0
  168.7409  151.0408  130.6168 C   0  0  0  0  0  0  0  0  0  0  0  0
  167.3933  151.1662  129.8895 C   0  0  1  0  0  0  0  0  0  0  0  0
  167.0455  152.6530  129.9126 C   0  0  0  0  0  0  0  0  0  0  0  0
  166.4216  150.3471  130.6228 C   0  0  1  0  0  0  0  0  0  0  0  0
  165.9512  151.0878  131.7209 O   0  0  0  0  0  0  0  0  0  0  0  0
  165.2110  149.9473  129.8184 C   0  0  0  0  0  0  0  0  0  0  0  0
  165.5768  149.3294  128.4978 C   0  0  1  0  0  0  0  0  0  0  0  0
  165.6723  147.8438  128.6837 C   0  0  0  0  0  0  0  0  0  0  0  0
  163.6483  148.8444  125.2464 C   0  0  2  0  0  0  0  0  0  0  0  0
  162.9099  150.0915  124.8585 C   0  0  0  0  0  0  0  0  0  0  0  0
  164.1689  148.2314  123.9808 C   0  0  0  0  0  0  0  0  0  0  0  0
  163.0955  147.7389  123.0799 C   0  0  0  0  0  0  0  0  0  0  0  0
  161.9985  146.9630  123.6978 C   0  0  2  0  0  0  0  0  0  0  0  0
  160.8188  147.2672  122.9699 O   0  0  0  0  0  0  0  0  0  0  0  0
  161.7404  147.1607  125.1386 C   0  0  0  0  0  0  0  0  0  0  0  0
  161.5534  145.7489  125.7503 C   0  0  0  0  0  0  0  0  0  0  0  0
  160.3367  147.7533  125.3523 C   0  0  0  0  0  0  0  0  0  0  0  0
  1  2  1  1
  2  3  1  0
  3  4  1  0
  4  5  1  6
  4  6  1  0
  6  7  1  6
  7  8  1  0
  8  9  1  0
  9 10  2  0
 10 11  1  0
 11 12  1  0
 12 13  1  0
 12 14  1  0
 12 15  1  0
 15 16  1  0
 16 17  1  0
 17 18  1  6
 17 19  1  0
 19 20  1  1
 19 21  1  0
 21 22  1  0
 22 23  1  1
  6 24  1  0
 24 25  1  6
 24 26  1  0
 26 27  1  0
 27 28  1  0
 28 29  1  6
 28 30  1  0
 30 31  1  0
 30 32  1  0
 24  1  1  0
 30  1  1  0
 22  4  1  0
 22  9  1  0
 17 10  1  0
M  END
$$$$
