
     RDKit          3D

 32 36  0  0  0  0  0  0  0  0999 V2000
  174.9659  161.8353  112.9894 C   0  0  2  0  0  0  0  0  0  0  0  0
  175.3326  163.2695  113.2350 C   0  0  0  0  0  0  0  0  0  0  0  0
  174.5057  164.3069  112.6331 C   0  0  0  0  0  0  0  0  0  0  0  0
  173.2065  163.9666  112.0178 C   0  0  2  0  0  0  0  0  0  0  0  0
  172.0537  164.6635  112.7578 C   0  0  0  0  0  0  0  0  0  0  0  0
  172.9368  162.4960  111.9255 C   0  0  2  0  0  0  0  0  0  0  0  0
  171.5225  162.1818  111.5269 C   0  0  0  0  0  0  0  0  0  0  0  0
  171.3834  162.7506  110.1122 C   0  0  0  0  0  0  0  0  0  0  0  0
  171.7434  164.1981  110.0749 C   0  0  0  0  0  0  0  0  0  0  0  0
  170.8783  165.0548  109.6221 C   0  0  0  0  0  0  0  0  0  0  0  0
  169.4943  164.7098  109.1142 C   0  0  0  0  0  0  0  0  0  0  0  0
  169.4804  164.8913  107.5896 C   0  0  0  0  0  0  0  0  0  0  0  0
  168.1924  165.5681  107.2356 C   0  0  0  0  0  0  0  0  0  0  0  0
  169.6414  163.5780  106.8680 C   0  0  0  0  0  0  0  0  0  0  0  0
  170.6507  165.7812  107.1935 C   0  0  0  0  0  0  0  0  0  0  0  0
  170.7053  166.9518  108.1533 C   0  0  0  0  0  0  0  0  0  0  0  0
  171.1873  166.5114  109.5442 C   0  0  1  0  0  0  0  0  0  0  0  0
  170.3637  167.3195  110.5445 C   0  0  0  0  0  0  0  0  0  0  0  0
  172.6223  166.8067  109.6245 C   0  0  1  0  0  0  0  0  0  0  0  0
  172.7815  168.1653  109.9478 O   0  0  0  0  0  0  0  0  0  0  0  0
  173.3620  166.0206  110.6768 C   0  0  0  0  0  0  0  0  0  0  0  0
  173.1017  164.5434  110.5798 C   0  0  1  0  0  0  0  0  0  0  0  0
  174.1541  163.9369  109.6993 C   0  0  0  0  0  0  0  0  0  0  0  0
  173.4722  161.6825  113.0707 C   0  0  2  0  0  0  0  0  0  0  0  0
  172.9112  162.0510  114.4125 C   0  0  0  0  0  0  0  0  0  0  0  0
  173.1327  160.2413  112.8342 C   0  0  0  0  0  0  0  0  0  0  0  0
  173.8189  159.3134  113.7692 C   0  0  0  0  0  0  0  0  0  0  0  0
  175.2595  159.5428  114.0124 C   0  0  2  0  0  0  0  0  0  0  0  0
  175.5123  159.1785  115.3605 O   0  0  0  0  0  0  0  0  0  0  0  0
  175.7921  160.8994  113.7718 C   0  0  0  0  0  0  0  0  0  0  0  0
  177.1178  160.7197  112.9894 C   0  0  0  0  0  0  0  0  0  0  0  0
  176.3149  161.5075  115.0849 C   0  0  0  0  0  0  0  0  0  0  0  0
  1  2  1  1
  2  3  1  0
  3  4  1  0
  4  5  1  1
  4  6  1  0
  6  7  1  1
  7  8  1  0
  8  9  1  0
  9 10  2  0
 10 11  1  0
 11 12  1  0
 12 13  1  0
 12 14  1  0
 12 15  1  0
 15 16  1  0
 16 17  1  0
 17 18  1  1
 17 19  1  0
 19 20  1  1
 19 21  1  0
 21 22  1  0
 22 23  1  6
  6 24  1  0
 24 25  1  1
 24 26  1  0
 26 27  1  0
 27 28  1  0
 28 29  1  1
 28 30  1  0
 30 31  1  0
 30 32  1  0
 24  1  1  0
 30  1  1  0
 22  4  1  0
 22  9  1  0
 17 10  1  0
M  END
$$$$
