
     RDKit          3D

 32 36  0  0  0  0  0  0  0  0999 V2000
  190.8513  176.2614  124.6254 C   0  0  2  0  0  0  0  0  0  0  0  0
  190.9859  177.7267  124.3308 C   0  0  0  0  0  0  0  0  0  0  0  0
  190.2761  178.6708  125.1834 C   0  0  0  0  0  0  0  0  0  0  0  0
  189.6553  178.2203  126.4459 C   0  0  2  0  0  0  0  0  0  0  0  0
  190.3017  178.9209  127.6516 C   0  0  0  0  0  0  0  0  0  0  0  0
  189.6792  176.7361  126.6469 C   0  0  2  0  0  0  0  0  0  0  0  0
  189.2688  176.3240  128.0324 C   0  0  0  0  0  0  0  0  0  0  0  0
  187.8081  176.7669  128.1515 C   0  0  0  0  0  0  0  0  0  0  0  0
  187.6595  178.2217  127.8552 C   0  0  0  0  0  0  0  0  0  0  0  0
  187.1124  178.9966  128.7426 C   0  0  0  0  0  0  0  0  0  0  0  0
  186.5966  178.5463  130.0931 C   0  0  0  0  0  0  0  0  0  0  0  0
  185.0623  178.6004  130.0664 C   0  0  0  0  0  0  0  0  0  0  0  0
  184.6168  179.1845  131.3714 C   0  0  0  0  0  0  0  0  0  0  0  0
  184.4583  177.2411  129.8243 C   0  0  0  0  0  0  0  0  0  0  0  0
  184.6260  179.5087  128.9249 C   0  0  0  0  0  0  0  0  0  0  0  0
  185.4854  180.7557  128.9529 C   0  0  0  0  0  0  0  0  0  0  0  0
  186.9212  180.4547  128.4963 C   0  0  1  0  0  0  0  0  0  0  0  0
  187.8268  181.3030  129.3865 C   0  0  0  0  0  0  0  0  0  0  0  0
  187.0168  180.8227  127.0792 C   0  0  1  0  0  0  0  0  0  0  0  0
  187.2293  182.2093  126.9910 O   0  0  0  0  0  0  0  0  0  0  0  0
  188.1516  180.1617  126.3392 C   0  0  0  0  0  0  0  0  0  0  0  0
  188.1717  178.6709  126.5303 C   0  0  1  0  0  0  0  0  0  0  0  0
  187.3750  178.0439  125.4245 C   0  0  0  0  0  0  0  0  0  0  0  0
  190.9032  176.0459  126.1126 C   0  0  2  0  0  0  0  0  0  0  0  0
  192.1930  176.4971  126.7319 C   0  0  0  0  0  0  0  0  0  0  0  0
  190.7789  174.5757  126.3800 C   0  0  0  0  0  0  0  0  0  0  0  0
  191.8074  173.7614  125.6834 C   0  0  0  0  0  0  0  0  0  0  0  0
  192.0708  174.0775  124.2629 C   0  0  2  0  0  0  0  0  0  0  0  0
  193.4513  173.8379  124.0372 O   0  0  0  0  0  0  0  0  0  0  0  0
  191.7323  175.4331  123.7838 C   0  0  0  0  0  0  0  0  0  0  0  0
  191.0052  175.2519  122.4270 C   0  0  0  0  0  0  0  0  0  0  0  0
  193.0039  176.1714  123.3306 C   0  0  0  0  0  0  0  0  0  0  0  0
  1  2  1  1
  2  3  1  0
  3  4  1  0
  4  5  1  1
  4  6  1  0
  6  7  1  1
  7  8  1  0
  8  9  1  0
  9 10  2  0
 10 11  1  0
 11 12  1  0
 12 13  1  0
 12 14  1  0
 12 15  1  0
 15 16  1  0
 16 17  1  0
 17 18  1  1
 17 19  1  0
 19 20  1  1
 19 21  1  0
 21 22  1  0
 22 23  1  6
  6 24  1  0
 24 25  1  1
 24 26  1  0
 26 27  1  0
 27 28  1  0
 28 29  1  1
 28 30  1  0
 30 31  1  0
 30 32  1  0
 24  1  1  0
 30  1  1  0
 22  4  1  0
 22  9  1  0
 17 10  1  0
M  END
$$$$
