
     RDKit          3D

 32 36  0  0  0  0  0  0  0  0999 V2000
  152.3496  164.2661  127.9891 C   0  0  2  0  0  0  0  0  0  0  0  0
  151.3030  163.6814  127.0864 C   0  0  0  0  0  0  0  0  0  0  0  0
  151.5652  163.6506  125.6538 C   0  0  0  0  0  0  0  0  0  0  0  0
  152.9155  163.9465  125.1325 C   0  0  2  0  0  0  0  0  0  0  0  0
  153.4996  162.7241  124.4068 C   0  0  0  0  0  0  0  0  0  0  0  0
  153.8814  164.4324  126.1693 C   0  0  2  0  0  0  0  0  0  0  0  0
  155.2977  164.4917  125.6710 C   0  0  0  0  0  0  0  0  0  0  0  0
  155.2727  165.5421  124.5573 C   0  0  0  0  0  0  0  0  0  0  0  0
  154.2523  165.2062  123.5217 C   0  0  0  0  0  0  0  0  0  0  0  0
  154.6223  165.0889  122.2820 C   0  0  0  0  0  0  0  0  0  0  0  0
  156.0380  165.2654  121.7749 C   0  0  0  0  0  0  0  0  0  0  0  0
  156.1058  166.5768  120.9791 C   0  0  0  0  0  0  0  0  0  0  0  0
  156.9209  166.3087  119.7518 C   0  0  0  0  0  0  0  0  0  0  0  0
  156.6815  167.7012  121.8009 C   0  0  0  0  0  0  0  0  0  0  0  0
  154.6929  166.9767  120.5765 C   0  0  0  0  0  0  0  0  0  0  0  0
  153.9782  165.7453  120.0595 C   0  0  0  0  0  0  0  0  0  0  0  0
  153.6454  164.7722  121.2010 C   0  0  1  0  0  0  0  0  0  0  0  0
  153.8652  163.3725  120.6312 C   0  0  0  0  0  0  0  0  0  0  0  0
  152.2508  165.0118  121.5887 C   0  0  1  0  0  0  0  0  0  0  0  0
  151.4136  164.3226  120.6943 O   0  0  0  0  0  0  0  0  0  0  0  0
  151.8975  164.5299  122.9727 C   0  0  0  0  0  0  0  0  0  0  0  0
  152.8591  165.0249  124.0167 C   0  0  1  0  0  0  0  0  0  0  0  0
  152.3307  166.3159  124.5688 C   0  0  0  0  0  0  0  0  0  0  0  0
  153.7095  163.8176  127.5303 C   0  0  2  0  0  0  0  0  0  0  0  0
  153.8859  162.3282  127.5678 C   0  0  0  0  0  0  0  0  0  0  0  0
  154.7351  164.4041  128.4536 C   0  0  0  0  0  0  0  0  0  0  0  0
  154.5091  164.0590  129.8805 C   0  0  0  0  0  0  0  0  0  0  0  0
  153.1264  164.1749  130.3925 C   0  0  2  0  0  0  0  0  0  0  0  0
  152.9588  163.1503  131.3600 O   0  0  0  0  0  0  0  0  0  0  0  0
  152.0209  164.1010  129.4157 C   0  0  0  0  0  0  0  0  0  0  0  0
  151.0366  165.2422  129.7775 C   0  0  0  0  0  0  0  0  0  0  0  0
  151.1443  162.8678  129.6950 C   0  0  0  0  0  0  0  0  0  0  0  0
  1  2  1  6
  2  3  1  0
  3  4  1  0
  4  5  1  6
  4  6  1  0
  6  7  1  6
  7  8  1  0
  8  9  1  0
  9 10  2  0
 10 11  1  0
 11 12  1  0
 12 13  1  0
 12 14  1  0
 12 15  1  0
 15 16  1  0
 16 17  1  0
 17 18  1  6
 17 19  1  0
 19 20  1  6
 19 21  1  0
 21 22  1  0
 22 23  1  1
  6 24  1  0
 24 25  1  6
 24 26  1  0
 26 27  1  0
 27 28  1  0
 28 29  1  1
 28 30  1  0
 30 31  1  0
 30 32  1  0
 24  1  1  0
 30  1  1  0
 22  4  1  0
 22  9  1  0
 17 10  1  0
M  END
$$$$
