
     RDKit          3D

 32 36  0  0  0  0  0  0  0  0999 V2000
  148.2531  169.0498  128.5474 C   0  0  2  0  0  0  0  0  0  0  0  0
  149.1500  168.0244  127.9179 C   0  0  0  0  0  0  0  0  0  0  0  0
  149.0849  166.6546  128.4095 C   0  0  0  0  0  0  0  0  0  0  0  0
  147.9960  166.2343  129.3150 C   0  0  2  0  0  0  0  0  0  0  0  0
  147.1344  165.1423  128.6614 C   0  0  0  0  0  0  0  0  0  0  0  0
  147.1232  167.3559  129.7883 C   0  0  2  0  0  0  0  0  0  0  0  0
  145.8896  166.8797  130.5021 C   0  0  0  0  0  0  0  0  0  0  0  0
  146.4157  166.1664  131.7505 C   0  0  0  0  0  0  0  0  0  0  0  0
  147.3898  165.0953  131.3897 C   0  0  0  0  0  0  0  0  0  0  0  0
  147.1695  163.8783  131.7869 C   0  0  0  0  0  0  0  0  0  0  0  0
  145.9774  163.4317  132.6065 C   0  0  0  0  0  0  0  0  0  0  0  0
  146.4632  163.1020  134.0253 C   0  0  0  0  0  0  0  0  0  0  0  0
  145.7755  161.8403  134.4471 C   0  0  0  0  0  0  0  0  0  0  0  0
  146.1984  164.2336  134.9848 C   0  0  0  0  0  0  0  0  0  0  0  0
  147.9682  162.8744  133.9851 C   0  0  0  0  0  0  0  0  0  0  0  0
  148.2860  161.9990  132.7905 C   0  0  0  0  0  0  0  0  0  0  0  0
  148.1157  162.7697  131.4723 C   0  0  1  0  0  0  0  0  0  0  0  0
  147.5129  161.7740  130.4837 C   0  0  0  0  0  0  0  0  0  0  0  0
  149.4447  163.2377  131.0633 C   0  0  1  0  0  0  0  0  0  0  0  0
  150.1101  162.1827  130.4151 O   0  0  0  0  0  0  0  0  0  0  0  0
  149.4277  164.3971  130.1000 C   0  0  0  0  0  0  0  0  0  0  0  0
  148.5611  165.5286  130.5776 C   0  0  1  0  0  0  0  0  0  0  0  0
  149.4170  166.4776  131.3634 C   0  0  0  0  0  0  0  0  0  0  0  0
  146.8952  168.4475  128.7801 C   0  0  2  0  0  0  0  0  0  0  0  0
  146.2220  167.9980  127.5169 C   0  0  0  0  0  0  0  0  0  0  0  0
  146.0158  169.4934  129.3975 C   0  0  0  0  0  0  0  0  0  0  0  0
  145.9207  170.7355  128.5885 C   0  0  0  0  0  0  0  0  0  0  0  0
  147.1803  171.2808  128.0378 C   0  0  2  0  0  0  0  0  0  0  0  0
  146.8618  171.8674  126.7855 O   0  0  0  0  0  0  0  0  0  0  0  0
  148.3147  170.3515  127.8603 C   0  0  0  0  0  0  0  0  0  0  0  0
  149.5699  171.0798  128.4046 C   0  0  0  0  0  0  0  0  0  0  0  0
  148.6773  170.2316  126.3698 C   0  0  0  0  0  0  0  0  0  0  0  0
  1  2  1  6
  2  3  1  0
  3  4  1  0
  4  5  1  6
  4  6  1  0
  6  7  1  6
  7  8  1  0
  8  9  1  0
  9 10  2  0
 10 11  1  0
 11 12  1  0
 12 13  1  0
 12 14  1  0
 12 15  1  0
 15 16  1  0
 16 17  1  0
 17 18  1  6
 17 19  1  0
 19 20  1  6
 19 21  1  0
 21 22  1  0
 22 23  1  1
  6 24  1  0
 24 25  1  6
 24 26  1  0
 26 27  1  0
 27 28  1  0
 28 29  1  6
 28 30  1  0
 30 31  1  0
 30 32  1  0
 24  1  1  0
 30  1  1  0
 22  4  1  0
 22  9  1  0
 17 10  1  0
M  END
$$$$
