
     RDKit          3D

 32 36  0  0  0  0  0  0  0  0999 V2000
  175.0365  166.6226  109.3522 C   0  0  2  0  0  0  0  0  0  0  0  0
  174.0080  165.8576  108.5719 C   0  0  0  0  0  0  0  0  0  0  0  0
  173.3122  164.7624  109.2340 C   0  0  0  0  0  0  0  0  0  0  0  0
  173.4273  164.5758  110.6950 C   0  0  2  0  0  0  0  0  0  0  0  0
  172.0576  164.7330  111.3742 C   0  0  0  0  0  0  0  0  0  0  0  0
  174.4277  165.4763  111.3524 C   0  0  2  0  0  0  0  0  0  0  0  0
  174.3527  165.4419  112.8528 C   0  0  0  0  0  0  0  0  0  0  0  0
  174.7312  164.0062  113.2266 C   0  0  0  0  0  0  0  0  0  0  0  0
  173.8580  163.0186  112.5277 C   0  0  0  0  0  0  0  0  0  0  0  0
  173.1883  162.1557  113.2307 C   0  0  0  0  0  0  0  0  0  0  0  0
  173.2112  162.0573  114.7415 C   0  0  0  0  0  0  0  0  0  0  0  0
  173.9780  160.7853  115.1308 C   0  0  0  0  0  0  0  0  0  0  0  0
  173.2182  160.1332  116.2444 C   0  0  0  0  0  0  0  0  0  0  0  0
  175.4011  161.0878  115.5239 C   0  0  0  0  0  0  0  0  0  0  0  0
  174.0204  159.8535  113.9273 C   0  0  0  0  0  0  0  0  0  0  0  0
  172.6396  159.8150  113.3057 C   0  0  0  0  0  0  0  0  0  0  0  0
  172.3133  161.1337  112.5879 C   0  0  1  0  0  0  0  0  0  0  0  0
  170.8349  161.4009  112.8614 C   0  0  0  0  0  0  0  0  0  0  0  0
  172.5978  160.9386  111.1618 C   0  0  1  0  0  0  0  0  0  0  0  0
  171.4988  160.2909  110.5715 O   0  0  0  0  0  0  0  0  0  0  0  0
  172.8154  162.2149  110.3897 C   0  0  0  0  0  0  0  0  0  0  0  0
  173.8269  163.1158  111.0415 C   0  0  1  0  0  0  0  0  0  0  0  0
  175.1773  162.7978  110.4706 C   0  0  0  0  0  0  0  0  0  0  0  0
  174.5327  166.8498  110.7505 C   0  0  2  0  0  0  0  0  0  0  0  0
  173.2648  167.6504  110.8007 C   0  0  0  0  0  0  0  0  0  0  0  0
  175.5710  167.6251  111.5050 C   0  0  0  0  0  0  0  0  0  0  0  0
  175.9388  168.9075  110.8519 C   0  0  0  0  0  0  0  0  0  0  0  0
  176.1760  168.8783  109.3924 C   0  0  2  0  0  0  0  0  0  0  0  0
  175.7342  170.1252  108.8787 O   0  0  0  0  0  0  0  0  0  0  0  0
  175.5530  167.7884  108.6141 C   0  0  0  0  0  0  0  0  0  0  0  0
  176.6447  167.2544  107.6522 C   0  0  0  0  0  0  0  0  0  0  0  0
  174.5411  168.3631  107.6076 C   0  0  0  0  0  0  0  0  0  0  0  0
  1  2  1  6
  2  3  1  0
  3  4  1  0
  4  5  1  1
  4  6  1  0
  6  7  1  1
  7  8  1  0
  8  9  1  0
  9 10  2  0
 10 11  1  0
 11 12  1  0
 12 13  1  0
 12 14  1  0
 12 15  1  0
 15 16  1  0
 16 17  1  0
 17 18  1  6
 17 19  1  0
 19 20  1  6
 19 21  1  0
 21 22  1  0
 22 23  1  6
  6 24  1  0
 24 25  1  6
 24 26  1  0
 26 27  1  0
 27 28  1  0
 28 29  1  6
 28 30  1  0
 30 31  1  0
 30 32  1  0
 24  1  1  0
 30  1  1  0
 22  4  1  0
 22  9  1  0
 17 10  1  0
M  END
$$$$
