
     RDKit          3D

 32 36  0  0  0  0  0  0  0  0999 V2000
  218.2941  162.1828  143.5250 C   0  0  2  0  0  0  0  0  0  0  0  0
  217.7746  163.5899  143.5734 C   0  0  0  0  0  0  0  0  0  0  0  0
  216.3413  163.7918  143.7380 C   0  0  0  0  0  0  0  0  0  0  0  0
  215.4622  162.6618  144.1021 C   0  0  2  0  0  0  0  0  0  0  0  0
  214.7947  162.9074  145.4645 C   0  0  0  0  0  0  0  0  0  0  0  0
  216.1444  161.3282  144.1027 C   0  0  2  0  0  0  0  0  0  0  0  0
  215.3044  160.2386  144.7070 C   0  0  0  0  0  0  0  0  0  0  0  0
  214.0948  160.1207  143.7758 C   0  0  0  0  0  0  0  0  0  0  0  0
  213.4060  161.4347  143.6169 C   0  0  0  0  0  0  0  0  0  0  0  0
  212.1429  161.5272  143.9056 C   0  0  0  0  0  0  0  0  0  0  0  0
  211.2780  160.3895  144.4056 C   0  0  0  0  0  0  0  0  0  0  0  0
  210.3125  159.9870  143.2816 C   0  0  0  0  0  0  0  0  0  0  0  0
  208.9713  159.7625  143.9086 C   0  0  0  0  0  0  0  0  0  0  0  0
  210.7958  158.7683  142.5382 C   0  0  0  0  0  0  0  0  0  0  0  0
  210.2236  161.1317  142.2815 C   0  0  0  0  0  0  0  0  0  0  0  0
  210.0822  162.4279  143.0523 C   0  0  0  0  0  0  0  0  0  0  0  0
  211.3970  162.8089  143.7502 C   0  0  1  0  0  0  0  0  0  0  0  0
  210.9951  163.3977  145.1007 C   0  0  0  0  0  0  0  0  0  0  0  0
  212.0832  163.7809  142.8917 C   0  0  1  0  0  0  0  0  0  0  0  0
  211.5340  165.0528  143.1291 O   0  0  0  0  0  0  0  0  0  0  0  0
  213.5656  163.8949  143.1411 C   0  0  0  0  0  0  0  0  0  0  0  0
  214.2545  162.5589  143.1315 C   0  0  1  0  0  0  0  0  0  0  0  0
  214.7320  162.2857  141.7358 C   0  0  0  0  0  0  0  0  0  0  0  0
  217.5782  161.3523  144.5538 C   0  0  2  0  0  0  0  0  0  0  0  0
  217.7816  161.8427  145.9570 C   0  0  0  0  0  0  0  0  0  0  0  0
  218.1226  159.9564  144.4938 C   0  0  0  0  0  0  0  0  0  0  0  0
  219.5947  159.8897  144.6798 C   0  0  0  0  0  0  0  0  0  0  0  0
  220.4145  160.8699  143.9353 C   0  0  2  0  0  0  0  0  0  0  0  0
  221.5286  161.1828  144.7567 O   0  0  0  0  0  0  0  0  0  0  0  0
  219.7661  162.1250  143.5039 C   0  0  0  0  0  0  0  0  0  0  0  0
  220.1968  162.3605  142.0338 C   0  0  0  0  0  0  0  0  0  0  0  0
  220.4282  163.3311  144.1927 C   0  0  0  0  0  0  0  0  0  0  0  0
  1  2  1  1
  2  3  1  0
  3  4  1  0
  4  5  1  1
  4  6  1  0
  6  7  1  1
  7  8  1  0
  8  9  1  0
  9 10  2  0
 10 11  1  0
 11 12  1  0
 12 13  1  0
 12 14  1  0
 12 15  1  0
 15 16  1  0
 16 17  1  0
 17 18  1  1
 17 19  1  0
 19 20  1  1
 19 21  1  0
 21 22  1  0
 22 23  1  6
  6 24  1  0
 24 25  1  1
 24 26  1  0
 26 27  1  0
 27 28  1  0
 28 29  1  1
 28 30  1  0
 30 31  1  0
 30 32  1  0
 24  1  1  0
 30  1  1  0
 22  4  1  0
 22  9  1  0
 17 10  1  0
M  END
$$$$
