
     RDKit          3D

 32 36  0  0  0  0  0  0  0  0999 V2000
  169.6426  147.3068  114.6022 C   0  0  2  0  0  0  0  0  0  0  0  0
  168.4402  146.8242  115.3594 C   0  0  0  0  0  0  0  0  0  0  0  0
  168.5159  146.7683  116.8131 C   0  0  0  0  0  0  0  0  0  0  0  0
  169.6398  147.4050  117.5301 C   0  0  2  0  0  0  0  0  0  0  0  0
  169.1342  148.5306  118.4462 C   0  0  0  0  0  0  0  0  0  0  0  0
  170.7234  147.9246  116.6358 C   0  0  2  0  0  0  0  0  0  0  0  0
  171.7265  148.7761  117.3616 C   0  0  0  0  0  0  0  0  0  0  0  0
  172.3905  147.8253  118.3612 C   0  0  0  0  0  0  0  0  0  0  0  0
  171.3757  147.1635  119.2322 C   0  0  0  0  0  0  0  0  0  0  0  0
  171.4767  147.2776  120.5223 C   0  0  0  0  0  0  0  0  0  0  0  0
  172.5622  148.0454  121.2466 C   0  0  0  0  0  0  0  0  0  0  0  0
  173.4961  147.0347  121.9278 C   0  0  0  0  0  0  0  0  0  0  0  0
  173.8018  147.5650  123.2945 C   0  0  0  0  0  0  0  0  0  0  0  0
  174.7487  146.7997  121.1236 C   0  0  0  0  0  0  0  0  0  0  0  0
  172.7687  145.7024  122.0479 C   0  0  0  0  0  0  0  0  0  0  0  0
  171.3609  145.9706  122.5382 C   0  0  0  0  0  0  0  0  0  0  0  0
  170.5034  146.6244  121.4437 C   0  0  1  0  0  0  0  0  0  0  0  0
  169.6260  147.6489  122.1598 C   0  0  0  0  0  0  0  0  0  0  0  0
  169.7219  145.5596  120.8047 C   0  0  1  0  0  0  0  0  0  0  0  0
  168.5921  145.2967  121.5985 O   0  0  0  0  0  0  0  0  0  0  0  0
  169.2143  145.9007  119.4268 C   0  0  0  0  0  0  0  0  0  0  0  0
  170.3018  146.4123  118.5240 C   0  0  1  0  0  0  0  0  0  0  0  0
  170.8848  145.2461  117.7819 C   0  0  0  0  0  0  0  0  0  0  0  0
  170.2467  148.4801  115.3228 C   0  0  2  0  0  0  0  0  0  0  0  0
  169.3115  149.6471  115.4429 C   0  0  0  0  0  0  0  0  0  0  0  0
  171.4370  148.9506  114.5415 C   0  0  0  0  0  0  0  0  0  0  0  0
  171.1184  149.2926  113.1316 C   0  0  0  0  0  0  0  0  0  0  0  0
  170.2646  148.3448  112.3833 C   0  0  2  0  0  0  0  0  0  0  0  0
  169.4754  149.1175  111.4921 O   0  0  0  0  0  0  0  0  0  0  0  0
  169.3804  147.4520  113.1597 C   0  0  0  0  0  0  0  0  0  0  0  0
  169.5265  146.0392  112.5394 C   0  0  0  0  0  0  0  0  0  0  0  0
  167.9056  147.7533  112.8409 C   0  0  0  0  0  0  0  0  0  0  0  0
  1  2  1  1
  2  3  1  0
  3  4  1  0
  4  5  1  1
  4  6  1  0
  6  7  1  1
  7  8  1  0
  8  9  1  0
  9 10  2  0
 10 11  1  0
 11 12  1  0
 12 13  1  0
 12 14  1  0
 12 15  1  0
 15 16  1  0
 16 17  1  0
 17 18  1  1
 17 19  1  0
 19 20  1  1
 19 21  1  0
 21 22  1  0
 22 23  1  6
  6 24  1  0
 24 25  1  1
 24 26  1  0
 26 27  1  0
 27 28  1  0
 28 29  1  6
 28 30  1  0
 30 31  1  0
 30 32  1  0
 24  1  1  0
 30  1  1  0
 22  4  1  0
 22  9  1  0
 17 10  1  0
M  END
$$$$
