
     RDKit          3D

 32 36  0  0  0  0  0  0  0  0999 V2000
  132.7442  173.0021  142.2245 C   0  0  2  0  0  0  0  0  0  0  0  0
  132.3558  173.5445  143.5686 C   0  0  0  0  0  0  0  0  0  0  0  0
  131.8988  172.6075  144.5861 C   0  0  0  0  0  0  0  0  0  0  0  0
  132.0558  171.1518  144.3889 C   0  0  2  0  0  0  0  0  0  0  0  0
  132.9792  170.5529  145.4617 C   0  0  0  0  0  0  0  0  0  0  0  0
  132.5419  170.7654  143.0257 C   0  0  2  0  0  0  0  0  0  0  0  0
  132.9248  169.3157  142.9274 C   0  0  0  0  0  0  0  0  0  0  0  0
  131.6193  168.5531  143.1685 C   0  0  0  0  0  0  0  0  0  0  0  0
  130.9908  168.9542  144.4610 C   0  0  0  0  0  0  0  0  0  0  0  0
  130.7313  168.0426  145.3493 C   0  0  0  0  0  0  0  0  0  0  0  0
  131.0180  166.5644  145.1901 C   0  0  0  0  0  0  0  0  0  0  0  0
  129.6814  165.8300  145.0116 C   0  0  0  0  0  0  0  0  0  0  0  0
  129.7465  164.5838  145.8394 C   0  0  0  0  0  0  0  0  0  0  0  0
  129.3981  165.5274  143.5627 C   0  0  0  0  0  0  0  0  0  0  0  0
  128.5608  166.7249  145.5231 C   0  0  0  0  0  0  0  0  0  0  0  0
  128.9933  167.3204  146.8471 C   0  0  0  0  0  0  0  0  0  0  0  0
  130.0884  168.3803  146.6516 C   0  0  1  0  0  0  0  0  0  0  0  0
  131.0526  168.2024  147.8223 C   0  0  0  0  0  0  0  0  0  0  0  0
  129.4332  169.6931  146.6537 C   0  0  1  0  0  0  0  0  0  0  0  0
  129.2250  170.0864  147.9870 O   0  0  0  0  0  0  0  0  0  0  0  0
  130.2331  170.7895  145.9976 C   0  0  0  0  0  0  0  0  0  0  0  0
  130.7131  170.4085  144.6250 C   0  0  1  0  0  0  0  0  0  0  0  0
  129.6880  170.8586  143.6264 C   0  0  0  0  0  0  0  0  0  0  0  0
  133.5187  171.7263  142.4075 C   0  0  2  0  0  0  0  0  0  0  0  0
  134.7884  171.9105  143.1853 C   0  0  0  0  0  0  0  0  0  0  0  0
  133.9049  171.2115  141.0531 C   0  0  0  0  0  0  0  0  0  0  0  0
  134.6723  172.1943  140.2462 C   0  0  0  0  0  0  0  0  0  0  0  0
  134.1721  173.5859  140.2224 C   0  0  2  0  0  0  0  0  0  0  0  0
  135.3093  174.4305  140.1366 O   0  0  0  0  0  0  0  0  0  0  0  0
  133.3233  174.0329  141.3455 C   0  0  0  0  0  0  0  0  0  0  0  0
  132.1313  174.7999  140.7186 C   0  0  0  0  0  0  0  0  0  0  0  0
  134.0175  175.1668  142.1199 C   0  0  0  0  0  0  0  0  0  0  0  0
  1  2  1  1
  2  3  1  0
  3  4  1  0
  4  5  1  1
  4  6  1  0
  6  7  1  1
  7  8  1  0
  8  9  1  0
  9 10  2  0
 10 11  1  0
 11 12  1  0
 12 13  1  0
 12 14  1  0
 12 15  1  0
 15 16  1  0
 16 17  1  0
 17 18  1  1
 17 19  1  0
 19 20  1  1
 19 21  1  0
 21 22  1  0
 22 23  1  6
  6 24  1  0
 24 25  1  1
 24 26  1  0
 26 27  1  0
 27 28  1  0
 28 29  1  1
 28 30  1  0
 30 31  1  0
 30 32  1  0
 24  1  1  0
 30  1  1  0
 22  4  1  0
 22  9  1  0
 17 10  1  0
M  END
$$$$
