
     RDKit          3D

 32 36  0  0  0  0  0  0  0  0999 V2000
  132.5678  165.0254  151.8510 C   0  0  2  0  0  0  0  0  0  0  0  0
  132.1624  165.9459  152.9646 C   0  0  0  0  0  0  0  0  0  0  0  0
  131.5324  165.3678  154.1440 C   0  0  0  0  0  0  0  0  0  0  0  0
  131.5261  163.9048  154.3492 C   0  0  2  0  0  0  0  0  0  0  0  0
  132.3008  163.5297  155.6225 C   0  0  0  0  0  0  0  0  0  0  0  0
  132.0482  163.1190  153.1857 C   0  0  2  0  0  0  0  0  0  0  0  0
  132.2602  161.6662  153.5054 C   0  0  0  0  0  0  0  0  0  0  0  0
  130.8600  161.1293  153.8142 C   0  0  0  0  0  0  0  0  0  0  0  0
  130.2031  161.9241  154.8926 C   0  0  0  0  0  0  0  0  0  0  0  0
  129.7801  161.3162  155.9598 C   0  0  0  0  0  0  0  0  0  0  0  0
  129.8971  159.8291  156.2195 C   0  0  0  0  0  0  0  0  0  0  0  0
  128.4962  159.2091  156.1149 C   0  0  0  0  0  0  0  0  0  0  0  0
  128.3587  158.2323  157.2416 C   0  0  0  0  0  0  0  0  0  0  0  0
  128.2717  158.5562  154.7752 C   0  0  0  0  0  0  0  0  0  0  0  0
  127.4606  160.3147  156.2681 C   0  0  0  0  0  0  0  0  0  0  0  0
  127.8761  161.1997  157.4251 C   0  0  0  0  0  0  0  0  0  0  0  0
  129.1005  162.0543  157.0629 C   0  0  1  0  0  0  0  0  0  0  0  0
  129.9599  162.1048  158.3242 C   0  0  0  0  0  0  0  0  0  0  0  0
  128.6086  163.3769  156.6610 C   0  0  1  0  0  0  0  0  0  0  0  0
  128.3644  164.1339  157.8200 O   0  0  0  0  0  0  0  0  0  0  0  0
  129.5743  164.1714  155.8192 C   0  0  0  0  0  0  0  0  0  0  0  0
  130.0916  163.3888  154.6447 C   0  0  1  0  0  0  0  0  0  0  0  0
  129.1937  163.6514  153.4720 C   0  0  0  0  0  0  0  0  0  0  0  0
  133.1706  163.7765  152.4321 C   0  0  2  0  0  0  0  0  0  0  0  0
  134.4010  164.0377  153.2500 C   0  0  0  0  0  0  0  0  0  0  0  0
  133.5779  162.8799  151.3013 C   0  0  0  0  0  0  0  0  0  0  0  0
  134.5074  163.5280  150.3411 C   0  0  0  0  0  0  0  0  0  0  0  0
  134.1801  164.9038  149.9083 C   0  0  2  0  0  0  0  0  0  0  0  0
  135.4135  165.5777  149.7116 O   0  0  0  0  0  0  0  0  0  0  0  0
  133.3211  165.7187  150.7915 C   0  0  0  0  0  0  0  0  0  0  0  0
  132.2720  166.4016  149.8776 C   0  0  0  0  0  0  0  0  0  0  0  0
  134.0954  166.9453  151.3044 C   0  0  0  0  0  0  0  0  0  0  0  0
  1  2  1  1
  2  3  1  0
  3  4  1  0
  4  5  1  1
  4  6  1  0
  6  7  1  1
  7  8  1  0
  8  9  1  0
  9 10  2  0
 10 11  1  0
 11 12  1  0
 12 13  1  0
 12 14  1  0
 12 15  1  0
 15 16  1  0
 16 17  1  0
 17 18  1  1
 17 19  1  0
 19 20  1  1
 19 21  1  0
 21 22  1  0
 22 23  1  6
  6 24  1  0
 24 25  1  1
 24 26  1  0
 26 27  1  0
 27 28  1  0
 28 29  1  1
 28 30  1  0
 30 31  1  0
 30 32  1  0
 24  1  1  0
 30  1  1  0
 22  4  1  0
 22  9  1  0
 17 10  1  0
M  END
$$$$
