
     RDKit          3D

 32 36  0  0  0  0  0  0  0  0999 V2000
  172.4880  162.2221  112.6595 C   0  0  2  0  0  0  0  0  0  0  0  0
  172.0502  162.4778  111.2471 C   0  0  0  0  0  0  0  0  0  0  0  0
  172.6411  163.6018  110.5334 C   0  0  0  0  0  0  0  0  0  0  0  0
  173.8147  164.3079  111.0873 C   0  0  2  0  0  0  0  0  0  0  0  0
  175.0253  164.1713  110.1503 C   0  0  0  0  0  0  0  0  0  0  0  0
  174.1921  163.8795  112.4722 C   0  0  2  0  0  0  0  0  0  0  0  0
  175.5192  164.4272  112.9156 C   0  0  0  0  0  0  0  0  0  0  0  0
  175.3175  165.9444  112.9572 C   0  0  0  0  0  0  0  0  0  0  0  0
  174.8280  166.4598  111.6454 C   0  0  0  0  0  0  0  0  0  0  0  0
  175.5027  167.3888  111.0378 C   0  0  0  0  0  0  0  0  0  0  0  0
  176.7810  168.0156  111.5530 C   0  0  0  0  0  0  0  0  0  0  0  0
  176.4701  169.4532  111.9941 C   0  0  0  0  0  0  0  0  0  0  0  0
  177.5935  170.3176  111.5110 C   0  0  0  0  0  0  0  0  0  0  0  0
  176.2861  169.5535  113.4865 C   0  0  0  0  0  0  0  0  0  0  0  0
  175.1683  169.8939  111.3386 C   0  0  0  0  0  0  0  0  0  0  0  0
  175.2030  169.4772  109.8827 C   0  0  0  0  0  0  0  0  0  0  0  0
  175.0538  167.9553  109.7336 C   0  0  1  0  0  0  0  0  0  0  0  0
  175.9859  167.5562  108.5918 C   0  0  0  0  0  0  0  0  0  0  0  0
  173.6439  167.6804  109.4344 C   0  0  1  0  0  0  0  0  0  0  0  0
  173.4311  167.8831  108.0599 O   0  0  0  0  0  0  0  0  0  0  0  0
  173.2062  166.2702  109.7380 C   0  0  0  0  0  0  0  0  0  0  0  0
  173.5742  165.8414  111.1310 C   0  0  1  0  0  0  0  0  0  0  0  0
  172.4248  166.1609  112.0407 C   0  0  0  0  0  0  0  0  0  0  0  0
  173.9748  162.4207  112.7634 C   0  0  2  0  0  0  0  0  0  0  0  0
  174.7597  161.4875  111.8893 C   0  0  0  0  0  0  0  0  0  0  0  0
  174.3885  162.1482  114.1787 C   0  0  0  0  0  0  0  0  0  0  0  0
  173.9922  160.7997  114.6589 C   0  0  0  0  0  0  0  0  0  0  0  0
  172.6157  160.3523  114.3552 C   0  0  2  0  0  0  0  0  0  0  0  0
  172.6745  158.9489  114.1529 O   0  0  0  0  0  0  0  0  0  0  0  0
  171.9250  160.9761  113.2082 C   0  0  0  0  0  0  0  0  0  0  0  0
  170.4903  161.3130  113.6881 C   0  0  0  0  0  0  0  0  0  0  0  0
  171.6254  159.9216  112.1286 C   0  0  0  0  0  0  0  0  0  0  0  0
  1  2  1  6
  2  3  1  0
  3  4  1  0
  4  5  1  6
  4  6  1  0
  6  7  1  6
  7  8  1  0
  8  9  1  0
  9 10  2  0
 10 11  1  0
 11 12  1  0
 12 13  1  0
 12 14  1  0
 12 15  1  0
 15 16  1  0
 16 17  1  0
 17 18  1  6
 17 19  1  0
 19 20  1  6
 19 21  1  0
 21 22  1  0
 22 23  1  1
  6 24  1  0
 24 25  1  6
 24 26  1  0
 26 27  1  0
 27 28  1  0
 28 29  1  6
 28 30  1  0
 30 31  1  0
 30 32  1  0
 24  1  1  0
 30  1  1  0
 22  4  1  0
 22  9  1  0
 17 10  1  0
M  END
$$$$
