
     RDKit          3D

 32 36  0  0  0  0  0  0  0  0999 V2000
  131.6483  179.9579  147.7568 C   0  0  2  0  0  0  0  0  0  0  0  0
  130.5804  180.9336  147.3575 C   0  0  0  0  0  0  0  0  0  0  0  0
  130.7048  182.3148  147.8035 C   0  0  0  0  0  0  0  0  0  0  0  0
  131.9637  182.7967  148.4079 C   0  0  2  0  0  0  0  0  0  0  0  0
  132.5896  183.9081  147.5506 C   0  0  0  0  0  0  0  0  0  0  0  0
  132.9741  181.7206  148.6628 C   0  0  2  0  0  0  0  0  0  0  0  0
  134.3235  182.2600  149.0451 C   0  0  0  0  0  0  0  0  0  0  0  0
  134.0903  182.9778  150.3773 C   0  0  0  0  0  0  0  0  0  0  0  0
  133.0117  184.0017  150.2569 C   0  0  0  0  0  0  0  0  0  0  0  0
  133.2697  185.2344  150.5748 C   0  0  0  0  0  0  0  0  0  0  0  0
  134.6063  185.7449  151.0702 C   0  0  0  0  0  0  0  0  0  0  0  0
  134.4707  186.0846  152.5615 C   0  0  0  0  0  0  0  0  0  0  0  0
  135.1855  187.3810  152.7875 C   0  0  0  0  0  0  0  0  0  0  0  0
  135.0125  184.9846  153.4377 C   0  0  0  0  0  0  0  0  0  0  0  0
  132.9937  186.2514  152.8916 C   0  0  0  0  0  0  0  0  0  0  0  0
  132.3539  187.0885  151.8033 C   0  0  0  0  0  0  0  0  0  0  0  0
  132.2279  186.2980  150.4919 C   0  0  1  0  0  0  0  0  0  0  0  0
  132.5249  187.2960  149.3748 C   0  0  0  0  0  0  0  0  0  0  0  0
  130.8608  185.7692  150.4284 C   0  0  1  0  0  0  0  0  0  0  0  0
  130.0111  186.7833  149.9535 O   0  0  0  0  0  0  0  0  0  0  0  0
  130.6906  184.5916  149.5028 C   0  0  0  0  0  0  0  0  0  0  0  0
  131.6965  183.5055  149.7635 C   0  0  1  0  0  0  0  0  0  0  0  0
  131.1025  182.5399  150.7460 C   0  0  0  0  0  0  0  0  0  0  0  0
  132.9943  180.6181  147.6410 C   0  0  2  0  0  0  0  0  0  0  0  0
  133.3156  181.0676  146.2461 C   0  0  0  0  0  0  0  0  0  0  0  0
  134.0432  179.6210  148.0331 C   0  0  0  0  0  0  0  0  0  0  0  0
  133.9903  178.3671  147.2386 C   0  0  0  0  0  0  0  0  0  0  0  0
  132.6588  177.7610  147.0214 C   0  0  2  0  0  0  0  0  0  0  0  0
  132.6845  177.1615  145.7354 O   0  0  0  0  0  0  0  0  0  0  0  0
  131.4763  178.6407  147.1197 C   0  0  0  0  0  0  0  0  0  0  0  0
  130.4266  177.8747  147.9644 C   0  0  0  0  0  0  0  0  0  0  0  0
  130.7532  178.7151  145.7636 C   0  0  0  0  0  0  0  0  0  0  0  0
  1  2  1  6
  2  3  1  0
  3  4  1  0
  4  5  1  6
  4  6  1  0
  6  7  1  6
  7  8  1  0
  8  9  1  0
  9 10  2  0
 10 11  1  0
 11 12  1  0
 12 13  1  0
 12 14  1  0
 12 15  1  0
 15 16  1  0
 16 17  1  0
 17 18  1  6
 17 19  1  0
 19 20  1  6
 19 21  1  0
 21 22  1  0
 22 23  1  1
  6 24  1  0
 24 25  1  6
 24 26  1  0
 26 27  1  0
 27 28  1  0
 28 29  1  6
 28 30  1  0
 30 31  1  0
 30 32  1  0
 24  1  1  0
 30  1  1  0
 22  4  1  0
 22  9  1  0
 17 10  1  0
M  END
$$$$
