
     RDKit          3D

 32 36  0  0  0  0  0  0  0  0999 V2000
  130.3345  163.2329  156.2312 C   0  0  2  0  0  0  0  0  0  0  0  0
  129.9115  163.9270  154.9698 C   0  0  0  0  0  0  0  0  0  0  0  0
  130.9321  164.2428  153.9794 C   0  0  0  0  0  0  0  0  0  0  0  0
  132.2901  163.6727  154.0947 C   0  0  2  0  0  0  0  0  0  0  0  0
  132.6068  162.7711  152.8911 C   0  0  0  0  0  0  0  0  0  0  0  0
  132.5364  162.9253  155.3693 C   0  0  2  0  0  0  0  0  0  0  0  0
  133.8262  162.1544  155.3587 C   0  0  0  0  0  0  0  0  0  0  0  0
  134.9159  163.2245  155.2512 C   0  0  0  0  0  0  0  0  0  0  0  0
  134.6950  164.1024  154.0651 C   0  0  0  0  0  0  0  0  0  0  0  0
  135.6376  164.2197  153.1790 C   0  0  0  0  0  0  0  0  0  0  0  0
  136.9816  163.5250  153.2396 C   0  0  0  0  0  0  0  0  0  0  0  0
  138.0552  164.5771  153.5530 C   0  0  0  0  0  0  0  0  0  0  0  0
  139.2310  164.2862  152.6725 C   0  0  0  0  0  0  0  0  0  0  0  0
  138.4322  164.5746  155.0122 C   0  0  0  0  0  0  0  0  0  0  0  0
  137.4986  165.9554  153.2231 C   0  0  0  0  0  0  0  0  0  0  0  0
  136.7998  165.8784  151.8814 C   0  0  0  0  0  0  0  0  0  0  0  0
  135.4816  165.0956  151.9825 C   0  0  1  0  0  0  0  0  0  0  0  0
  135.3817  164.2818  150.6941 C   0  0  0  0  0  0  0  0  0  0  0  0
  134.3986  166.0763  152.1167 C   0  0  1  0  0  0  0  0  0  0  0  0
  134.0697  166.5567  150.8374 O   0  0  0  0  0  0  0  0  0  0  0  0
  133.1287  165.5243  152.7127 C   0  0  0  0  0  0  0  0  0  0  0  0
  133.3715  164.7829  153.9976 C   0  0  1  0  0  0  0  0  0  0  0  0
  133.2253  165.7509  155.1343 C   0  0  0  0  0  0  0  0  0  0  0  0
  131.3481  162.1728  155.9000 C   0  0  2  0  0  0  0  0  0  0  0  0
  130.8186  161.1143  154.9780 C   0  0  0  0  0  0  0  0  0  0  0  0
  131.7453  161.4870  157.1730 C   0  0  0  0  0  0  0  0  0  0  0  0
  130.5944  160.9153  157.9179 C   0  0  0  0  0  0  0  0  0  0  0  0
  129.3933  161.7662  158.0618 C   0  0  2  0  0  0  0  0  0  0  0  0
  128.2700  160.8993  158.0398 O   0  0  0  0  0  0  0  0  0  0  0  0
  129.1895  162.8444  157.0730 C   0  0  0  0  0  0  0  0  0  0  0  0
  128.7822  164.1064  157.8752 C   0  0  0  0  0  0  0  0  0  0  0  0
  127.9044  162.5914  156.2657 C   0  0  0  0  0  0  0  0  0  0  0  0
  1  2  1  6
  2  3  1  0
  3  4  1  0
  4  5  1  6
  4  6  1  0
  6  7  1  6
  7  8  1  0
  8  9  1  0
  9 10  2  0
 10 11  1  0
 11 12  1  0
 12 13  1  0
 12 14  1  0
 12 15  1  0
 15 16  1  0
 16 17  1  0
 17 18  1  6
 17 19  1  0
 19 20  1  6
 19 21  1  0
 21 22  1  0
 22 23  1  1
  6 24  1  0
 24 25  1  6
 24 26  1  0
 26 27  1  0
 27 28  1  0
 28 29  1  6
 28 30  1  0
 30 31  1  0
 30 32  1  0
 24  1  1  0
 30  1  1  0
 22  4  1  0
 22  9  1  0
 17 10  1  0
M  END
$$$$
