
     RDKit          3D

 32 36  0  0  0  0  0  0  0  0999 V2000
  170.5107  164.6142  109.4357 C   0  0  2  0  0  0  0  0  0  0  0  0
  171.7944  164.7177  108.6653 C   0  0  0  0  0  0  0  0  0  0  0  0
  173.0326  164.3370  109.3316 C   0  0  0  0  0  0  0  0  0  0  0  0
  172.9992  163.6318  110.6293 C   0  0  2  0  0  0  0  0  0  0  0  0
  173.6294  162.2353  110.5071 C   0  0  0  0  0  0  0  0  0  0  0  0
  171.6332  163.5224  111.2341 C   0  0  2  0  0  0  0  0  0  0  0  0
  171.5869  162.5985  112.4182 C   0  0  0  0  0  0  0  0  0  0  0  0
  172.4859  163.2639  113.4638 C   0  0  0  0  0  0  0  0  0  0  0  0
  173.8499  163.5220  112.9169 C   0  0  0  0  0  0  0  0  0  0  0  0
  174.8831  163.0325  113.5337 C   0  0  0  0  0  0  0  0  0  0  0  0
  174.8295  162.1968  114.7951 C   0  0  0  0  0  0  0  0  0  0  0  0
  175.3663  163.0433  115.9582 C   0  0  0  0  0  0  0  0  0  0  0  0
  176.2513  162.1573  116.7795 C   0  0  0  0  0  0  0  0  0  0  0  0
  174.2511  163.6389  116.7785 C   0  0  0  0  0  0  0  0  0  0  0  0
  176.1839  164.1941  115.3875 C   0  0  0  0  0  0  0  0  0  0  0  0
  177.0802  163.6464  114.2961 C   0  0  0  0  0  0  0  0  0  0  0  0
  176.2713  163.2714  113.0448 C   0  0  1  0  0  0  0  0  0  0  0  0
  176.9095  161.9933  112.5051 C   0  0  0  0  0  0  0  0  0  0  0  0
  176.3721  164.3937  112.1051 C   0  0  1  0  0  0  0  0  0  0  0  0
  177.5883  164.2856  111.4087 O   0  0  0  0  0  0  0  0  0  0  0  0
  175.2799  164.4369  111.0670 C   0  0  0  0  0  0  0  0  0  0  0  0
  173.9074  164.3382  111.6720 C   0  0  1  0  0  0  0  0  0  0  0  0
  173.4092  165.7281  111.9375 C   0  0  0  0  0  0  0  0  0  0  0  0
  170.5161  163.3460  110.2436 C   0  0  2  0  0  0  0  0  0  0  0  0
  170.6193  162.1081  109.4023 C   0  0  0  0  0  0  0  0  0  0  0  0
  169.2204  163.2600  110.9935 C   0  0  0  0  0  0  0  0  0  0  0  0
  168.0253  163.3314  110.1145 C   0  0  0  0  0  0  0  0  0  0  0  0
  168.0234  164.3687  109.0603 C   0  0  2  0  0  0  0  0  0  0  0  0
  167.3243  163.8263  107.9508 O   0  0  0  0  0  0  0  0  0  0  0  0
  169.3279  164.8877  108.6012 C   0  0  0  0  0  0  0  0  0  0  0  0
  169.1867  166.4293  108.5261 C   0  0  0  0  0  0  0  0  0  0  0  0
  169.5442  164.5475  107.1163 C   0  0  0  0  0  0  0  0  0  0  0  0
  1  2  1  6
  2  3  1  0
  3  4  1  0
  4  5  1  6
  4  6  1  0
  6  7  1  1
  7  8  1  0
  8  9  1  0
  9 10  2  0
 10 11  1  0
 11 12  1  0
 12 13  1  0
 12 14  1  0
 12 15  1  0
 15 16  1  0
 16 17  1  0
 17 18  1  6
 17 19  1  0
 19 20  1  6
 19 21  1  0
 21 22  1  0
 22 23  1  1
  6 24  1  0
 24 25  1  6
 24 26  1  0
 26 27  1  0
 27 28  1  0
 28 29  1  6
 28 30  1  0
 30 31  1  0
 30 32  1  0
 24  1  1  0
 30  1  1  0
 22  4  1  0
 22  9  1  0
 17 10  1  0
M  END
$$$$
