
     RDKit          3D

 32 36  0  0  0  0  0  0  0  0999 V2000
  169.6257  146.9358  127.3498 C   0  0  2  0  0  0  0  0  0  0  0  0
  168.2681  146.4122  127.7170 C   0  0  0  0  0  0  0  0  0  0  0  0
  167.1112  147.2648  127.4790 C   0  0  0  0  0  0  0  0  0  0  0  0
  167.2399  148.4940  126.6698 C   0  0  2  0  0  0  0  0  0  0  0  0
  166.3724  148.4068  125.4041 C   0  0  0  0  0  0  0  0  0  0  0  0
  168.6492  148.8400  126.2980 C   0  0  2  0  0  0  0  0  0  0  0  0
  168.7348  149.9431  125.2812 C   0  0  0  0  0  0  0  0  0  0  0  0
  168.1463  151.1673  125.9876 C   0  0  0  0  0  0  0  0  0  0  0  0
  166.7737  150.8863  126.5005 C   0  0  0  0  0  0  0  0  0  0  0  0
  165.7895  151.6478  126.1277 C   0  0  0  0  0  0  0  0  0  0  0  0
  165.9099  152.8305  125.1900 C   0  0  0  0  0  0  0  0  0  0  0  0
  165.7233  154.1163  126.0082 C   0  0  0  0  0  0  0  0  0  0  0  0
  164.8504  155.0300  125.2047 C   0  0  0  0  0  0  0  0  0  0  0  0
  167.0430  154.7583  126.3510 C   0  0  0  0  0  0  0  0  0  0  0  0
  165.0278  153.7654  127.3165 C   0  0  0  0  0  0  0  0  0  0  0  0
  163.8840  152.8210  127.0097 C   0  0  0  0  0  0  0  0  0  0  0  0
  164.3997  151.4270  126.6206 C   0  0  1  0  0  0  0  0  0  0  0  0
  163.4752  150.9376  125.5080 C   0  0  0  0  0  0  0  0  0  0  0  0
  164.3349  150.5850  127.8204 C   0  0  1  0  0  0  0  0  0  0  0  0
  163.0196  150.1102  127.9626 O   0  0  0  0  0  0  0  0  0  0  0  0
  165.2316  149.3739  127.7806 C   0  0  0  0  0  0  0  0  0  0  0  0
  166.6489  149.7195  127.4182 C   0  0  1  0  0  0  0  0  0  0  0  0
  167.4108  149.9705  128.6860 C   0  0  0  0  0  0  0  0  0  0  0  0
  169.5410  147.6589  126.0341 C   0  0  2  0  0  0  0  0  0  0  0  0
  169.0932  146.7806  124.9032 C   0  0  0  0  0  0  0  0  0  0  0  0
  170.9097  148.1612  125.6839 C   0  0  0  0  0  0  0  0  0  0  0  0
  171.9376  147.0898  125.6424 C   0  0  0  0  0  0  0  0  0  0  0  0
  171.9392  146.1122  126.7522 C   0  0  2  0  0  0  0  0  0  0  0  0
  172.3436  144.8675  126.2035 O   0  0  0  0  0  0  0  0  0  0  0  0
  170.6829  145.9216  127.5053 C   0  0  0  0  0  0  0  0  0  0  0  0
  171.0669  145.9099  129.0068 C   0  0  0  0  0  0  0  0  0  0  0  0
  170.1696  144.4818  127.3300 C   0  0  0  0  0  0  0  0  0  0  0  0
  1  2  1  6
  2  3  1  0
  3  4  1  0
  4  5  1  6
  4  6  1  0
  6  7  1  6
  7  8  1  0
  8  9  1  0
  9 10  2  0
 10 11  1  0
 11 12  1  0
 12 13  1  0
 12 14  1  0
 12 15  1  0
 15 16  1  0
 16 17  1  0
 17 18  1  6
 17 19  1  0
 19 20  1  6
 19 21  1  0
 21 22  1  0
 22 23  1  1
  6 24  1  0
 24 25  1  6
 24 26  1  0
 26 27  1  0
 27 28  1  0
 28 29  1  6
 28 30  1  0
 30 31  1  0
 30 32  1  0
 24  1  1  0
 30  1  1  0
 22  4  1  0
 22  9  1  0
 17 10  1  0
M  END
$$$$
