
     RDKit          3D

 32 36  0  0  0  0  0  0  0  0999 V2000
  150.2093  169.2343  132.0526 C   0  0  2  0  0  0  0  0  0  0  0  0
  149.6245  169.9116  133.2572 C   0  0  0  0  0  0  0  0  0  0  0  0
  148.2193  170.2942  133.2206 C   0  0  0  0  0  0  0  0  0  0  0  0
  147.3371  169.8043  132.1416 C   0  0  2  0  0  0  0  0  0  0  0  0
  146.2088  168.9317  132.7141 C   0  0  0  0  0  0  0  0  0  0  0  0
  148.0512  169.0632  131.0531 C   0  0  2  0  0  0  0  0  0  0  0  0
  147.1161  168.3698  130.1031 C   0  0  0  0  0  0  0  0  0  0  0  0
  146.3343  169.5029  129.4330 C   0  0  0  0  0  0  0  0  0  0  0  0
  145.6726  170.3750  130.4468 C   0  0  0  0  0  0  0  0  0  0  0  0
  144.3874  170.5542  130.3865 C   0  0  0  0  0  0  0  0  0  0  0  0
  143.4697  169.9393  129.3510 C   0  0  0  0  0  0  0  0  0  0  0  0
  143.0018  171.0505  128.4001 C   0  0  0  0  0  0  0  0  0  0  0  0
  141.5405  170.8359  128.1529 C   0  0  0  0  0  0  0  0  0  0  0  0
  143.7928  171.0594  127.1174 C   0  0  0  0  0  0  0  0  0  0  0  0
  143.2124  172.3960  129.0809 C   0  0  0  0  0  0  0  0  0  0  0  0
  142.7248  172.2879  130.5110 C   0  0  0  0  0  0  0  0  0  0  0  0
  143.6731  171.4281  131.3608 C   0  0  1  0  0  0  0  0  0  0  0  0
  142.7758  170.6195  132.2952 C   0  0  0  0  0  0  0  0  0  0  0  0
  144.5640  172.3423  132.0841 C   0  0  1  0  0  0  0  0  0  0  0  0
  143.8913  172.8120  133.2254 O   0  0  0  0  0  0  0  0  0  0  0  0
  145.8463  171.7121  132.5648 C   0  0  0  0  0  0  0  0  0  0  0  0
  146.5704  170.9768  131.4718 C   0  0  1  0  0  0  0  0  0  0  0  0
  147.5357  171.9262  130.8255 C   0  0  0  0  0  0  0  0  0  0  0  0
  149.2207  168.2382  131.5127 C   0  0  2  0  0  0  0  0  0  0  0  0
  148.8734  167.1572  132.4934 C   0  0  0  0  0  0  0  0  0  0  0  0
  149.8322  167.5675  130.3191 C   0  0  0  0  0  0  0  0  0  0  0  0
  151.1386  166.9236  130.6101 C   0  0  0  0  0  0  0  0  0  0  0  0
  152.1121  167.7012  131.4069 C   0  0  2  0  0  0  0  0  0  0  0  0
  152.8331  166.7698  132.1985 O   0  0  0  0  0  0  0  0  0  0  0  0
  151.5900  168.7728  132.2791 C   0  0  0  0  0  0  0  0  0  0  0  0
  152.5081  170.0027  132.0635 C   0  0  0  0  0  0  0  0  0  0  0  0
  151.8850  168.4506  133.7544 C   0  0  0  0  0  0  0  0  0  0  0  0
  1  2  1  1
  2  3  1  0
  3  4  1  0
  4  5  1  1
  4  6  1  0
  6  7  1  1
  7  8  1  0
  8  9  1  0
  9 10  2  0
 10 11  1  0
 11 12  1  0
 12 13  1  0
 12 14  1  0
 12 15  1  0
 15 16  1  0
 16 17  1  0
 17 18  1  1
 17 19  1  0
 19 20  1  1
 19 21  1  0
 21 22  1  0
 22 23  1  6
  6 24  1  0
 24 25  1  1
 24 26  1  0
 26 27  1  0
 27 28  1  0
 28 29  1  1
 28 30  1  0
 30 31  1  0
 30 32  1  0
 24  1  1  0
 30  1  1  0
 22  4  1  0
 22  9  1  0
 17 10  1  0
M  END
$$$$
