
     RDKit          3D

 32 36  0  0  0  0  0  0  0  0999 V2000
  148.2566  169.7447  129.6960 C   0  0  2  0  0  0  0  0  0  0  0  0
  148.8066  168.9243  128.5663 C   0  0  0  0  0  0  0  0  0  0  0  0
  148.6039  167.4820  128.5972 C   0  0  0  0  0  0  0  0  0  0  0  0
  147.6707  166.8771  129.5696 C   0  0  2  0  0  0  0  0  0  0  0  0
  146.5125  166.1711  128.8470 C   0  0  0  0  0  0  0  0  0  0  0  0
  147.1283  167.8396  130.5811 C   0  0  2  0  0  0  0  0  0  0  0  0
  146.0061  167.2637  131.3977 C   0  0  0  0  0  0  0  0  0  0  0  0
  146.6458  166.1112  132.1766 C   0  0  0  0  0  0  0  0  0  0  0  0
  147.3181  165.1467  131.2579 C   0  0  0  0  0  0  0  0  0  0  0  0
  146.9735  163.8947  131.2909 C   0  0  0  0  0  0  0  0  0  0  0  0
  145.9184  163.3052  132.2029 C   0  0  0  0  0  0  0  0  0  0  0  0
  146.6228  162.4543  133.2694 C   0  0  0  0  0  0  0  0  0  0  0  0
  145.8259  161.1967  133.4304 C   0  0  0  0  0  0  0  0  0  0  0  0
  146.7683  163.1975  134.5723 C   0  0  0  0  0  0  0  0  0  0  0  0
  148.0219  162.1125  132.7751 C   0  0  0  0  0  0  0  0  0  0  0  0
  147.9238  161.6853  131.3251 C   0  0  0  0  0  0  0  0  0  0  0  0
  147.6218  162.8816  130.4096 C   0  0  1  0  0  0  0  0  0  0  0  0
  146.6598  162.3581  129.3454 C   0  0  0  0  0  0  0  0  0  0  0  0
  148.8979  163.3340  129.8443 C   0  0  1  0  0  0  0  0  0  0  0  0
  149.2161  162.5148  128.7473 O   0  0  0  0  0  0  0  0  0  0  0  0
  148.8862  164.7534  129.3368 C   0  0  0  0  0  0  0  0  0  0  0  0
  148.3523  165.7231  130.3538 C   0  0  1  0  0  0  0  0  0  0  0  0
  149.5073  166.2500  131.1532 C   0  0  0  0  0  0  0  0  0  0  0  0
  146.8923  169.2318  130.0653 C   0  0  2  0  0  0  0  0  0  0  0  0
  145.9020  169.3201  128.9416 C   0  0  0  0  0  0  0  0  0  0  0  0
  146.3601  170.0739  131.1860 C   0  0  0  0  0  0  0  0  0  0  0  0
  146.3200  171.5237  130.8657 C   0  0  0  0  0  0  0  0  0  0  0  0
  147.5135  172.1044  130.2133 C   0  0  2  0  0  0  0  0  0  0  0  0
  147.0502  173.1203  129.3374 O   0  0  0  0  0  0  0  0  0  0  0  0
  148.4032  171.1924  129.4659 C   0  0  0  0  0  0  0  0  0  0  0  0
  149.8529  171.5602  129.8725 C   0  0  0  0  0  0  0  0  0  0  0  0
  148.4203  171.5685  127.9740 C   0  0  0  0  0  0  0  0  0  0  0  0
  1  2  1  6
  2  3  1  0
  3  4  1  0
  4  5  1  6
  4  6  1  0
  6  7  1  6
  7  8  1  0
  8  9  1  0
  9 10  2  0
 10 11  1  0
 11 12  1  0
 12 13  1  0
 12 14  1  0
 12 15  1  0
 15 16  1  0
 16 17  1  0
 17 18  1  6
 17 19  1  0
 19 20  1  6
 19 21  1  0
 21 22  1  0
 22 23  1  1
  6 24  1  0
 24 25  1  6
 24 26  1  0
 26 27  1  0
 27 28  1  0
 28 29  1  6
 28 30  1  0
 30 31  1  0
 30 32  1  0
 24  1  1  0
 30  1  1  0
 22  4  1  0
 22  9  1  0
 17 10  1  0
M  END
$$$$
