
     RDKit          3D

 32 36  0  0  0  0  0  0  0  0999 V2000
  170.7349  146.5840  121.6324 C   0  0  2  0  0  0  0  0  0  0  0  0
  169.4965  146.6816  122.4743 C   0  0  0  0  0  0  0  0  0  0  0  0
  169.6469  146.9755  123.8931 C   0  0  0  0  0  0  0  0  0  0  0  0
  170.9496  147.4158  124.4332 C   0  0  2  0  0  0  0  0  0  0  0  0
  170.8463  148.8335  125.0178 C   0  0  0  0  0  0  0  0  0  0  0  0
  172.0762  147.3525  123.4480 C   0  0  2  0  0  0  0  0  0  0  0  0
  173.3251  148.0285  123.9390 C   0  0  0  0  0  0  0  0  0  0  0  0
  173.7536  147.2104  125.1602 C   0  0  0  0  0  0  0  0  0  0  0  0
  172.6509  147.1166  126.1609 C   0  0  0  0  0  0  0  0  0  0  0  0
  172.8635  147.5186  127.3777 C   0  0  0  0  0  0  0  0  0  0  0  0
  174.1673  148.0930  127.8903 C   0  0  0  0  0  0  0  0  0  0  0  0
  174.8162  147.0602  128.8230 C   0  0  0  0  0  0  0  0  0  0  0  0
  175.3482  147.8058  130.0078 C   0  0  0  0  0  0  0  0  0  0  0  0
  175.8952  146.2742  128.1235 C   0  0  0  0  0  0  0  0  0  0  0  0
  173.7486  146.0742  129.2772 C   0  0  0  0  0  0  0  0  0  0  0  0
  172.5105  146.8568  129.6631 C   0  0  0  0  0  0  0  0  0  0  0  0
  171.8060  147.4335  128.4254 C   0  0  1  0  0  0  0  0  0  0  0  0
  171.3054  148.8158  128.8385 C   0  0  0  0  0  0  0  0  0  0  0  0
  170.7138  146.5180  128.0765 C   0  0  1  0  0  0  0  0  0  0  0  0
  169.6097  146.8062  128.8972 O   0  0  0  0  0  0  0  0  0  0  0  0
  170.2365  146.6324  126.6511 C   0  0  0  0  0  0  0  0  0  0  0  0
  171.3640  146.5583  125.6597 C   0  0  1  0  0  0  0  0  0  0  0  0
  171.5411  145.1247  125.2547 C   0  0  0  0  0  0  0  0  0  0  0  0
  171.6937  147.6720  122.0297 C   0  0  2  0  0  0  0  0  0  0  0  0
  171.1398  149.0519  121.8297 C   0  0  0  0  0  0  0  0  0  0  0  0
  172.9156  147.5607  121.1676 C   0  0  0  0  0  0  0  0  0  0  0  0
  172.6172  147.6126  119.7135 C   0  0  0  0  0  0  0  0  0  0  0  0
  171.4821  146.7986  119.2275 C   0  0  2  0  0  0  0  0  0  0  0  0
  170.8901  147.5163  118.1560 O   0  0  0  0  0  0  0  0  0  0  0  0
  170.4323  146.4297  120.1989 C   0  0  0  0  0  0  0  0  0  0  0  0
  170.1291  144.9270  119.9703 C   0  0  0  0  0  0  0  0  0  0  0  0
  169.0872  147.0577  119.7942 C   0  0  0  0  0  0  0  0  0  0  0  0
  1  2  1  1
  2  3  1  0
  3  4  1  0
  4  5  1  1
  4  6  1  0
  6  7  1  1
  7  8  1  0
  8  9  1  0
  9 10  2  0
 10 11  1  0
 11 12  1  0
 12 13  1  0
 12 14  1  0
 12 15  1  0
 15 16  1  0
 16 17  1  0
 17 18  1  1
 17 19  1  0
 19 20  1  1
 19 21  1  0
 21 22  1  0
 22 23  1  6
  6 24  1  0
 24 25  1  1
 24 26  1  0
 26 27  1  0
 27 28  1  0
 28 29  1  6
 28 30  1  0
 30 31  1  0
 30 32  1  0
 24  1  1  0
 30  1  1  0
 22  4  1  0
 22  9  1  0
 17 10  1  0
M  END
$$$$
