
     RDKit          3D

 32 36  0  0  0  0  0  0  0  0999 V2000
  202.5734  127.4468  133.7070 C   0  0  2  0  0  0  0  0  0  0  0  0
  202.2103  128.3016  132.5282 C   0  0  0  0  0  0  0  0  0  0  0  0
  201.9799  129.7227  132.7501 C   0  0  0  0  0  0  0  0  0  0  0  0
  202.3411  130.3483  134.0388 C   0  0  2  0  0  0  0  0  0  0  0  0
  203.4238  131.4208  133.8396 C   0  0  0  0  0  0  0  0  0  0  0  0
  202.7752  129.3766  135.0930 C   0  0  2  0  0  0  0  0  0  0  0  0
  203.3657  130.0459  136.3018 C   0  0  0  0  0  0  0  0  0  0  0  0
  202.2135  130.8619  136.8942 C   0  0  0  0  0  0  0  0  0  0  0  0
  201.6315  131.7888  135.8801 C   0  0  0  0  0  0  0  0  0  0  0  0
  201.5820  133.0608  136.1387 C   0  0  0  0  0  0  0  0  0  0  0  0
  202.0773  133.7106  137.4135 C   0  0  0  0  0  0  0  0  0  0  0  0
  200.8584  134.1725  138.2250 C   0  0  0  0  0  0  0  0  0  0  0  0
  201.1751  135.5330  138.7648 C   0  0  0  0  0  0  0  0  0  0  0  0
  200.5151  133.1988  139.3228 C   0  0  0  0  0  0  0  0  0  0  0  0
  199.6568  134.2596  137.2938 C   0  0  0  0  0  0  0  0  0  0  0  0
  200.0931  134.9459  136.0159 C   0  0  0  0  0  0  0  0  0  0  0  0
  200.9961  134.0332  135.1720 C   0  0  1  0  0  0  0  0  0  0  0  0
  202.0624  134.9454  134.5696 C   0  0  0  0  0  0  0  0  0  0  0  0
  200.1509  133.4020  134.1522 C   0  0  1  0  0  0  0  0  0  0  0  0
  199.9873  134.3039  133.0867 O   0  0  0  0  0  0  0  0  0  0  0  0
  200.7224  132.1364  133.5656 C   0  0  0  0  0  0  0  0  0  0  0  0
  201.1490  131.1550  134.6213 C   0  0  1  0  0  0  0  0  0  0  0  0
  199.9944  130.2409  134.9081 C   0  0  0  0  0  0  0  0  0  0  0  0
  203.5446  128.1910  134.5810 C   0  0  2  0  0  0  0  0  0  0  0  0
  204.8269  128.5351  133.8822 C   0  0  0  0  0  0  0  0  0  0  0  0
  203.9005  127.3129  135.7433 C   0  0  0  0  0  0  0  0  0  0  0  0
  204.4458  125.9920  135.3383 C   0  0  0  0  0  0  0  0  0  0  0  0
  203.7393  125.2727  134.2563 C   0  0  2  0  0  0  0  0  0  0  0  0
  204.7250  124.5632  133.5221 O   0  0  0  0  0  0  0  0  0  0  0  0
  202.9203  126.0685  133.3194 C   0  0  0  0  0  0  0  0  0  0  0  0
  201.5813  125.3069  133.1488 C   0  0  0  0  0  0  0  0  0  0  0  0
  203.4908  125.9670  131.8941 C   0  0  0  0  0  0  0  0  0  0  0  0
  1  2  1  6
  2  3  1  0
  3  4  1  0
  4  5  1  6
  4  6  1  0
  6  7  1  1
  7  8  1  0
  8  9  1  0
  9 10  2  0
 10 11  1  0
 11 12  1  0
 12 13  1  0
 12 14  1  0
 12 15  1  0
 15 16  1  0
 16 17  1  0
 17 18  1  6
 17 19  1  0
 19 20  1  6
 19 21  1  0
 21 22  1  0
 22 23  1  1
  6 24  1  0
 24 25  1  6
 24 26  1  0
 26 27  1  0
 27 28  1  0
 28 29  1  6
 28 30  1  0
 30 31  1  0
 30 32  1  0
 24  1  1  0
 30  1  1  0
 22  4  1  0
 22  9  1  0
 17 10  1  0
M  END
$$$$
