
     RDKit          3D

 32 36  0  0  0  0  0  0  0  0999 V2000
  188.3294  162.7122  127.9407 C   0  0  2  0  0  0  0  0  0  0  0  0
  188.0463  163.6478  129.0793 C   0  0  0  0  0  0  0  0  0  0  0  0
  188.8758  163.5540  130.2731 C   0  0  0  0  0  0  0  0  0  0  0  0
  190.1123  162.7457  130.2649 C   0  0  2  0  0  0  0  0  0  0  0  0
  191.3442  163.6315  130.5094 C   0  0  0  0  0  0  0  0  0  0  0  0
  190.3077  161.9343  129.0210 C   0  0  2  0  0  0  0  0  0  0  0  0
  191.6751  161.3180  128.9300 C   0  0  0  0  0  0  0  0  0  0  0  0
  191.7413  160.3464  130.1114 C   0  0  0  0  0  0  0  0  0  0  0  0
  191.4459  161.0411  131.3985 C   0  0  0  0  0  0  0  0  0  0  0  0
  192.3156  160.9872  132.3619 C   0  0  0  0  0  0  0  0  0  0  0  0
  193.6438  160.2633  132.2970 C   0  0  0  0  0  0  0  0  0  0  0  0
  193.5600  159.0195  133.1935 C   0  0  0  0  0  0  0  0  0  0  0  0
  194.8499  158.9301  133.9490 C   0  0  0  0  0  0  0  0  0  0  0  0
  193.2897  157.7707  132.3944 C   0  0  0  0  0  0  0  0  0  0  0  0
  192.4069  159.1996  134.1713 C   0  0  0  0  0  0  0  0  0  0  0  0
  192.4724  160.6055  134.7315 C   0  0  0  0  0  0  0  0  0  0  0  0
  192.0685  161.6465  133.6762 C   0  0  1  0  0  0  0  0  0  0  0  0
  192.9956  162.8403  133.8942 C   0  0  0  0  0  0  0  0  0  0  0  0
  190.6576  161.9778  133.9047 C   0  0  1  0  0  0  0  0  0  0  0  0
  190.5833  162.9276  134.9382 O   0  0  0  0  0  0  0  0  0  0  0  0
  189.9577  162.5783  132.7123 C   0  0  0  0  0  0  0  0  0  0  0  0
  190.1431  161.7604  131.4648 C   0  0  1  0  0  0  0  0  0  0  0  0
  189.0055  160.7873  131.3668 C   0  0  0  0  0  0  0  0  0  0  0  0
  189.8165  162.5858  127.7583 C   0  0  2  0  0  0  0  0  0  0  0  0
  190.4856  163.8874  127.4280 C   0  0  0  0  0  0  0  0  0  0  0  0
  190.0728  161.6569  126.6094 C   0  0  0  0  0  0  0  0  0  0  0  0
  189.4117  162.0824  125.3492 C   0  0  0  0  0  0  0  0  0  0  0  0
  188.0034  162.5245  125.4414 C   0  0  2  0  0  0  0  0  0  0  0  0
  187.8285  163.5459  124.4718 O   0  0  0  0  0  0  0  0  0  0  0  0
  187.5177  163.0122  126.7483 C   0  0  0  0  0  0  0  0  0  0  0  0
  186.1340  162.3529  126.9780 C   0  0  0  0  0  0  0  0  0  0  0  0
  187.1156  164.4940  126.6483 C   0  0  0  0  0  0  0  0  0  0  0  0
  1  2  1  1
  2  3  1  0
  3  4  1  0
  4  5  1  1
  4  6  1  0
  6  7  1  6
  7  8  1  0
  8  9  1  0
  9 10  2  0
 10 11  1  0
 11 12  1  0
 12 13  1  0
 12 14  1  0
 12 15  1  0
 15 16  1  0
 16 17  1  0
 17 18  1  6
 17 19  1  0
 19 20  1  1
 19 21  1  0
 21 22  1  0
 22 23  1  6
  6 24  1  0
 24 25  1  6
 24 26  1  0
 26 27  1  0
 27 28  1  0
 28 29  1  6
 28 30  1  0
 30 31  1  0
 30 32  1  0
 24  1  1  0
 30  1  1  0
 22  4  1  0
 22  9  1  0
 17 10  1  0
M  END
$$$$
