
     RDKit          3D

 32 36  0  0  0  0  0  0  0  0999 V2000
  192.4597  195.8222  155.2856 C   0  0  2  0  0  0  0  0  0  0  0  0
  192.9501  195.5313  156.6737 C   0  0  0  0  0  0  0  0  0  0  0  0
  192.4226  194.3606  157.3616 C   0  0  0  0  0  0  0  0  0  0  0  0
  191.6302  193.3533  156.6268 C   0  0  2  0  0  0  0  0  0  0  0  0
  192.3383  191.9893  156.6372 C   0  0  0  0  0  0  0  0  0  0  0  0
  191.2956  193.7422  155.2194 C   0  0  2  0  0  0  0  0  0  0  0  0
  190.7080  192.6127  154.4215 C   0  0  0  0  0  0  0  0  0  0  0  0
  189.3852  192.2908  155.1220 C   0  0  0  0  0  0  0  0  0  0  0  0
  189.5985  191.9976  156.5694 C   0  0  0  0  0  0  0  0  0  0  0  0
  189.1873  190.8647  157.0538 C   0  0  0  0  0  0  0  0  0  0  0  0
  188.4909  189.7793  156.2604 C   0  0  0  0  0  0  0  0  0  0  0  0
  187.0164  189.7399  156.6871 C   0  0  0  0  0  0  0  0  0  0  0  0
  186.6313  188.2986  156.8176 C   0  0  0  0  0  0  0  0  0  0  0  0
  186.1314  190.4714  155.7110 C   0  0  0  0  0  0  0  0  0  0  0  0
  186.8809  190.4290  158.0381 C   0  0  0  0  0  0  0  0  0  0  0  0
  188.0022  189.9454  158.9343 C   0  0  0  0  0  0  0  0  0  0  0  0
  189.3566  190.5229  158.4953 C   0  0  1  0  0  0  0  0  0  0  0  0
  190.3719  189.3998  158.6956 C   0  0  0  0  0  0  0  0  0  0  0  0
  189.6306  191.6898  159.3414 C   0  0  1  0  0  0  0  0  0  0  0  0
  190.1645  191.2413  160.5619 O   0  0  0  0  0  0  0  0  0  0  0  0
  190.6286  192.6593  158.7614 C   0  0  0  0  0  0  0  0  0  0  0  0
  190.2894  193.0598  157.3528 C   0  0  1  0  0  0  0  0  0  0  0  0
  189.4458  194.2991  157.4062 C   0  0  0  0  0  0  0  0  0  0  0  0
  192.3594  194.5359  154.5135 C   0  0  2  0  0  0  0  0  0  0  0  0
  193.6737  193.8267  154.3704 C   0  0  0  0  0  0  0  0  0  0  0  0
  191.8797  194.8540  153.1288 C   0  0  0  0  0  0  0  0  0  0  0  0
  192.7360  195.8398  152.4208 C   0  0  0  0  0  0  0  0  0  0  0  0
  193.1611  197.0346  153.1818 C   0  0  2  0  0  0  0  0  0  0  0  0
  194.4604  197.3739  152.7227 O   0  0  0  0  0  0  0  0  0  0  0  0
  193.1794  196.9429  154.6559 C   0  0  0  0  0  0  0  0  0  0  0  0
  192.5237  198.2433  155.1862 C   0  0  0  0  0  0  0  0  0  0  0  0
  194.6153  197.1111  155.1826 C   0  0  0  0  0  0  0  0  0  0  0  0
  1  2  1  1
  2  3  1  0
  3  4  1  0
  4  5  1  6
  4  6  1  0
  6  7  1  6
  7  8  1  0
  8  9  1  0
  9 10  2  0
 10 11  1  0
 11 12  1  0
 12 13  1  0
 12 14  1  0
 12 15  1  0
 15 16  1  0
 16 17  1  0
 17 18  1  6
 17 19  1  0
 19 20  1  1
 19 21  1  0
 21 22  1  0
 22 23  1  1
  6 24  1  0
 24 25  1  6
 24 26  1  0
 26 27  1  0
 27 28  1  0
 28 29  1  6
 28 30  1  0
 30 31  1  0
 30 32  1  0
 24  1  1  0
 30  1  1  0
 22  4  1  0
 22  9  1  0
 17 10  1  0
M  END
$$$$
