
     RDKit          3D

 32 36  0  0  0  0  0  0  0  0999 V2000
  145.2367  173.6672  131.1779 C   0  0  2  0  0  0  0  0  0  0  0  0
  145.5760  172.8508  129.9653 C   0  0  0  0  0  0  0  0  0  0  0  0
  145.9714  171.4618  130.1561 C   0  0  0  0  0  0  0  0  0  0  0  0
  145.7968  170.8064  131.4685 C   0  0  2  0  0  0  0  0  0  0  0  0
  144.8170  169.6270  131.3628 C   0  0  0  0  0  0  0  0  0  0  0  0
  145.3636  171.7313  132.5643 C   0  0  2  0  0  0  0  0  0  0  0  0
  144.9592  171.0084  133.8180 C   0  0  0  0  0  0  0  0  0  0  0  0
  146.2390  170.3178  134.2968 C   0  0  0  0  0  0  0  0  0  0  0  0
  146.8178  169.4528  133.2276 C   0  0  0  0  0  0  0  0  0  0  0  0
  147.0219  168.1935  133.4725 C   0  0  0  0  0  0  0  0  0  0  0  0
  146.7158  167.5001  134.7832 C   0  0  0  0  0  0  0  0  0  0  0  0
  148.0454  167.1693  135.4763 C   0  0  0  0  0  0  0  0  0  0  0  0
  147.9218  165.7851  136.0343 C   0  0  0  0  0  0  0  0  0  0  0  0
  148.3859  168.1768  136.5441 C   0  0  0  0  0  0  0  0  0  0  0  0
  149.1587  167.2039  134.4382 C   0  0  0  0  0  0  0  0  0  0  0  0
  148.6798  166.4721  133.2014 C   0  0  0  0  0  0  0  0  0  0  0  0
  147.6136  167.2839  132.4499 C   0  0  1  0  0  0  0  0  0  0  0  0
  146.5963  166.2643  131.9423 C   0  0  0  0  0  0  0  0  0  0  0  0
  148.2917  167.9958  131.3608 C   0  0  1  0  0  0  0  0  0  0  0  0
  148.4488  167.1122  130.2790 O   0  0  0  0  0  0  0  0  0  0  0  0
  147.5410  169.1937  130.8372 C   0  0  0  0  0  0  0  0  0  0  0  0
  147.1144  170.1291  131.9339 C   0  0  1  0  0  0  0  0  0  0  0  0
  148.1899  171.1585  132.1192 C   0  0  0  0  0  0  0  0  0  0  0  0
  144.4321  172.8294  132.1327 C   0  0  2  0  0  0  0  0  0  0  0  0
  143.1333  172.3523  131.5525 C   0  0  0  0  0  0  0  0  0  0  0  0
  144.0959  173.6696  133.3283 C   0  0  0  0  0  0  0  0  0  0  0  0
  143.3822  174.9258  132.9835 C   0  0  0  0  0  0  0  0  0  0  0  0
  143.9081  175.7108  131.8458 C   0  0  2  0  0  0  0  0  0  0  0  0
  142.7911  176.3123  131.2098 O   0  0  0  0  0  0  0  0  0  0  0  0
  144.7151  175.0010  130.8326 C   0  0  0  0  0  0  0  0  0  0  0  0
  145.9470  175.8964  130.5445 C   0  0  0  0  0  0  0  0  0  0  0  0
  144.0085  175.0384  129.4664 C   0  0  0  0  0  0  0  0  0  0  0  0
  1  2  1  6
  2  3  1  0
  3  4  1  0
  4  5  1  6
  4  6  1  0
  6  7  1  1
  7  8  1  0
  8  9  1  0
  9 10  2  0
 10 11  1  0
 11 12  1  0
 12 13  1  0
 12 14  1  0
 12 15  1  0
 15 16  1  0
 16 17  1  0
 17 18  1  6
 17 19  1  0
 19 20  1  6
 19 21  1  0
 21 22  1  0
 22 23  1  1
  6 24  1  0
 24 25  1  6
 24 26  1  0
 26 27  1  0
 27 28  1  0
 28 29  1  6
 28 30  1  0
 30 31  1  0
 30 32  1  0
 24  1  1  0
 30  1  1  0
 22  4  1  0
 22  9  1  0
 17 10  1  0
M  END
$$$$
