
     RDKit          3D

 32 36  0  0  0  0  0  0  0  0999 V2000
  206.3268  134.0257  134.9511 C   0  0  2  0  0  0  0  0  0  0  0  0
  206.8412  133.4318  136.2296 C   0  0  0  0  0  0  0  0  0  0  0  0
  208.2731  133.4892  136.4911 C   0  0  0  0  0  0  0  0  0  0  0  0
  209.1549  134.3275  135.6532 C   0  0  2  0  0  0  0  0  0  0  0  0
  209.8167  135.4315  136.4931 C   0  0  0  0  0  0  0  0  0  0  0  0
  208.4775  134.9317  134.4616 C   0  0  2  0  0  0  0  0  0  0  0  0
  209.3193  135.9656  133.7685 C   0  0  0  0  0  0  0  0  0  0  0  0
  210.5326  135.1910  133.2470 C   0  0  0  0  0  0  0  0  0  0  0  0
  211.2172  134.4547  134.3495 C   0  0  0  0  0  0  0  0  0  0  0  0
  212.4790  134.6720  134.5689 C   0  0  0  0  0  0  0  0  0  0  0  0
  213.3462  135.6350  133.7858 C   0  0  0  0  0  0  0  0  0  0  0  0
  214.3171  134.8172  132.9220 C   0  0  0  0  0  0  0  0  0  0  0  0
  215.6569  135.4799  133.0128 C   0  0  0  0  0  0  0  0  0  0  0  0
  213.8409  134.7064  131.4965 C   0  0  0  0  0  0  0  0  0  0  0  0
  214.4055  133.4069  133.4893 C   0  0  0  0  0  0  0  0  0  0  0  0
  214.5395  133.5065  134.9948 C   0  0  0  0  0  0  0  0  0  0  0  0
  213.2209  133.9536  135.6444 C   0  0  1  0  0  0  0  0  0  0  0  0
  213.6157  134.8910  136.7835 C   0  0  0  0  0  0  0  0  0  0  0  0
  212.5342  132.7467  136.1182 C   0  0  1  0  0  0  0  0  0  0  0  0
  213.0780  132.3824  137.3622 O   0  0  0  0  0  0  0  0  0  0  0  0
  211.0506  132.9149  136.3257 C   0  0  0  0  0  0  0  0  0  0  0  0
  210.3665  133.5110  135.1273 C   0  0  1  0  0  0  0  0  0  0  0  0
  209.8950  132.3901  134.2487 C   0  0  0  0  0  0  0  0  0  0  0  0
  207.0420  135.3204  134.6807 C   0  0  2  0  0  0  0  0  0  0  0  0
  206.8318  136.3485  135.7530 C   0  0  0  0  0  0  0  0  0  0  0  0
  206.5029  135.8990  133.4067 C   0  0  0  0  0  0  0  0  0  0  0  0
  205.0304  136.0927  133.4245 C   0  0  0  0  0  0  0  0  0  0  0  0
  204.2098  134.9834  133.9566 C   0  0  2  0  0  0  0  0  0  0  0  0
  203.0916  135.5719  134.6026 O   0  0  0  0  0  0  0  0  0  0  0  0
  204.8552  134.0308  134.8829 C   0  0  0  0  0  0  0  0  0  0  0  0
  204.4290  132.6131  134.4241 C   0  0  0  0  0  0  0  0  0  0  0  0
  204.1863  134.0968  136.2670 C   0  0  0  0  0  0  0  0  0  0  0  0
  1  2  1  1
  2  3  1  0
  3  4  1  0
  4  5  1  1
  4  6  1  0
  6  7  1  1
  7  8  1  0
  8  9  1  0
  9 10  2  0
 10 11  1  0
 11 12  1  0
 12 13  1  0
 12 14  1  0
 12 15  1  0
 15 16  1  0
 16 17  1  0
 17 18  1  1
 17 19  1  0
 19 20  1  1
 19 21  1  0
 21 22  1  0
 22 23  1  6
  6 24  1  0
 24 25  1  1
 24 26  1  0
 26 27  1  0
 27 28  1  0
 28 29  1  1
 28 30  1  0
 30 31  1  0
 30 32  1  0
 24  1  1  0
 30  1  1  0
 22  4  1  0
 22  9  1  0
 17 10  1  0
M  END
$$$$
