
     RDKit          3D

 32 36  0  0  0  0  0  0  0  0999 V2000
  117.0987  144.8590  161.5837 C   0  0  2  0  0  0  0  0  0  0  0  0
  116.5066  143.9281  160.5664 C   0  0  0  0  0  0  0  0  0  0  0  0
  115.9558  144.4996  159.3449 C   0  0  0  0  0  0  0  0  0  0  0  0
  116.2015  145.9156  159.0028 C   0  0  2  0  0  0  0  0  0  0  0  0
  116.9944  146.0299  157.6912 C   0  0  0  0  0  0  0  0  0  0  0  0
  116.8859  146.6983  160.0811 C   0  0  2  0  0  0  0  0  0  0  0  0
  117.3414  148.0551  159.6236 C   0  0  0  0  0  0  0  0  0  0  0  0
  116.0496  148.8022  159.2814 C   0  0  0  0  0  0  0  0  0  0  0  0
  115.2332  148.0425  158.2901 C   0  0  0  0  0  0  0  0  0  0  0  0
  114.8944  148.6166  157.1752 C   0  0  0  0  0  0  0  0  0  0  0  0
  115.2641  150.0294  156.7753 C   0  0  0  0  0  0  0  0  0  0  0  0
  113.9978  150.8956  156.8369 C   0  0  0  0  0  0  0  0  0  0  0  0
  114.0031  151.7749  155.6247 C   0  0  0  0  0  0  0  0  0  0  0  0
  113.9291  151.6968  158.1114 C   0  0  0  0  0  0  0  0  0  0  0  0
  112.7799  149.9825  156.8002 C   0  0  0  0  0  0  0  0  0  0  0  0
  113.0007  148.9365  155.7271 C   0  0  0  0  0  0  0  0  0  0  0  0
  114.0651  147.9142  156.1544 C   0  0  1  0  0  0  0  0  0  0  0  0
  114.8668  147.5974  154.8938 C   0  0  0  0  0  0  0  0  0  0  0  0
  113.3594  146.7422  156.6846 C   0  0  1  0  0  0  0  0  0  0  0  0
  112.9536  145.9387  155.6049 O   0  0  0  0  0  0  0  0  0  0  0  0
  114.1931  145.8683  157.5865 C   0  0  0  0  0  0  0  0  0  0  0  0
  114.8726  146.6496  158.6762 C   0  0  1  0  0  0  0  0  0  0  0  0
  113.9754  146.6584  159.8785 C   0  0  0  0  0  0  0  0  0  0  0  0
  117.8955  145.9227  160.8806 C   0  0  2  0  0  0  0  0  0  0  0  0
  119.0375  145.3737  160.0772 C   0  0  0  0  0  0  0  0  0  0  0  0
  118.4855  146.8315  161.9173 C   0  0  0  0  0  0  0  0  0  0  0  0
  119.3128  146.1181  162.9237 C   0  0  0  0  0  0  0  0  0  0  0  0
  118.7605  144.8676  163.4879 C   0  0  2  0  0  0  0  0  0  0  0  0
  119.8610  144.0057  163.7333 O   0  0  0  0  0  0  0  0  0  0  0  0
  117.7473  144.1418  162.6952 C   0  0  0  0  0  0  0  0  0  0  0  0
  116.6201  143.7422  163.6811 C   0  0  0  0  0  0  0  0  0  0  0  0
  118.2790  142.7556  162.2914 C   0  0  0  0  0  0  0  0  0  0  0  0
  1  2  1  6
  2  3  1  0
  3  4  1  0
  4  5  1  6
  4  6  1  0
  6  7  1  6
  7  8  1  0
  8  9  1  0
  9 10  2  0
 10 11  1  0
 11 12  1  0
 12 13  1  0
 12 14  1  0
 12 15  1  0
 15 16  1  0
 16 17  1  0
 17 18  1  6
 17 19  1  0
 19 20  1  6
 19 21  1  0
 21 22  1  0
 22 23  1  1
  6 24  1  0
 24 25  1  6
 24 26  1  0
 26 27  1  0
 27 28  1  0
 28 29  1  6
 28 30  1  0
 30 31  1  0
 30 32  1  0
 24  1  1  0
 30  1  1  0
 22  4  1  0
 22  9  1  0
 17 10  1  0
M  END
$$$$
