
     RDKit          3D

 32 36  0  0  0  0  0  0  0  0999 V2000
  165.6334  154.6677  127.5633 C   0  0  2  0  0  0  0  0  0  0  0  0
  166.9000  153.9795  127.9803 C   0  0  0  0  0  0  0  0  0  0  0  0
  167.0097  152.5432  127.7632 C   0  0  0  0  0  0  0  0  0  0  0  0
  166.0175  151.8334  126.9299 C   0  0  2  0  0  0  0  0  0  0  0  0
  166.6875  151.2148  125.6927 C   0  0  0  0  0  0  0  0  0  0  0  0
  164.8526  152.6761  126.5098 C   0  0  2  0  0  0  0  0  0  0  0  0
  163.9911  152.0129  125.4726 C   0  0  0  0  0  0  0  0  0  0  0  0
  163.4188  150.7792  126.1758 C   0  0  0  0  0  0  0  0  0  0  0  0
  164.5061  149.9238  126.7348 C   0  0  0  0  0  0  0  0  0  0  0  0
  164.5773  148.6764  126.3792 C   0  0  0  0  0  0  0  0  0  0  0  0
  163.6302  147.9889  125.4186 C   0  0  0  0  0  0  0  0  0  0  0  0
  162.7468  147.0223  126.2205 C   0  0  0  0  0  0  0  0  0  0  0  0
  162.6441  145.7554  125.4286 C   0  0  0  0  0  0  0  0  0  0  0  0
  161.3916  147.6135  126.5122 C   0  0  0  0  0  0  0  0  0  0  0  0
  163.4222  146.7370  127.5549 C   0  0  0  0  0  0  0  0  0  0  0  0
  164.8922  146.4763  127.2988 C   0  0  0  0  0  0  0  0  0  0  0  0
  165.6305  147.7687  126.9177 C   0  0  1  0  0  0  0  0  0  0  0  0
  166.6384  147.3697  125.8420 C   0  0  0  0  0  0  0  0  0  0  0  0
  166.2740  148.2806  128.1328 C   0  0  1  0  0  0  0  0  0  0  0  0
  167.4835  147.5901  128.3228 O   0  0  0  0  0  0  0  0  0  0  0  0
  166.6149  149.7482  128.0862 C   0  0  0  0  0  0  0  0  0  0  0  0
  165.4446  150.5975  127.6753 C   0  0  1  0  0  0  0  0  0  0  0  0
  164.7185  151.0295  128.9149 C   0  0  0  0  0  0  0  0  0  0  0  0
  165.1810  154.1179  126.2389 C   0  0  2  0  0  0  0  0  0  0  0  0
  166.1760  154.3336  125.1369 C   0  0  0  0  0  0  0  0  0  0  0  0
  163.9227  154.8286  125.8390 C   0  0  0  0  0  0  0  0  0  0  0  0
  164.0723  156.3054  125.7843 C   0  0  0  0  0  0  0  0  0  0  0  0
  164.7787  156.9547  126.9098 C   0  0  2  0  0  0  0  0  0  0  0  0
  165.4808  158.0636  126.3700 O   0  0  0  0  0  0  0  0  0  0  0  0
  165.7140  156.1320  127.7037 C   0  0  0  0  0  0  0  0  0  0  0  0
  165.4251  156.4500  129.1929 C   0  0  0  0  0  0  0  0  0  0  0  0
  167.1476  156.6741  127.5682 C   0  0  0  0  0  0  0  0  0  0  0  0
  1  2  1  6
  2  3  1  0
  3  4  1  0
  4  5  1  6
  4  6  1  0
  6  7  1  6
  7  8  1  0
  8  9  1  0
  9 10  2  0
 10 11  1  0
 11 12  1  0
 12 13  1  0
 12 14  1  0
 12 15  1  0
 15 16  1  0
 16 17  1  0
 17 18  1  6
 17 19  1  0
 19 20  1  6
 19 21  1  0
 21 22  1  0
 22 23  1  1
  6 24  1  0
 24 25  1  6
 24 26  1  0
 26 27  1  0
 27 28  1  0
 28 29  1  6
 28 30  1  0
 30 31  1  0
 30 32  1  0
 24  1  1  0
 30  1  1  0
 22  4  1  0
 22  9  1  0
 17 10  1  0
M  END
$$$$
