
     RDKit          3D

 32 36  0  0  0  0  0  0  0  0999 V2000
  119.7898  144.6346  149.3066 C   0  0  2  0  0  0  0  0  0  0  0  0
  119.8350  145.9437  148.5745 C   0  0  0  0  0  0  0  0  0  0  0  0
  120.0842  145.9245  147.1393 C   0  0  0  0  0  0  0  0  0  0  0  0
  120.0380  144.6535  146.3877 C   0  0  2  0  0  0  0  0  0  0  0  0
  118.9182  144.6830  145.3353 C   0  0  0  0  0  0  0  0  0  0  0  0
  119.8958  143.4357  147.2482 C   0  0  2  0  0  0  0  0  0  0  0  0
  119.6069  142.1895  146.4598 C   0  0  0  0  0  0  0  0  0  0  0  0
  120.8526  141.9814  145.5943 C   0  0  0  0  0  0  0  0  0  0  0  0
  121.1489  143.1927  144.7750 C   0  0  0  0  0  0  0  0  0  0  0  0
  121.2348  143.0790  143.4838 C   0  0  0  0  0  0  0  0  0  0  0  0
  121.0548  141.7908  142.7088 C   0  0  0  0  0  0  0  0  0  0  0  0
  122.4262  141.3534  142.1742 C   0  0  0  0  0  0  0  0  0  0  0  0
  122.2244  140.8869  140.7656 C   0  0  0  0  0  0  0  0  0  0  0  0
  123.0481  140.2849  143.0359 C   0  0  0  0  0  0  0  0  0  0  0  0
  123.3602  142.5559  142.1851 C   0  0  0  0  0  0  0  0  0  0  0  0
  122.6097  143.7473  141.6268 C   0  0  0  0  0  0  0  0  0  0  0  0
  121.5457  144.2499  142.6146 C   0  0  1  0  0  0  0  0  0  0  0  0
  120.3460  144.6566  141.7618 C   0  0  0  0  0  0  0  0  0  0  0  0
  122.1271  145.3803  143.3475 C   0  0  1  0  0  0  0  0  0  0  0  0
  122.0058  146.5357  142.5562 O   0  0  0  0  0  0  0  0  0  0  0  0
  121.4546  145.6822  144.6624 C   0  0  0  0  0  0  0  0  0  0  0  0
  121.3202  144.4639  145.5325 C   0  0  1  0  0  0  0  0  0  0  0  0
  122.5280  144.3831  146.4187 C   0  0  0  0  0  0  0  0  0  0  0  0
  119.0482  143.6248  148.4753 C   0  0  2  0  0  0  0  0  0  0  0  0
  117.6269  144.0161  148.1963 C   0  0  0  0  0  0  0  0  0  0  0  0
  119.0064  142.3311  149.2323 C   0  0  0  0  0  0  0  0  0  0  0  0
  118.4050  142.4590  150.5844 C   0  0  0  0  0  0  0  0  0  0  0  0
  118.8385  143.6066  151.4104 C   0  0  2  0  0  0  0  0  0  0  0  0
  117.7172  144.0029  152.1848 O   0  0  0  0  0  0  0  0  0  0  0  0
  119.3861  144.7891  150.7150 C   0  0  0  0  0  0  0  0  0  0  0  0
  120.6573  145.2096  151.4957 C   0  0  0  0  0  0  0  0  0  0  0  0
  118.4852  146.0131  150.9546 C   0  0  0  0  0  0  0  0  0  0  0  0
  1  2  1  6
  2  3  1  0
  3  4  1  0
  4  5  1  6
  4  6  1  0
  6  7  1  6
  7  8  1  0
  8  9  1  0
  9 10  2  0
 10 11  1  0
 11 12  1  0
 12 13  1  0
 12 14  1  0
 12 15  1  0
 15 16  1  0
 16 17  1  0
 17 18  1  6
 17 19  1  0
 19 20  1  6
 19 21  1  0
 21 22  1  0
 22 23  1  1
  6 24  1  0
 24 25  1  6
 24 26  1  0
 26 27  1  0
 27 28  1  0
 28 29  1  6
 28 30  1  0
 30 31  1  0
 30 32  1  0
 24  1  1  0
 30  1  1  0
 22  4  1  0
 22  9  1  0
 17 10  1  0
M  END
$$$$
