
     RDKit          3D

 32 36  0  0  0  0  0  0  0  0999 V2000
  188.0707  161.9917  133.0736 C   0  0  2  0  0  0  0  0  0  0  0  0
  188.4190  161.4168  131.7319 C   0  0  0  0  0  0  0  0  0  0  0  0
  189.7925  161.5408  131.2626 C   0  0  0  0  0  0  0  0  0  0  0  0
  190.8608  161.9861  132.1807 C   0  0  2  0  0  0  0  0  0  0  0  0
  191.9180  160.8852  132.3615 C   0  0  0  0  0  0  0  0  0  0  0  0
  190.3690  162.4441  133.5193 C   0  0  2  0  0  0  0  0  0  0  0  0
  191.4774  162.6574  134.5112 C   0  0  0  0  0  0  0  0  0  0  0  0
  192.3069  163.8029  133.9246 C   0  0  0  0  0  0  0  0  0  0  0  0
  192.7535  163.4895  132.5359 C   0  0  0  0  0  0  0  0  0  0  0  0
  194.0218  163.5177  132.2565 C   0  0  0  0  0  0  0  0  0  0  0  0
  195.1236  163.8481  133.2411 C   0  0  0  0  0  0  0  0  0  0  0  0
  195.6908  165.2298  132.8852 C   0  0  0  0  0  0  0  0  0  0  0  0
  197.1810  165.1410  133.0035 C   0  0  0  0  0  0  0  0  0  0  0  0
  195.1213  166.3124  133.7655 C   0  0  0  0  0  0  0  0  0  0  0  0
  195.3112  165.5575  131.4475 C   0  0  0  0  0  0  0  0  0  0  0  0
  195.5619  164.3295  130.5968 C   0  0  0  0  0  0  0  0  0  0  0  0
  194.5267  163.2309  130.8832 C   0  0  1  0  0  0  0  0  0  0  0  0
  195.2939  161.9118  130.8257 C   0  0  0  0  0  0  0  0  0  0  0  0
  193.4890  163.3265  129.8503 C   0  0  1  0  0  0  0  0  0  0  0  0
  193.9436  162.6630  128.6975 O   0  0  0  0  0  0  0  0  0  0  0  0
  192.1749  162.6912  130.2268 C   0  0  0  0  0  0  0  0  0  0  0  0
  191.6736  163.1573  131.5651 C   0  0  1  0  0  0  0  0  0  0  0  0
  190.7858  164.3468  131.3468 C   0  0  0  0  0  0  0  0  0  0  0  0
  189.1781  161.6928  134.0458 C   0  0  2  0  0  0  0  0  0  0  0  0
  189.4081  160.2242  134.2486 C   0  0  0  0  0  0  0  0  0  0  0  0
  188.8015  162.2660  135.3792 C   0  0  0  0  0  0  0  0  0  0  0  0
  187.4952  161.7720  135.8850 C   0  0  0  0  0  0  0  0  0  0  0  0
  186.3703  161.7339  134.9257 C   0  0  2  0  0  0  0  0  0  0  0  0
  185.5718  160.6131  135.2722 O   0  0  0  0  0  0  0  0  0  0  0  0
  186.6937  161.6687  133.4859 C   0  0  0  0  0  0  0  0  0  0  0  0
  185.7690  162.6928  132.7799 C   0  0  0  0  0  0  0  0  0  0  0  0
  186.1754  160.3517  132.8823 C   0  0  0  0  0  0  0  0  0  0  0  0
  1  2  1  6
  2  3  1  0
  3  4  1  0
  4  5  1  1
  4  6  1  0
  6  7  1  1
  7  8  1  0
  8  9  1  0
  9 10  2  0
 10 11  1  0
 11 12  1  0
 12 13  1  0
 12 14  1  0
 12 15  1  0
 15 16  1  0
 16 17  1  0
 17 18  1  1
 17 19  1  0
 19 20  1  6
 19 21  1  0
 21 22  1  0
 22 23  1  6
  6 24  1  0
 24 25  1  1
 24 26  1  0
 26 27  1  0
 27 28  1  0
 28 29  1  1
 28 30  1  0
 30 31  1  0
 30 32  1  0
 24  1  1  0
 30  1  1  0
 22  4  1  0
 22  9  1  0
 17 10  1  0
M  END
$$$$
