
     RDKit          3D

 60 68  0  0  0  0  0  0  0  0999 V2000
  127.5881  144.7361  134.6278 C   0  0  2  0  0  0  0  0  0  0  0  0
  127.5394  143.8358  135.7727 N   0  0  0  0  0  0  0  0  0  0  0  0
  128.7002  144.1472  136.5751 C   0  0  0  0  0  0  0  0  0  0  0  0
  129.7584  144.2693  135.5094 C   0  0  0  0  0  0  0  0  0  0  0  0
  129.0201  144.6253  134.2513 C   0  0  1  0  0  0  0  0  0  0  0  0
  129.2878  143.5966  133.2082 C   0  0  0  0  0  0  0  0  0  0  0  0
  129.3235  144.2189  131.9908 C   0  0  0  0  0  0  0  0  0  0  0  0
  129.5987  143.5327  130.8312 C   0  0  0  0  0  0  0  0  0  0  0  0
  129.8488  142.1781  130.8452 C   0  0  0  0  0  0  0  0  0  0  0  0
  130.1229  141.5066  129.6712 O   0  0  0  0  0  0  0  0  0  0  0  0
  130.0411  142.1803  128.4361 C   0  0  0  0  0  0  0  0  0  0  0  0
  129.8185  141.5039  132.0628 C   0  0  0  0  0  0  0  0  0  0  0  0
  129.5384  142.2382  133.2184 C   0  0  0  0  0  0  0  0  0  0  0  0
  130.0918  140.0372  132.1938 C   0  0  1  0  0  0  0  0  0  0  0  0
  130.3980  139.8609  133.5796 C   0  0  0  0  0  0  0  0  0  0  0  0
  129.5706  139.9817  134.8016 C   0  0  1  0  0  0  0  0  0  0  0  0
  128.2431  140.1159  134.5112 C   0  0  0  0  0  0  0  0  0  0  0  0
  127.0584  139.2892  135.1667 N   0  0  0  0  0  0  0  0  0  0  0  0
  127.6924  139.0447  136.5549 C   0  0  0  0  0  0  0  0  0  0  0  0
  129.0060  138.5719  136.6693 C   0  0  2  0  0  0  0  0  0  0  0  0
  129.2000  137.1669  136.6171 O   0  0  0  0  0  0  0  0  0  0  0  0
  129.3075  138.8460  138.1760 C   0  0  0  0  0  0  0  0  0  0  0  0
  128.7435  140.2064  138.4855 C   0  0  0  0  0  0  0  0  0  0  0  0
  130.1386  139.1873  135.9514 C   0  0  0  0  0  0  0  0  0  0  0  0
  127.3045  137.8981  134.5271 C   0  0  0  0  0  0  0  0  0  0  0  0
  128.2024  137.7031  133.4866 C   0  0  0  0  0  0  0  0  0  0  0  0
  128.1619  138.3029  132.1574 C   0  0  0  0  0  0  0  0  0  0  0  0
  128.9559  139.2751  131.6232 C   0  0  0  0  0  0  0  0  0  0  0  0
  128.5353  139.4422  130.3239 N   0  0  0  0  0  0  0  0  0  0  0  0
  127.5400  138.6580  129.9969 C   0  0  0  0  0  0  0  0  0  0  0  0
  126.7738  138.4323  128.8727 C   0  0  0  0  0  0  0  0  0  0  0  0
  125.7677  137.5046  128.8605 C   0  0  0  0  0  0  0  0  0  0  0  0
  125.4829  136.7474  130.0059 C   0  0  0  0  0  0  0  0  0  0  0  0
  126.2536  136.9782  131.1272 C   0  0  0  0  0  0  0  0  0  0  0  0
  127.2661  137.9175  131.1253 C   0  0  0  0  0  0  0  0  0  0  0  0
  131.3139  139.7460  131.3831 C   0  0  0  0  0  0  0  0  0  0  0  0
  131.4302  138.7266  130.6538 O   0  0  0  0  0  0  0  0  0  0  0  0
  132.3690  140.5976  131.4173 O   0  0  0  0  0  0  0  0  0  0  0  0
  133.6252  140.4330  130.8010 C   0  0  0  0  0  0  0  0  0  0  0  0
  128.9850  145.6375  132.2178 N   0  0  0  0  0  0  0  0  0  0  0  0
  128.3146  146.3297  131.2018 C   0  0  0  0  0  0  0  0  0  0  0  0
  127.5532  145.8540  130.3348 O   0  0  0  0  0  0  0  0  0  0  0  0
  129.5041  145.8725  133.5391 C   0  0  1  0  0  0  0  0  0  0  0  0
  129.1638  147.0969  134.2559 C   0  0  2  0  0  0  0  0  0  0  0  0
  129.6685  146.8712  135.6128 O   0  0  0  0  0  0  0  0  0  0  0  0
  127.6940  147.2983  134.5066 C   0  0  2  0  0  0  0  0  0  0  0  0
  127.6140  148.2046  135.6286 O   0  0  0  0  0  0  0  0  0  0  0  0
  128.6725  148.5896  136.3955 C   0  0  0  0  0  0  0  0  0  0  0  0
  129.1968  149.9772  136.4818 C   0  0  0  0  0  0  0  0  0  0  0  0
  129.2638  147.7236  137.0878 O   0  0  0  0  0  0  0  0  0  0  0  0
  126.9407  146.0341  134.7695 C   0  0  1  0  0  0  0  0  0  0  0  0
  125.6817  146.0120  133.8570 C   0  0  0  0  0  0  0  0  0  0  0  0
  124.7242  147.1062  134.1685 C   0  0  0  0  0  0  0  0  0  0  0  0
  126.3240  146.2063  136.1116 C   0  0  0  0  0  0  0  0  0  0  0  0
  126.0127  145.2485  136.9513 C   0  0  0  0  0  0  0  0  0  0  0  0
  126.3132  143.8555  136.5037 C   0  0  0  0  0  0  0  0  0  0  0  0
  129.9432  148.2507  133.8432 C   0  0  0  0  0  0  0  0  0  0  0  0
  131.2148  148.1512  133.5910 O   0  0  0  0  0  0  0  0  0  0  0  0
  129.4499  149.5076  133.6790 O   0  0  0  0  0  0  0  0  0  0  0  0
  128.5438  149.9236  132.6876 C   0  0  0  0  0  0  0  0  0  0  0  0
  1  2  1  1
  2  3  1  0
  3  4  1  0
  5  4  1  1
  5  6  1  0
  6  7  2  0
  7  8  1  0
  8  9  2  0
  9 10  1  0
 10 11  1  0
  9 12  1  0
 12 13  2  0
 12 14  1  0
 14 15  1  0
 16 15  1  6
 16 17  1  0
 17 18  1  0
 18 19  1  1
 19 20  1  0
 20 21  1  1
 20 22  1  0
 22 23  1  0
 20 24  1  0
 18 25  1  0
 25 26  1  0
 26 27  1  0
 27 28  2  0
 28 29  1  0
 29 30  1  0
 30 31  2  0
 31 32  1  0
 32 33  2  0
 33 34  1  0
 34 35  2  0
 14 36  1  6
 36 37  2  0
 36 38  1  0
 38 39  1  0
  7 40  1  0
 40 41  1  0
 41 42  2  0
 43 40  1  6
 43 44  1  0
 44 45  1  1
 44 46  1  0
 46 47  1  1
 47 48  1  0
 48 49  1  0
 48 50  2  0
 46 51  1  0
 51 52  1  6
 52 53  1  0
 51 54  1  0
 54 55  2  0
 55 56  1  0
 44 57  1  0
 57 58  2  0
 57 59  1  0
 59 60  1  0
  5  1  1  0
 43  5  1  0
 51  1  1  0
 56  2  1  0
 13  6  1  0
 28 14  1  0
 35 30  1  0
 24 16  1  0
 35 27  1  0
M  END
$$$$
