
     RDKit          3D

 60 68  0  0  0  0  0  0  0  0999 V2000
  147.8693  204.4376  149.6534 C   0  0  2  0  0  0  0  0  0  0  0  0
  147.6232  203.0502  150.0257 N   0  0  0  0  0  0  0  0  0  0  0  0
  148.5962  202.2641  149.3021 C   0  0  0  0  0  0  0  0  0  0  0  0
  148.5263  202.9072  147.9412 C   0  0  0  0  0  0  0  0  0  0  0  0
  148.0303  204.3036  148.1834 C   0  0  1  0  0  0  0  0  0  0  0  0
  146.7709  204.5247  147.4198 C   0  0  0  0  0  0  0  0  0  0  0  0
  146.7470  205.8259  146.9990 C   0  0  0  0  0  0  0  0  0  0  0  0
  145.7238  206.3210  146.2250 C   0  0  0  0  0  0  0  0  0  0  0  0
  144.6690  205.5229  145.8400 C   0  0  0  0  0  0  0  0  0  0  0  0
  143.6512  206.0378  145.0633 O   0  0  0  0  0  0  0  0  0  0  0  0
  143.9116  207.0924  144.1656 C   0  0  0  0  0  0  0  0  0  0  0  0
  144.6512  204.1926  146.2498 C   0  0  0  0  0  0  0  0  0  0  0  0
  145.7113  203.7276  147.0325 C   0  0  0  0  0  0  0  0  0  0  0  0
  143.5627  203.2346  145.8747 C   0  0  1  0  0  0  0  0  0  0  0  0
  143.8540  202.0590  146.6352 C   0  0  0  0  0  0  0  0  0  0  0  0
  143.8180  201.7842  148.0898 C   0  0  1  0  0  0  0  0  0  0  0  0
  143.2319  202.8000  148.7894 C   0  0  0  0  0  0  0  0  0  0  0  0
  142.0979  202.6412  149.8873 N   0  0  0  0  0  0  0  0  0  0  0  0
  142.4894  201.2434  150.4182 C   0  0  0  0  0  0  0  0  0  0  0  0
  142.7433  200.1867  149.5345 C   0  0  2  0  0  0  0  0  0  0  0  0
  141.6304  199.4250  149.0922 O   0  0  0  0  0  0  0  0  0  0  0  0
  143.4411  199.1536  150.4738 C   0  0  0  0  0  0  0  0  0  0  0  0
  142.3424  198.3976  151.1708 C   0  0  0  0  0  0  0  0  0  0  0  0
  143.6593  200.3133  148.3849 C   0  0  0  0  0  0  0  0  0  0  0  0
  140.8972  202.2442  148.9896 C   0  0  0  0  0  0  0  0  0  0  0  0
  140.9426  202.3227  147.6045 C   0  0  0  0  0  0  0  0  0  0  0  0
  141.1513  203.5156  146.7912 C   0  0  0  0  0  0  0  0  0  0  0  0
  142.2470  203.8886  146.0691 C   0  0  0  0  0  0  0  0  0  0  0  0
  141.9112  205.0681  145.4451 N   0  0  0  0  0  0  0  0  0  0  0  0
  140.6960  205.4701  145.7173 C   0  0  0  0  0  0  0  0  0  0  0  0
  139.8969  206.5398  145.3721 C   0  0  0  0  0  0  0  0  0  0  0  0
  138.6213  206.6703  145.8503 C   0  0  0  0  0  0  0  0  0  0  0  0
  138.0831  205.7078  146.7165 C   0  0  0  0  0  0  0  0  0  0  0  0
  138.8880  204.6399  147.0575 C   0  0  0  0  0  0  0  0  0  0  0  0
  140.1736  204.5207  146.5673 C   0  0  0  0  0  0  0  0  0  0  0  0
  143.7310  202.9293  144.4206 C   0  0  0  0  0  0  0  0  0  0  0  0
  144.6099  202.1441  143.9788 O   0  0  0  0  0  0  0  0  0  0  0  0
  142.9178  203.5147  143.5064 O   0  0  0  0  0  0  0  0  0  0  0  0
  142.8852  203.2874  142.1165 C   0  0  0  0  0  0  0  0  0  0  0  0
  147.9393  206.4874  147.5641 N   0  0  0  0  0  0  0  0  0  0  0  0
  147.8560  207.8500  147.8758 C   0  0  0  0  0  0  0  0  0  0  0  0
  147.2364  208.3747  148.8238 O   0  0  0  0  0  0  0  0  0  0  0  0
  148.8944  205.4125  147.6172 C   0  0  1  0  0  0  0  0  0  0  0  0
  150.1471  205.5772  148.3468 C   0  0  2  0  0  0  0  0  0  0  0  0
  150.7280  204.2322  148.3718 O   0  0  0  0  0  0  0  0  0  0  0  0
  149.9934  205.8705  149.8145 C   0  0  2  0  0  0  0  0  0  0  0  0
  151.2419  205.4712  150.4212 O   0  0  0  0  0  0  0  0  0  0  0  0
  152.3984  206.1900  150.3683 C   0  0  0  0  0  0  0  0  0  0  0  0
  153.4973  205.9581  149.3956 C   0  0  0  0  0  0  0  0  0  0  0  0
  152.5690  207.1216  151.1940 O   0  0  0  0  0  0  0  0  0  0  0  0
  148.8297  205.1851  150.4553 C   0  0  1  0  0  0  0  0  0  0  0  0
  148.0197  206.2396  151.2615 C   0  0  0  0  0  0  0  0  0  0  0  0
  148.0420  205.9871  152.7268 C   0  0  0  0  0  0  0  0  0  0  0  0
  149.4037  204.3597  151.5509 C   0  0  0  0  0  0  0  0  0  0  0  0
  148.8919  203.2566  152.0415 C   0  0  0  0  0  0  0  0  0  0  0  0
  147.6090  202.7963  151.4306 C   0  0  0  0  0  0  0  0  0  0  0  0
  151.1576  206.3174  147.6120 C   0  0  0  0  0  0  0  0  0  0  0  0
  150.8699  206.9361  146.5053 O   0  0  0  0  0  0  0  0  0  0  0  0
  152.4594  206.4425  147.9857 O   0  0  0  0  0  0  0  0  0  0  0  0
  153.4023  207.3284  147.4352 C   0  0  0  0  0  0  0  0  0  0  0  0
  1  2  1  1
  2  3  1  0
  3  4  1  0
  5  4  1  1
  5  6  1  0
  6  7  2  0
  7  8  1  0
  8  9  2  0
  9 10  1  0
 10 11  1  0
  9 12  1  0
 12 13  2  0
 12 14  1  0
 14 15  1  0
 16 15  1  6
 16 17  1  0
 17 18  1  0
 18 19  1  1
 19 20  1  0
 20 21  1  6
 20 22  1  0
 22 23  1  0
 20 24  1  0
 18 25  1  0
 25 26  1  0
 26 27  1  0
 27 28  2  0
 28 29  1  0
 29 30  1  0
 30 31  2  0
 31 32  1  0
 32 33  2  0
 33 34  1  0
 34 35  2  0
 14 36  1  6
 36 37  2  0
 36 38  1  0
 38 39  1  0
  7 40  1  0
 40 41  1  0
 41 42  2  0
 43 40  1  1
 43 44  1  0
 44 45  1  1
 44 46  1  0
 46 47  1  1
 47 48  1  0
 48 49  1  0
 48 50  2  0
 46 51  1  0
 51 52  1  1
 52 53  1  0
 51 54  1  0
 54 55  2  0
 55 56  1  0
 44 57  1  0
 57 58  2  0
 57 59  1  0
 59 60  1  0
  5  1  1  0
 43  5  1  0
 51  1  1  0
 56  2  1  0
 13  6  1  0
 28 14  1  0
 35 30  1  0
 24 16  1  0
 35 27  1  0
M  END
$$$$
