
     RDKit          3D

 60 68  0  0  0  0  0  0  0  0999 V2000
  167.2180  147.8275  129.9521 C   0  0  2  0  0  0  0  0  0  0  0  0
  167.9873  147.3734  128.8006 N   0  0  0  0  0  0  0  0  0  0  0  0
  169.2959  147.9717  128.9337 C   0  0  0  0  0  0  0  0  0  0  0  0
  168.9271  149.3771  129.3328 C   0  0  0  0  0  0  0  0  0  0  0  0
  167.5701  149.2700  129.9666 C   0  0  1  0  0  0  0  0  0  0  0  0
  166.6051  150.1300  129.2269 C   0  0  0  0  0  0  0  0  0  0  0  0
  165.7119  150.6443  130.1260 C   0  0  0  0  0  0  0  0  0  0  0  0
  164.7204  151.5187  129.7469 C   0  0  0  0  0  0  0  0  0  0  0  0
  164.5808  151.9148  128.4349 C   0  0  0  0  0  0  0  0  0  0  0  0
  163.5795  152.7929  128.0735 O   0  0  0  0  0  0  0  0  0  0  0  0
  162.8252  153.4514  129.0652 C   0  0  0  0  0  0  0  0  0  0  0  0
  165.4664  151.4121  127.4856 C   0  0  0  0  0  0  0  0  0  0  0  0
  166.4617  150.5288  127.9122 C   0  0  0  0  0  0  0  0  0  0  0  0
  165.4149  151.7891  126.0371 C   0  0  1  0  0  0  0  0  0  0  0  0
  165.0071  153.1598  126.0466 C   0  0  0  0  0  0  0  0  0  0  0  0
  165.6828  154.3927  126.5113 C   0  0  1  0  0  0  0  0  0  0  0  0
  166.9947  154.1734  126.8203 C   0  0  0  0  0  0  0  0  0  0  0  0
  168.2251  155.0472  126.3312 N   0  0  0  0  0  0  0  0  0  0  0  0
  167.5056  156.4105  126.2188 C   0  0  0  0  0  0  0  0  0  0  0  0
  166.2775  156.5196  125.5539 C   0  0  2  0  0  0  0  0  0  0  0  0
  166.3121  156.7110  124.1480 O   0  0  0  0  0  0  0  0  0  0  0  0
  165.7921  157.9274  126.0218 C   0  0  0  0  0  0  0  0  0  0  0  0
  167.0242  158.6971  126.4143 C   0  0  0  0  0  0  0  0  0  0  0  0
  165.1375  155.6267  125.8363 C   0  0  0  0  0  0  0  0  0  0  0  0
  168.2633  154.6563  124.8310 C   0  0  0  0  0  0  0  0  0  0  0  0
  167.5123  153.6102  124.3127 C   0  0  0  0  0  0  0  0  0  0  0  0
  167.5871  152.2000  124.6782 C   0  0  0  0  0  0  0  0  0  0  0  0
  166.7061  151.4451  125.3960 C   0  0  0  0  0  0  0  0  0  0  0  0
  167.2195  150.1686  125.4117 N   0  0  0  0  0  0  0  0  0  0  0  0
  168.3524  150.0582  124.7659 C   0  0  0  0  0  0  0  0  0  0  0  0
  169.2498  149.0483  124.4890 C   0  0  0  0  0  0  0  0  0  0  0  0
  170.3853  149.2735  123.7589 C   0  0  0  0  0  0  0  0  0  0  0  0
  170.6728  150.5542  123.2655 C   0  0  0  0  0  0  0  0  0  0  0  0
  169.7703  151.5599  123.5461 C   0  0  0  0  0  0  0  0  0  0  0  0
  168.6281  151.3184  124.2839 C   0  0  0  0  0  0  0  0  0  0  0  0
  164.3380  150.9639  125.4085 C   0  0  0  0  0  0  0  0  0  0  0  0
  163.3286  151.4621  124.8451 O   0  0  0  0  0  0  0  0  0  0  0  0
  164.4187  149.6103  125.4344 O   0  0  0  0  0  0  0  0  0  0  0  0
  163.6053  148.6886  124.7462 C   0  0  0  0  0  0  0  0  0  0  0  0
  166.0266  150.0500  131.4398 N   0  0  0  0  0  0  0  0  0  0  0  0
  164.9764  149.8436  132.3427 C   0  0  0  0  0  0  0  0  0  0  0  0
  165.0412  149.3239  133.4756 O   0  0  0  0  0  0  0  0  0  0  0  0
  167.4501  149.8557  131.3593 C   0  0  1  0  0  0  0  0  0  0  0  0
  168.1416  149.0578  132.3662 C   0  0  2  0  0  0  0  0  0  0  0  0
  169.4957  148.8970  131.8298 O   0  0  0  0  0  0  0  0  0  0  0  0
  167.6825  147.6287  132.4692 C   0  0  2  0  0  0  0  0  0  0  0  0
  168.7810  146.9126  133.0750 O   0  0  0  0  0  0  0  0  0  0  0  0
  169.4236  147.2923  134.2151 C   0  0  0  0  0  0  0  0  0  0  0  0
  170.3537  148.4462  134.3200 C   0  0  0  0  0  0  0  0  0  0  0  0
  169.2304  146.6316  135.2662 O   0  0  0  0  0  0  0  0  0  0  0  0
  167.2861  147.0193  131.1629 C   0  0  1  0  0  0  0  0  0  0  0  0
  165.8944  146.3472  131.3351 C   0  0  0  0  0  0  0  0  0  0  0  0
  165.9719  144.8628  131.3776 C   0  0  0  0  0  0  0  0  0  0  0  0
  168.1635  145.8311  130.9919 C   0  0  0  0  0  0  0  0  0  0  0  0
  168.5341  145.2975  129.8528 C   0  0  0  0  0  0  0  0  0  0  0  0
  168.0184  145.9580  128.6164 C   0  0  0  0  0  0  0  0  0  0  0  0
  168.4010  149.7749  133.6021 C   0  0  0  0  0  0  0  0  0  0  0  0
  169.5700  150.2850  133.8541 O   0  0  0  0  0  0  0  0  0  0  0  0
  167.4884  149.9857  134.5885 O   0  0  0  0  0  0  0  0  0  0  0  0
  166.8322  148.9960  135.3412 C   0  0  0  0  0  0  0  0  0  0  0  0
  1  2  1  6
  2  3  1  0
  3  4  1  0
  5  4  1  6
  5  6  1  0
  6  7  2  0
  7  8  1  0
  8  9  2  0
  9 10  1  0
 10 11  1  0
  9 12  1  0
 12 13  2  0
 12 14  1  0
 14 15  1  0
 16 15  1  6
 16 17  1  0
 17 18  1  0
 18 19  1  6
 19 20  1  0
 20 21  1  6
 20 22  1  0
 22 23  1  0
 20 24  1  0
 18 25  1  0
 25 26  1  0
 26 27  1  0
 27 28  2  0
 28 29  1  0
 29 30  1  0
 30 31  2  0
 31 32  1  0
 32 33  2  0
 33 34  1  0
 34 35  2  0
 14 36  1  6
 36 37  2  0
 36 38  1  0
 38 39  1  0
  7 40  1  0
 40 41  1  0
 41 42  2  0
 43 40  1  1
 43 44  1  0
 44 45  1  6
 44 46  1  0
 46 47  1  6
 47 48  1  0
 48 49  1  0
 48 50  2  0
 46 51  1  0
 51 52  1  1
 52 53  1  0
 51 54  1  0
 54 55  2  0
 55 56  1  0
 44 57  1  0
 57 58  2  0
 57 59  1  0
 59 60  1  0
  5  1  1  0
 43  5  1  0
 51  1  1  0
 56  2  1  0
 13  6  1  0
 28 14  1  0
 35 30  1  0
 24 16  1  0
 35 27  1  0
M  END
$$$$
