
     RDKit          3D

 60 68  0  0  0  0  0  0  0  0999 V2000
  131.8121  163.8448  152.1104 C   0  0  2  0  0  0  0  0  0  0  0  0
  133.2666  163.7838  152.0422 N   0  0  0  0  0  0  0  0  0  0  0  0
  133.5788  162.7007  151.1379 C   0  0  0  0  0  0  0  0  0  0  0  0
  132.6068  161.6492  151.6071 C   0  0  0  0  0  0  0  0  0  0  0  0
  131.4829  162.4043  152.2563 C   0  0  1  0  0  0  0  0  0  0  0  0
  131.3376  161.9628  153.6711 C   0  0  0  0  0  0  0  0  0  0  0  0
  130.0093  161.9934  153.9960 C   0  0  0  0  0  0  0  0  0  0  0  0
  129.5532  161.5932  155.2301 C   0  0  0  0  0  0  0  0  0  0  0  0
  130.4211  161.1439  156.2010 C   0  0  0  0  0  0  0  0  0  0  0  0
  129.9447  160.7465  157.4336 O   0  0  0  0  0  0  0  0  0  0  0  0
  128.5794  160.9013  157.7469 C   0  0  0  0  0  0  0  0  0  0  0  0
  131.7826  161.1001  155.9140 C   0  0  0  0  0  0  0  0  0  0  0  0
  132.2049  161.5124  154.6473 C   0  0  0  0  0  0  0  0  0  0  0  0
  132.8099  160.6138  156.8893 C   0  0  1  0  0  0  0  0  0  0  0  0
  134.0528  161.0585  156.3391 C   0  0  0  0  0  0  0  0  0  0  0  0
  134.6297  162.4099  156.1560 C   0  0  1  0  0  0  0  0  0  0  0  0
  133.8979  163.3708  156.7932 C   0  0  0  0  0  0  0  0  0  0  0  0
  134.4735  164.4987  157.7487 N   0  0  0  0  0  0  0  0  0  0  0  0
  135.8650  164.6615  157.0959 C   0  0  0  0  0  0  0  0  0  0  0  0
  136.6536  163.5419  156.8015 C   0  0  2  0  0  0  0  0  0  0  0  0
  137.4818  163.0372  157.8377 O   0  0  0  0  0  0  0  0  0  0  0  0
  137.7282  164.1569  155.8510 C   0  0  0  0  0  0  0  0  0  0  0  0
  136.9941  164.6391  154.6291 C   0  0  0  0  0  0  0  0  0  0  0  0
  136.1349  162.3755  156.0617 C   0  0  0  0  0  0  0  0  0  0  0  0
  134.8696  163.6430  158.9798 C   0  0  0  0  0  0  0  0  0  0  0  0
  134.4947  162.3135  159.1167 C   0  0  0  0  0  0  0  0  0  0  0  0
  133.1396  161.7777  159.1850 C   0  0  0  0  0  0  0  0  0  0  0  0
  132.4434  161.0662  158.2522 C   0  0  0  0  0  0  0  0  0  0  0  0
  131.2331  160.7587  158.8299 N   0  0  0  0  0  0  0  0  0  0  0  0
  131.1085  161.2205  160.0480 C   0  0  0  0  0  0  0  0  0  0  0  0
  130.1408  161.1989  161.0303 C   0  0  0  0  0  0  0  0  0  0  0  0
  130.3312  161.8040  162.2430 C   0  0  0  0  0  0  0  0  0  0  0  0
  131.5312  162.4724  162.5251 C   0  0  0  0  0  0  0  0  0  0  0  0
  132.4954  162.4899  161.5378 C   0  0  0  0  0  0  0  0  0  0  0  0
  132.2898  161.8747  160.3185 C   0  0  0  0  0  0  0  0  0  0  0  0
  132.7694  159.1194  156.8582 C   0  0  0  0  0  0  0  0  0  0  0  0
  132.5765  158.4139  157.8827 O   0  0  0  0  0  0  0  0  0  0  0  0
  132.9520  158.4604  155.6869 O   0  0  0  0  0  0  0  0  0  0  0  0
  133.1078  157.0730  155.4978 C   0  0  0  0  0  0  0  0  0  0  0  0
  129.2897  162.5450  152.8314 N   0  0  0  0  0  0  0  0  0  0  0  0
  128.1259  163.2885  153.0627 C   0  0  0  0  0  0  0  0  0  0  0  0
  127.6378  163.6099  154.1656 O   0  0  0  0  0  0  0  0  0  0  0  0
  130.0963  162.0964  151.7275 C   0  0  1  0  0  0  0  0  0  0  0  0
  129.8736  162.6316  150.3886 C   0  0  2  0  0  0  0  0  0  0  0  0
  131.0069  162.1290  149.6075 O   0  0  0  0  0  0  0  0  0  0  0  0
  130.0519  164.1202  150.2620 C   0  0  2  0  0  0  0  0  0  0  0  0
  130.3212  164.3595  148.8632 O   0  0  0  0  0  0  0  0  0  0  0  0
  130.6660  163.3982  147.9610 C   0  0  0  0  0  0  0  0  0  0  0  0
  131.5767  162.2585  148.2427 C   0  0  0  0  0  0  0  0  0  0  0  0
  130.1909  163.4614  146.7995 O   0  0  0  0  0  0  0  0  0  0  0  0
  131.1310  164.6818  151.1309 C   0  0  1  0  0  0  0  0  0  0  0  0
  130.5560  165.9027  151.9034 C   0  0  0  0  0  0  0  0  0  0  0  0
  129.3130  166.4406  151.2892 C   0  0  0  0  0  0  0  0  0  0  0  0
  132.0860  165.3469  150.2053 C   0  0  0  0  0  0  0  0  0  0  0  0
  133.3677  165.5302  150.4126 C   0  0  0  0  0  0  0  0  0  0  0  0
  133.9067  165.0151  151.7069 C   0  0  0  0  0  0  0  0  0  0  0  0
  128.7505  162.0243  149.6966 C   0  0  0  0  0  0  0  0  0  0  0  0
  128.9321  161.2133  148.6967 O   0  0  0  0  0  0  0  0  0  0  0  0
  127.4415  162.2256  150.0065 O   0  0  0  0  0  0  0  0  0  0  0  0
  126.9375  163.1671  150.9210 C   0  0  0  0  0  0  0  0  0  0  0  0
  1  2  1  6
  2  3  1  0
  3  4  1  0
  5  4  1  6
  5  6  1  0
  6  7  2  0
  7  8  1  0
  8  9  2  0
  9 10  1  0
 10 11  1  0
  9 12  1  0
 12 13  2  0
 12 14  1  0
 14 15  1  0
 16 15  1  1
 16 17  1  0
 17 18  1  0
 18 19  1  6
 19 20  1  0
 20 21  1  1
 20 22  1  0
 22 23  1  0
 20 24  1  0
 18 25  1  0
 25 26  1  0
 26 27  1  0
 27 28  2  0
 28 29  1  0
 29 30  1  0
 30 31  2  0
 31 32  1  0
 32 33  2  0
 33 34  1  0
 34 35  2  0
 14 36  1  1
 36 37  2  0
 36 38  1  0
 38 39  1  0
  7 40  1  0
 40 41  1  0
 41 42  2  0
 43 40  1  1
 43 44  1  0
 44 45  1  6
 44 46  1  0
 46 47  1  6
 47 48  1  0
 48 49  1  0
 48 50  2  0
 46 51  1  0
 51 52  1  1
 52 53  1  0
 51 54  1  0
 54 55  2  0
 55 56  1  0
 44 57  1  0
 57 58  2  0
 57 59  1  0
 59 60  1  0
  5  1  1  0
 43  5  1  0
 51  1  1  0
 56  2  1  0
 13  6  1  0
 28 14  1  0
 35 30  1  0
 24 16  1  0
 35 27  1  0
M  END
$$$$
