
     RDKit          3D

 60 68  0  0  0  0  0  0  0  0999 V2000
  171.4209  162.5268  110.7306 C   0  0  2  0  0  0  0  0  0  0  0  0
  171.0635  163.1609  111.9932 N   0  0  0  0  0  0  0  0  0  0  0  0
  170.0392  164.1301  111.6773 C   0  0  0  0  0  0  0  0  0  0  0  0
  170.6128  164.7546  110.4318 C   0  0  0  0  0  0  0  0  0  0  0  0
  171.5236  163.7146  109.8456 C   0  0  1  0  0  0  0  0  0  0  0  0
  172.9035  164.2643  109.7376 C   0  0  0  0  0  0  0  0  0  0  0  0
  173.4847  163.7468  108.6128 C   0  0  0  0  0  0  0  0  0  0  0  0
  174.7521  164.1065  108.2181 C   0  0  0  0  0  0  0  0  0  0  0  0
  175.4979  165.0077  108.9457 C   0  0  0  0  0  0  0  0  0  0  0  0
  176.7679  165.3563  108.5339 O   0  0  0  0  0  0  0  0  0  0  0  0
  177.2358  164.9527  107.2673 C   0  0  0  0  0  0  0  0  0  0  0  0
  174.9462  165.5561  110.1002 C   0  0  0  0  0  0  0  0  0  0  0  0
  173.6545  165.1670  110.4650 C   0  0  0  0  0  0  0  0  0  0  0  0
  175.6622  166.5559  110.9550 C   0  0  1  0  0  0  0  0  0  0  0  0
  176.8118  166.9158  110.1840 C   0  0  0  0  0  0  0  0  0  0  0  0
  176.9599  167.6556  108.9100 C   0  0  1  0  0  0  0  0  0  0  0  0
  175.7886  168.2352  108.5141 C   0  0  0  0  0  0  0  0  0  0  0  0
  175.6057  169.7403  108.0471 N   0  0  0  0  0  0  0  0  0  0  0  0
  177.0110  169.9636  107.4437 C   0  0  0  0  0  0  0  0  0  0  0  0
  178.1619  169.5994  108.1543 C   0  0  2  0  0  0  0  0  0  0  0  0
  178.6868  170.5448  109.0736 O   0  0  0  0  0  0  0  0  0  0  0  0
  179.2502  169.6533  107.0366 C   0  0  0  0  0  0  0  0  0  0  0  0
  179.1873  171.0349  106.4434 C   0  0  0  0  0  0  0  0  0  0  0  0
  178.3312  168.2677  108.7663 C   0  0  0  0  0  0  0  0  0  0  0  0
  175.7913  170.4745  109.4004 C   0  0  0  0  0  0  0  0  0  0  0  0
  175.8307  169.8032  110.6148 C   0  0  0  0  0  0  0  0  0  0  0  0
  174.7802  168.9832  111.2081 C   0  0  0  0  0  0  0  0  0  0  0  0
  174.7178  167.6277  111.3495 C   0  0  0  0  0  0  0  0  0  0  0  0
  173.5442  167.3660  112.0184 N   0  0  0  0  0  0  0  0  0  0  0  0
  172.8610  168.4443  112.3068 C   0  0  0  0  0  0  0  0  0  0  0  0
  171.6692  168.7327  112.9379 C   0  0  0  0  0  0  0  0  0  0  0  0
  171.2207  170.0180  113.0784 C   0  0  0  0  0  0  0  0  0  0  0  0
  171.9696  171.0927  112.5778 C   0  0  0  0  0  0  0  0  0  0  0  0
  173.1613  170.7970  111.9477 C   0  0  0  0  0  0  0  0  0  0  0  0
  173.6019  169.4950  111.8132 C   0  0  0  0  0  0  0  0  0  0  0  0
  176.1073  165.8375  112.1885 C   0  0  0  0  0  0  0  0  0  0  0  0
  176.2041  166.3946  113.3131 O   0  0  0  0  0  0  0  0  0  0  0  0
  176.4363  164.5231  112.1262 O   0  0  0  0  0  0  0  0  0  0  0  0
  177.5306  163.8822  112.7399 C   0  0  0  0  0  0  0  0  0  0  0  0
  172.5278  162.7846  108.0324 N   0  0  0  0  0  0  0  0  0  0  0  0
  173.0370  161.6768  107.3438 C   0  0  0  0  0  0  0  0  0  0  0  0
  174.1858  161.5368  106.8763 O   0  0  0  0  0  0  0  0  0  0  0  0
  171.2571  163.3521  108.3983 C   0  0  1  0  0  0  0  0  0  0  0  0
  170.0307  162.5801  108.2288 C   0  0  2  0  0  0  0  0  0  0  0  0
  169.0074  163.3765  108.9112 O   0  0  0  0  0  0  0  0  0  0  0  0
  169.9801  161.2906  109.0024 C   0  0  2  0  0  0  0  0  0  0  0  0
  168.5767  160.9760  109.1374 O   0  0  0  0  0  0  0  0  0  0  0  0
  167.5560  161.8365  108.8645 C   0  0  0  0  0  0  0  0  0  0  0  0
  167.3607  162.5363  107.5685 C   0  0  0  0  0  0  0  0  0  0  0  0
  166.7067  162.0701  109.7605 O   0  0  0  0  0  0  0  0  0  0  0  0
  170.6581  161.3503  110.3334 C   0  0  1  0  0  0  0  0  0  0  0  0
  171.6153  160.1307  110.4536 C   0  0  0  0  0  0  0  0  0  0  0  0
  171.7004  159.5986  111.8397 C   0  0  0  0  0  0  0  0  0  0  0  0
  169.6135  160.9995  111.3318 C   0  0  0  0  0  0  0  0  0  0  0  0
  169.5772  161.3842  112.5849 C   0  0  0  0  0  0  0  0  0  0  0  0
  170.6992  162.2595  113.0387 C   0  0  0  0  0  0  0  0  0  0  0  0
  169.5310  162.5702  106.8653 C   0  0  0  0  0  0  0  0  0  0  0  0
  168.6183  163.4096  106.4746 O   0  0  0  0  0  0  0  0  0  0  0  0
  169.9468  161.7206  105.8878 O   0  0  0  0  0  0  0  0  0  0  0  0
  169.9174  160.3158  105.9376 C   0  0  0  0  0  0  0  0  0  0  0  0
  1  2  1  1
  2  3  1  0
  3  4  1  0
  5  4  1  1
  5  6  1  0
  6  7  2  0
  7  8  1  0
  8  9  2  0
  9 10  1  0
 10 11  1  0
  9 12  1  0
 12 13  2  0
 12 14  1  0
 14 15  1  0
 16 15  1  1
 16 17  1  0
 17 18  1  0
 18 19  1  6
 19 20  1  0
 20 21  1  1
 20 22  1  0
 22 23  1  0
 20 24  1  0
 18 25  1  0
 25 26  1  0
 26 27  1  0
 27 28  2  0
 28 29  1  0
 29 30  1  0
 30 31  2  0
 31 32  1  0
 32 33  2  0
 33 34  1  0
 34 35  2  0
 14 36  1  1
 36 37  2  0
 36 38  1  0
 38 39  1  0
  7 40  1  0
 40 41  1  0
 41 42  2  0
 43 40  1  1
 43 44  1  0
 44 45  1  1
 44 46  1  0
 46 47  1  1
 47 48  1  0
 48 49  1  0
 48 50  2  0
 46 51  1  0
 51 52  1  6
 52 53  1  0
 51 54  1  0
 54 55  2  0
 55 56  1  0
 44 57  1  0
 57 58  2  0
 57 59  1  0
 59 60  1  0
  5  1  1  0
 43  5  1  0
 51  1  1  0
 56  2  1  0
 13  6  1  0
 28 14  1  0
 35 30  1  0
 24 16  1  0
 35 27  1  0
M  END
$$$$
