
     RDKit          3D

 60 68  0  0  0  0  0  0  0  0999 V2000
  165.6801  149.7420  126.2501 C   0  0  2  0  0  0  0  0  0  0  0  0
  164.4944  150.5872  126.3093 N   0  0  0  0  0  0  0  0  0  0  0  0
  163.9980  150.4844  127.6625 C   0  0  0  0  0  0  0  0  0  0  0  0
  164.1172  149.0008  127.8974 C   0  0  0  0  0  0  0  0  0  0  0  0
  165.1911  148.5320  126.9584 C   0  0  1  0  0  0  0  0  0  0  0  0
  164.6388  147.4883  126.0509 C   0  0  0  0  0  0  0  0  0  0  0  0
  165.6253  146.5760  125.7955 C   0  0  0  0  0  0  0  0  0  0  0  0
  165.4028  145.4625  125.0197 C   0  0  0  0  0  0  0  0  0  0  0  0
  164.1684  145.2176  124.4593 C   0  0  0  0  0  0  0  0  0  0  0  0
  163.9642  144.0948  123.6836 O   0  0  0  0  0  0  0  0  0  0  0  0
  164.9331  143.7034  122.7380 C   0  0  0  0  0  0  0  0  0  0  0  0
  163.1364  146.1229  124.6903 C   0  0  0  0  0  0  0  0  0  0  0  0
  163.4026  147.2399  125.4868 C   0  0  0  0  0  0  0  0  0  0  0  0
  161.7533  145.9450  124.1439 C   0  0  1  0  0  0  0  0  0  0  0  0
  161.8734  144.8433  123.2399 C   0  0  0  0  0  0  0  0  0  0  0  0
  162.1474  143.4049  123.4598 C   0  0  1  0  0  0  0  0  0  0  0  0
  162.0999  143.0700  124.7827 C   0  0  0  0  0  0  0  0  0  0  0  0
  161.3068  141.8451  125.4053 N   0  0  0  0  0  0  0  0  0  0  0  0
  161.3911  140.8827  124.1988 C   0  0  0  0  0  0  0  0  0  0  0  0
  161.0728  141.3229  122.9077 C   0  0  2  0  0  0  0  0  0  0  0  0
  159.7078  141.2778  122.5216 O   0  0  0  0  0  0  0  0  0  0  0  0
  161.6557  140.1702  122.0313 C   0  0  0  0  0  0  0  0  0  0  0  0
  160.6723  139.0337  122.1086 C   0  0  0  0  0  0  0  0  0  0  0  0
  161.6427  142.5516  122.3227 C   0  0  0  0  0  0  0  0  0  0  0  0
  159.8483  142.3426  125.2312 C   0  0  0  0  0  0  0  0  0  0  0  0
  159.5430  143.6441  124.8574 C   0  0  0  0  0  0  0  0  0  0  0  0
  159.8722  144.8717  125.5733 C   0  0  0  0  0  0  0  0  0  0  0  0
  160.7944  145.8296  125.2681 C   0  0  0  0  0  0  0  0  0  0  0  0
  160.6712  146.8017  126.2340 N   0  0  0  0  0  0  0  0  0  0  0  0
  159.7500  146.5334  127.1240 C   0  0  0  0  0  0  0  0  0  0  0  0
  159.2442  147.1429  128.2529 C   0  0  0  0  0  0  0  0  0  0  0  0
  158.2418  146.5744  128.9911 C   0  0  0  0  0  0  0  0  0  0  0  0
  157.6935  145.3394  128.6163 C   0  0  0  0  0  0  0  0  0  0  0  0
  158.2042  144.7351  127.4856 C   0  0  0  0  0  0  0  0  0  0  0  0
  159.2158  145.3205  126.7498 C   0  0  0  0  0  0  0  0  0  0  0  0
  161.4278  147.1805  123.3671 C   0  0  0  0  0  0  0  0  0  0  0  0
  162.1502  148.2113  123.3777 O   0  0  0  0  0  0  0  0  0  0  0  0
  160.3040  147.2284  122.6092 O   0  0  0  0  0  0  0  0  0  0  0  0
  160.2182  147.2904  121.2044 C   0  0  0  0  0  0  0  0  0  0  0  0
  166.8520  147.0667  126.4535 N   0  0  0  0  0  0  0  0  0  0  0  0
  168.0861  146.7641  125.8651 C   0  0  0  0  0  0  0  0  0  0  0  0
  168.2964  146.0273  124.8798 O   0  0  0  0  0  0  0  0  0  0  0  0
  166.3313  147.7657  127.5984 C   0  0  1  0  0  0  0  0  0  0  0  0
  167.2034  148.6193  128.3981 C   0  0  2  0  0  0  0  0  0  0  0  0
  166.2885  149.3221  129.3015 O   0  0  0  0  0  0  0  0  0  0  0  0
  167.8321  149.7633  127.6499 C   0  0  2  0  0  0  0  0  0  0  0  0
  168.1794  150.7391  128.6568 O   0  0  0  0  0  0  0  0  0  0  0  0
  167.8459  150.6503  129.9750 C   0  0  0  0  0  0  0  0  0  0  0  0
  166.4556  150.6439  130.4993 C   0  0  0  0  0  0  0  0  0  0  0  0
  168.7659  150.5676  130.8268 O   0  0  0  0  0  0  0  0  0  0  0  0
  166.9569  150.3557  126.5926 C   0  0  1  0  0  0  0  0  0  0  0  0
  167.7761  150.4571  125.2748 C   0  0  0  0  0  0  0  0  0  0  0  0
  168.5414  151.7277  125.1677 C   0  0  0  0  0  0  0  0  0  0  0  0
  166.8072  151.7905  126.9531 C   0  0  0  0  0  0  0  0  0  0  0  0
  165.7934  152.5651  126.6505 C   0  0  0  0  0  0  0  0  0  0  0  0
  164.6895  151.9313  125.8691 C   0  0  0  0  0  0  0  0  0  0  0  0
  168.0352  147.8876  129.3371 C   0  0  0  0  0  0  0  0  0  0  0  0
  167.5150  147.2398  130.3372 O   0  0  0  0  0  0  0  0  0  0  0  0
  169.3911  147.8002  129.2749 O   0  0  0  0  0  0  0  0  0  0  0  0
  170.1435  147.2679  128.2130 C   0  0  0  0  0  0  0  0  0  0  0  0
  1  2  1  1
  2  3  1  0
  3  4  1  0
  5  4  1  1
  5  6  1  0
  6  7  2  0
  7  8  1  0
  8  9  2  0
  9 10  1  0
 10 11  1  0
  9 12  1  0
 12 13  2  0
 12 14  1  0
 14 15  1  0
 16 15  1  1
 16 17  1  0
 17 18  1  0
 18 19  1  6
 19 20  1  0
 20 21  1  1
 20 22  1  0
 22 23  1  0
 20 24  1  0
 18 25  1  0
 25 26  1  0
 26 27  1  0
 27 28  2  0
 28 29  1  0
 29 30  1  0
 30 31  2  0
 31 32  1  0
 32 33  2  0
 33 34  1  0
 34 35  2  0
 14 36  1  6
 36 37  2  0
 36 38  1  0
 38 39  1  0
  7 40  1  0
 40 41  1  0
 41 42  2  0
 43 40  1  6
 43 44  1  0
 44 45  1  1
 44 46  1  0
 46 47  1  1
 47 48  1  0
 48 49  1  0
 48 50  2  0
 46 51  1  0
 51 52  1  6
 52 53  1  0
 51 54  1  0
 54 55  2  0
 55 56  1  0
 44 57  1  0
 57 58  2  0
 57 59  1  0
 59 60  1  0
  5  1  1  0
 43  5  1  0
 51  1  1  0
 56  2  1  0
 13  6  1  0
 28 14  1  0
 35 30  1  0
 24 16  1  0
 35 27  1  0
M  END
$$$$
