
     RDKit          3D

 60 68  0  0  0  0  0  0  0  0999 V2000
  173.7701  175.7789  127.5332 C   0  0  2  0  0  0  0  0  0  0  0  0
  173.4233  174.5928  126.7606 N   0  0  0  0  0  0  0  0  0  0  0  0
  173.2849  175.0345  125.3917 C   0  0  0  0  0  0  0  0  0  0  0  0
  172.4985  176.3058  125.5811 C   0  0  0  0  0  0  0  0  0  0  0  0
  172.8033  176.7603  126.9794 C   0  0  1  0  0  0  0  0  0  0  0  0
  171.5377  176.8600  127.7580 C   0  0  0  0  0  0  0  0  0  0  0  0
  171.6501  177.9101  128.6272 C   0  0  0  0  0  0  0  0  0  0  0  0
  170.6169  178.2830  129.4546 C   0  0  0  0  0  0  0  0  0  0  0  0
  169.4160  177.6079  129.4461 C   0  0  0  0  0  0  0  0  0  0  0  0
  168.3907  177.9968  130.2838 O   0  0  0  0  0  0  0  0  0  0  0  0
  168.5346  179.1419  131.0925 C   0  0  0  0  0  0  0  0  0  0  0  0
  169.2598  176.5298  128.5795 C   0  0  0  0  0  0  0  0  0  0  0  0
  170.3325  176.1850  127.7528 C   0  0  0  0  0  0  0  0  0  0  0  0
  167.9926  175.7381  128.4774 C   0  0  1  0  0  0  0  0  0  0  0  0
  166.9576  176.7198  128.5792 C   0  0  0  0  0  0  0  0  0  0  0  0
  166.5375  177.8158  127.6766 C   0  0  1  0  0  0  0  0  0  0  0  0
  167.1528  177.7426  126.4597 C   0  0  0  0  0  0  0  0  0  0  0  0
  166.4373  177.8390  125.0471 N   0  0  0  0  0  0  0  0  0  0  0  0
  165.2647  178.7625  125.4487 C   0  0  0  0  0  0  0  0  0  0  0  0
  164.4989  178.4928  126.5901 C   0  0  2  0  0  0  0  0  0  0  0  0
  163.4078  177.5966  126.4463 O   0  0  0  0  0  0  0  0  0  0  0  0
  163.7372  179.8416  126.7821 C   0  0  0  0  0  0  0  0  0  0  0  0
  162.6746  179.8890  125.7175 C   0  0  0  0  0  0  0  0  0  0  0  0
  165.1035  178.2229  127.9086 C   0  0  0  0  0  0  0  0  0  0  0  0
  165.6917  176.4794  125.0212 C   0  0  0  0  0  0  0  0  0  0  0  0
  165.9295  175.4796  125.9543 C   0  0  0  0  0  0  0  0  0  0  0  0
  167.1858  174.7816  126.2040 C   0  0  0  0  0  0  0  0  0  0  0  0
  168.0408  174.8922  127.2613 C   0  0  0  0  0  0  0  0  0  0  0  0
  169.0469  173.9807  127.0374 N   0  0  0  0  0  0  0  0  0  0  0  0
  168.8977  173.3076  125.9251 C   0  0  0  0  0  0  0  0  0  0  0  0
  169.5888  172.3203  125.2547 C   0  0  0  0  0  0  0  0  0  0  0  0
  169.1462  171.8130  124.0632 C   0  0  0  0  0  0  0  0  0  0  0  0
  167.9622  172.2891  123.4819 C   0  0  0  0  0  0  0  0  0  0  0  0
  167.2756  173.2769  124.1582 C   0  0  0  0  0  0  0  0  0  0  0  0
  167.7337  173.7795  125.3602 C   0  0  0  0  0  0  0  0  0  0  0  0
  167.9374  174.8448  129.6752 C   0  0  0  0  0  0  0  0  0  0  0  0
  167.4000  173.7065  129.6616 O   0  0  0  0  0  0  0  0  0  0  0  0
  168.4774  175.2527  130.8506 O   0  0  0  0  0  0  0  0  0  0  0  0
  167.8711  176.0465  131.8441 C   0  0  0  0  0  0  0  0  0  0  0  0
  173.0203  178.4419  128.4914 N   0  0  0  0  0  0  0  0  0  0  0  0
  173.6261  179.0087  129.6194 C   0  0  0  0  0  0  0  0  0  0  0  0
  174.6009  179.7877  129.6459 O   0  0  0  0  0  0  0  0  0  0  0  0
  173.3190  178.1796  127.1084 C   0  0  1  0  0  0  0  0  0  0  0  0
  174.6816  178.3302  126.6090 C   0  0  2  0  0  0  0  0  0  0  0  0
  174.6343  177.7631  125.2588 O   0  0  0  0  0  0  0  0  0  0  0  0
  175.7030  177.4485  127.2747 C   0  0  2  0  0  0  0  0  0  0  0  0
  176.7944  177.3436  126.3344 O   0  0  0  0  0  0  0  0  0  0  0  0
  177.7571  178.2902  126.1500 C   0  0  0  0  0  0  0  0  0  0  0  0
  177.8010  179.6019  126.8466 C   0  0  0  0  0  0  0  0  0  0  0  0
  178.6849  178.0577  125.3352 O   0  0  0  0  0  0  0  0  0  0  0  0
  175.1852  176.1015  127.6647 C   0  0  1  0  0  0  0  0  0  0  0  0
  175.5724  175.8351  129.1470 C   0  0  0  0  0  0  0  0  0  0  0  0
  176.8292  175.0519  129.2831 C   0  0  0  0  0  0  0  0  0  0  0  0
  176.0493  175.1194  126.9575 C   0  0  0  0  0  0  0  0  0  0  0  0
  175.7075  173.9077  126.5908 C   0  0  0  0  0  0  0  0  0  0  0  0
  174.3127  173.4875  126.9208 C   0  0  0  0  0  0  0  0  0  0  0  0
  175.0536  179.7068  126.3340 C   0  0  0  0  0  0  0  0  0  0  0  0
  174.2360  180.5201  125.7338 O   0  0  0  0  0  0  0  0  0  0  0  0
  176.2456  180.2736  126.6626 O   0  0  0  0  0  0  0  0  0  0  0  0
  176.4669  181.2146  127.6837 C   0  0  0  0  0  0  0  0  0  0  0  0
  1  2  1  6
  2  3  1  0
  3  4  1  0
  5  4  1  6
  5  6  1  0
  6  7  2  0
  7  8  1  0
  8  9  2  0
  9 10  1  0
 10 11  1  0
  9 12  1  0
 12 13  2  0
 12 14  1  0
 14 15  1  0
 16 15  1  6
 16 17  1  0
 17 18  1  0
 18 19  1  1
 19 20  1  0
 20 21  1  6
 20 22  1  0
 22 23  1  0
 20 24  1  0
 18 25  1  0
 25 26  1  0
 26 27  1  0
 27 28  2  0
 28 29  1  0
 29 30  1  0
 30 31  2  0
 31 32  1  0
 32 33  2  0
 33 34  1  0
 34 35  2  0
 14 36  1  1
 36 37  2  0
 36 38  1  0
 38 39  1  0
  7 40  1  0
 40 41  1  0
 41 42  2  0
 43 40  1  1
 43 44  1  0
 44 45  1  6
 44 46  1  0
 46 47  1  6
 47 48  1  0
 48 49  1  0
 48 50  2  0
 46 51  1  0
 51 52  1  1
 52 53  1  0
 51 54  1  0
 54 55  2  0
 55 56  1  0
 44 57  1  0
 57 58  2  0
 57 59  1  0
 59 60  1  0
  5  1  1  0
 43  5  1  0
 51  1  1  0
 56  2  1  0
 13  6  1  0
 28 14  1  0
 35 30  1  0
 24 16  1  0
 35 27  1  0
M  END
$$$$
