
     RDKit          3D

 60 68  0  0  0  0  0  0  0  0999 V2000
  190.1032  157.5422  128.5597 C   0  0  2  0  0  0  0  0  0  0  0  0
  191.3552  157.1647  129.2031 N   0  0  0  0  0  0  0  0  0  0  0  0
  190.9886  156.5335  130.4503 C   0  0  0  0  0  0  0  0  0  0  0  0
  189.9166  157.4722  130.9400 C   0  0  0  0  0  0  0  0  0  0  0  0
  189.3719  158.1353  129.7077 C   0  0  1  0  0  0  0  0  0  0  0  0
  189.5331  159.6113  129.8233 C   0  0  0  0  0  0  0  0  0  0  0  0
  188.4628  160.2087  129.2164 C   0  0  0  0  0  0  0  0  0  0  0  0
  188.3054  161.5748  129.2002 C   0  0  0  0  0  0  0  0  0  0  0  0
  189.2275  162.4071  129.7959 C   0  0  0  0  0  0  0  0  0  0  0  0
  189.0525  163.7756  129.7692 O   0  0  0  0  0  0  0  0  0  0  0  0
  187.7786  164.3203  129.5115 C   0  0  0  0  0  0  0  0  0  0  0  0
  190.3347  161.8410  130.4217 C   0  0  0  0  0  0  0  0  0  0  0  0
  190.4560  160.4488  130.4189 C   0  0  0  0  0  0  0  0  0  0  0  0
  191.3875  162.6511  131.1135 C   0  0  1  0  0  0  0  0  0  0  0  0
  190.6615  163.4173  132.0786 C   0  0  0  0  0  0  0  0  0  0  0  0
  189.9249  163.0289  133.3029 C   0  0  1  0  0  0  0  0  0  0  0  0
  190.1409  161.7232  133.6391 C   0  0  0  0  0  0  0  0  0  0  0  0
  190.5346  161.1853  135.0787 N   0  0  0  0  0  0  0  0  0  0  0  0
  189.8246  162.2648  135.9269 C   0  0  0  0  0  0  0  0  0  0  0  0
  189.9840  163.6253  135.6342 C   0  0  2  0  0  0  0  0  0  0  0  0
  191.1067  164.2862  136.1975 O   0  0  0  0  0  0  0  0  0  0  0  0
  188.8292  164.2626  136.4688 C   0  0  0  0  0  0  0  0  0  0  0  0
  188.6200  165.6491  135.9223 C   0  0  0  0  0  0  0  0  0  0  0  0
  189.8009  164.1741  134.2770 C   0  0  0  0  0  0  0  0  0  0  0  0
  191.9930  161.7032  135.1784 C   0  0  0  0  0  0  0  0  0  0  0  0
  192.6716  162.2371  134.0915 C   0  0  0  0  0  0  0  0  0  0  0  0
  192.9985  161.5695  132.8364 C   0  0  0  0  0  0  0  0  0  0  0  0
  192.4603  161.7495  131.5958 C   0  0  0  0  0  0  0  0  0  0  0  0
  193.1545  160.9131  130.7520 N   0  0  0  0  0  0  0  0  0  0  0  0
  194.0829  160.2192  131.3594 C   0  0  0  0  0  0  0  0  0  0  0  0
  195.0218  159.2757  130.9984 C   0  0  0  0  0  0  0  0  0  0  0  0
  195.8762  158.7225  131.9131 C   0  0  0  0  0  0  0  0  0  0  0  0
  195.8205  159.1035  133.2615 C   0  0  0  0  0  0  0  0  0  0  0  0
  194.8789  160.0482  133.6158 C   0  0  0  0  0  0  0  0  0  0  0  0
  194.0231  160.5985  132.6819 C   0  0  0  0  0  0  0  0  0  0  0  0
  191.9683  163.5765  130.0926 C   0  0  0  0  0  0  0  0  0  0  0  0
  192.6499  164.5916  130.3915 O   0  0  0  0  0  0  0  0  0  0  0  0
  191.7644  163.3433  128.7721 O   0  0  0  0  0  0  0  0  0  0  0  0
  192.3621  164.0049  127.6814 C   0  0  0  0  0  0  0  0  0  0  0  0
  187.6468  159.1342  128.6180 N   0  0  0  0  0  0  0  0  0  0  0  0
  186.9332  159.4177  127.4471 C   0  0  0  0  0  0  0  0  0  0  0  0
  186.1791  158.6507  126.8140 O   0  0  0  0  0  0  0  0  0  0  0  0
  187.8712  158.0357  129.5200 C   0  0  1  0  0  0  0  0  0  0  0  0
  187.4377  156.6895  129.1615 C   0  0  2  0  0  0  0  0  0  0  0  0
  188.0346  155.8337  130.1902 O   0  0  0  0  0  0  0  0  0  0  0  0
  188.0570  156.1358  127.9070 C   0  0  2  0  0  0  0  0  0  0  0  0
  187.9431  154.7004  128.0208 O   0  0  0  0  0  0  0  0  0  0  0  0
  187.8803  154.0151  129.1969 C   0  0  0  0  0  0  0  0  0  0  0  0
  186.6755  153.9236  130.0617 C   0  0  0  0  0  0  0  0  0  0  0  0
  188.9052  153.4094  129.5988 O   0  0  0  0  0  0  0  0  0  0  0  0
  189.4748  156.5567  127.6891 C   0  0  1  0  0  0  0  0  0  0  0  0
  189.6130  157.0875  126.2340 C   0  0  0  0  0  0  0  0  0  0  0  0
  190.0796  156.0451  125.2816 C   0  0  0  0  0  0  0  0  0  0  0  0
  190.2605  155.2965  127.6147 C   0  0  0  0  0  0  0  0  0  0  0  0
  191.5263  155.1516  127.9248 C   0  0  0  0  0  0  0  0  0  0  0  0
  192.2341  156.3789  128.3977 C   0  0  0  0  0  0  0  0  0  0  0  0
  186.0203  156.4564  129.3749 C   0  0  0  0  0  0  0  0  0  0  0  0
  185.6001  155.6769  130.3269 O   0  0  0  0  0  0  0  0  0  0  0  0
  185.0190  157.0065  128.6368 O   0  0  0  0  0  0  0  0  0  0  0  0
  185.1671  157.7270  127.4385 C   0  0  0  0  0  0  0  0  0  0  0  0
  1  2  1  1
  2  3  1  0
  3  4  1  0
  5  4  1  1
  5  6  1  0
  6  7  2  0
  7  8  1  0
  8  9  2  0
  9 10  1  0
 10 11  1  0
  9 12  1  0
 12 13  2  0
 12 14  1  0
 14 15  1  0
 16 15  1  6
 16 17  1  0
 17 18  1  0
 18 19  1  1
 19 20  1  0
 20 21  1  1
 20 22  1  0
 22 23  1  0
 20 24  1  0
 18 25  1  0
 25 26  1  0
 26 27  1  0
 27 28  2  0
 28 29  1  0
 29 30  1  0
 30 31  2  0
 31 32  1  0
 32 33  2  0
 33 34  1  0
 34 35  2  0
 14 36  1  6
 36 37  2  0
 36 38  1  0
 38 39  1  0
  7 40  1  0
 40 41  1  0
 41 42  2  0
 43 40  1  6
 43 44  1  0
 44 45  1  1
 44 46  1  0
 46 47  1  1
 47 48  1  0
 48 49  1  0
 48 50  2  0
 46 51  1  0
 51 52  1  6
 52 53  1  0
 51 54  1  0
 54 55  2  0
 55 56  1  0
 44 57  1  0
 57 58  2  0
 57 59  1  0
 59 60  1  0
  5  1  1  0
 43  5  1  0
 51  1  1  0
 56  2  1  0
 13  6  1  0
 28 14  1  0
 35 30  1  0
 24 16  1  0
 35 27  1  0
M  END
$$$$
