
     RDKit          3D

 60 68  0  0  0  0  0  0  0  0999 V2000
  129.4048  165.0445  151.0735 C   0  0  2  0  0  0  0  0  0  0  0  0
  129.0859  165.9156  152.1975 N   0  0  0  0  0  0  0  0  0  0  0  0
  130.1908  166.8400  152.3121 C   0  0  0  0  0  0  0  0  0  0  0  0
  131.3613  165.9074  152.1378 C   0  0  0  0  0  0  0  0  0  0  0  0
  130.8300  164.7399  151.3572 C   0  0  1  0  0  0  0  0  0  0  0  0
  131.0317  163.4865  152.1358 C   0  0  0  0  0  0  0  0  0  0  0  0
  131.2992  162.4734  151.2567 C   0  0  0  0  0  0  0  0  0  0  0  0
  131.5775  161.1957  151.6824 C   0  0  0  0  0  0  0  0  0  0  0  0
  131.5957  160.8777  153.0227 C   0  0  0  0  0  0  0  0  0  0  0  0
  131.8770  159.5898  153.4308 O   0  0  0  0  0  0  0  0  0  0  0  0
  131.5517  158.4985  152.6006 C   0  0  0  0  0  0  0  0  0  0  0  0
  131.3249  161.8780  153.9522 C   0  0  0  0  0  0  0  0  0  0  0  0
  131.0502  163.1638  153.4788 C   0  0  0  0  0  0  0  0  0  0  0  0
  131.3348  161.6455  155.4317 C   0  0  1  0  0  0  0  0  0  0  0  0
  130.4021  162.6019  155.9424 C   0  0  0  0  0  0  0  0  0  0  0  0
  128.9326  162.7246  155.8071 C   0  0  1  0  0  0  0  0  0  0  0  0
  128.3761  161.6176  155.2329 C   0  0  0  0  0  0  0  0  0  0  0  0
  127.1155  160.8216  155.7750 N   0  0  0  0  0  0  0  0  0  0  0  0
  126.3746  161.9997  156.4475 C   0  0  0  0  0  0  0  0  0  0  0  0
  127.0526  162.8780  157.3024 C   0  0  2  0  0  0  0  0  0  0  0  0
  127.1639  162.5036  158.6669 O   0  0  0  0  0  0  0  0  0  0  0  0
  126.0350  164.0565  157.4118 C   0  0  0  0  0  0  0  0  0  0  0  0
  126.8469  165.3055  157.6250 C   0  0  0  0  0  0  0  0  0  0  0  0
  128.3250  163.5261  156.9314 C   0  0  0  0  0  0  0  0  0  0  0  0
  127.7289  160.1561  157.0343 C   0  0  0  0  0  0  0  0  0  0  0  0
  129.0927  160.1635  157.2933 C   0  0  0  0  0  0  0  0  0  0  0  0
  130.1528  159.5846  156.4755 C   0  0  0  0  0  0  0  0  0  0  0  0
  131.0876  160.2096  155.7030 C   0  0  0  0  0  0  0  0  0  0  0  0
  131.8824  159.2141  155.1828 N   0  0  0  0  0  0  0  0  0  0  0  0
  131.5233  158.0140  155.5614 C   0  0  0  0  0  0  0  0  0  0  0  0
  131.9583  156.7244  155.3385 C   0  0  0  0  0  0  0  0  0  0  0  0
  131.3359  155.6457  155.9059 C   0  0  0  0  0  0  0  0  0  0  0  0
  130.2231  155.8230  156.7407 C   0  0  0  0  0  0  0  0  0  0  0  0
  129.7934  157.1160  156.9596 C   0  0  0  0  0  0  0  0  0  0  0  0
  130.4313  158.1954  156.3806 C   0  0  0  0  0  0  0  0  0  0  0  0
  132.7051  161.9918  155.9196 C   0  0  0  0  0  0  0  0  0  0  0  0
  132.9333  162.9364  156.7197 O   0  0  0  0  0  0  0  0  0  0  0  0
  133.7769  161.2776  155.4942 O   0  0  0  0  0  0  0  0  0  0  0  0
  135.1189  161.4208  155.8983 C   0  0  0  0  0  0  0  0  0  0  0  0
  131.1794  163.0350  149.8970 N   0  0  0  0  0  0  0  0  0  0  0  0
  130.7450  162.1913  148.8673 C   0  0  0  0  0  0  0  0  0  0  0  0
  129.7330  162.3292  148.1498 O   0  0  0  0  0  0  0  0  0  0  0  0
  131.5875  164.4015  150.0889 C   0  0  1  0  0  0  0  0  0  0  0  0
  131.3818  165.3857  149.0316 C   0  0  2  0  0  0  0  0  0  0  0  0
  131.6954  166.6678  149.6681 O   0  0  0  0  0  0  0  0  0  0  0  0
  129.9478  165.5899  148.6244 C   0  0  2  0  0  0  0  0  0  0  0  0
  129.9015  166.8995  148.0167 O   0  0  0  0  0  0  0  0  0  0  0  0
  130.9900  167.5968  147.5856 C   0  0  0  0  0  0  0  0  0  0  0  0
  131.2674  167.9442  146.1678 C   0  0  0  0  0  0  0  0  0  0  0  0
  131.8340  167.9836  148.4323 O   0  0  0  0  0  0  0  0  0  0  0  0
  128.9711  165.4742  149.7502 C   0  0  1  0  0  0  0  0  0  0  0  0
  127.8298  164.5117  149.3152 C   0  0  0  0  0  0  0  0  0  0  0  0
  126.5244  165.2037  149.1470 C   0  0  0  0  0  0  0  0  0  0  0  0
  128.2531  166.7756  149.7937 C   0  0  0  0  0  0  0  0  0  0  0  0
  127.6996  167.3217  150.8496 C   0  0  0  0  0  0  0  0  0  0  0  0
  127.8097  166.5515  152.1246 C   0  0  0  0  0  0  0  0  0  0  0  0
  132.3816  165.3303  147.9799 C   0  0  0  0  0  0  0  0  0  0  0  0
  133.6190  165.6585  148.2067 O   0  0  0  0  0  0  0  0  0  0  0  0
  132.1451  164.9427  146.6978 O   0  0  0  0  0  0  0  0  0  0  0  0
  131.1284  164.0732  146.2648 C   0  0  0  0  0  0  0  0  0  0  0  0
  1  2  1  1
  2  3  1  0
  3  4  1  0
  5  4  1  1
  5  6  1  0
  6  7  2  0
  7  8  1  0
  8  9  2  0
  9 10  1  0
 10 11  1  0
  9 12  1  0
 12 13  2  0
 12 14  1  0
 14 15  1  0
 16 15  1  1
 16 17  1  0
 17 18  1  0
 18 19  1  1
 19 20  1  0
 20 21  1  1
 20 22  1  0
 22 23  1  0
 20 24  1  0
 18 25  1  0
 25 26  1  0
 26 27  1  0
 27 28  2  0
 28 29  1  0
 29 30  1  0
 30 31  2  0
 31 32  1  0
 32 33  2  0
 33 34  1  0
 34 35  2  0
 14 36  1  1
 36 37  2  0
 36 38  1  0
 38 39  1  0
  7 40  1  0
 40 41  1  0
 41 42  2  0
 43 40  1  6
 43 44  1  0
 44 45  1  1
 44 46  1  0
 46 47  1  1
 47 48  1  0
 48 49  1  0
 48 50  2  0
 46 51  1  0
 51 52  1  6
 52 53  1  0
 51 54  1  0
 54 55  2  0
 55 56  1  0
 44 57  1  0
 57 58  2  0
 57 59  1  0
 59 60  1  0
  5  1  1  0
 43  5  1  0
 51  1  1  0
 56  2  1  0
 13  6  1  0
 28 14  1  0
 35 30  1  0
 24 16  1  0
 35 27  1  0
M  END
$$$$
