
     RDKit          3D

 60 68  0  0  0  0  0  0  0  0999 V2000
  106.0160  166.3085  156.4449 C   0  0  2  0  0  0  0  0  0  0  0  0
  107.0583  166.1819  157.4556 N   0  0  0  0  0  0  0  0  0  0  0  0
  106.9662  164.8296  157.9567 C   0  0  0  0  0  0  0  0  0  0  0  0
  105.4743  164.6839  158.1101 C   0  0  0  0  0  0  0  0  0  0  0  0
  104.8751  165.6651  157.1442 C   0  0  1  0  0  0  0  0  0  0  0  0
  104.0065  166.6237  157.8820 C   0  0  0  0  0  0  0  0  0  0  0  0
  102.9466  166.9472  157.0804 C   0  0  0  0  0  0  0  0  0  0  0  0
  101.9413  167.7835  157.5062 C   0  0  0  0  0  0  0  0  0  0  0  0
  101.9602  168.3384  158.7670 C   0  0  0  0  0  0  0  0  0  0  0  0
  100.9425  169.1755  159.1766 O   0  0  0  0  0  0  0  0  0  0  0  0
  100.3007  170.0160  158.2451 C   0  0  0  0  0  0  0  0  0  0  0  0
  103.0230  168.0390  159.6148 C   0  0  0  0  0  0  0  0  0  0  0  0
  104.0224  167.1825  159.1452 C   0  0  0  0  0  0  0  0  0  0  0  0
  103.1339  168.5738  161.0094 C   0  0  1  0  0  0  0  0  0  0  0  0
  102.6588  167.5051  161.8326 C   0  0  0  0  0  0  0  0  0  0  0  0
  103.2073  166.1622  162.1295 C   0  0  1  0  0  0  0  0  0  0  0  0
  104.4798  166.0120  161.6574 C   0  0  0  0  0  0  0  0  0  0  0  0
  105.7156  165.4456  162.4752 N   0  0  0  0  0  0  0  0  0  0  0  0
  104.9472  164.4889  163.4150 C   0  0  0  0  0  0  0  0  0  0  0  0
  103.8079  164.9237  164.1042 C   0  0  2  0  0  0  0  0  0  0  0  0
  104.0082  165.5742  165.3496 O   0  0  0  0  0  0  0  0  0  0  0  0
  103.1967  163.5700  164.5843 C   0  0  0  0  0  0  0  0  0  0  0  0
  104.3400  162.7472  165.1135 C   0  0  0  0  0  0  0  0  0  0  0  0
  102.6885  165.6143  163.4358 C   0  0  0  0  0  0  0  0  0  0  0  0
  105.9608  166.6215  163.4560 C   0  0  0  0  0  0  0  0  0  0  0  0
  105.3348  167.8526  163.3170 C   0  0  0  0  0  0  0  0  0  0  0  0
  105.4351  168.7753  162.1916 C   0  0  0  0  0  0  0  0  0  0  0  0
  104.5109  169.0738  161.2335 C   0  0  0  0  0  0  0  0  0  0  0  0
  105.0826  170.0396  160.4374 N   0  0  0  0  0  0  0  0  0  0  0  0
  106.2915  170.3714  160.8132 C   0  0  0  0  0  0  0  0  0  0  0  0
  107.2668  171.2458  160.3819 C   0  0  0  0  0  0  0  0  0  0  0  0
  108.4716  171.3541  161.0219 C   0  0  0  0  0  0  0  0  0  0  0  0
  108.7529  170.5686  162.1489 C   0  0  0  0  0  0  0  0  0  0  0  0
  107.7724  169.6959  162.5752 C   0  0  0  0  0  0  0  0  0  0  0  0
  106.5608  169.5971  161.9198 C   0  0  0  0  0  0  0  0  0  0  0  0
  102.1874  169.7268  161.1121 C   0  0  0  0  0  0  0  0  0  0  0  0
  100.9995  169.6095  161.5117 O   0  0  0  0  0  0  0  0  0  0  0  0
  102.5946  170.9716  160.7596 O   0  0  0  0  0  0  0  0  0  0  0  0
  103.1978  171.9427  161.5830 C   0  0  0  0  0  0  0  0  0  0  0  0
  103.1644  166.2803  155.7818 N   0  0  0  0  0  0  0  0  0  0  0  0
  102.6779  166.9041  154.6264 C   0  0  0  0  0  0  0  0  0  0  0  0
  102.5749  168.1294  154.4122 O   0  0  0  0  0  0  0  0  0  0  0  0
  103.8762  165.0886  156.1609 C   0  0  1  0  0  0  0  0  0  0  0  0
  104.5064  164.2536  155.1438 C   0  0  2  0  0  0  0  0  0  0  0  0
  105.3084  163.2967  155.9108 O   0  0  0  0  0  0  0  0  0  0  0  0
  105.5596  164.9428  154.3195 C   0  0  2  0  0  0  0  0  0  0  0  0
  106.3929  163.8859  153.7952 O   0  0  0  0  0  0  0  0  0  0  0  0
  106.0157  163.0049  152.8265 C   0  0  0  0  0  0  0  0  0  0  0  0
  105.7688  163.3615  151.4054 C   0  0  0  0  0  0  0  0  0  0  0  0
  105.8587  161.7973  153.1360 O   0  0  0  0  0  0  0  0  0  0  0  0
  106.3645  165.9501  155.0760 C   0  0  1  0  0  0  0  0  0  0  0  0
  106.3943  167.2720  154.2576 C   0  0  0  0  0  0  0  0  0  0  0  0
  107.6927  167.4942  153.5675 C   0  0  0  0  0  0  0  0  0  0  0  0
  107.7781  165.5038  154.9589 C   0  0  0  0  0  0  0  0  0  0  0  0
  108.7416  165.7450  155.8150 C   0  0  0  0  0  0  0  0  0  0  0  0
  108.3683  166.5453  157.0196 C   0  0  0  0  0  0  0  0  0  0  0  0
  103.5798  163.3719  154.4561 C   0  0  0  0  0  0  0  0  0  0  0  0
  103.3026  162.1894  154.9200 O   0  0  0  0  0  0  0  0  0  0  0  0
  102.9254  163.6739  153.3026 O   0  0  0  0  0  0  0  0  0  0  0  0
  103.0795  164.8450  152.5399 C   0  0  0  0  0  0  0  0  0  0  0  0
  1  2  1  1
  2  3  1  0
  3  4  1  0
  5  4  1  1
  5  6  1  0
  6  7  2  0
  7  8  1  0
  8  9  2  0
  9 10  1  0
 10 11  1  0
  9 12  1  0
 12 13  2  0
 12 14  1  0
 14 15  1  0
 16 15  1  1
 16 17  1  0
 17 18  1  0
 18 19  1  1
 19 20  1  0
 20 21  1  1
 20 22  1  0
 22 23  1  0
 20 24  1  0
 18 25  1  0
 25 26  1  0
 26 27  1  0
 27 28  2  0
 28 29  1  0
 29 30  1  0
 30 31  2  0
 31 32  1  0
 32 33  2  0
 33 34  1  0
 34 35  2  0
 14 36  1  6
 36 37  2  0
 36 38  1  0
 38 39  1  0
  7 40  1  0
 40 41  1  0
 41 42  2  0
 43 40  1  6
 43 44  1  0
 44 45  1  1
 44 46  1  0
 46 47  1  1
 47 48  1  0
 48 49  1  0
 48 50  2  0
 46 51  1  0
 51 52  1  6
 52 53  1  0
 51 54  1  0
 54 55  2  0
 55 56  1  0
 44 57  1  0
 57 58  2  0
 57 59  1  0
 59 60  1  0
  5  1  1  0
 43  5  1  0
 51  1  1  0
 56  2  1  0
 13  6  1  0
 28 14  1  0
 35 30  1  0
 24 16  1  0
 35 27  1  0
M  END
$$$$
