
     RDKit          3D

 60 68  0  0  0  0  0  0  0  0999 V2000
  128.2056  140.8459  133.0690 C   0  0  2  0  0  0  0  0  0  0  0  0
  127.5156  139.6674  133.5776 N   0  0  0  0  0  0  0  0  0  0  0  0
  128.0277  139.4495  134.9112 C   0  0  0  0  0  0  0  0  0  0  0  0
  129.5027  139.6618  134.6879 C   0  0  0  0  0  0  0  0  0  0  0  0
  129.6010  140.5457  133.4781 C   0  0  1  0  0  0  0  0  0  0  0  0
  130.4006  139.8614  132.4245 C   0  0  0  0  0  0  0  0  0  0  0  0
  131.1185  140.8085  131.7474 C   0  0  0  0  0  0  0  0  0  0  0  0
  131.9922  140.4754  130.7390 C   0  0  0  0  0  0  0  0  0  0  0  0
  132.1812  139.1639  130.3620 C   0  0  0  0  0  0  0  0  0  0  0  0
  133.0622  138.8492  129.3476 O   0  0  0  0  0  0  0  0  0  0  0  0
  133.7361  139.8739  128.6536 C   0  0  0  0  0  0  0  0  0  0  0  0
  131.4673  138.1677  131.0222 C   0  0  0  0  0  0  0  0  0  0  0  0
  130.5921  138.5475  132.0432 C   0  0  0  0  0  0  0  0  0  0  0  0
  131.6088  136.7111  130.7040 C   0  0  1  0  0  0  0  0  0  0  0  0
  131.2336  136.0503  131.9156 C   0  0  0  0  0  0  0  0  0  0  0  0
  129.9380  135.9367  132.6234 C   0  0  1  0  0  0  0  0  0  0  0  0
  128.9001  136.4101  131.8728 C   0  0  0  0  0  0  0  0  0  0  0  0
  127.5245  135.6646  131.6108 N   0  0  0  0  0  0  0  0  0  0  0  0
  127.4367  134.8763  132.9374 C   0  0  0  0  0  0  0  0  0  0  0  0
  128.5346  134.1467  133.4112 C   0  0  2  0  0  0  0  0  0  0  0  0
  128.6924  132.8206  132.9306 O   0  0  0  0  0  0  0  0  0  0  0  0
  128.1113  133.8670  134.8873 C   0  0  0  0  0  0  0  0  0  0  0  0
  128.1203  135.1952  135.5948 C   0  0  0  0  0  0  0  0  0  0  0  0
  129.8871  134.7257  133.5215 C   0  0  0  0  0  0  0  0  0  0  0  0
  128.0009  134.5269  130.6709 C   0  0  0  0  0  0  0  0  0  0  0  0
  129.2729  134.5005  130.1158 C   0  0  0  0  0  0  0  0  0  0  0  0
  129.8688  135.4852  129.2196 C   0  0  0  0  0  0  0  0  0  0  0  0
  130.8461  136.4033  129.4711 C   0  0  0  0  0  0  0  0  0  0  0  0
  131.0797  137.0503  128.2795 N   0  0  0  0  0  0  0  0  0  0  0  0
  130.3281  136.6178  127.2994 C   0  0  0  0  0  0  0  0  0  0  0  0
  130.1638  136.9116  125.9620 C   0  0  0  0  0  0  0  0  0  0  0  0
  129.2529  136.2486  125.1851 C   0  0  0  0  0  0  0  0  0  0  0  0
  128.4496  135.2387  125.7338 C   0  0  0  0  0  0  0  0  0  0  0  0
  128.6194  134.9497  127.0726 C   0  0  0  0  0  0  0  0  0  0  0  0
  129.5428  135.6267  127.8447 C   0  0  0  0  0  0  0  0  0  0  0  0
  133.0590  136.4600  130.4402 C   0  0  0  0  0  0  0  0  0  0  0  0
  133.4779  135.8395  129.4283 O   0  0  0  0  0  0  0  0  0  0  0  0
  133.9943  136.9033  131.3169 O   0  0  0  0  0  0  0  0  0  0  0  0
  133.8700  137.0273  132.7147 C   0  0  0  0  0  0  0  0  0  0  0  0
  130.7216  142.1233  132.2879 N   0  0  0  0  0  0  0  0  0  0  0  0
  130.7426  143.2275  131.4271 C   0  0  0  0  0  0  0  0  0  0  0  0
  130.0999  143.3755  130.3674 O   0  0  0  0  0  0  0  0  0  0  0  0
  130.4107  141.8142  133.6584 C   0  0  1  0  0  0  0  0  0  0  0  0
  129.7358  142.7972  134.4992 C   0  0  2  0  0  0  0  0  0  0  0  0
  129.3897  142.0542  135.7138 O   0  0  0  0  0  0  0  0  0  0  0  0
  128.3804  143.2286  134.0087 C   0  0  2  0  0  0  0  0  0  0  0  0
  127.6910  143.7339  135.1732 O   0  0  0  0  0  0  0  0  0  0  0  0
  126.5201  143.2365  135.6616 C   0  0  0  0  0  0  0  0  0  0  0  0
  126.1469  143.2041  137.0994 C   0  0  0  0  0  0  0  0  0  0  0  0
  125.6804  142.7652  134.8544 O   0  0  0  0  0  0  0  0  0  0  0  0
  127.6001  142.1439  133.3385 C   0  0  1  0  0  0  0  0  0  0  0  0
  127.0708  142.6851  131.9802 C   0  0  0  0  0  0  0  0  0  0  0  0
  126.1409  143.8346  132.1401 C   0  0  0  0  0  0  0  0  0  0  0  0
  126.3374  142.0202  134.1140 C   0  0  0  0  0  0  0  0  0  0  0  0
  125.6011  140.9415  134.2312 C   0  0  0  0  0  0  0  0  0  0  0  0
  126.0907  139.7275  133.5117 C   0  0  0  0  0  0  0  0  0  0  0  0
  130.6211  143.8208  135.0260 C   0  0  0  0  0  0  0  0  0  0  0  0
  131.0041  143.8079  136.2684 O   0  0  0  0  0  0  0  0  0  0  0  0
  131.1280  144.8591  134.3084 O   0  0  0  0  0  0  0  0  0  0  0  0
  132.4657  145.0187  133.9059 C   0  0  0  0  0  0  0  0  0  0  0  0
  1  2  1  1
  2  3  1  0
  3  4  1  0
  5  4  1  1
  5  6  1  0
  6  7  2  0
  7  8  1  0
  8  9  2  0
  9 10  1  0
 10 11  1  0
  9 12  1  0
 12 13  2  0
 12 14  1  0
 14 15  1  0
 16 15  1  6
 16 17  1  0
 17 18  1  0
 18 19  1  1
 19 20  1  0
 20 21  1  6
 20 22  1  0
 22 23  1  0
 20 24  1  0
 18 25  1  0
 25 26  1  0
 26 27  1  0
 27 28  2  0
 28 29  1  0
 29 30  1  0
 30 31  2  0
 31 32  1  0
 32 33  2  0
 33 34  1  0
 34 35  2  0
 14 36  1  6
 36 37  2  0
 36 38  1  0
 38 39  1  0
  7 40  1  0
 40 41  1  0
 41 42  2  0
 43 40  1  6
 43 44  1  0
 44 45  1  1
 44 46  1  0
 46 47  1  1
 47 48  1  0
 48 49  1  0
 48 50  2  0
 46 51  1  0
 51 52  1  6
 52 53  1  0
 51 54  1  0
 54 55  2  0
 55 56  1  0
 44 57  1  0
 57 58  2  0
 57 59  1  0
 59 60  1  0
  5  1  1  0
 43  5  1  0
 51  1  1  0
 56  2  1  0
 13  6  1  0
 28 14  1  0
 35 30  1  0
 24 16  1  0
 35 27  1  0
M  END
$$$$
