
     RDKit          3D

 60 68  0  0  0  0  0  0  0  0999 V2000
  130.3311  162.6120  152.1089 C   0  0  2  0  0  0  0  0  0  0  0  0
  129.6747  163.9026  152.2740 N   0  0  0  0  0  0  0  0  0  0  0  0
  128.5083  163.6557  153.0905 C   0  0  0  0  0  0  0  0  0  0  0  0
  127.9776  162.3966  152.4552 C   0  0  0  0  0  0  0  0  0  0  0  0
  129.1638  161.7468  151.8031 C   0  0  1  0  0  0  0  0  0  0  0  0
  128.9041  161.5833  150.3459 C   0  0  0  0  0  0  0  0  0  0  0  0
  129.4961  160.4218  149.9320 C   0  0  0  0  0  0  0  0  0  0  0  0
  129.3910  159.9737  148.6361 C   0  0  0  0  0  0  0  0  0  0  0  0
  128.6824  160.6823  147.6908 C   0  0  0  0  0  0  0  0  0  0  0  0
  128.5881  160.2168  146.3951 O   0  0  0  0  0  0  0  0  0  0  0  0
  129.5515  159.3177  145.8954 C   0  0  0  0  0  0  0  0  0  0  0  0
  128.0670  161.8727  148.0681 C   0  0  0  0  0  0  0  0  0  0  0  0
  128.1951  162.2915  149.3951 C   0  0  0  0  0  0  0  0  0  0  0  0
  127.2596  162.7116  147.1261 C   0  0  1  0  0  0  0  0  0  0  0  0
  126.5368  161.7592  146.3413 C   0  0  0  0  0  0  0  0  0  0  0  0
  125.4529  160.8103  146.6834 C   0  0  1  0  0  0  0  0  0  0  0  0
  124.9570  161.0281  147.9369 C   0  0  0  0  0  0  0  0  0  0  0  0
  123.4230  161.1477  148.3236 N   0  0  0  0  0  0  0  0  0  0  0  0
  122.8410  160.2168  147.2357 C   0  0  0  0  0  0  0  0  0  0  0  0
  123.2247  160.3536  145.8955 C   0  0  2  0  0  0  0  0  0  0  0  0
  122.5143  161.2959  145.1070 O   0  0  0  0  0  0  0  0  0  0  0  0
  122.7024  159.0166  145.2822 C   0  0  0  0  0  0  0  0  0  0  0  0
  122.2263  158.1737  146.4342 C   0  0  0  0  0  0  0  0  0  0  0  0
  124.6372  160.4221  145.4752 C   0  0  0  0  0  0  0  0  0  0  0  0
  123.0841  162.5217  147.6893 C   0  0  0  0  0  0  0  0  0  0  0  0
  124.0595  163.3772  147.1959 C   0  0  0  0  0  0  0  0  0  0  0  0
  125.1543  163.9937  147.9370 C   0  0  0  0  0  0  0  0  0  0  0  0
  126.4888  163.7128  147.9007 C   0  0  0  0  0  0  0  0  0  0  0  0
  127.0930  164.6132  148.7477 N   0  0  0  0  0  0  0  0  0  0  0  0
  126.2489  165.4355  149.3167 C   0  0  0  0  0  0  0  0  0  0  0  0
  126.3232  166.4818  150.2121 C   0  0  0  0  0  0  0  0  0  0  0  0
  125.2076  167.1604  150.6218 C   0  0  0  0  0  0  0  0  0  0  0  0
  123.9403  166.8063  150.1371 C   0  0  0  0  0  0  0  0  0  0  0  0
  123.8732  165.7587  149.2413 C   0  0  0  0  0  0  0  0  0  0  0  0
  125.0075  165.0828  148.8362 C   0  0  0  0  0  0  0  0  0  0  0  0
  128.2276  163.4352  146.2457 C   0  0  0  0  0  0  0  0  0  0  0  0
  128.2619  163.2920  144.9955 O   0  0  0  0  0  0  0  0  0  0  0  0
  129.1300  164.2899  146.7887 O   0  0  0  0  0  0  0  0  0  0  0  0
  129.2264  165.6804  146.5839 C   0  0  0  0  0  0  0  0  0  0  0  0
  130.2256  159.8692  151.0900 N   0  0  0  0  0  0  0  0  0  0  0  0
  131.3933  159.1351  150.8489 C   0  0  0  0  0  0  0  0  0  0  0  0
  132.1856  159.2627  149.8929 O   0  0  0  0  0  0  0  0  0  0  0  0
  129.4219  160.3071  152.2004 C   0  0  1  0  0  0  0  0  0  0  0  0
  129.9224  160.1816  153.5651 C   0  0  2  0  0  0  0  0  0  0  0  0
  128.9545  160.9281  154.3731 O   0  0  0  0  0  0  0  0  0  0  0  0
  131.1966  160.9311  153.8457 C   0  0  2  0  0  0  0  0  0  0  0  0
  131.2223  161.1273  155.2766 O   0  0  0  0  0  0  0  0  0  0  0  0
  130.1656  160.9163  156.1106 C   0  0  0  0  0  0  0  0  0  0  0  0
  129.7261  159.5848  156.6022 C   0  0  0  0  0  0  0  0  0  0  0  0
  129.4997  161.9063  156.5045 O   0  0  0  0  0  0  0  0  0  0  0  0
  131.3153  162.2288  153.1131 C   0  0  1  0  0  0  0  0  0  0  0  0
  132.7074  162.2786  152.4220 C   0  0  0  0  0  0  0  0  0  0  0  0
  133.7044  163.0716  153.1893 C   0  0  0  0  0  0  0  0  0  0  0  0
  131.4748  163.2692  154.1634 C   0  0  0  0  0  0  0  0  0  0  0  0
  131.1276  164.5299  154.0661 C   0  0  0  0  0  0  0  0  0  0  0  0
  130.5130  164.9465  152.7700 C   0  0  0  0  0  0  0  0  0  0  0  0
  129.7904  158.8438  154.1146 C   0  0  0  0  0  0  0  0  0  0  0  0
  128.7072  158.4701  154.7289 O   0  0  0  0  0  0  0  0  0  0  0  0
  130.7428  157.8750  154.0474 O   0  0  0  0  0  0  0  0  0  0  0  0
  131.6024  157.4789  155.0871 C   0  0  0  0  0  0  0  0  0  0  0  0
  1  2  1  1
  2  3  1  0
  3  4  1  0
  5  4  1  1
  5  6  1  0
  6  7  2  0
  7  8  1  0
  8  9  2  0
  9 10  1  0
 10 11  1  0
  9 12  1  0
 12 13  2  0
 12 14  1  0
 14 15  1  0
 16 15  1  6
 16 17  1  0
 17 18  1  0
 18 19  1  6
 19 20  1  0
 20 21  1  6
 20 22  1  0
 22 23  1  0
 20 24  1  0
 18 25  1  0
 25 26  1  0
 26 27  1  0
 27 28  2  0
 28 29  1  0
 29 30  1  0
 30 31  2  0
 31 32  1  0
 32 33  2  0
 33 34  1  0
 34 35  2  0
 14 36  1  6
 36 37  2  0
 36 38  1  0
 38 39  1  0
  7 40  1  0
 40 41  1  0
 41 42  2  0
 43 40  1  6
 43 44  1  0
 44 45  1  1
 44 46  1  0
 46 47  1  1
 47 48  1  0
 48 49  1  0
 48 50  2  0
 46 51  1  0
 51 52  1  6
 52 53  1  0
 51 54  1  0
 54 55  2  0
 55 56  1  0
 44 57  1  0
 57 58  2  0
 57 59  1  0
 59 60  1  0
  5  1  1  0
 43  5  1  0
 51  1  1  0
 56  2  1  0
 13  6  1  0
 28 14  1  0
 35 30  1  0
 24 16  1  0
 35 27  1  0
M  END
$$$$
