
     RDKit          3D

 60 68  0  0  0  0  0  0  0  0999 V2000
  128.1016  141.0633  132.7245 C   0  0  2  0  0  0  0  0  0  0  0  0
  127.9417  139.6953  133.2008 N   0  0  0  0  0  0  0  0  0  0  0  0
  128.7393  139.5950  134.4016 C   0  0  0  0  0  0  0  0  0  0  0  0
  129.9947  140.3078  133.9698 C   0  0  0  0  0  0  0  0  0  0  0  0
  129.5695  141.2346  132.8676 C   0  0  1  0  0  0  0  0  0  0  0  0
  130.3335  140.9194  131.6287 C   0  0  0  0  0  0  0  0  0  0  0  0
  130.5627  142.0883  130.9566 C   0  0  0  0  0  0  0  0  0  0  0  0
  131.2897  142.1258  129.7899 C   0  0  0  0  0  0  0  0  0  0  0  0
  131.8198  140.9785  129.2417 C   0  0  0  0  0  0  0  0  0  0  0  0
  132.5466  141.0359  128.0700 O   0  0  0  0  0  0  0  0  0  0  0  0
  132.7717  142.2752  127.4381 C   0  0  0  0  0  0  0  0  0  0  0  0
  131.6071  139.7656  129.8911 C   0  0  0  0  0  0  0  0  0  0  0  0
  130.8659  139.7709  131.0758 C   0  0  0  0  0  0  0  0  0  0  0  0
  132.1517  138.4628  129.3918 C   0  0  1  0  0  0  0  0  0  0  0  0
  131.7245  137.5083  130.3673 C   0  0  0  0  0  0  0  0  0  0  0  0
  130.3845  136.9949  130.7327 C   0  0  1  0  0  0  0  0  0  0  0  0
  129.4241  137.3917  129.8468 C   0  0  0  0  0  0  0  0  0  0  0  0
  128.3425  136.4534  129.1638 N   0  0  0  0  0  0  0  0  0  0  0  0
  128.1980  135.4112  130.2960 C   0  0  0  0  0  0  0  0  0  0  0  0
  129.3293  134.8371  130.8899 C   0  0  2  0  0  0  0  0  0  0  0  0
  129.8886  133.6956  130.2586 O   0  0  0  0  0  0  0  0  0  0  0  0
  128.7150  134.1844  132.1678 C   0  0  0  0  0  0  0  0  0  0  0  0
  127.3165  133.7643  131.8045 C   0  0  0  0  0  0  0  0  0  0  0  0
  130.4575  135.6420  131.3960 C   0  0  0  0  0  0  0  0  0  0  0  0
  129.2466  135.6497  128.1934 C   0  0  0  0  0  0  0  0  0  0  0  0
  130.5689  135.9933  127.9477 C   0  0  0  0  0  0  0  0  0  0  0  0
  131.0690  137.2387  127.3760 C   0  0  0  0  0  0  0  0  0  0  0  0
  131.7317  138.2643  127.9844 C   0  0  0  0  0  0  0  0  0  0  0  0
  132.0235  139.1732  126.9934 N   0  0  0  0  0  0  0  0  0  0  0  0
  131.5964  138.8061  125.8121 C   0  0  0  0  0  0  0  0  0  0  0  0
  131.6217  139.3258  124.5349 C   0  0  0  0  0  0  0  0  0  0  0  0
  131.0600  138.6645  123.4766 C   0  0  0  0  0  0  0  0  0  0  0  0
  130.4340  137.4237  123.6628 C   0  0  0  0  0  0  0  0  0  0  0  0
  130.4126  136.9093  124.9433 C   0  0  0  0  0  0  0  0  0  0  0  0
  130.9837  137.5875  126.0022 C   0  0  0  0  0  0  0  0  0  0  0  0
  133.6426  138.5679  129.4321 C   0  0  0  0  0  0  0  0  0  0  0  0
  134.3741  138.3784  128.4253 O   0  0  0  0  0  0  0  0  0  0  0  0
  134.2696  138.8742  130.5952 O   0  0  0  0  0  0  0  0  0  0  0  0
  135.6435  139.1161  130.7918 C   0  0  0  0  0  0  0  0  0  0  0  0
  129.8697  143.1595  131.6989 N   0  0  0  0  0  0  0  0  0  0  0  0
  129.3674  144.2486  130.9762 C   0  0  0  0  0  0  0  0  0  0  0  0
  128.3464  144.2768  130.2587 O   0  0  0  0  0  0  0  0  0  0  0  0
  129.9415  142.6915  133.0577 C   0  0  1  0  0  0  0  0  0  0  0  0
  129.1557  143.3408  134.1016 C   0  0  2  0  0  0  0  0  0  0  0  0
  129.3063  142.4618  135.2642 O   0  0  0  0  0  0  0  0  0  0  0  0
  127.6667  143.3105  133.8871 C   0  0  2  0  0  0  0  0  0  0  0  0
  127.0840  143.4893  135.1967 O   0  0  0  0  0  0  0  0  0  0  0  0
  127.6810  143.1358  136.3694 C   0  0  0  0  0  0  0  0  0  0  0  0
  128.1541  141.7670  136.7013 C   0  0  0  0  0  0  0  0  0  0  0  0
  127.8534  144.0163  137.2491 O   0  0  0  0  0  0  0  0  0  0  0  0
  127.1695  142.0619  133.2327 C   0  0  1  0  0  0  0  0  0  0  0  0
  126.2461  142.4613  132.0469 C   0  0  0  0  0  0  0  0  0  0  0  0
  124.9253  142.9785  132.4933 C   0  0  0  0  0  0  0  0  0  0  0  0
  126.1866  141.4755  134.1819 C   0  0  0  0  0  0  0  0  0  0  0  0
  125.8773  140.2061  134.2931 C   0  0  0  0  0  0  0  0  0  0  0  0
  126.5894  139.2706  133.3719 C   0  0  0  0  0  0  0  0  0  0  0  0
  129.7428  144.5753  134.5917 C   0  0  0  0  0  0  0  0  0  0  0  0
  130.7921  144.5657  135.3594 O   0  0  0  0  0  0  0  0  0  0  0  0
  129.2820  145.8239  134.3113 O   0  0  0  0  0  0  0  0  0  0  0  0
  127.9677  146.2877  134.4971 C   0  0  0  0  0  0  0  0  0  0  0  0
  1  2  1  1
  2  3  1  0
  3  4  1  0
  5  4  1  1
  5  6  1  0
  6  7  2  0
  7  8  1  0
  8  9  2  0
  9 10  1  0
 10 11  1  0
  9 12  1  0
 12 13  2  0
 12 14  1  0
 14 15  1  0
 16 15  1  6
 16 17  1  0
 17 18  1  0
 18 19  1  1
 19 20  1  0
 20 21  1  6
 20 22  1  0
 22 23  1  0
 20 24  1  0
 18 25  1  0
 25 26  1  0
 26 27  1  0
 27 28  2  0
 28 29  1  0
 29 30  1  0
 30 31  2  0
 31 32  1  0
 32 33  2  0
 33 34  1  0
 34 35  2  0
 14 36  1  6
 36 37  2  0
 36 38  1  0
 38 39  1  0
  7 40  1  0
 40 41  1  0
 41 42  2  0
 43 40  1  6
 43 44  1  0
 44 45  1  1
 44 46  1  0
 46 47  1  1
 47 48  1  0
 48 49  1  0
 48 50  2  0
 46 51  1  0
 51 52  1  6
 52 53  1  0
 51 54  1  0
 54 55  2  0
 55 56  1  0
 44 57  1  0
 57 58  2  0
 57 59  1  0
 59 60  1  0
  5  1  1  0
 43  5  1  0
 51  1  1  0
 56  2  1  0
 13  6  1  0
 28 14  1  0
 35 30  1  0
 24 16  1  0
 35 27  1  0
M  END
$$$$
