
     RDKit          3D

 60 68  0  0  0  0  0  0  0  0999 V2000
  123.7808  143.5981  151.5122 C   0  0  2  0  0  0  0  0  0  0  0  0
  123.2418  144.4042  152.6001 N   0  0  0  0  0  0  0  0  0  0  0  0
  122.1025  143.6759  153.1100 C   0  0  0  0  0  0  0  0  0  0  0  0
  121.4385  143.2511  151.8259 C   0  0  0  0  0  0  0  0  0  0  0  0
  122.5324  143.2305  150.7974 C   0  0  1  0  0  0  0  0  0  0  0  0
  122.1856  144.1549  149.6824 C   0  0  0  0  0  0  0  0  0  0  0  0
  122.6583  143.6176  148.5168 C   0  0  0  0  0  0  0  0  0  0  0  0
  122.4504  144.2236  147.2999 C   0  0  0  0  0  0  0  0  0  0  0  0
  121.7546  145.4087  147.2019 C   0  0  0  0  0  0  0  0  0  0  0  0
  121.5561  146.0019  145.9719 O   0  0  0  0  0  0  0  0  0  0  0  0
  122.4262  145.7162  144.9008 C   0  0  0  0  0  0  0  0  0  0  0  0
  121.2592  145.9926  148.3644 C   0  0  0  0  0  0  0  0  0  0  0  0
  121.4891  145.3434  149.5804 C   0  0  0  0  0  0  0  0  0  0  0  0
  120.4759  147.2692  148.3700 C   0  0  1  0  0  0  0  0  0  0  0  0
  119.1126  146.8428  148.4408 C   0  0  0  0  0  0  0  0  0  0  0  0
  118.3372  146.1718  149.5090 C   0  0  1  0  0  0  0  0  0  0  0  0
  119.0253  146.1207  150.6875 C   0  0  0  0  0  0  0  0  0  0  0  0
  118.4632  146.5330  152.1125 N   0  0  0  0  0  0  0  0  0  0  0  0
  116.9761  146.1807  151.8812 C   0  0  0  0  0  0  0  0  0  0  0  0
  116.3087  146.6125  150.7278 C   0  0  2  0  0  0  0  0  0  0  0  0
  115.7323  147.9092  150.7550 O   0  0  0  0  0  0  0  0  0  0  0  0
  115.0232  145.7278  150.7602 C   0  0  0  0  0  0  0  0  0  0  0  0
  115.3478  144.4717  149.9978 C   0  0  0  0  0  0  0  0  0  0  0  0
  116.8548  146.4153  149.3715 C   0  0  0  0  0  0  0  0  0  0  0  0
  118.3879  148.0729  151.9454 C   0  0  0  0  0  0  0  0  0  0  0  0
  118.9554  148.7353  150.8655 C   0  0  0  0  0  0  0  0  0  0  0  0
  120.3636  148.7668  150.4862 C   0  0  0  0  0  0  0  0  0  0  0  0
  120.9912  148.1546  149.4410 C   0  0  0  0  0  0  0  0  0  0  0  0
  122.3086  148.5471  149.5021 N   0  0  0  0  0  0  0  0  0  0  0  0
  122.5628  149.3532  150.5012 C   0  0  0  0  0  0  0  0  0  0  0  0
  123.6691  150.0097  150.9983 C   0  0  0  0  0  0  0  0  0  0  0  0
  123.5951  150.8087  152.1069 C   0  0  0  0  0  0  0  0  0  0  0  0
  122.3767  150.9847  152.7783 C   0  0  0  0  0  0  0  0  0  0  0  0
  121.2738  150.3251  152.2753 C   0  0  0  0  0  0  0  0  0  0  0  0
  121.3628  149.5220  151.1553 C   0  0  0  0  0  0  0  0  0  0  0  0
  120.7118  147.9327  147.0510 C   0  0  0  0  0  0  0  0  0  0  0  0
  119.7813  148.3577  146.3174 O   0  0  0  0  0  0  0  0  0  0  0  0
  121.9771  148.0946  146.5901 O   0  0  0  0  0  0  0  0  0  0  0  0
  122.9929  148.9033  147.1370 C   0  0  0  0  0  0  0  0  0  0  0  0
  123.3986  142.3912  148.8723 N   0  0  0  0  0  0  0  0  0  0  0  0
  124.4883  142.0202  148.0750 C   0  0  0  0  0  0  0  0  0  0  0  0
  124.5552  141.0589  147.2818 O   0  0  0  0  0  0  0  0  0  0  0  0
  122.6917  141.9291  150.0373 C   0  0  1  0  0  0  0  0  0  0  0  0
  123.2496  140.8617  150.8607 C   0  0  2  0  0  0  0  0  0  0  0  0
  122.3889  140.8351  152.0463 O   0  0  0  0  0  0  0  0  0  0  0  0
  124.5936  141.1634  151.4662 C   0  0  2  0  0  0  0  0  0  0  0  0
  124.7089  140.2859  152.6077 O   0  0  0  0  0  0  0  0  0  0  0  0
  124.0922  139.0765  152.7257 C   0  0  0  0  0  0  0  0  0  0  0  0
  122.6652  138.8173  152.4031 C   0  0  0  0  0  0  0  0  0  0  0  0
  124.7606  138.0949  153.1362 O   0  0  0  0  0  0  0  0  0  0  0  0
  124.7806  142.5946  151.8550 C   0  0  1  0  0  0  0  0  0  0  0  0
  126.1348  143.0903  151.2730 C   0  0  0  0  0  0  0  0  0  0  0  0
  126.9560  143.8272  152.2700 C   0  0  0  0  0  0  0  0  0  0  0  0
  125.0786  142.5790  153.3117 C   0  0  0  0  0  0  0  0  0  0  0  0
  124.8313  143.5436  154.1649 C   0  0  0  0  0  0  0  0  0  0  0  0
  124.1873  144.7697  153.6056 C   0  0  0  0  0  0  0  0  0  0  0  0
  123.0368  139.5324  150.3162 C   0  0  0  0  0  0  0  0  0  0  0  0
  121.9162  138.8991  150.4996 O   0  0  0  0  0  0  0  0  0  0  0  0
  123.9456  138.8345  149.5833 O   0  0  0  0  0  0  0  0  0  0  0  0
  125.3332  138.7856  149.8050 C   0  0  0  0  0  0  0  0  0  0  0  0
  1  2  1  1
  2  3  1  0
  3  4  1  0
  5  4  1  1
  5  6  1  0
  6  7  2  0
  7  8  1  0
  8  9  2  0
  9 10  1  0
 10 11  1  0
  9 12  1  0
 12 13  2  0
 12 14  1  0
 14 15  1  0
 16 15  1  6
 16 17  1  0
 17 18  1  0
 18 19  1  6
 19 20  1  0
 20 21  1  1
 20 22  1  0
 22 23  1  0
 20 24  1  0
 18 25  1  0
 25 26  1  0
 26 27  1  0
 27 28  2  0
 28 29  1  0
 29 30  1  0
 30 31  2  0
 31 32  1  0
 32 33  2  0
 33 34  1  0
 34 35  2  0
 14 36  1  6
 36 37  2  0
 36 38  1  0
 38 39  1  0
  7 40  1  0
 40 41  1  0
 41 42  2  0
 43 40  1  6
 43 44  1  0
 44 45  1  1
 44 46  1  0
 46 47  1  1
 47 48  1  0
 48 49  1  0
 48 50  2  0
 46 51  1  0
 51 52  1  6
 52 53  1  0
 51 54  1  0
 54 55  2  0
 55 56  1  0
 44 57  1  0
 57 58  2  0
 57 59  1  0
 59 60  1  0
  5  1  1  0
 43  5  1  0
 51  1  1  0
 56  2  1  0
 13  6  1  0
 28 14  1  0
 35 30  1  0
 24 16  1  0
 35 27  1  0
M  END
$$$$
