
     RDKit          3D

 60 68  0  0  0  0  0  0  0  0999 V2000
  203.8016  127.3119  133.4047 C   0  0  2  0  0  0  0  0  0  0  0  0
  202.4233  127.1734  133.8573 N   0  0  0  0  0  0  0  0  0  0  0  0
  201.6788  126.6755  132.7233 C   0  0  0  0  0  0  0  0  0  0  0  0
  202.2316  127.5386  131.6188 C   0  0  0  0  0  0  0  0  0  0  0  0
  203.5941  127.9627  132.0863 C   0  0  1  0  0  0  0  0  0  0  0  0
  203.6642  129.4496  132.1341 C   0  0  0  0  0  0  0  0  0  0  0  0
  204.9315  129.8308  131.7887 C   0  0  0  0  0  0  0  0  0  0  0  0
  205.2933  131.1544  131.6974 C   0  0  0  0  0  0  0  0  0  0  0  0
  204.3890  132.1613  131.9551 C   0  0  0  0  0  0  0  0  0  0  0  0
  204.7705  133.4839  131.8585 O   0  0  0  0  0  0  0  0  0  0  0  0
  206.0220  133.8967  132.3578 C   0  0  0  0  0  0  0  0  0  0  0  0
  203.0886  131.8179  132.3142 C   0  0  0  0  0  0  0  0  0  0  0  0
  202.7604  130.4617  132.3924 C   0  0  0  0  0  0  0  0  0  0  0  0
  202.0231  132.8311  132.5993 C   0  0  1  0  0  0  0  0  0  0  0  0
  201.3272  132.2984  133.7295 C   0  0  0  0  0  0  0  0  0  0  0  0
  201.7347  132.0906  135.1378 C   0  0  1  0  0  0  0  0  0  0  0  0
  202.9332  132.6823  135.4177 C   0  0  0  0  0  0  0  0  0  0  0  0
  203.2415  133.6187  136.6606 N   0  0  0  0  0  0  0  0  0  0  0  0
  202.2480  132.9952  137.6672 C   0  0  0  0  0  0  0  0  0  0  0  0
  200.9174  132.7519  137.3032 C   0  0  2  0  0  0  0  0  0  0  0  0
  199.9959  133.8217  137.4478 O   0  0  0  0  0  0  0  0  0  0  0  0
  200.4449  131.8103  138.4549 C   0  0  0  0  0  0  0  0  0  0  0  0
  201.2197  132.2108  139.6812 C   0  0  0  0  0  0  0  0  0  0  0  0
  200.5488  132.0335  136.0684 C   0  0  0  0  0  0  0  0  0  0  0  0
  202.4373  134.8830  136.2608 C   0  0  0  0  0  0  0  0  0  0  0  0
  201.8862  135.0488  134.9976 C   0  0  0  0  0  0  0  0  0  0  0  0
  202.5930  135.0998  133.7225 C   0  0  0  0  0  0  0  0  0  0  0  0
  202.6433  134.1713  132.7243 C   0  0  0  0  0  0  0  0  0  0  0  0
  203.4023  134.7283  131.7209 N   0  0  0  0  0  0  0  0  0  0  0  0
  203.8366  135.9294  132.0061 C   0  0  0  0  0  0  0  0  0  0  0  0
  204.6051  136.8884  131.3804 C   0  0  0  0  0  0  0  0  0  0  0  0
  204.8875  138.0875  131.9766 C   0  0  0  0  0  0  0  0  0  0  0  0
  204.3974  138.3791  133.2577 C   0  0  0  0  0  0  0  0  0  0  0  0
  203.6288  137.4151  133.8779 C   0  0  0  0  0  0  0  0  0  0  0  0
  203.3515  136.2093  133.2643 C   0  0  0  0  0  0  0  0  0  0  0  0
  201.1032  132.8417  131.4205 C   0  0  0  0  0  0  0  0  0  0  0  0
  199.8974  132.4861  131.4843 O   0  0  0  0  0  0  0  0  0  0  0  0
  201.5598  133.2423  130.2078 O   0  0  0  0  0  0  0  0  0  0  0  0
  201.2993  134.4620  129.5526 C   0  0  0  0  0  0  0  0  0  0  0  0
  205.7221  128.5976  131.6073 N   0  0  0  0  0  0  0  0  0  0  0  0
  207.0892  128.6366  131.9076 C   0  0  0  0  0  0  0  0  0  0  0  0
  207.6340  128.3709  132.9988 O   0  0  0  0  0  0  0  0  0  0  0  0
  204.7351  127.6633  131.1348 C   0  0  1  0  0  0  0  0  0  0  0  0
  205.0462  126.2397  131.0604 C   0  0  2  0  0  0  0  0  0  0  0  0
  203.7579  125.6049  130.7701 O   0  0  0  0  0  0  0  0  0  0  0  0
  205.4126  125.6005  132.3722 C   0  0  2  0  0  0  0  0  0  0  0  0
  205.1550  124.1896  132.1998 O   0  0  0  0  0  0  0  0  0  0  0  0
  204.1230  123.6691  131.4781 C   0  0  0  0  0  0  0  0  0  0  0  0
  204.0939  123.5610  129.9966 C   0  0  0  0  0  0  0  0  0  0  0  0
  203.1115  123.2440  132.0905 O   0  0  0  0  0  0  0  0  0  0  0  0
  204.6725  126.1522  133.5480 C   0  0  1  0  0  0  0  0  0  0  0  0
  205.7024  126.4967  134.6609 C   0  0  0  0  0  0  0  0  0  0  0  0
  206.1384  125.3029  135.4330 C   0  0  0  0  0  0  0  0  0  0  0  0
  203.9643  124.9945  134.1555 C   0  0  0  0  0  0  0  0  0  0  0  0
  202.8537  125.0420  134.8512 C   0  0  0  0  0  0  0  0  0  0  0  0
  202.2531  126.3961  135.0428 C   0  0  0  0  0  0  0  0  0  0  0  0
  205.8225  125.8723  129.8894 C   0  0  0  0  0  0  0  0  0  0  0  0
  205.4101  126.1563  128.6896 O   0  0  0  0  0  0  0  0  0  0  0  0
  207.0167  125.2216  129.9174 O   0  0  0  0  0  0  0  0  0  0  0  0
  208.0168  125.2740  128.9305 C   0  0  0  0  0  0  0  0  0  0  0  0
  1  2  1  6
  2  3  1  0
  3  4  1  0
  5  4  1  6
  5  6  1  0
  6  7  2  0
  7  8  1  0
  8  9  2  0
  9 10  1  0
 10 11  1  0
  9 12  1  0
 12 13  2  0
 12 14  1  0
 14 15  1  0
 16 15  1  6
 16 17  1  0
 17 18  1  0
 18 19  1  1
 19 20  1  0
 20 21  1  1
 20 22  1  0
 22 23  1  0
 20 24  1  0
 18 25  1  0
 25 26  1  0
 26 27  1  0
 27 28  2  0
 28 29  1  0
 29 30  1  0
 30 31  2  0
 31 32  1  0
 32 33  2  0
 33 34  1  0
 34 35  2  0
 14 36  1  6
 36 37  2  0
 36 38  1  0
 38 39  1  0
  7 40  1  0
 40 41  1  0
 41 42  2  0
 43 40  1  1
 43 44  1  0
 44 45  1  6
 44 46  1  0
 46 47  1  6
 47 48  1  0
 48 49  1  0
 48 50  2  0
 46 51  1  0
 51 52  1  1
 52 53  1  0
 51 54  1  0
 54 55  2  0
 55 56  1  0
 44 57  1  0
 57 58  2  0
 57 59  1  0
 59 60  1  0
  5  1  1  0
 43  5  1  0
 51  1  1  0
 56  2  1  0
 13  6  1  0
 28 14  1  0
 35 30  1  0
 24 16  1  0
 35 27  1  0
M  END
$$$$
