
     RDKit          3D

 60 68  0  0  0  0  0  0  0  0999 V2000
  173.9050  165.1699  109.3421 C   0  0  2  0  0  0  0  0  0  0  0  0
  174.5238  164.9860  108.0355 N   0  0  0  0  0  0  0  0  0  0  0  0
  174.0672  166.0873  107.2189 C   0  0  0  0  0  0  0  0  0  0  0  0
  172.6044  166.1210  107.5788 C   0  0  0  0  0  0  0  0  0  0  0  0
  172.5136  165.5010  108.9433 C   0  0  1  0  0  0  0  0  0  0  0  0
  171.6068  164.3206  108.8952 C   0  0  0  0  0  0  0  0  0  0  0  0
  170.9327  164.2485  110.0831 C   0  0  0  0  0  0  0  0  0  0  0  0
  169.9828  163.2834  110.3227 C   0  0  0  0  0  0  0  0  0  0  0  0
  169.6691  162.3382  109.3707 C   0  0  0  0  0  0  0  0  0  0  0  0
  168.7131  161.3773  109.6295 O   0  0  0  0  0  0  0  0  0  0  0  0
  168.3820  161.0501  110.9596 C   0  0  0  0  0  0  0  0  0  0  0  0
  170.3344  162.3723  108.1484 C   0  0  0  0  0  0  0  0  0  0  0  0
  171.2903  163.3709  107.9434 C   0  0  0  0  0  0  0  0  0  0  0  0
  170.0594  161.4044  107.0390 C   0  0  1  0  0  0  0  0  0  0  0  0
  168.8260  160.7845  107.4134 C   0  0  0  0  0  0  0  0  0  0  0  0
  167.4448  161.3075  107.5188 C   0  0  1  0  0  0  0  0  0  0  0  0
  167.3295  162.5619  106.9917 C   0  0  0  0  0  0  0  0  0  0  0  0
  166.2165  163.0434  105.9690 N   0  0  0  0  0  0  0  0  0  0  0  0
  165.0710  162.1106  106.4235 C   0  0  0  0  0  0  0  0  0  0  0  0
  165.2925  160.7391  106.6030 C   0  0  2  0  0  0  0  0  0  0  0  0
  165.1747  159.9048  105.4608 O   0  0  0  0  0  0  0  0  0  0  0  0
  164.0169  160.3172  107.3975 C   0  0  0  0  0  0  0  0  0  0  0  0
  164.1080  160.9875  108.7417 C   0  0  0  0  0  0  0  0  0  0  0  0
  166.4138  160.2122  107.4040 C   0  0  0  0  0  0  0  0  0  0  0  0
  166.6678  162.2873  104.6924 C   0  0  0  0  0  0  0  0  0  0  0  0
  167.8886  161.6325  104.6049 C   0  0  0  0  0  0  0  0  0  0  0  0
  169.2189  162.2192  104.7231 C   0  0  0  0  0  0  0  0  0  0  0  0
  170.1213  162.1173  105.7412 C   0  0  0  0  0  0  0  0  0  0  0  0
  171.2368  162.8133  105.3355 N   0  0  0  0  0  0  0  0  0  0  0  0
  171.1101  163.3475  104.1476 C   0  0  0  0  0  0  0  0  0  0  0  0
  171.8916  164.1137  103.3085 C   0  0  0  0  0  0  0  0  0  0  0  0
  171.4433  164.5258  102.0829 C   0  0  0  0  0  0  0  0  0  0  0  0
  170.1596  164.1767  101.6395 C   0  0  0  0  0  0  0  0  0  0  0  0
  169.3830  163.4097  102.4840 C   0  0  0  0  0  0  0  0  0  0  0  0
  169.8484  163.0006  103.7183 C   0  0  0  0  0  0  0  0  0  0  0  0
  171.1492  160.3812  107.0712 C   0  0  0  0  0  0  0  0  0  0  0  0
  171.0679  159.3083  107.7243 O   0  0  0  0  0  0  0  0  0  0  0  0
  172.2968  160.5910  106.3793 O   0  0  0  0  0  0  0  0  0  0  0  0
  173.3337  161.4928  106.6900 C   0  0  0  0  0  0  0  0  0  0  0  0
  171.4623  165.3200  110.9491 N   0  0  0  0  0  0  0  0  0  0  0  0
  171.4847  165.1039  112.3324 C   0  0  0  0  0  0  0  0  0  0  0  0
  170.7217  164.3746  112.9985 O   0  0  0  0  0  0  0  0  0  0  0  0
  171.8194  166.3391  109.9981 C   0  0  1  0  0  0  0  0  0  0  0  0
  172.6148  167.4887  110.4160 C   0  0  2  0  0  0  0  0  0  0  0  0
  172.9638  168.1597  109.1610 O   0  0  0  0  0  0  0  0  0  0  0  0
  173.9727  167.1534  110.9706 C   0  0  2  0  0  0  0  0  0  0  0  0
  174.7613  168.3534  110.8134 O   0  0  0  0  0  0  0  0  0  0  0  0
  174.4704  169.5565  111.3833 C   0  0  0  0  0  0  0  0  0  0  0  0
  174.3633  170.8410  110.6443 C   0  0  0  0  0  0  0  0  0  0  0  0
  174.2754  169.6062  112.6236 O   0  0  0  0  0  0  0  0  0  0  0  0
  174.6266  165.9792  110.3160 C   0  0  1  0  0  0  0  0  0  0  0  0
  175.1251  165.0109  111.4259 C   0  0  0  0  0  0  0  0  0  0  0  0
  176.5632  165.2003  111.7534 C   0  0  0  0  0  0  0  0  0  0  0  0
  175.9144  166.4878  109.7739 C   0  0  0  0  0  0  0  0  0  0  0  0
  176.5666  166.0068  108.7431 C   0  0  0  0  0  0  0  0  0  0  0  0
  175.9435  164.8358  108.0564 C   0  0  0  0  0  0  0  0  0  0  0  0
  171.8441  168.5173  111.0918 C   0  0  0  0  0  0  0  0  0  0  0  0
  171.3705  169.5407  110.4448 O   0  0  0  0  0  0  0  0  0  0  0  0
  171.5426  168.5219  112.4182 O   0  0  0  0  0  0  0  0  0  0  0  0
  170.7217  169.4503  113.0823 C   0  0  0  0  0  0  0  0  0  0  0  0
  1  2  1  6
  2  3  1  0
  3  4  1  0
  5  4  1  6
  5  6  1  0
  6  7  2  0
  7  8  1  0
  8  9  2  0
  9 10  1  0
 10 11  1  0
  9 12  1  0
 12 13  2  0
 12 14  1  0
 14 15  1  0
 16 15  1  6
 16 17  1  0
 17 18  1  0
 18 19  1  1
 19 20  1  0
 20 21  1  6
 20 22  1  0
 22 23  1  0
 20 24  1  0
 18 25  1  0
 25 26  1  0
 26 27  1  0
 27 28  2  0
 28 29  1  0
 29 30  1  0
 30 31  2  0
 31 32  1  0
 32 33  2  0
 33 34  1  0
 34 35  2  0
 14 36  1  6
 36 37  2  0
 36 38  1  0
 38 39  1  0
  7 40  1  0
 40 41  1  0
 41 42  2  0
 43 40  1  1
 43 44  1  0
 44 45  1  6
 44 46  1  0
 46 47  1  6
 47 48  1  0
 48 49  1  0
 48 50  2  0
 46 51  1  0
 51 52  1  1
 52 53  1  0
 51 54  1  0
 54 55  2  0
 55 56  1  0
 44 57  1  0
 57 58  2  0
 57 59  1  0
 59 60  1  0
  5  1  1  0
 43  5  1  0
 51  1  1  0
 56  2  1  0
 13  6  1  0
 28 14  1  0
 35 30  1  0
 24 16  1  0
 35 27  1  0
M  END
$$$$
