
     RDKit          3D

 60 68  0  0  0  0  0  0  0  0999 V2000
  131.4057  139.1912  132.1488 C   0  0  2  0  0  0  0  0  0  0  0  0
  130.4809  138.2033  132.6896 N   0  0  0  0  0  0  0  0  0  0  0  0
  129.8161  137.6131  131.5503 C   0  0  0  0  0  0  0  0  0  0  0  0
  129.5183  138.8398  130.7276 C   0  0  0  0  0  0  0  0  0  0  0  0
  130.5389  139.8590  131.1451 C   0  0  1  0  0  0  0  0  0  0  0  0
  129.8484  141.0730  131.6623 C   0  0  0  0  0  0  0  0  0  0  0  0
  130.5885  142.1691  131.3135 C   0  0  0  0  0  0  0  0  0  0  0  0
  130.1802  143.4475  131.6135 C   0  0  0  0  0  0  0  0  0  0  0  0
  129.0009  143.6812  132.2862 C   0  0  0  0  0  0  0  0  0  0  0  0
  128.6077  144.9713  132.5784 O   0  0  0  0  0  0  0  0  0  0  0  0
  129.3257  146.0648  132.0541 C   0  0  0  0  0  0  0  0  0  0  0  0
  128.2183  142.5936  132.6638 C   0  0  0  0  0  0  0  0  0  0  0  0
  128.6670  141.3111  132.3372 C   0  0  0  0  0  0  0  0  0  0  0  0
  126.9122  142.7349  133.3830 C   0  0  1  0  0  0  0  0  0  0  0  0
  126.3995  141.4011  133.4425 C   0  0  0  0  0  0  0  0  0  0  0  0
  126.8556  140.1945  134.1696 C   0  0  1  0  0  0  0  0  0  0  0  0
  127.8406  140.4804  135.0711 C   0  0  0  0  0  0  0  0  0  0  0  0
  127.8789  140.0149  136.5872 N   0  0  0  0  0  0  0  0  0  0  0  0
  127.1055  138.6852  136.4365 C   0  0  0  0  0  0  0  0  0  0  0  0
  125.8954  138.6361  135.7327 C   0  0  2  0  0  0  0  0  0  0  0  0
  124.7110  138.9472  136.4502 O   0  0  0  0  0  0  0  0  0  0  0  0
  125.7121  137.0990  135.5319 C   0  0  0  0  0  0  0  0  0  0  0  0
  125.3923  136.5250  136.8857 C   0  0  0  0  0  0  0  0  0  0  0  0
  125.7379  139.2034  134.3800 C   0  0  0  0  0  0  0  0  0  0  0  0
  126.7497  140.8994  137.1769 C   0  0  0  0  0  0  0  0  0  0  0  0
  126.1683  141.9403  136.4659 C   0  0  0  0  0  0  0  0  0  0  0  0
  126.8263  143.1338  135.9457 C   0  0  0  0  0  0  0  0  0  0  0  0
  127.1311  143.4604  134.6567 C   0  0  0  0  0  0  0  0  0  0  0  0
  127.6981  144.7133  134.7029 N   0  0  0  0  0  0  0  0  0  0  0  0
  127.7784  145.2010  135.9146 C   0  0  0  0  0  0  0  0  0  0  0  0
  128.2433  146.3623  136.4951 C   0  0  0  0  0  0  0  0  0  0  0  0
  128.1798  146.5680  137.8466 C   0  0  0  0  0  0  0  0  0  0  0  0
  127.6335  145.5908  138.6910 C   0  0  0  0  0  0  0  0  0  0  0  0
  127.1700  144.4313  138.1035 C   0  0  0  0  0  0  0  0  0  0  0  0
  127.2401  144.2372  136.7379 C   0  0  0  0  0  0  0  0  0  0  0  0
  126.0210  143.5619  132.5127 C   0  0  0  0  0  0  0  0  0  0  0  0
  125.2085  144.4095  132.9664 O   0  0  0  0  0  0  0  0  0  0  0  0
  126.0602  143.4119  131.1652 O   0  0  0  0  0  0  0  0  0  0  0  0
  124.9825  143.4899  130.2612 C   0  0  0  0  0  0  0  0  0  0  0  0
  131.8122  141.6748  130.6527 N   0  0  0  0  0  0  0  0  0  0  0  0
  132.9874  142.4241  130.7881 C   0  0  0  0  0  0  0  0  0  0  0  0
  133.3499  143.3979  130.0966 O   0  0  0  0  0  0  0  0  0  0  0  0
  131.3566  140.4645  130.0218 C   0  0  1  0  0  0  0  0  0  0  0  0
  132.3174  139.5236  129.4557 C   0  0  2  0  0  0  0  0  0  0  0  0
  131.5140  138.3429  129.1279 O   0  0  0  0  0  0  0  0  0  0  0  0
  133.3058  138.9569  130.4384 C   0  0  2  0  0  0  0  0  0  0  0  0
  133.7704  137.7219  129.8505 O   0  0  0  0  0  0  0  0  0  0  0  0
  133.3695  137.2354  128.6425 C   0  0  0  0  0  0  0  0  0  0  0  0
  134.0938  136.1981  127.8634 C   0  0  0  0  0  0  0  0  0  0  0  0
  132.3129  137.6836  128.1311 O   0  0  0  0  0  0  0  0  0  0  0  0
  132.7471  138.7352  131.8071 C   0  0  1  0  0  0  0  0  0  0  0  0
  133.7167  139.3703  132.8438 C   0  0  0  0  0  0  0  0  0  0  0  0
  134.1568  138.4070  133.8876 C   0  0  0  0  0  0  0  0  0  0  0  0
  132.9317  137.2864  132.0860 C   0  0  0  0  0  0  0  0  0  0  0  0
  132.1967  136.5498  132.8840 C   0  0  0  0  0  0  0  0  0  0  0  0
  131.0684  137.2465  133.5715 C   0  0  0  0  0  0  0  0  0  0  0  0
  132.8127  139.9117  128.1469 C   0  0  0  0  0  0  0  0  0  0  0  0
  132.0476  139.8715  127.0964 O   0  0  0  0  0  0  0  0  0  0  0  0
  134.0758  140.3443  127.8870 O   0  0  0  0  0  0  0  0  0  0  0  0
  134.9328  141.0011  128.7876 C   0  0  0  0  0  0  0  0  0  0  0  0
  1  2  1  6
  2  3  1  0
  3  4  1  0
  5  4  1  6
  5  6  1  0
  6  7  2  0
  7  8  1  0
  8  9  2  0
  9 10  1  0
 10 11  1  0
  9 12  1  0
 12 13  2  0
 12 14  1  0
 14 15  1  0
 16 15  1  1
 16 17  1  0
 17 18  1  0
 18 19  1  6
 19 20  1  0
 20 21  1  1
 20 22  1  0
 22 23  1  0
 20 24  1  0
 18 25  1  0
 25 26  1  0
 26 27  1  0
 27 28  2  0
 28 29  1  0
 29 30  1  0
 30 31  2  0
 31 32  1  0
 32 33  2  0
 33 34  1  0
 34 35  2  0
 14 36  1  6
 36 37  2  0
 36 38  1  0
 38 39  1  0
  7 40  1  0
 40 41  1  0
 41 42  2  0
 43 40  1  1
 43 44  1  0
 44 45  1  6
 44 46  1  0
 46 47  1  6
 47 48  1  0
 48 49  1  0
 48 50  2  0
 46 51  1  0
 51 52  1  1
 52 53  1  0
 51 54  1  0
 54 55  2  0
 55 56  1  0
 44 57  1  0
 57 58  2  0
 57 59  1  0
 59 60  1  0
  5  1  1  0
 43  5  1  0
 51  1  1  0
 56  2  1  0
 13  6  1  0
 28 14  1  0
 35 30  1  0
 24 16  1  0
 35 27  1  0
M  END
$$$$
