
     RDKit          3D

 60 68  0  0  0  0  0  0  0  0999 V2000
  174.7310  164.5689  111.6820 C   0  0  2  0  0  0  0  0  0  0  0  0
  173.5272  164.6190  112.5019 N   0  0  0  0  0  0  0  0  0  0  0  0
  173.1497  163.2448  112.7412 C   0  0  0  0  0  0  0  0  0  0  0  0
  173.3370  162.6550  111.3673 C   0  0  0  0  0  0  0  0  0  0  0  0
  174.3431  163.5376  110.6867 C   0  0  1  0  0  0  0  0  0  0  0  0
  173.7514  164.0993  109.4408 C   0  0  0  0  0  0  0  0  0  0  0  0
  174.7425  164.2036  108.5040 C   0  0  0  0  0  0  0  0  0  0  0  0
  174.4926  164.6503  107.2276 C   0  0  0  0  0  0  0  0  0  0  0  0
  173.2242  165.0181  106.8353 C   0  0  0  0  0  0  0  0  0  0  0  0
  172.9928  165.4641  105.5501 O   0  0  0  0  0  0  0  0  0  0  0  0
  173.9924  165.3319  104.5655 C   0  0  0  0  0  0  0  0  0  0  0  0
  172.1860  164.9315  107.7587 C   0  0  0  0  0  0  0  0  0  0  0  0
  172.4811  164.4696  109.0442 C   0  0  0  0  0  0  0  0  0  0  0  0
  170.7686  165.2894  107.4332 C   0  0  1  0  0  0  0  0  0  0  0  0
  170.3862  164.3348  106.4392 C   0  0  0  0  0  0  0  0  0  0  0  0
  170.1743  162.8706  106.4995 C   0  0  1  0  0  0  0  0  0  0  0  0
  170.1833  162.4033  107.7825 C   0  0  0  0  0  0  0  0  0  0  0  0
  169.1034  161.4379  108.4295 N   0  0  0  0  0  0  0  0  0  0  0  0
  168.6972  160.6641  107.1546 C   0  0  0  0  0  0  0  0  0  0  0  0
  168.3882  161.3459  105.9707 C   0  0  2  0  0  0  0  0  0  0  0  0
  167.0536  161.8016  105.8102 O   0  0  0  0  0  0  0  0  0  0  0  0
  168.4223  160.1881  104.9245 C   0  0  0  0  0  0  0  0  0  0  0  0
  167.3229  159.2337  105.3053 C   0  0  0  0  0  0  0  0  0  0  0  0
  169.2665  162.3835  105.3974 C   0  0  0  0  0  0  0  0  0  0  0  0
  167.8955  162.4048  108.5348 C   0  0  0  0  0  0  0  0  0  0  0  0
  168.0116  163.7709  108.3176 C   0  0  0  0  0  0  0  0  0  0  0  0
  168.8313  164.7198  109.0630 C   0  0  0  0  0  0  0  0  0  0  0  0
  169.9798  165.3524  108.6863 C   0  0  0  0  0  0  0  0  0  0  0  0
  170.3225  166.1787  109.7317 N   0  0  0  0  0  0  0  0  0  0  0  0
  169.4866  166.1163  110.7366 C   0  0  0  0  0  0  0  0  0  0  0  0
  169.3694  166.7083  111.9766 C   0  0  0  0  0  0  0  0  0  0  0  0
  168.3353  166.4110  112.8223 C   0  0  0  0  0  0  0  0  0  0  0  0
  167.3527  165.4834  112.4476 C   0  0  0  0  0  0  0  0  0  0  0  0
  167.4759  164.8950  111.2054 C   0  0  0  0  0  0  0  0  0  0  0  0
  168.5247  165.2047  110.3619 C   0  0  0  0  0  0  0  0  0  0  0  0
  170.7919  166.6519  106.8178 C   0  0  0  0  0  0  0  0  0  0  0  0
  170.2216  167.6496  107.3313 O   0  0  0  0  0  0  0  0  0  0  0  0
  171.4448  166.8558  105.6465 O   0  0  0  0  0  0  0  0  0  0  0  0
  170.8883  166.9224  104.3540 C   0  0  0  0  0  0  0  0  0  0  0  0
  176.0033  163.8031  109.1588 N   0  0  0  0  0  0  0  0  0  0  0  0
  177.1930  164.4040  108.7297 C   0  0  0  0  0  0  0  0  0  0  0  0
  177.3242  165.2927  107.8631 O   0  0  0  0  0  0  0  0  0  0  0  0
  175.5576  162.8296  110.1202 C   0  0  1  0  0  0  0  0  0  0  0  0
  176.4651  162.3524  111.1582 C   0  0  2  0  0  0  0  0  0  0  0  0
  175.6066  161.5774  112.0578 O   0  0  0  0  0  0  0  0  0  0  0  0
  176.9909  163.4181  112.0811 C   0  0  2  0  0  0  0  0  0  0  0  0
  177.3891  162.7251  113.2844 O   0  0  0  0  0  0  0  0  0  0  0  0
  177.3391  161.3745  113.4578 C   0  0  0  0  0  0  0  0  0  0  0  0
  176.2914  160.6568  114.2290 C   0  0  0  0  0  0  0  0  0  0  0  0
  178.2354  160.6648  112.9364 O   0  0  0  0  0  0  0  0  0  0  0  0
  176.0111  164.5079  112.3761 C   0  0  1  0  0  0  0  0  0  0  0  0
  176.7132  165.8765  112.1480 C   0  0  0  0  0  0  0  0  0  0  0  0
  177.1679  166.5097  113.4143 C   0  0  0  0  0  0  0  0  0  0  0  0
  175.8450  164.5090  113.8537 C   0  0  0  0  0  0  0  0  0  0  0  0
  174.7844  164.9053  114.5152 C   0  0  0  0  0  0  0  0  0  0  0  0
  173.6403  165.3996  113.6920 C   0  0  0  0  0  0  0  0  0  0  0  0
  177.3963  161.3375  110.6980 C   0  0  0  0  0  0  0  0  0  0  0  0
  176.9818  160.1705  110.3022 O   0  0  0  0  0  0  0  0  0  0  0  0
  178.7463  161.4901  110.6300 O   0  0  0  0  0  0  0  0  0  0  0  0
  179.6467  160.6462  109.9564 C   0  0  0  0  0  0  0  0  0  0  0  0
  1  2  1  1
  2  3  1  0
  3  4  1  0
  5  4  1  1
  5  6  1  0
  6  7  2  0
  7  8  1  0
  8  9  2  0
  9 10  1  0
 10 11  1  0
  9 12  1  0
 12 13  2  0
 12 14  1  0
 14 15  1  0
 16 15  1  1
 16 17  1  0
 17 18  1  0
 18 19  1  6
 19 20  1  0
 20 21  1  1
 20 22  1  0
 22 23  1  0
 20 24  1  0
 18 25  1  0
 25 26  1  0
 26 27  1  0
 27 28  2  0
 28 29  1  0
 29 30  1  0
 30 31  2  0
 31 32  1  0
 32 33  2  0
 33 34  1  0
 34 35  2  0
 14 36  1  6
 36 37  2  0
 36 38  1  0
 38 39  1  0
  7 40  1  0
 40 41  1  0
 41 42  2  0
 43 40  1  6
 43 44  1  0
 44 45  1  1
 44 46  1  0
 46 47  1  1
 47 48  1  0
 48 49  1  0
 48 50  2  0
 46 51  1  0
 51 52  1  1
 52 53  1  0
 51 54  1  0
 54 55  2  0
 55 56  1  0
 44 57  1  0
 57 58  2  0
 57 59  1  0
 59 60  1  0
  5  1  1  0
 43  5  1  0
 51  1  1  0
 56  2  1  0
 13  6  1  0
 28 14  1  0
 35 30  1  0
 24 16  1  0
 35 27  1  0
M  END
$$$$
