
     RDKit          3D

 60 68  0  0  0  0  0  0  0  0999 V2000
  130.1386  163.8418  150.9230 C   0  0  2  0  0  0  0  0  0  0  0  0
  130.0236  164.8885  151.9304 N   0  0  0  0  0  0  0  0  0  0  0  0
  131.3507  165.4382  152.0883 C   0  0  0  0  0  0  0  0  0  0  0  0
  132.1782  164.1794  152.1194 C   0  0  0  0  0  0  0  0  0  0  0  0
  131.3690  163.1503  151.3840 C   0  0  1  0  0  0  0  0  0  0  0  0
  131.1049  161.9904  152.2800 C   0  0  0  0  0  0  0  0  0  0  0  0
  131.1076  160.8525  151.5212 C   0  0  0  0  0  0  0  0  0  0  0  0
  130.9358  159.6068  152.0780 C   0  0  0  0  0  0  0  0  0  0  0  0
  130.7487  159.4502  153.4338 C   0  0  0  0  0  0  0  0  0  0  0  0
  130.5778  158.1921  153.9743 O   0  0  0  0  0  0  0  0  0  0  0  0
  131.3082  157.0994  153.4659 C   0  0  0  0  0  0  0  0  0  0  0  0
  130.7348  160.5827  154.2433 C   0  0  0  0  0  0  0  0  0  0  0  0
  130.9163  161.8297  153.6389 C   0  0  0  0  0  0  0  0  0  0  0  0
  130.5559  160.5253  155.7291 C   0  0  1  0  0  0  0  0  0  0  0  0
  130.5714  161.8960  156.1366 C   0  0  0  0  0  0  0  0  0  0  0  0
  129.6261  163.0114  155.9022 C   0  0  1  0  0  0  0  0  0  0  0  0
  128.4563  162.5834  155.3426 C   0  0  0  0  0  0  0  0  0  0  0  0
  126.9960  162.9572  155.8372 N   0  0  0  0  0  0  0  0  0  0  0  0
  127.3016  164.3604  156.4086 C   0  0  0  0  0  0  0  0  0  0  0  0
  128.3906  164.5632  157.2660 C   0  0  2  0  0  0  0  0  0  0  0  0
  128.1839  164.3255  158.6499 O   0  0  0  0  0  0  0  0  0  0  0  0
  128.5097  166.1195  157.2583 C   0  0  0  0  0  0  0  0  0  0  0  0
  127.2101  166.6515  157.7991 C   0  0  0  0  0  0  0  0  0  0  0  0
  129.7517  164.0902  156.9492 C   0  0  0  0  0  0  0  0  0  0  0  0
  126.9375  162.1516  157.1610 C   0  0  0  0  0  0  0  0  0  0  0  0
  127.8991  161.2120  157.5063 C   0  0  0  0  0  0  0  0  0  0  0  0
  128.2457  159.9928  156.7842 C   0  0  0  0  0  0  0  0  0  0  0  0
  129.3584  159.7119  156.0465 C   0  0  0  0  0  0  0  0  0  0  0  0
  129.2182  158.4104  155.6224 N   0  0  0  0  0  0  0  0  0  0  0  0
  128.1079  157.8500  156.0293 C   0  0  0  0  0  0  0  0  0  0  0  0
  127.5014  156.6191  155.8914 C   0  0  0  0  0  0  0  0  0  0  0  0
  126.2893  156.3447  156.4644 C   0  0  0  0  0  0  0  0  0  0  0  0
  125.6201  157.3200  157.2176 C   0  0  0  0  0  0  0  0  0  0  0  0
  126.2328  158.5494  157.3518 C   0  0  0  0  0  0  0  0  0  0  0  0
  127.4566  158.8124  156.7682 C   0  0  0  0  0  0  0  0  0  0  0  0
  131.7596  159.8364  156.2881 C   0  0  0  0  0  0  0  0  0  0  0  0
  131.7736  158.6163  156.5974 O   0  0  0  0  0  0  0  0  0  0  0  0
  132.9062  160.5322  156.4902 O   0  0  0  0  0  0  0  0  0  0  0  0
  134.0208  160.6177  155.6328 C   0  0  0  0  0  0  0  0  0  0  0  0
  131.2768  161.2681  150.1151 N   0  0  0  0  0  0  0  0  0  0  0  0
  130.6805  160.4878  149.1169 C   0  0  0  0  0  0  0  0  0  0  0  0
  130.9272  159.2968  148.8366 O   0  0  0  0  0  0  0  0  0  0  0  0
  132.0778  162.4572  150.2376 C   0  0  1  0  0  0  0  0  0  0  0  0
  132.2752  163.3327  149.0872 C   0  0  2  0  0  0  0  0  0  0  0  0
  132.9257  164.5204  149.6467 O   0  0  0  0  0  0  0  0  0  0  0  0
  131.0146  163.9180  148.5110 C   0  0  2  0  0  0  0  0  0  0  0  0
  131.4301  165.1027  147.7965 O   0  0  0  0  0  0  0  0  0  0  0  0
  132.7081  165.3678  147.4051 C   0  0  0  0  0  0  0  0  0  0  0  0
  133.1184  166.5368  146.5849 C   0  0  0  0  0  0  0  0  0  0  0  0
  133.6222  164.5784  147.7515 O   0  0  0  0  0  0  0  0  0  0  0  0
  129.9666  164.2326  149.5295 C   0  0  1  0  0  0  0  0  0  0  0  0
  128.6179  163.6222  149.0534 C   0  0  0  0  0  0  0  0  0  0  0  0
  127.7586  164.6059  148.3425 C   0  0  0  0  0  0  0  0  0  0  0  0
  129.6933  165.6874  149.3879 C   0  0  0  0  0  0  0  0  0  0  0  0
  129.2594  166.4908  150.3290 C   0  0  0  0  0  0  0  0  0  0  0  0
  129.0220  165.8713  151.6672 C   0  0  0  0  0  0  0  0  0  0  0  0
  133.2854  162.8574  148.1585 C   0  0  0  0  0  0  0  0  0  0  0  0
  134.5513  163.0579  148.3772 O   0  0  0  0  0  0  0  0  0  0  0  0
  133.0304  162.1768  147.0088 O   0  0  0  0  0  0  0  0  0  0  0  0
  132.9000  160.7829  146.8778 C   0  0  0  0  0  0  0  0  0  0  0  0
  1  2  1  1
  2  3  1  0
  3  4  1  0
  5  4  1  1
  5  6  1  0
  6  7  2  0
  7  8  1  0
  8  9  2  0
  9 10  1  0
 10 11  1  0
  9 12  1  0
 12 13  2  0
 12 14  1  0
 14 15  1  0
 16 15  1  1
 16 17  1  0
 17 18  1  0
 18 19  1  1
 19 20  1  0
 20 21  1  1
 20 22  1  0
 22 23  1  0
 20 24  1  0
 18 25  1  0
 25 26  1  0
 26 27  1  0
 27 28  2  0
 28 29  1  0
 29 30  1  0
 30 31  2  0
 31 32  1  0
 32 33  2  0
 33 34  1  0
 34 35  2  0
 14 36  1  1
 36 37  2  0
 36 38  1  0
 38 39  1  0
  7 40  1  0
 40 41  1  0
 41 42  2  0
 43 40  1  6
 43 44  1  0
 44 45  1  1
 44 46  1  0
 46 47  1  1
 47 48  1  0
 48 49  1  0
 48 50  2  0
 46 51  1  0
 51 52  1  6
 52 53  1  0
 51 54  1  0
 54 55  2  0
 55 56  1  0
 44 57  1  0
 57 58  2  0
 57 59  1  0
 59 60  1  0
  5  1  1  0
 43  5  1  0
 51  1  1  0
 56  2  1  0
 13  6  1  0
 28 14  1  0
 35 30  1  0
 24 16  1  0
 35 27  1  0
M  END
$$$$
