
     RDKit          3D

 60 68  0  0  0  0  0  0  0  0999 V2000
  136.2715  163.9206  156.1852 C   0  0  2  0  0  0  0  0  0  0  0  0
  137.1829  164.4898  155.2007 N   0  0  0  0  0  0  0  0  0  0  0  0
  137.9096  163.3747  154.6378 C   0  0  0  0  0  0  0  0  0  0  0  0
  138.2295  162.5866  155.8816 C   0  0  0  0  0  0  0  0  0  0  0  0
  137.1761  162.9704  156.8805 C   0  0  1  0  0  0  0  0  0  0  0  0
  137.8242  163.5391  158.0947 C   0  0  0  0  0  0  0  0  0  0  0  0
  137.0867  163.1724  159.1866 C   0  0  0  0  0  0  0  0  0  0  0  0
  137.4625  163.5116  160.4653 C   0  0  0  0  0  0  0  0  0  0  0  0
  138.6049  164.2439  160.7033 C   0  0  0  0  0  0  0  0  0  0  0  0
  138.9658  164.5749  161.9934 O   0  0  0  0  0  0  0  0  0  0  0  0
  137.9874  164.6435  163.0054 C   0  0  0  0  0  0  0  0  0  0  0  0
  139.3834  164.6417  159.6199 C   0  0  0  0  0  0  0  0  0  0  0  0
  138.9686  164.2738  158.3371 C   0  0  0  0  0  0  0  0  0  0  0  0
  140.6514  165.4250  159.7664 C   0  0  1  0  0  0  0  0  0  0  0  0
  141.2323  164.9275  160.9749 C   0  0  0  0  0  0  0  0  0  0  0  0
  141.8124  163.6118  161.3284 C   0  0  1  0  0  0  0  0  0  0  0  0
  141.9642  162.8076  160.2352 C   0  0  0  0  0  0  0  0  0  0  0  0
  143.2749  162.0030  159.8460 N   0  0  0  0  0  0  0  0  0  0  0  0
  143.8236  161.7594  161.2702 C   0  0  0  0  0  0  0  0  0  0  0  0
  143.9103  162.8091  162.1938 C   0  0  2  0  0  0  0  0  0  0  0  0
  145.0787  163.6141  162.1580 O   0  0  0  0  0  0  0  0  0  0  0  0
  144.1388  162.0334  163.5289 C   0  0  0  0  0  0  0  0  0  0  0  0
  144.4754  163.0648  164.5717 C   0  0  0  0  0  0  0  0  0  0  0  0
  142.7784  163.7101  162.4829 C   0  0  0  0  0  0  0  0  0  0  0  0
  144.1990  163.1713  159.4146 C   0  0  0  0  0  0  0  0  0  0  0  0
  143.7315  164.4659  159.2352 C   0  0  0  0  0  0  0  0  0  0  0  0
  142.7214  164.9193  158.2855 C   0  0  0  0  0  0  0  0  0  0  0  0
  141.4380  165.3212  158.5146 C   0  0  0  0  0  0  0  0  0  0  0  0
  140.9298  165.6956  157.2920 N   0  0  0  0  0  0  0  0  0  0  0  0
  141.7859  165.5596  156.3117 C   0  0  0  0  0  0  0  0  0  0  0  0
  141.7882  165.7779  154.9500 C   0  0  0  0  0  0  0  0  0  0  0  0
  142.8906  165.5211  154.1808 C   0  0  0  0  0  0  0  0  0  0  0  0
  144.0647  165.0217  154.7626 C   0  0  0  0  0  0  0  0  0  0  0  0
  144.0555  164.8058  156.1257 C   0  0  0  0  0  0  0  0  0  0  0  0
  142.9358  165.0697  156.8898 C   0  0  0  0  0  0  0  0  0  0  0  0
  140.2617  166.8549  159.9650 C   0  0  0  0  0  0  0  0  0  0  0  0
  140.6087  167.7785  159.1834 O   0  0  0  0  0  0  0  0  0  0  0  0
  139.5033  167.2089  161.0323 O   0  0  0  0  0  0  0  0  0  0  0  0
  139.6615  168.3369  161.8614 C   0  0  0  0  0  0  0  0  0  0  0  0
  135.9030  162.4457  158.6874 N   0  0  0  0  0  0  0  0  0  0  0  0
  134.7125  162.5362  159.4190 C   0  0  0  0  0  0  0  0  0  0  0  0
  134.5868  162.5891  160.6597 O   0  0  0  0  0  0  0  0  0  0  0  0
  136.4049  161.8187  157.4935 C   0  0  1  0  0  0  0  0  0  0  0  0
  135.4854  161.1923  156.5496 C   0  0  2  0  0  0  0  0  0  0  0  0
  136.3198  160.8851  155.3849 O   0  0  0  0  0  0  0  0  0  0  0  0
  134.4589  162.1173  155.9541 C   0  0  2  0  0  0  0  0  0  0  0  0
  134.0401  161.4885  154.7230 O   0  0  0  0  0  0  0  0  0  0  0  0
  133.5679  160.2144  154.6208 C   0  0  0  0  0  0  0  0  0  0  0  0
  134.2108  159.1327  153.8307 C   0  0  0  0  0  0  0  0  0  0  0  0
  132.5123  159.9104  155.2308 O   0  0  0  0  0  0  0  0  0  0  0  0
  134.9544  163.5077  155.7175 C   0  0  1  0  0  0  0  0  0  0  0  0
  133.9276  164.5063  156.3229 C   0  0  0  0  0  0  0  0  0  0  0  0
  132.9450  165.0009  155.3223 C   0  0  0  0  0  0  0  0  0  0  0  0
  134.7766  163.7547  154.2620 C   0  0  0  0  0  0  0  0  0  0  0  0
  135.4826  164.5755  153.5221 C   0  0  0  0  0  0  0  0  0  0  0  0
  136.5670  165.3273  154.2221 C   0  0  0  0  0  0  0  0  0  0  0  0
  135.0481  159.8674  156.9524 C   0  0  0  0  0  0  0  0  0  0  0  0
  135.7405  158.8081  156.6540 O   0  0  0  0  0  0  0  0  0  0  0  0
  133.9168  159.5999  157.6586 O   0  0  0  0  0  0  0  0  0  0  0  0
  133.8524  159.1547  158.9908 C   0  0  0  0  0  0  0  0  0  0  0  0
  1  2  1  6
  2  3  1  0
  3  4  1  0
  5  4  1  6
  5  6  1  0
  6  7  2  0
  7  8  1  0
  8  9  2  0
  9 10  1  0
 10 11  1  0
  9 12  1  0
 12 13  2  0
 12 14  1  0
 14 15  1  0
 16 15  1  6
 16 17  1  0
 17 18  1  0
 18 19  1  1
 19 20  1  0
 20 21  1  6
 20 22  1  0
 22 23  1  0
 20 24  1  0
 18 25  1  0
 25 26  1  0
 26 27  1  0
 27 28  2  0
 28 29  1  0
 29 30  1  0
 30 31  2  0
 31 32  1  0
 32 33  2  0
 33 34  1  0
 34 35  2  0
 14 36  1  1
 36 37  2  0
 36 38  1  0
 38 39  1  0
  7 40  1  0
 40 41  1  0
 41 42  2  0
 43 40  1  1
 43 44  1  0
 44 45  1  6
 44 46  1  0
 46 47  1  6
 47 48  1  0
 48 49  1  0
 48 50  2  0
 46 51  1  0
 51 52  1  1
 52 53  1  0
 51 54  1  0
 54 55  2  0
 55 56  1  0
 44 57  1  0
 57 58  2  0
 57 59  1  0
 59 60  1  0
  5  1  1  0
 43  5  1  0
 51  1  1  0
 56  2  1  0
 13  6  1  0
 28 14  1  0
 35 30  1  0
 24 16  1  0
 35 27  1  0
M  END
$$$$
