
     RDKit          3D

 60 68  0  0  0  0  0  0  0  0999 V2000
  167.4597  149.4635  126.5671 C   0  0  2  0  0  0  0  0  0  0  0  0
  167.4192  148.7299  125.3085 N   0  0  0  0  0  0  0  0  0  0  0  0
  166.6086  147.5592  125.5547 C   0  0  0  0  0  0  0  0  0  0  0  0
  167.1444  147.1182  126.8921 C   0  0  0  0  0  0  0  0  0  0  0  0
  167.7141  148.3561  127.5229 C   0  0  1  0  0  0  0  0  0  0  0  0
  169.1570  148.1434  127.8237 C   0  0  0  0  0  0  0  0  0  0  0  0
  169.4577  148.8115  128.9787 C   0  0  0  0  0  0  0  0  0  0  0  0
  170.7124  148.7653  129.5399 C   0  0  0  0  0  0  0  0  0  0  0  0
  171.7292  148.0414  128.9569 C   0  0  0  0  0  0  0  0  0  0  0  0
  172.9819  148.0071  129.5348 O   0  0  0  0  0  0  0  0  0  0  0  0
  173.1512  148.3968  130.8785 C   0  0  0  0  0  0  0  0  0  0  0  0
  171.4679  147.3492  127.7777 C   0  0  0  0  0  0  0  0  0  0  0  0
  170.1792  147.4192  127.2417 C   0  0  0  0  0  0  0  0  0  0  0  0
  172.4945  146.5191  127.0707 C   0  0  1  0  0  0  0  0  0  0  0  0
  172.0095  145.1797  127.1979 C   0  0  0  0  0  0  0  0  0  0  0  0
  170.8266  144.4946  126.6287 C   0  0  1  0  0  0  0  0  0  0  0  0
  170.2028  145.2520  125.6790 C   0  0  0  0  0  0  0  0  0  0  0  0
  169.7606  144.7589  124.2375 N   0  0  0  0  0  0  0  0  0  0  0  0
  169.4905  143.2755  124.5774 C   0  0  0  0  0  0  0  0  0  0  0  0
  170.4242  142.5256  125.3039 C   0  0  2  0  0  0  0  0  0  0  0  0
  171.4696  141.9023  124.5739 O   0  0  0  0  0  0  0  0  0  0  0  0
  169.5769  141.2791  125.7099 C   0  0  0  0  0  0  0  0  0  0  0  0
  168.3964  141.7975  126.4858 C   0  0  0  0  0  0  0  0  0  0  0  0
  171.0109  142.9985  126.5724 C   0  0  0  0  0  0  0  0  0  0  0  0
  171.1467  144.6147  123.5570 C   0  0  0  0  0  0  0  0  0  0  0  0
  172.3152  145.0921  124.1346 C   0  0  0  0  0  0  0  0  0  0  0  0
  172.6326  146.4734  124.4798 C   0  0  0  0  0  0  0  0  0  0  0  0
  172.7086  147.0618  125.7082 C   0  0  0  0  0  0  0  0  0  0  0  0
  173.0923  148.3643  125.4860 N   0  0  0  0  0  0  0  0  0  0  0  0
  173.2608  148.6455  124.2191 C   0  0  0  0  0  0  0  0  0  0  0  0
  173.6231  149.7529  123.4813 C   0  0  0  0  0  0  0  0  0  0  0  0
  173.7067  149.7133  122.1159 C   0  0  0  0  0  0  0  0  0  0  0  0
  173.4221  148.5304  121.4186 C   0  0  0  0  0  0  0  0  0  0  0  0
  173.0605  147.4261  122.1632 C   0  0  0  0  0  0  0  0  0  0  0  0
  172.9805  147.4802  123.5408 C   0  0  0  0  0  0  0  0  0  0  0  0
  173.7696  146.6516  127.8403 C   0  0  0  0  0  0  0  0  0  0  0  0
  174.3813  145.6687  128.3345 O   0  0  0  0  0  0  0  0  0  0  0  0
  174.3172  147.8764  128.0394 O   0  0  0  0  0  0  0  0  0  0  0  0
  174.1354  148.7282  129.1467 C   0  0  0  0  0  0  0  0  0  0  0  0
  168.2420  149.5419  129.3873 N   0  0  0  0  0  0  0  0  0  0  0  0
  168.3954  150.7557  130.0684 C   0  0  0  0  0  0  0  0  0  0  0  0
  167.6082  151.7242  130.0791 O   0  0  0  0  0  0  0  0  0  0  0  0
  167.1898  148.6864  128.9061 C   0  0  1  0  0  0  0  0  0  0  0  0
  165.8094  149.1584  128.8861 C   0  0  2  0  0  0  0  0  0  0  0  0
  165.0883  148.1289  128.1331 O   0  0  0  0  0  0  0  0  0  0  0  0
  165.5680  150.3798  128.0412 C   0  0  2  0  0  0  0  0  0  0  0  0
  164.1590  150.3578  127.7239 O   0  0  0  0  0  0  0  0  0  0  0  0
  163.2214  151.1710  128.2864 C   0  0  0  0  0  0  0  0  0  0  0  0
  161.7526  150.9870  128.1582 C   0  0  0  0  0  0  0  0  0  0  0  0
  163.6051  152.1550  128.9671 O   0  0  0  0  0  0  0  0  0  0  0  0
  166.4064  150.4423  126.8051 C   0  0  1  0  0  0  0  0  0  0  0  0
  167.0707  151.8463  126.7309 C   0  0  0  0  0  0  0  0  0  0  0  0
  166.6018  152.6456  125.5679 C   0  0  0  0  0  0  0  0  0  0  0  0
  165.4460  150.5148  125.6722 C   0  0  0  0  0  0  0  0  0  0  0  0
  165.6581  150.0982  124.4471 C   0  0  0  0  0  0  0  0  0  0  0  0
  166.9974  149.4939  124.1785 C   0  0  0  0  0  0  0  0  0  0  0  0
  165.1503  149.0897  130.1783 C   0  0  0  0  0  0  0  0  0  0  0  0
  164.1857  148.2466  130.4002 O   0  0  0  0  0  0  0  0  0  0  0  0
  165.4579  149.8638  131.2536 O   0  0  0  0  0  0  0  0  0  0  0  0
  164.8176  149.8429  132.5051 C   0  0  0  0  0  0  0  0  0  0  0  0
  1  2  1  6
  2  3  1  0
  3  4  1  0
  5  4  1  6
  5  6  1  0
  6  7  2  0
  7  8  1  0
  8  9  2  0
  9 10  1  0
 10 11  1  0
  9 12  1  0
 12 13  2  0
 12 14  1  0
 14 15  1  0
 16 15  1  6
 16 17  1  0
 17 18  1  0
 18 19  1  1
 19 20  1  0
 20 21  1  6
 20 22  1  0
 22 23  1  0
 20 24  1  0
 18 25  1  0
 25 26  1  0
 26 27  1  0
 27 28  2  0
 28 29  1  0
 29 30  1  0
 30 31  2  0
 31 32  1  0
 32 33  2  0
 33 34  1  0
 34 35  2  0
 14 36  1  1
 36 37  2  0
 36 38  1  0
 38 39  1  0
  7 40  1  0
 40 41  1  0
 41 42  2  0
 43 40  1  6
 43 44  1  0
 44 45  1  6
 44 46  1  0
 46 47  1  6
 47 48  1  0
 48 49  1  0
 48 50  2  0
 46 51  1  0
 51 52  1  1
 52 53  1  0
 51 54  1  0
 54 55  2  0
 55 56  1  0
 44 57  1  0
 57 58  2  0
 57 59  1  0
 59 60  1  0
  5  1  1  0
 43  5  1  0
 51  1  1  0
 56  2  1  0
 13  6  1  0
 28 14  1  0
 35 30  1  0
 24 16  1  0
 35 27  1  0
M  END
$$$$
