
     RDKit          3D

 60 68  0  0  0  0  0  0  0  0999 V2000
  170.7300  147.1952  125.3258 C   0  0  2  0  0  0  0  0  0  0  0  0
  170.0790  148.3432  124.7078 N   0  0  0  0  0  0  0  0  0  0  0  0
  170.1723  149.4195  125.6675 C   0  0  0  0  0  0  0  0  0  0  0  0
  169.8130  148.6977  126.9404 C   0  0  0  0  0  0  0  0  0  0  0  0
  170.1558  147.2567  126.6937 C   0  0  1  0  0  0  0  0  0  0  0  0
  168.9385  146.4173  126.8712 C   0  0  0  0  0  0  0  0  0  0  0  0
  169.3189  145.2177  127.4069 C   0  0  0  0  0  0  0  0  0  0  0  0
  168.4041  144.2428  127.7297 C   0  0  0  0  0  0  0  0  0  0  0  0
  167.0554  144.4324  127.5228 C   0  0  0  0  0  0  0  0  0  0  0  0
  166.1525  143.4424  127.8529 O   0  0  0  0  0  0  0  0  0  0  0  0
  165.9497  143.0924  129.2028 C   0  0  0  0  0  0  0  0  0  0  0  0
  166.6246  145.6377  126.9755 C   0  0  0  0  0  0  0  0  0  0  0  0
  167.5855  146.6036  126.6646 C   0  0  0  0  0  0  0  0  0  0  0  0
  165.1824  145.9543  126.7248 C   0  0  1  0  0  0  0  0  0  0  0  0
  164.5051  145.4312  127.8707 C   0  0  0  0  0  0  0  0  0  0  0  0
  164.5136  145.8308  129.2964 C   0  0  1  0  0  0  0  0  0  0  0  0
  165.1551  147.0203  129.4919 C   0  0  0  0  0  0  0  0  0  0  0  0
  164.6033  148.2490  130.3302 N   0  0  0  0  0  0  0  0  0  0  0  0
  163.7573  147.4623  131.3569 C   0  0  0  0  0  0  0  0  0  0  0  0
  162.8704  146.4621  130.9382 C   0  0  2  0  0  0  0  0  0  0  0  0
  161.5647  146.8668  130.5562 O   0  0  0  0  0  0  0  0  0  0  0  0
  162.5614  145.7341  132.2839 C   0  0  0  0  0  0  0  0  0  0  0  0
  163.7389  144.8415  132.5686 C   0  0  0  0  0  0  0  0  0  0  0  0
  163.2688  145.3790  130.0190 C   0  0  0  0  0  0  0  0  0  0  0  0
  163.4709  148.7387  129.3906 C   0  0  0  0  0  0  0  0  0  0  0  0
  163.3180  148.2641  128.0952 C   0  0  0  0  0  0  0  0  0  0  0  0
  164.2705  148.3687  126.9953 C   0  0  0  0  0  0  0  0  0  0  0  0
  165.0435  147.3993  126.4261 C   0  0  0  0  0  0  0  0  0  0  0  0
  165.7237  148.0074  125.3962 N   0  0  0  0  0  0  0  0  0  0  0  0
  165.4454  149.2800  125.2720 C   0  0  0  0  0  0  0  0  0  0  0  0
  165.8337  150.3111  124.4425 C   0  0  0  0  0  0  0  0  0  0  0  0
  165.3352  151.5776  124.5853 C   0  0  0  0  0  0  0  0  0  0  0  0
  164.4036  151.8672  125.5925 C   0  0  0  0  0  0  0  0  0  0  0  0
  164.0192  150.8308  126.4188 C   0  0  0  0  0  0  0  0  0  0  0  0
  164.5303  149.5573  126.2631 C   0  0  0  0  0  0  0  0  0  0  0  0
  164.7680  145.1777  125.5162 C   0  0  0  0  0  0  0  0  0  0  0  0
  163.7638  144.4189  125.4957 O   0  0  0  0  0  0  0  0  0  0  0  0
  165.4907  145.2673  124.3719 O   0  0  0  0  0  0  0  0  0  0  0  0
  166.4161  144.3334  123.8659 C   0  0  0  0  0  0  0  0  0  0  0  0
  170.7923  145.2277  127.4931 N   0  0  0  0  0  0  0  0  0  0  0  0
  171.4726  144.0117  127.3551 C   0  0  0  0  0  0  0  0  0  0  0  0
  171.0777  142.9842  126.7668 O   0  0  0  0  0  0  0  0  0  0  0  0
  171.0805  146.6204  127.7120 C   0  0  1  0  0  0  0  0  0  0  0  0
  172.4505  147.1124  127.6122 C   0  0  2  0  0  0  0  0  0  0  0  0
  172.3133  148.5704  127.6622 O   0  0  0  0  0  0  0  0  0  0  0  0
  173.1006  146.9129  126.2700 C   0  0  2  0  0  0  0  0  0  0  0  0
  174.1614  147.8912  126.2053 O   0  0  0  0  0  0  0  0  0  0  0  0
  174.7203  148.5063  127.2852 C   0  0  0  0  0  0  0  0  0  0  0  0
  174.9760  149.9661  127.3913 C   0  0  0  0  0  0  0  0  0  0  0  0
  175.0519  147.8064  128.2746 O   0  0  0  0  0  0  0  0  0  0  0  0
  172.1638  147.0442  125.1125 C   0  0  1  0  0  0  0  0  0  0  0  0
  172.3539  145.8123  124.1828 C   0  0  0  0  0  0  0  0  0  0  0  0
  172.6978  146.1910  122.7864 C   0  0  0  0  0  0  0  0  0  0  0  0
  172.7199  148.1344  124.2679 C   0  0  0  0  0  0  0  0  0  0  0  0
  172.0400  148.9200  123.4678 C   0  0  0  0  0  0  0  0  0  0  0  0
  170.5659  148.6863  123.4102 C   0  0  0  0  0  0  0  0  0  0  0  0
  173.2511  146.8542  128.7959 C   0  0  0  0  0  0  0  0  0  0  0  0
  172.9744  147.4179  129.9343 O   0  0  0  0  0  0  0  0  0  0  0  0
  174.3303  146.0276  128.8432 O   0  0  0  0  0  0  0  0  0  0  0  0
  174.3764  144.6925  128.4047 C   0  0  0  0  0  0  0  0  0  0  0  0
  1  2  1  6
  2  3  1  0
  3  4  1  0
  5  4  1  1
  5  6  1  0
  6  7  2  0
  7  8  1  0
  8  9  2  0
  9 10  1  0
 10 11  1  0
  9 12  1  0
 12 13  2  0
 12 14  1  0
 14 15  1  0
 16 15  1  6
 16 17  1  0
 17 18  1  0
 18 19  1  1
 19 20  1  0
 20 21  1  6
 20 22  1  0
 22 23  1  0
 20 24  1  0
 18 25  1  0
 25 26  1  0
 26 27  1  0
 27 28  2  0
 28 29  1  0
 29 30  1  0
 30 31  2  0
 31 32  1  0
 32 33  2  0
 33 34  1  0
 34 35  2  0
 14 36  1  6
 36 37  2  0
 36 38  1  0
 38 39  1  0
  7 40  1  0
 40 41  1  0
 41 42  2  0
 43 40  1  6
 43 44  1  0
 44 45  1  1
 44 46  1  0
 46 47  1  6
 47 48  1  0
 48 49  1  0
 48 50  2  0
 46 51  1  0
 51 52  1  6
 52 53  1  0
 51 54  1  0
 54 55  2  0
 55 56  1  0
 44 57  1  0
 57 58  2  0
 57 59  1  0
 59 60  1  0
  5  1  1  0
 43  5  1  0
 51  1  1  0
 56  2  1  0
 13  6  1  0
 28 14  1  0
 35 30  1  0
 24 16  1  0
 35 27  1  0
M  END
$$$$
