
     RDKit          3D

 60 68  0  0  0  0  0  0  0  0999 V2000
  159.2751  193.8004  158.2846 C   0  0  2  0  0  0  0  0  0  0  0  0
  158.8033  192.6221  159.0007 N   0  0  0  0  0  0  0  0  0  0  0  0
  157.3601  192.6932  158.9793 C   0  0  0  0  0  0  0  0  0  0  0  0
  157.1421  194.1489  159.3016 C   0  0  0  0  0  0  0  0  0  0  0  0
  158.3994  194.8470  158.8699 C   0  0  1  0  0  0  0  0  0  0  0  0
  159.0034  195.5516  160.0346 C   0  0  0  0  0  0  0  0  0  0  0  0
  159.5809  196.7070  159.5850 C   0  0  0  0  0  0  0  0  0  0  0  0
  160.1837  197.5994  160.4404 C   0  0  0  0  0  0  0  0  0  0  0  0
  160.2353  197.3647  161.7969 C   0  0  0  0  0  0  0  0  0  0  0  0
  160.8447  198.2718  162.6396 O   0  0  0  0  0  0  0  0  0  0  0  0
  160.6423  199.6542  162.4551 C   0  0  0  0  0  0  0  0  0  0  0  0
  159.6633  196.1983  162.2971 C   0  0  0  0  0  0  0  0  0  0  0  0
  159.0577  195.3193  161.3952 C   0  0  0  0  0  0  0  0  0  0  0  0
  159.6485  195.8532  163.7545 C   0  0  1  0  0  0  0  0  0  0  0  0
  159.6384  197.1220  164.4143 C   0  0  0  0  0  0  0  0  0  0  0  0
  158.6182  198.1925  164.4906 C   0  0  1  0  0  0  0  0  0  0  0  0
  157.4181  197.7952  163.9742 C   0  0  0  0  0  0  0  0  0  0  0  0
  156.0026  197.9674  164.6694 N   0  0  0  0  0  0  0  0  0  0  0  0
  156.2966  199.2578  165.4677 C   0  0  0  0  0  0  0  0  0  0  0  0
  157.4599  199.3733  166.2394 C   0  0  2  0  0  0  0  0  0  0  0  0
  157.4156  198.8685  167.5652 O   0  0  0  0  0  0  0  0  0  0  0  0
  157.4987  200.9084  166.5195 C   0  0  0  0  0  0  0  0  0  0  0  0
  156.1527  201.4509  166.1215 C   0  0  0  0  0  0  0  0  0  0  0  0
  158.8012  199.0640  165.7083 C   0  0  0  0  0  0  0  0  0  0  0  0
  156.1276  196.9276  165.8131 C   0  0  0  0  0  0  0  0  0  0  0  0
  157.1671  196.0098  165.8774 C   0  0  0  0  0  0  0  0  0  0  0  0
  157.4951  194.9735  164.9046 C   0  0  0  0  0  0  0  0  0  0  0  0
  158.5347  194.9131  164.0232 C   0  0  0  0  0  0  0  0  0  0  0  0
  158.4156  193.7067  163.3724 N   0  0  0  0  0  0  0  0  0  0  0  0
  157.3852  193.0041  163.7688 C   0  0  0  0  0  0  0  0  0  0  0  0
  156.8304  191.7809  163.4559 C   0  0  0  0  0  0  0  0  0  0  0  0
  155.7024  191.3205  164.0793 C   0  0  0  0  0  0  0  0  0  0  0  0
  155.0698  192.0896  165.0667 C   0  0  0  0  0  0  0  0  0  0  0  0
  155.6305  193.3123  165.3750 C   0  0  0  0  0  0  0  0  0  0  0  0
  156.7694  193.7643  164.7380 C   0  0  0  0  0  0  0  0  0  0  0  0
  160.9385  195.1584  164.0524 C   0  0  0  0  0  0  0  0  0  0  0  0
  161.9870  195.3336  163.3783 O   0  0  0  0  0  0  0  0  0  0  0  0
  161.0154  194.2862  165.0882 O   0  0  0  0  0  0  0  0  0  0  0  0
  161.6621  194.4773  166.3251 C   0  0  0  0  0  0  0  0  0  0  0  0
  159.4433  196.7185  158.1155 N   0  0  0  0  0  0  0  0  0  0  0  0
  160.4403  197.3493  157.3613 C   0  0  0  0  0  0  0  0  0  0  0  0
  161.6763  197.2276  157.4852 O   0  0  0  0  0  0  0  0  0  0  0  0
  158.2084  196.0078  157.9143 C   0  0  1  0  0  0  0  0  0  0  0  0
  157.8180  195.5761  156.5763 C   0  0  2  0  0  0  0  0  0  0  0  0
  156.6600  194.7072  156.8026 O   0  0  0  0  0  0  0  0  0  0  0  0
  158.7808  194.6333  155.9071 C   0  0  2  0  0  0  0  0  0  0  0  0
  158.0062  193.9351  154.9076 O   0  0  0  0  0  0  0  0  0  0  0  0
  157.0549  194.5090  154.1186 C   0  0  0  0  0  0  0  0  0  0  0  0
  157.0881  195.9138  153.6359 C   0  0  0  0  0  0  0  0  0  0  0  0
  156.0682  193.8176  153.7619 O   0  0  0  0  0  0  0  0  0  0  0  0
  159.4524  193.6806  156.8430 C   0  0  1  0  0  0  0  0  0  0  0  0
  160.9832  193.7209  156.5723 C   0  0  0  0  0  0  0  0  0  0  0  0
  161.4223  192.6950  155.5893 C   0  0  0  0  0  0  0  0  0  0  0  0
  159.1055  192.3216  156.3494 C   0  0  0  0  0  0  0  0  0  0  0  0
  159.0311  191.2293  157.0710 C   0  0  0  0  0  0  0  0  0  0  0  0
  159.3247  191.3801  158.5278 C   0  0  0  0  0  0  0  0  0  0  0  0
  157.2356  196.6332  155.7686 C   0  0  0  0  0  0  0  0  0  0  0  0
  155.9793  196.6132  155.4344 O   0  0  0  0  0  0  0  0  0  0  0  0
  157.9100  197.7156  155.2957 O   0  0  0  0  0  0  0  0  0  0  0  0
  157.3826  199.0037  155.0969 C   0  0  0  0  0  0  0  0  0  0  0  0
  1  2  1  6
  2  3  1  0
  3  4  1  0
  5  4  1  1
  5  6  1  0
  6  7  2  0
  7  8  1  0
  8  9  2  0
  9 10  1  0
 10 11  1  0
  9 12  1  0
 12 13  2  0
 12 14  1  0
 14 15  1  0
 16 15  1  1
 16 17  1  0
 17 18  1  0
 18 19  1  1
 19 20  1  0
 20 21  1  1
 20 22  1  0
 22 23  1  0
 20 24  1  0
 18 25  1  0
 25 26  1  0
 26 27  1  0
 27 28  2  0
 28 29  1  0
 29 30  1  0
 30 31  2  0
 31 32  1  0
 32 33  2  0
 33 34  1  0
 34 35  2  0
 14 36  1  1
 36 37  2  0
 36 38  1  0
 38 39  1  0
  7 40  1  0
 40 41  1  0
 41 42  2  0
 43 40  1  6
 43 44  1  0
 44 45  1  1
 44 46  1  0
 46 47  1  6
 47 48  1  0
 48 49  1  0
 48 50  2  0
 46 51  1  0
 51 52  1  1
 52 53  1  0
 51 54  1  0
 54 55  2  0
 55 56  1  0
 44 57  1  0
 57 58  2  0
 57 59  1  0
 59 60  1  0
  5  1  1  0
 43  5  1  0
 51  1  1  0
 56  2  1  0
 13  6  1  0
 28 14  1  0
 35 30  1  0
 24 16  1  0
 35 27  1  0
M  END
$$$$
