
     RDKit          3D

 60 68  0  0  0  0  0  0  0  0999 V2000
  191.4081  160.3761  127.8897 C   0  0  2  0  0  0  0  0  0  0  0  0
  191.4517  161.4292  126.8832 N   0  0  0  0  0  0  0  0  0  0  0  0
  190.0927  161.8984  126.7373 C   0  0  0  0  0  0  0  0  0  0  0  0
  189.3421  160.5921  126.7107 C   0  0  0  0  0  0  0  0  0  0  0  0
  190.2177  159.6125  127.4375 C   0  0  1  0  0  0  0  0  0  0  0  0
  190.5436  158.4718  126.5372 C   0  0  0  0  0  0  0  0  0  0  0  0
  190.6155  157.3348  127.2940 C   0  0  0  0  0  0  0  0  0  0  0  0
  190.8572  156.1024  126.7335 C   0  0  0  0  0  0  0  0  0  0  0  0
  191.0421  155.9592  125.3759 C   0  0  0  0  0  0  0  0  0  0  0  0
  191.2838  154.7143  124.8318 O   0  0  0  0  0  0  0  0  0  0  0  0
  190.9709  153.5507  125.5627 C   0  0  0  0  0  0  0  0  0  0  0  0
  190.9812  157.0915  124.5685 C   0  0  0  0  0  0  0  0  0  0  0  0
  190.7302  158.3245  125.1765 C   0  0  0  0  0  0  0  0  0  0  0  0
  191.1509  157.0469  123.0811 C   0  0  1  0  0  0  0  0  0  0  0  0
  189.9261  156.4816  122.6061 C   0  0  0  0  0  0  0  0  0  0  0  0
  188.5362  156.9919  122.5957 C   0  0  1  0  0  0  0  0  0  0  0  0
  188.4706  158.3089  122.9505 C   0  0  0  0  0  0  0  0  0  0  0  0
  187.6839  159.4450  122.1713 N   0  0  0  0  0  0  0  0  0  0  0  0
  186.5471  158.5754  121.5879 C   0  0  0  0  0  0  0  0  0  0  0  0
  186.8307  157.3669  120.9389 C   0  0  2  0  0  0  0  0  0  0  0  0
  187.1469  157.4278  119.5566 O   0  0  0  0  0  0  0  0  0  0  0  0
  185.4187  156.7042  120.8798 C   0  0  0  0  0  0  0  0  0  0  0  0
  184.5154  157.5426  121.7433 C   0  0  0  0  0  0  0  0  0  0  0  0
  187.6974  156.3299  121.5308 C   0  0  0  0  0  0  0  0  0  0  0  0
  188.5730  159.5809  120.9080 C   0  0  0  0  0  0  0  0  0  0  0  0
  189.8179  158.9758  120.8026 C   0  0  0  0  0  0  0  0  0  0  0  0
  190.9870  159.2021  121.6452 C   0  0  0  0  0  0  0  0  0  0  0  0
  191.5399  158.3910  122.5925 C   0  0  0  0  0  0  0  0  0  0  0  0
  192.6555  159.0491  123.0566 N   0  0  0  0  0  0  0  0  0  0  0  0
  192.8489  160.2089  122.4821 C   0  0  0  0  0  0  0  0  0  0  0  0
  193.7742  161.2274  122.5743 C   0  0  0  0  0  0  0  0  0  0  0  0
  193.6858  162.3534  121.8016 C   0  0  0  0  0  0  0  0  0  0  0  0
  192.6381  162.5062  120.8822 C   0  0  0  0  0  0  0  0  0  0  0  0
  191.7159  161.4832  120.7950 C   0  0  0  0  0  0  0  0  0  0  0  0
  191.8175  160.3521  121.5809 C   0  0  0  0  0  0  0  0  0  0  0  0
  192.2696  156.0963  122.7970 C   0  0  0  0  0  0  0  0  0  0  0  0
  193.4649  156.3227  123.1203 O   0  0  0  0  0  0  0  0  0  0  0  0
  192.0199  154.9275  122.1557 O   0  0  0  0  0  0  0  0  0  0  0  0
  191.6839  154.7474  120.7995 C   0  0  0  0  0  0  0  0  0  0  0  0
  190.4333  157.7377  128.7022 N   0  0  0  0  0  0  0  0  0  0  0  0
  191.0836  156.9933  129.6940 C   0  0  0  0  0  0  0  0  0  0  0  0
  190.6213  156.0381  130.3510 O   0  0  0  0  0  0  0  0  0  0  0  0
  189.5613  158.8766  128.5884 C   0  0  1  0  0  0  0  0  0  0  0  0
  189.3213  159.7371  129.7420 C   0  0  2  0  0  0  0  0  0  0  0  0
  188.5960  160.8844  129.1900 O   0  0  0  0  0  0  0  0  0  0  0  0
  190.5492  160.3964  130.3089 C   0  0  2  0  0  0  0  0  0  0  0  0
  190.0692  161.5530  131.0289 O   0  0  0  0  0  0  0  0  0  0  0  0
  190.0910  161.6908  132.3844 C   0  0  0  0  0  0  0  0  0  0  0  0
  189.2046  160.9584  133.3254 C   0  0  0  0  0  0  0  0  0  0  0  0
  190.9128  162.4911  132.8973 O   0  0  0  0  0  0  0  0  0  0  0  0
  191.5679  160.7747  129.2824 C   0  0  1  0  0  0  0  0  0  0  0  0
  192.9547  160.2458  129.7463 C   0  0  0  0  0  0  0  0  0  0  0  0
  193.9236  161.3380  130.0289 C   0  0  0  0  0  0  0  0  0  0  0  0
  191.7545  162.2431  129.4244 C   0  0  0  0  0  0  0  0  0  0  0  0
  192.1315  163.0724  128.4812 C   0  0  0  0  0  0  0  0  0  0  0  0
  192.3946  162.4701  127.1400 C   0  0  0  0  0  0  0  0  0  0  0  0
  188.3491  159.2008  130.6781 C   0  0  0  0  0  0  0  0  0  0  0  0
  187.0724  159.2809  130.4455 O   0  0  0  0  0  0  0  0  0  0  0  0
  188.6535  158.5796  131.8492 O   0  0  0  0  0  0  0  0  0  0  0  0
  188.1840  158.9338  133.1263 C   0  0  0  0  0  0  0  0  0  0  0  0
  1  2  1  6
  2  3  1  0
  3  4  1  0
  5  4  1  6
  5  6  1  0
  6  7  2  0
  7  8  1  0
  8  9  2  0
  9 10  1  0
 10 11  1  0
  9 12  1  0
 12 13  2  0
 12 14  1  0
 14 15  1  0
 16 15  1  6
 16 17  1  0
 17 18  1  0
 18 19  1  6
 19 20  1  0
 20 21  1  6
 20 22  1  0
 22 23  1  0
 20 24  1  0
 18 25  1  0
 25 26  1  0
 26 27  1  0
 27 28  2  0
 28 29  1  0
 29 30  1  0
 30 31  2  0
 31 32  1  0
 32 33  2  0
 33 34  1  0
 34 35  2  0
 14 36  1  1
 36 37  2  0
 36 38  1  0
 38 39  1  0
  7 40  1  0
 40 41  1  0
 41 42  2  0
 43 40  1  1
 43 44  1  0
 44 45  1  6
 44 46  1  0
 46 47  1  6
 47 48  1  0
 48 49  1  0
 48 50  2  0
 46 51  1  0
 51 52  1  1
 52 53  1  0
 51 54  1  0
 54 55  2  0
 55 56  1  0
 44 57  1  0
 57 58  2  0
 57 59  1  0
 59 60  1  0
  5  1  1  0
 43  5  1  0
 51  1  1  0
 56  2  1  0
 13  6  1  0
 28 14  1  0
 35 30  1  0
 24 16  1  0
 35 27  1  0
M  END
$$$$
