
     RDKit          3D

 60 68  0  0  0  0  0  0  0  0999 V2000
  191.8436  159.1046  120.4574 C   0  0  2  0  0  0  0  0  0  0  0  0
  190.9886  158.2971  121.3182 N   0  0  0  0  0  0  0  0  0  0  0  0
  189.7871  158.0384  120.5580 C   0  0  0  0  0  0  0  0  0  0  0  0
  189.5242  159.4003  119.9693 C   0  0  0  0  0  0  0  0  0  0  0  0
  190.8595  160.0860  119.9349 C   0  0  1  0  0  0  0  0  0  0  0  0
  190.7929  161.3467  120.7249 C   0  0  0  0  0  0  0  0  0  0  0  0
  191.5935  162.2757  120.1190 C   0  0  0  0  0  0  0  0  0  0  0  0
  191.7028  163.5617  120.5938 C   0  0  0  0  0  0  0  0  0  0  0  0
  191.0081  163.9723  121.7103 C   0  0  0  0  0  0  0  0  0  0  0  0
  191.1306  165.2669  122.1719 O   0  0  0  0  0  0  0  0  0  0  0  0
  191.9729  166.1784  121.5043 C   0  0  0  0  0  0  0  0  0  0  0  0
  190.1844  163.0576  122.3606 C   0  0  0  0  0  0  0  0  0  0  0  0
  190.0984  161.7617  121.8445 C   0  0  0  0  0  0  0  0  0  0  0  0
  189.3728  163.4026  123.5711 C   0  0  1  0  0  0  0  0  0  0  0  0
  189.0999  164.7986  123.4231 C   0  0  0  0  0  0  0  0  0  0  0  0
  188.2716  165.5501  122.4527 C   0  0  1  0  0  0  0  0  0  0  0  0
  187.5064  164.7223  121.6820 C   0  0  0  0  0  0  0  0  0  0  0  0
  185.9537  164.8841  121.4000 N   0  0  0  0  0  0  0  0  0  0  0  0
  185.8652  166.4245  121.4913 C   0  0  0  0  0  0  0  0  0  0  0  0
  186.4442  167.1129  122.5650 C   0  0  2  0  0  0  0  0  0  0  0  0
  185.6668  167.2542  123.7441 O   0  0  0  0  0  0  0  0  0  0  0  0
  186.4328  168.5820  122.0378 C   0  0  0  0  0  0  0  0  0  0  0  0
  185.0027  168.9047  121.6987 C   0  0  0  0  0  0  0  0  0  0  0  0
  187.8376  166.8891  122.9954 C   0  0  0  0  0  0  0  0  0  0  0  0
  185.3795  164.5143  122.7923 C   0  0  0  0  0  0  0  0  0  0  0  0
  186.1598  163.9623  123.7990 C   0  0  0  0  0  0  0  0  0  0  0  0
  186.8835  162.6962  123.7654 C   0  0  0  0  0  0  0  0  0  0  0  0
  188.2256  162.4698  123.6731 C   0  0  0  0  0  0  0  0  0  0  0  0
  188.3890  161.1049  123.7335 N   0  0  0  0  0  0  0  0  0  0  0  0
  187.2605  160.4532  123.8529 C   0  0  0  0  0  0  0  0  0  0  0  0
  186.8752  159.1326  123.9498 C   0  0  0  0  0  0  0  0  0  0  0  0
  185.5601  158.7723  124.0664 C   0  0  0  0  0  0  0  0  0  0  0  0
  184.5534  159.7482  124.0904 C   0  0  0  0  0  0  0  0  0  0  0  0
  184.9460  161.0676  123.9933 C   0  0  0  0  0  0  0  0  0  0  0  0
  186.2771  161.4169  123.8764 C   0  0  0  0  0  0  0  0  0  0  0  0
  190.2555  163.2014  124.7612 C   0  0  0  0  0  0  0  0  0  0  0  0
  190.0436  162.3206  125.6351 O   0  0  0  0  0  0  0  0  0  0  0  0
  191.3418  163.9934  124.9412 O   0  0  0  0  0  0  0  0  0  0  0  0
  192.6712  163.7270  124.5585 C   0  0  0  0  0  0  0  0  0  0  0  0
  192.2616  161.6023  118.9883 N   0  0  0  0  0  0  0  0  0  0  0  0
  193.5450  162.0300  118.6268 C   0  0  0  0  0  0  0  0  0  0  0  0
  193.9837  163.1985  118.6289 O   0  0  0  0  0  0  0  0  0  0  0  0
  191.2819  160.6289  118.5844 C   0  0  1  0  0  0  0  0  0  0  0  0
  191.6384  159.5744  117.6411 C   0  0  2  0  0  0  0  0  0  0  0  0
  190.4855  158.6702  117.6602 O   0  0  0  0  0  0  0  0  0  0  0  0
  192.7474  158.6646  118.0952 C   0  0  2  0  0  0  0  0  0  0  0  0
  192.5823  157.4461  117.3371 O   0  0  0  0  0  0  0  0  0  0  0  0
  191.9119  157.3494  116.1548 C   0  0  0  0  0  0  0  0  0  0  0  0
  192.5125  156.8943  114.8742 C   0  0  0  0  0  0  0  0  0  0  0  0
  190.6958  157.6638  116.1223 O   0  0  0  0  0  0  0  0  0  0  0  0
  192.7542  158.3974  119.5660 C   0  0  1  0  0  0  0  0  0  0  0  0
  194.1924  158.6417  120.1044 C   0  0  0  0  0  0  0  0  0  0  0  0
  195.0353  157.4169  120.0747 C   0  0  0  0  0  0  0  0  0  0  0  0
  192.6381  156.9216  119.7062 C   0  0  0  0  0  0  0  0  0  0  0  0
  192.1209  156.2770  120.7243 C   0  0  0  0  0  0  0  0  0  0  0  0
  191.6015  157.1193  121.8430 C   0  0  0  0  0  0  0  0  0  0  0  0
  191.6452  160.0086  116.2554 C   0  0  0  0  0  0  0  0  0  0  0  0
  190.5375  160.2321  115.6124 O   0  0  0  0  0  0  0  0  0  0  0  0
  192.7627  160.2232  115.5102 O   0  0  0  0  0  0  0  0  0  0  0  0
  192.8645  161.0579  114.3833 C   0  0  0  0  0  0  0  0  0  0  0  0
  1  2  1  6
  2  3  1  0
  3  4  1  0
  5  4  1  6
  5  6  1  0
  6  7  2  0
  7  8  1  0
  8  9  2  0
  9 10  1  0
 10 11  1  0
  9 12  1  0
 12 13  2  0
 12 14  1  0
 14 15  1  0
 16 15  1  1
 16 17  1  0
 17 18  1  0
 18 19  1  1
 19 20  1  0
 20 21  1  1
 20 22  1  0
 22 23  1  0
 20 24  1  0
 18 25  1  0
 25 26  1  0
 26 27  1  0
 27 28  2  0
 28 29  1  0
 29 30  1  0
 30 31  2  0
 31 32  1  0
 32 33  2  0
 33 34  1  0
 34 35  2  0
 14 36  1  1
 36 37  2  0
 36 38  1  0
 38 39  1  0
  7 40  1  0
 40 41  1  0
 41 42  2  0
 43 40  1  1
 43 44  1  0
 44 45  1  6
 44 46  1  0
 46 47  1  6
 47 48  1  0
 48 49  1  0
 48 50  2  0
 46 51  1  0
 51 52  1  1
 52 53  1  0
 51 54  1  0
 54 55  2  0
 55 56  1  0
 44 57  1  0
 57 58  2  0
 57 59  1  0
 59 60  1  0
  5  1  1  0
 43  5  1  0
 51  1  1  0
 56  2  1  0
 13  6  1  0
 28 14  1  0
 35 30  1  0
 24 16  1  0
 35 27  1  0
M  END
$$$$
