
     RDKit          3D

 39 45  0  0  0  0  0  0  0  0999 V2000
  171.0090  141.4238  117.7316 C   0  0  0  0  0  0  0  0  0  0  0  0
  171.3627  142.6959  118.2858 N   0  0  0  0  0  0  0  0  0  0  0  0
  170.2455  143.5765  118.2077 C   0  0  0  0  0  0  0  0  0  0  0  0
  170.4892  145.0200  118.4055 C   0  0  0  0  0  0  0  0  0  0  0  0
  171.8681  145.5226  118.3421 C   0  0  0  0  0  0  0  0  0  0  0  0
  172.1929  146.3761  117.0942 C   0  0  0  0  0  0  0  0  0  0  0  0
  173.4842  146.8503  117.5642 O   0  0  0  0  0  0  0  0  0  0  0  0
  173.2480  147.2798  118.8992 C   0  0  0  0  0  0  0  0  0  0  0  0
  173.8442  148.2834  119.6614 C   0  0  0  0  0  0  0  0  0  0  0  0
  173.4280  148.5325  120.9629 C   0  0  0  0  0  0  0  0  0  0  0  0
  172.3861  147.7295  121.4598 C   0  0  0  0  0  0  0  0  0  0  0  0
  171.8342  146.7594  120.6901 C   0  0  0  0  0  0  0  0  0  0  0  0
  172.2344  146.4933  119.3975 C   0  0  0  0  0  0  0  0  0  0  0  0
  172.0871  148.2815  122.7948 N   0  0  0  0  0  0  0  0  0  0  0  0
  173.3924  148.7017  123.2928 C   0  0  0  0  0  0  0  0  0  0  0  0
  173.8546  149.4890  122.0347 C   0  0  0  0  0  0  0  0  0  0  0  0
  170.7833  148.2748  123.2631 C   0  0  0  0  0  0  0  0  0  0  0  0
  169.8876  147.6775  122.5169 O   0  0  0  0  0  0  0  0  0  0  0  0
  170.2600  148.8616  124.4758 C   0  0  0  0  0  0  0  0  0  0  0  0
  170.5063  148.2110  125.7162 C   0  0  0  0  0  0  0  0  0  0  0  0
  169.9369  148.6607  126.8956 C   0  0  0  0  0  0  0  0  0  0  0  0
  169.1136  149.7555  126.9128 C   0  0  0  0  0  0  0  0  0  0  0  0
  168.8920  150.3813  125.6916 C   0  0  0  0  0  0  0  0  0  0  0  0
  169.4405  149.9599  124.4969 C   0  0  0  0  0  0  0  0  0  0  0  0
  168.4124  150.2236  128.1270 C   0  0  0  0  0  0  0  0  0  0  0  0
  167.4384  149.3412  128.6313 C   0  0  0  0  0  0  0  0  0  0  0  0
  167.1544  148.0186  128.0215 C   0  0  0  0  0  0  0  0  0  0  0  0
  166.7061  149.6672  129.7444 C   0  0  0  0  0  0  0  0  0  0  0  0
  166.9378  150.8959  130.3829 C   0  0  0  0  0  0  0  0  0  0  0  0
  167.8900  151.7542  129.8872 C   0  0  0  0  0  0  0  0  0  0  0  0
  168.6290  151.4102  128.7527 C   0  0  0  0  0  0  0  0  0  0  0  0
  166.0992  151.1481  131.5491 C   0  0  0  0  0  0  0  0  0  0  0  0
  165.3374  150.3350  132.2944 N   0  0  0  0  0  0  0  0  0  0  0  0
  164.7434  151.0594  133.2252 O   0  0  0  0  0  0  0  0  0  0  0  0
  165.0818  152.3214  133.1310 C   0  0  0  0  0  0  0  0  0  0  0  0
  164.6495  153.4835  133.9767 C   0  0  0  0  0  0  0  0  0  0  0  0
  165.9257  152.3852  132.0911 N   0  0  0  0  0  0  0  0  0  0  0  0
  172.9423  144.4390  118.3133 C   0  0  0  0  0  0  0  0  0  0  0  0
  172.4533  143.2565  117.4968 C   0  0  0  0  0  0  0  0  0  0  0  0
  1  2  1  0
  2  3  1  0
  3  4  1  0
  4  5  1  0
  5  6  1  0
  6  7  1  0
  7  8  1  0
  8  9  2  0
  9 10  1  0
 10 11  2  0
 11 12  1  0
 12 13  2  0
 11 14  1  0
 14 15  1  0
 15 16  1  0
 14 17  1  0
 17 18  2  0
 17 19  1  0
 19 20  2  0
 20 21  1  0
 21 22  2  0
 22 23  1  0
 23 24  2  0
 22 25  1  0
 25 26  2  0
 26 27  1  0
 26 28  1  0
 28 29  2  0
 29 30  1  0
 30 31  2  0
 29 32  1  0
 32 33  2  0
 33 34  1  0
 34 35  1  0
 35 36  1  0
 35 37  2  0
  5 38  1  0
 38 39  1  0
 39  2  1  0
 13  5  1  0
 24 19  1  0
 31 25  1  0
 37 32  1  0
 13  8  1  0
 16 10  1  0
M  END
$$$$
