
     RDKit          3D

 39 45  0  0  0  0  0  0  0  0999 V2000
  148.1039  160.8967  134.5637 C   0  0  0  0  0  0  0  0  0  0  0  0
  148.0013  161.4687  133.2550 N   0  0  0  0  0  0  0  0  0  0  0  0
  146.9196  162.3953  133.2238 C   0  0  0  0  0  0  0  0  0  0  0  0
  146.4278  162.8380  131.9030 C   0  0  0  0  0  0  0  0  0  0  0  0
  146.8258  162.0830  130.7075 C   0  0  0  0  0  0  0  0  0  0  0  0
  145.6926  161.2626  130.0487 C   0  0  0  0  0  0  0  0  0  0  0  0
  146.4260  160.9322  128.8378 O   0  0  0  0  0  0  0  0  0  0  0  0
  146.9960  162.1638  128.4126 C   0  0  0  0  0  0  0  0  0  0  0  0
  147.2994  162.6458  127.1401 C   0  0  0  0  0  0  0  0  0  0  0  0
  147.8486  163.9100  126.9689 C   0  0  0  0  0  0  0  0  0  0  0  0
  148.0756  164.6653  128.1330 C   0  0  0  0  0  0  0  0  0  0  0  0
  147.7723  164.1606  129.3542 C   0  0  0  0  0  0  0  0  0  0  0  0
  147.2298  162.9075  129.5468 C   0  0  0  0  0  0  0  0  0  0  0  0
  148.5499  165.9752  127.6473 N   0  0  0  0  0  0  0  0  0  0  0  0
  149.3377  165.6387  126.4664 C   0  0  0  0  0  0  0  0  0  0  0  0
  148.3020  164.7036  125.7814 C   0  0  0  0  0  0  0  0  0  0  0  0
  148.2091  167.1267  128.3380 C   0  0  0  0  0  0  0  0  0  0  0  0
  148.3887  168.2662  127.7175 O   0  0  0  0  0  0  0  0  0  0  0  0
  147.6888  167.2495  129.6808 C   0  0  0  0  0  0  0  0  0  0  0  0
  146.3001  167.0376  129.9021 C   0  0  0  0  0  0  0  0  0  0  0  0
  145.7233  167.2519  131.1426 C   0  0  0  0  0  0  0  0  0  0  0  0
  146.4721  167.6754  132.2087 C   0  0  0  0  0  0  0  0  0  0  0  0
  147.8282  167.8693  131.9733 C   0  0  0  0  0  0  0  0  0  0  0  0
  148.4365  167.6678  130.7506 C   0  0  0  0  0  0  0  0  0  0  0  0
  145.8916  168.0021  133.5283 C   0  0  0  0  0  0  0  0  0  0  0  0
  144.9433  169.0425  133.5221 C   0  0  0  0  0  0  0  0  0  0  0  0
  144.5197  169.7410  132.2835 C   0  0  0  0  0  0  0  0  0  0  0  0
  144.3439  169.4516  134.6861 C   0  0  0  0  0  0  0  0  0  0  0  0
  144.6843  168.8196  135.8926 C   0  0  0  0  0  0  0  0  0  0  0  0
  145.6105  167.8041  135.8939 C   0  0  0  0  0  0  0  0  0  0  0  0
  146.2139  167.3969  134.7015 C   0  0  0  0  0  0  0  0  0  0  0  0
  143.9978  169.3374  137.0706 C   0  0  0  0  0  0  0  0  0  0  0  0
  143.7265  168.7848  138.2614 N   0  0  0  0  0  0  0  0  0  0  0  0
  143.0468  169.6595  138.9803 O   0  0  0  0  0  0  0  0  0  0  0  0
  142.8576  170.7730  138.3167 C   0  0  0  0  0  0  0  0  0  0  0  0
  142.1448  172.0220  138.7461 C   0  0  0  0  0  0  0  0  0  0  0  0
  143.4467  170.5812  137.1277 N   0  0  0  0  0  0  0  0  0  0  0  0
  147.9181  161.0435  130.9427 C   0  0  0  0  0  0  0  0  0  0  0  0
  147.7253  160.3989  132.3035 C   0  0  0  0  0  0  0  0  0  0  0  0
  1  2  1  0
  2  3  1  0
  3  4  1  0
  4  5  1  0
  5  6  1  0
  6  7  1  0
  7  8  1  0
  8  9  2  0
  9 10  1  0
 10 11  2  0
 11 12  1  0
 12 13  2  0
 11 14  1  0
 14 15  1  0
 15 16  1  0
 14 17  1  0
 17 18  2  0
 17 19  1  0
 19 20  2  0
 20 21  1  0
 21 22  2  0
 22 23  1  0
 23 24  2  0
 22 25  1  0
 25 26  2  0
 26 27  1  0
 26 28  1  0
 28 29  2  0
 29 30  1  0
 30 31  2  0
 29 32  1  0
 32 33  2  0
 33 34  1  0
 34 35  1  0
 35 36  1  0
 35 37  2  0
  5 38  1  0
 38 39  1  0
 39  2  1  0
 13  5  1  0
 24 19  1  0
 31 25  1  0
 37 32  1  0
 13  8  1  0
 16 10  1  0
M  END
$$$$
