
     RDKit          3D

 39 45  0  0  0  0  0  0  0  0999 V2000
  197.3095  185.5597  135.2117 C   0  0  0  0  0  0  0  0  0  0  0  0
  196.7667  184.2746  134.8886 N   0  0  0  0  0  0  0  0  0  0  0  0
  195.3498  184.3061  135.0335 C   0  0  0  0  0  0  0  0  0  0  0  0
  194.6320  183.0158  135.0816 C   0  0  0  0  0  0  0  0  0  0  0  0
  195.3993  181.7844  135.3107 C   0  0  0  0  0  0  0  0  0  0  0  0
  195.1834  181.1312  136.6956 C   0  0  0  0  0  0  0  0  0  0  0  0
  195.8738  179.8891  136.3890 O   0  0  0  0  0  0  0  0  0  0  0  0
  195.3561  179.4895  135.1261 C   0  0  0  0  0  0  0  0  0  0  0  0
  195.1596  178.2259  134.5710 C   0  0  0  0  0  0  0  0  0  0  0  0
  194.6152  178.0819  133.3013 C   0  0  0  0  0  0  0  0  0  0  0  0
  194.2766  179.2638  132.6191 C   0  0  0  0  0  0  0  0  0  0  0  0
  194.4873  180.4755  133.1897 C   0  0  0  0  0  0  0  0  0  0  0  0
  195.0292  180.6411  134.4469 C   0  0  0  0  0  0  0  0  0  0  0  0
  193.6336  178.8094  131.3715 N   0  0  0  0  0  0  0  0  0  0  0  0
  194.3671  177.5955  131.0297 C   0  0  0  0  0  0  0  0  0  0  0  0
  194.3003  176.9093  132.4229 C   0  0  0  0  0  0  0  0  0  0  0  0
  192.5962  179.5482  130.8264 C   0  0  0  0  0  0  0  0  0  0  0  0
  192.4466  180.7738  131.2637 O   0  0  0  0  0  0  0  0  0  0  0  0
  191.6259  179.1414  129.8354 C   0  0  0  0  0  0  0  0  0  0  0  0
  191.4524  179.9431  128.6737 C   0  0  0  0  0  0  0  0  0  0  0  0
  190.4616  179.6691  127.7459 C   0  0  0  0  0  0  0  0  0  0  0  0
  189.6093  178.6094  127.9113 C   0  0  0  0  0  0  0  0  0  0  0  0
  189.8006  177.8342  129.0491 C   0  0  0  0  0  0  0  0  0  0  0  0
  190.7754  178.0787  129.9954 C   0  0  0  0  0  0  0  0  0  0  0  0
  188.4822  178.3254  126.9981 C   0  0  0  0  0  0  0  0  0  0  0  0
  188.5069  177.0525  126.3974 C   0  0  0  0  0  0  0  0  0  0  0  0
  189.5596  176.0462  126.6817 C   0  0  0  0  0  0  0  0  0  0  0  0
  187.5258  176.6737  125.5167 C   0  0  0  0  0  0  0  0  0  0  0  0
  186.4881  177.5707  125.2176 C   0  0  0  0  0  0  0  0  0  0  0  0
  186.4678  178.8125  125.8067 C   0  0  0  0  0  0  0  0  0  0  0  0
  187.4732  179.1861  126.7019 C   0  0  0  0  0  0  0  0  0  0  0  0
  185.5042  177.0732  124.2630 C   0  0  0  0  0  0  0  0  0  0  0  0
  184.5159  176.1758  124.3845 N   0  0  0  0  0  0  0  0  0  0  0  0
  183.9240  176.0479  123.2110 O   0  0  0  0  0  0  0  0  0  0  0  0
  184.4767  176.8266  122.3143 C   0  0  0  0  0  0  0  0  0  0  0  0
  184.1249  177.0016  120.8658 C   0  0  0  0  0  0  0  0  0  0  0  0
  185.4604  177.4685  122.9607 N   0  0  0  0  0  0  0  0  0  0  0  0
  196.9143  181.9526  135.2363 C   0  0  0  0  0  0  0  0  0  0  0  0
  197.3086  183.2957  135.8236 C   0  0  0  0  0  0  0  0  0  0  0  0
  1  2  1  0
  2  3  1  0
  3  4  1  0
  4  5  1  0
  5  6  1  0
  6  7  1  0
  7  8  1  0
  8  9  2  0
  9 10  1  0
 10 11  2  0
 11 12  1  0
 12 13  2  0
 11 14  1  0
 14 15  1  0
 15 16  1  0
 14 17  1  0
 17 18  2  0
 17 19  1  0
 19 20  2  0
 20 21  1  0
 21 22  2  0
 22 23  1  0
 23 24  2  0
 22 25  1  0
 25 26  2  0
 26 27  1  0
 26 28  1  0
 28 29  2  0
 29 30  1  0
 30 31  2  0
 29 32  1  0
 32 33  2  0
 33 34  1  0
 34 35  1  0
 35 36  1  0
 35 37  2  0
  5 38  1  0
 38 39  1  0
 39  2  1  0
 13  5  1  0
 24 19  1  0
 31 25  1  0
 37 32  1  0
 13  8  1  0
 16 10  1  0
M  END
$$$$
