
     RDKit          3D

 39 45  0  0  0  0  0  0  0  0999 V2000
  124.4201  150.2146  147.5151 C   0  0  0  0  0  0  0  0  0  0  0  0
  124.3419  150.7709  148.8322 N   0  0  0  0  0  0  0  0  0  0  0  0
  123.0091  151.2049  149.0873 C   0  0  0  0  0  0  0  0  0  0  0  0
  122.7845  152.1059  150.2363 C   0  0  0  0  0  0  0  0  0  0  0  0
  123.9395  152.7722  150.8526 C   0  0  0  0  0  0  0  0  0  0  0  0
  124.0227  154.2957  150.6006 C   0  0  0  0  0  0  0  0  0  0  0  0
  125.0861  154.5519  151.5582 O   0  0  0  0  0  0  0  0  0  0  0  0
  124.6846  153.8655  152.7372 C   0  0  0  0  0  0  0  0  0  0  0  0
  124.9135  154.1409  154.0846 C   0  0  0  0  0  0  0  0  0  0  0  0
  124.3983  153.3180  155.0778 C   0  0  0  0  0  0  0  0  0  0  0  0
  123.6428  152.2102  154.6545 C   0  0  0  0  0  0  0  0  0  0  0  0
  123.4459  151.9719  153.3344 C   0  0  0  0  0  0  0  0  0  0  0  0
  123.9507  152.7738  152.3325 C   0  0  0  0  0  0  0  0  0  0  0  0
  123.1435  151.5951  155.8990 N   0  0  0  0  0  0  0  0  0  0  0  0
  124.2361  151.7976  156.8444 C   0  0  0  0  0  0  0  0  0  0  0  0
  124.4708  153.3104  156.5746 C   0  0  0  0  0  0  0  0  0  0  0  0
  121.8922  151.0010  155.9160 C   0  0  0  0  0  0  0  0  0  0  0  0
  121.0443  151.4283  156.8183 O   0  0  0  0  0  0  0  0  0  0  0  0
  121.3876  149.9422  155.0714 C   0  0  0  0  0  0  0  0  0  0  0  0
  120.8259  150.2785  153.8089 C   0  0  0  0  0  0  0  0  0  0  0  0
  120.2241  149.3239  153.0063 C   0  0  0  0  0  0  0  0  0  0  0  0
  120.1493  148.0135  153.3985 C   0  0  0  0  0  0  0  0  0  0  0  0
  120.7109  147.7043  154.6318 C   0  0  0  0  0  0  0  0  0  0  0  0
  121.3162  148.6294  155.4585 C   0  0  0  0  0  0  0  0  0  0  0  0
  119.4425  146.9737  152.6209 C   0  0  0  0  0  0  0  0  0  0  0  0
  118.0404  146.9847  152.7462 C   0  0  0  0  0  0  0  0  0  0  0  0
  117.3109  147.9852  153.5638 C   0  0  0  0  0  0  0  0  0  0  0  0
  117.2705  146.0598  152.0878 C   0  0  0  0  0  0  0  0  0  0  0  0
  117.8955  145.0958  151.2809 C   0  0  0  0  0  0  0  0  0  0  0  0
  119.2647  145.0891  151.1613 C   0  0  0  0  0  0  0  0  0  0  0  0
  120.0374  146.0366  151.8372 C   0  0  0  0  0  0  0  0  0  0  0  0
  116.9872  144.1550  150.6353 C   0  0  0  0  0  0  0  0  0  0  0  0
  116.1344  143.2499  151.1359 N   0  0  0  0  0  0  0  0  0  0  0  0
  115.5619  142.6166  150.1284 O   0  0  0  0  0  0  0  0  0  0  0  0
  115.9971  143.0661  148.9776 C   0  0  0  0  0  0  0  0  0  0  0  0
  115.6190  142.6385  147.5895 C   0  0  0  0  0  0  0  0  0  0  0  0
  116.8839  144.0240  149.2838 N   0  0  0  0  0  0  0  0  0  0  0  0
  125.2981  152.2650  150.3774 C   0  0  0  0  0  0  0  0  0  0  0  0
  125.2286  151.9265  148.8993 C   0  0  0  0  0  0  0  0  0  0  0  0
  1  2  1  0
  2  3  1  0
  3  4  1  0
  4  5  1  0
  5  6  1  0
  6  7  1  0
  7  8  1  0
  8  9  2  0
  9 10  1  0
 10 11  2  0
 11 12  1  0
 12 13  2  0
 11 14  1  0
 14 15  1  0
 15 16  1  0
 14 17  1  0
 17 18  2  0
 17 19  1  0
 19 20  2  0
 20 21  1  0
 21 22  2  0
 22 23  1  0
 23 24  2  0
 22 25  1  0
 25 26  2  0
 26 27  1  0
 26 28  1  0
 28 29  2  0
 29 30  1  0
 30 31  2  0
 29 32  1  0
 32 33  2  0
 33 34  1  0
 34 35  1  0
 35 36  1  0
 35 37  2  0
  5 38  1  0
 38 39  1  0
 39  2  1  0
 13  5  1  0
 24 19  1  0
 31 25  1  0
 37 32  1  0
 13  8  1  0
 16 10  1  0
M  END
$$$$
