
     RDKit          3D

 39 45  0  0  0  0  0  0  0  0999 V2000
  192.0067  174.5340  122.6010 C   0  0  0  0  0  0  0  0  0  0  0  0
  191.5049  175.2516  123.7340 N   0  0  0  0  0  0  0  0  0  0  0  0
  191.7188  174.4853  124.9158 C   0  0  0  0  0  0  0  0  0  0  0  0
  190.9827  174.8771  126.1353 C   0  0  0  0  0  0  0  0  0  0  0  0
  189.8431  175.7958  126.0124 C   0  0  0  0  0  0  0  0  0  0  0  0
  188.4586  175.1515  126.2566 C   0  0  0  0  0  0  0  0  0  0  0  0
  187.7143  176.3994  126.3020 O   0  0  0  0  0  0  0  0  0  0  0  0
  188.4695  177.2400  127.1656 C   0  0  0  0  0  0  0  0  0  0  0  0
  188.0763  178.2594  128.0316 C   0  0  0  0  0  0  0  0  0  0  0  0
  189.0108  178.9429  128.7988 C   0  0  0  0  0  0  0  0  0  0  0  0
  190.3544  178.5534  128.6567 C   0  0  0  0  0  0  0  0  0  0  0  0
  190.6991  177.5605  127.8003 C   0  0  0  0  0  0  0  0  0  0  0  0
  189.7884  176.8716  127.0273 C   0  0  0  0  0  0  0  0  0  0  0  0
  191.0886  179.3582  129.6515 N   0  0  0  0  0  0  0  0  0  0  0  0
  190.3792  180.6331  129.6528 C   0  0  0  0  0  0  0  0  0  0  0  0
  188.9357  180.0710  129.7824 C   0  0  0  0  0  0  0  0  0  0  0  0
  192.1874  178.8148  130.2969 C   0  0  0  0  0  0  0  0  0  0  0  0
  192.7651  177.7886  129.7234 O   0  0  0  0  0  0  0  0  0  0  0  0
  192.7867  179.2194  131.5484 C   0  0  0  0  0  0  0  0  0  0  0  0
  194.1419  179.6501  131.5541 C   0  0  0  0  0  0  0  0  0  0  0  0
  194.8047  179.9408  132.7347 C   0  0  0  0  0  0  0  0  0  0  0  0
  194.1764  179.8265  133.9467 C   0  0  0  0  0  0  0  0  0  0  0  0
  192.8501  179.4114  133.9186 C   0  0  0  0  0  0  0  0  0  0  0  0
  192.1590  179.1114  132.7619 C   0  0  0  0  0  0  0  0  0  0  0  0
  194.8623  180.0398  135.2386 C   0  0  0  0  0  0  0  0  0  0  0  0
  195.2103  181.3753  135.5163 C   0  0  0  0  0  0  0  0  0  0  0  0
  194.8833  182.5004  134.6059 C   0  0  0  0  0  0  0  0  0  0  0  0
  195.8659  181.7023  136.6759 C   0  0  0  0  0  0  0  0  0  0  0  0
  196.1886  180.6883  137.5915 C   0  0  0  0  0  0  0  0  0  0  0  0
  195.8468  179.3857  137.3165 C   0  0  0  0  0  0  0  0  0  0  0  0
  195.1792  179.0658  136.1317 C   0  0  0  0  0  0  0  0  0  0  0  0
  196.8935  181.1419  138.7850 C   0  0  0  0  0  0  0  0  0  0  0  0
  198.0564  181.7894  138.9438 N   0  0  0  0  0  0  0  0  0  0  0  0
  198.2748  181.9404  140.2374 O   0  0  0  0  0  0  0  0  0  0  0  0
  197.3024  181.4220  140.9456 C   0  0  0  0  0  0  0  0  0  0  0  0
  197.1402  181.3702  142.4368 C   0  0  0  0  0  0  0  0  0  0  0  0
  196.4384  180.9236  140.0497 N   0  0  0  0  0  0  0  0  0  0  0  0
  189.6896  176.4433  124.6391 C   0  0  0  0  0  0  0  0  0  0  0  0
  190.0706  175.4468  123.5591 C   0  0  0  0  0  0  0  0  0  0  0  0
  1  2  1  0
  2  3  1  0
  3  4  1  0
  4  5  1  0
  5  6  1  0
  6  7  1  0
  7  8  1  0
  8  9  2  0
  9 10  1  0
 10 11  2  0
 11 12  1  0
 12 13  2  0
 11 14  1  0
 14 15  1  0
 15 16  1  0
 14 17  1  0
 17 18  2  0
 17 19  1  0
 19 20  2  0
 20 21  1  0
 21 22  2  0
 22 23  1  0
 23 24  2  0
 22 25  1  0
 25 26  2  0
 26 27  1  0
 26 28  1  0
 28 29  2  0
 29 30  1  0
 30 31  2  0
 29 32  1  0
 32 33  2  0
 33 34  1  0
 34 35  1  0
 35 36  1  0
 35 37  2  0
  5 38  1  0
 38 39  1  0
 39  2  1  0
 13  5  1  0
 24 19  1  0
 31 25  1  0
 37 32  1  0
 13  8  1  0
 16 10  1  0
M  END
$$$$
