
     RDKit          3D

 39 45  0  0  0  0  0  0  0  0999 V2000
  143.2374  188.0045  148.1723 C   0  0  0  0  0  0  0  0  0  0  0  0
  142.8523  186.6610  147.8602 N   0  0  0  0  0  0  0  0  0  0  0  0
  142.3650  186.6040  146.5227 C   0  0  0  0  0  0  0  0  0  0  0  0
  141.6072  185.4032  146.1147 C   0  0  0  0  0  0  0  0  0  0  0  0
  141.1067  184.4926  147.1531 C   0  0  0  0  0  0  0  0  0  0  0  0
  139.5728  184.5081  147.3480 C   0  0  0  0  0  0  0  0  0  0  0  0
  139.5159  183.3406  148.2124 O   0  0  0  0  0  0  0  0  0  0  0  0
  140.3202  182.3668  147.5587 C   0  0  0  0  0  0  0  0  0  0  0  0
  140.2379  180.9754  147.5298 C   0  0  0  0  0  0  0  0  0  0  0  0
  141.1454  180.2228  146.7955 C   0  0  0  0  0  0  0  0  0  0  0  0
  142.1348  180.9324  146.0921 C   0  0  0  0  0  0  0  0  0  0  0  0
  142.1861  182.2860  146.1485 C   0  0  0  0  0  0  0  0  0  0  0  0
  141.2976  183.0520  146.8735 C   0  0  0  0  0  0  0  0  0  0  0  0
  142.8703  179.9033  145.3327 N   0  0  0  0  0  0  0  0  0  0  0  0
  142.8671  178.7498  146.2258 C   0  0  0  0  0  0  0  0  0  0  0  0
  141.3517  178.7554  146.5721 C   0  0  0  0  0  0  0  0  0  0  0  0
  143.3747  180.2066  144.0786 C   0  0  0  0  0  0  0  0  0  0  0  0
  144.0004  181.3503  143.9510 O   0  0  0  0  0  0  0  0  0  0  0  0
  143.2902  179.4293  142.8630 C   0  0  0  0  0  0  0  0  0  0  0  0
  142.4571  179.8923  141.8075 C   0  0  0  0  0  0  0  0  0  0  0  0
  142.2461  179.1365  140.6666 C   0  0  0  0  0  0  0  0  0  0  0  0
  142.8364  177.9104  140.5095 C   0  0  0  0  0  0  0  0  0  0  0  0
  143.6527  177.4797  141.5490 C   0  0  0  0  0  0  0  0  0  0  0  0
  143.8839  178.2048  142.7006 C   0  0  0  0  0  0  0  0  0  0  0  0
  142.5758  177.0273  139.3531 C   0  0  0  0  0  0  0  0  0  0  0  0
  143.6778  176.8164  138.5028 C   0  0  0  0  0  0  0  0  0  0  0  0
  145.0178  177.3997  138.7588 C   0  0  0  0  0  0  0  0  0  0  0  0
  143.5605  176.0297  137.3853 C   0  0  0  0  0  0  0  0  0  0  0  0
  142.3247  175.4306  137.0941 C   0  0  0  0  0  0  0  0  0  0  0  0
  141.2515  175.6390  137.9272 C   0  0  0  0  0  0  0  0  0  0  0  0
  141.3842  176.4425  139.0623 C   0  0  0  0  0  0  0  0  0  0  0  0
  142.3059  174.6241  135.8791 C   0  0  0  0  0  0  0  0  0  0  0  0
  143.0164  174.7006  134.7449 N   0  0  0  0  0  0  0  0  0  0  0  0
  142.5966  173.7529  133.9267 O   0  0  0  0  0  0  0  0  0  0  0  0
  141.6372  173.0470  134.4721 C   0  0  0  0  0  0  0  0  0  0  0  0
  140.8785  171.8826  133.9054 C   0  0  0  0  0  0  0  0  0  0  0  0
  141.4506  173.5821  135.6872 N   0  0  0  0  0  0  0  0  0  0  0  0
  141.6398  184.7690  148.5561 C   0  0  0  0  0  0  0  0  0  0  0  0
  141.7785  186.2663  148.7641 C   0  0  0  0  0  0  0  0  0  0  0  0
  1  2  1  0
  2  3  1  0
  3  4  1  0
  4  5  1  0
  5  6  1  0
  6  7  1  0
  7  8  1  0
  8  9  2  0
  9 10  1  0
 10 11  2  0
 11 12  1  0
 12 13  2  0
 11 14  1  0
 14 15  1  0
 15 16  1  0
 14 17  1  0
 17 18  2  0
 17 19  1  0
 19 20  2  0
 20 21  1  0
 21 22  2  0
 22 23  1  0
 23 24  2  0
 22 25  1  0
 25 26  2  0
 26 27  1  0
 26 28  1  0
 28 29  2  0
 29 30  1  0
 30 31  2  0
 29 32  1  0
 32 33  2  0
 33 34  1  0
 34 35  1  0
 35 36  1  0
 35 37  2  0
  5 38  1  0
 38 39  1  0
 39  2  1  0
 13  5  1  0
 24 19  1  0
 31 25  1  0
 37 32  1  0
 13  8  1  0
 16 10  1  0
M  END
$$$$
