
     RDKit          3D

 39 45  0  0  0  0  0  0  0  0999 V2000
  147.3771  158.9144  117.0468 C   0  0  0  0  0  0  0  0  0  0  0  0
  147.1839  158.0257  118.1529 N   0  0  0  0  0  0  0  0  0  0  0  0
  146.0301  158.4239  118.8876 C   0  0  0  0  0  0  0  0  0  0  0  0
  145.8462  157.8622  120.2415 C   0  0  0  0  0  0  0  0  0  0  0  0
  146.9831  157.2023  120.8970 C   0  0  0  0  0  0  0  0  0  0  0  0
  147.5888  157.9804  122.0882 C   0  0  0  0  0  0  0  0  0  0  0  0
  148.4379  156.8997  122.5620 O   0  0  0  0  0  0  0  0  0  0  0  0
  147.5911  155.7572  122.5835 C   0  0  0  0  0  0  0  0  0  0  0  0
  147.5880  154.6303  123.4044 C   0  0  0  0  0  0  0  0  0  0  0  0
  146.6353  153.6328  123.2420 C   0  0  0  0  0  0  0  0  0  0  0  0
  145.6877  153.8217  122.2205 C   0  0  0  0  0  0  0  0  0  0  0  0
  145.7257  154.9287  121.4387 C   0  0  0  0  0  0  0  0  0  0  0  0
  146.6643  155.9290  121.5807 C   0  0  0  0  0  0  0  0  0  0  0  0
  144.7581  152.6836  122.3519 N   0  0  0  0  0  0  0  0  0  0  0  0
  145.6201  151.5826  122.7680 C   0  0  0  0  0  0  0  0  0  0  0  0
  146.3665  152.3209  123.9144 C   0  0  0  0  0  0  0  0  0  0  0  0
  143.4135  152.8605  122.0692 C   0  0  0  0  0  0  0  0  0  0  0  0
  143.0178  154.0812  121.8064 O   0  0  0  0  0  0  0  0  0  0  0  0
  142.3624  151.8689  122.0402 C   0  0  0  0  0  0  0  0  0  0  0  0
  141.0802  152.2112  122.5514 C   0  0  0  0  0  0  0  0  0  0  0  0
  140.0678  151.2723  122.6557 C   0  0  0  0  0  0  0  0  0  0  0  0
  140.2629  149.9734  122.2663 C   0  0  0  0  0  0  0  0  0  0  0  0
  141.5202  149.6615  121.7625 C   0  0  0  0  0  0  0  0  0  0  0  0
  142.5529  150.5702  121.6461 C   0  0  0  0  0  0  0  0  0  0  0  0
  139.2459  148.9143  122.4373 C   0  0  0  0  0  0  0  0  0  0  0  0
  138.0337  149.1355  121.7566 C   0  0  0  0  0  0  0  0  0  0  0  0
  137.7959  150.3206  120.8960 C   0  0  0  0  0  0  0  0  0  0  0  0
  137.0037  148.2343  121.8484 C   0  0  0  0  0  0  0  0  0  0  0  0
  137.1687  147.0804  122.6308 C   0  0  0  0  0  0  0  0  0  0  0  0
  138.3541  146.8684  123.2935 C   0  0  0  0  0  0  0  0  0  0  0  0
  139.3954  147.7941  123.1918 C   0  0  0  0  0  0  0  0  0  0  0  0
  136.0105  146.1950  122.6690 C   0  0  0  0  0  0  0  0  0  0  0  0
  135.5289  145.3948  123.6306 N   0  0  0  0  0  0  0  0  0  0  0  0
  134.4675  144.7680  123.1569 O   0  0  0  0  0  0  0  0  0  0  0  0
  134.2216  145.1214  121.9197 C   0  0  0  0  0  0  0  0  0  0  0  0
  133.1238  144.6638  121.0043 C   0  0  0  0  0  0  0  0  0  0  0  0
  135.1766  146.0095  121.6085 N   0  0  0  0  0  0  0  0  0  0  0  0
  148.1871  156.9560  119.9923 C   0  0  0  0  0  0  0  0  0  0  0  0
  148.3470  158.1170  119.0274 C   0  0  0  0  0  0  0  0  0  0  0  0
  1  2  1  0
  2  3  1  0
  3  4  1  0
  4  5  1  0
  5  6  1  0
  6  7  1  0
  7  8  1  0
  8  9  2  0
  9 10  1  0
 10 11  2  0
 11 12  1  0
 12 13  2  0
 11 14  1  0
 14 15  1  0
 15 16  1  0
 14 17  1  0
 17 18  2  0
 17 19  1  0
 19 20  2  0
 20 21  1  0
 21 22  2  0
 22 23  1  0
 23 24  2  0
 22 25  1  0
 25 26  2  0
 26 27  1  0
 26 28  1  0
 28 29  2  0
 29 30  1  0
 30 31  2  0
 29 32  1  0
 32 33  2  0
 33 34  1  0
 34 35  1  0
 35 36  1  0
 35 37  2  0
  5 38  1  0
 38 39  1  0
 39  2  1  0
 13  5  1  0
 24 19  1  0
 31 25  1  0
 37 32  1  0
 13  8  1  0
 16 10  1  0
M  END
$$$$
