
     RDKit          3D

 39 45  0  0  0  0  0  0  0  0999 V2000
  197.7110  134.4861  131.6266 C   0  0  0  0  0  0  0  0  0  0  0  0
  198.5706  134.3073  132.7579 N   0  0  0  0  0  0  0  0  0  0  0  0
  199.3734  133.1460  132.5669 C   0  0  0  0  0  0  0  0  0  0  0  0
  200.0751  132.5910  133.7425 C   0  0  0  0  0  0  0  0  0  0  0  0
  199.6717  133.0327  135.0842 C   0  0  0  0  0  0  0  0  0  0  0  0
  198.9340  131.9658  135.9261 C   0  0  0  0  0  0  0  0  0  0  0  0
  198.9754  132.7028  137.1785 O   0  0  0  0  0  0  0  0  0  0  0  0
  200.3205  133.1510  137.2904 C   0  0  0  0  0  0  0  0  0  0  0  0
  201.1218  133.3853  138.4069 C   0  0  0  0  0  0  0  0  0  0  0  0
  202.4349  133.8147  138.2644 C   0  0  0  0  0  0  0  0  0  0  0  0
  202.9039  133.9947  136.9511 C   0  0  0  0  0  0  0  0  0  0  0  0
  202.0931  133.7616  135.8898 C   0  0  0  0  0  0  0  0  0  0  0  0
  200.7861  133.3382  136.0088 C   0  0  0  0  0  0  0  0  0  0  0  0
  204.3303  134.3394  137.1029 N   0  0  0  0  0  0  0  0  0  0  0  0
  204.3636  135.1317  138.3275 C   0  0  0  0  0  0  0  0  0  0  0  0
  203.5305  134.1718  139.2224 C   0  0  0  0  0  0  0  0  0  0  0  0
  205.2442  133.9092  136.1547 C   0  0  0  0  0  0  0  0  0  0  0  0
  204.9782  132.7823  135.5422 O   0  0  0  0  0  0  0  0  0  0  0  0
  206.4834  134.5341  135.7513 C   0  0  0  0  0  0  0  0  0  0  0  0
  207.5679  134.5668  136.6707 C   0  0  0  0  0  0  0  0  0  0  0  0
  208.7387  135.2493  136.3858 C   0  0  0  0  0  0  0  0  0  0  0  0
  208.8982  135.9192  135.2016 C   0  0  0  0  0  0  0  0  0  0  0  0
  207.8297  135.8685  134.3140 C   0  0  0  0  0  0  0  0  0  0  0  0
  206.6480  135.2006  134.5651 C   0  0  0  0  0  0  0  0  0  0  0  0
  210.0905  136.7337  134.8852 C   0  0  0  0  0  0  0  0  0  0  0  0
  211.3048  136.0228  134.8424 C   0  0  0  0  0  0  0  0  0  0  0  0
  211.3899  134.5572  135.0581 C   0  0  0  0  0  0  0  0  0  0  0  0
  212.4857  136.6677  134.5755 C   0  0  0  0  0  0  0  0  0  0  0  0
  212.4745  138.0519  134.3422 C   0  0  0  0  0  0  0  0  0  0  0  0
  211.2865  138.7420  134.3847 C   0  0  0  0  0  0  0  0  0  0  0  0
  210.0907  138.0734  134.6577 C   0  0  0  0  0  0  0  0  0  0  0  0
  213.7830  138.6396  134.0790 C   0  0  0  0  0  0  0  0  0  0  0  0
  214.1595  139.6782  133.3196 N   0  0  0  0  0  0  0  0  0  0  0  0
  215.4738  139.7876  133.3873 O   0  0  0  0  0  0  0  0  0  0  0  0
  215.9866  138.8656  134.1637 C   0  0  0  0  0  0  0  0  0  0  0  0
  217.4232  138.6213  134.5228 C   0  0  0  0  0  0  0  0  0  0  0  0
  214.9413  138.1473  134.5987 N   0  0  0  0  0  0  0  0  0  0  0  0
  198.7115  134.2187  135.1044 C   0  0  0  0  0  0  0  0  0  0  0  0
  197.7419  134.1110  133.9414 C   0  0  0  0  0  0  0  0  0  0  0  0
  1  2  1  0
  2  3  1  0
  3  4  1  0
  4  5  1  0
  5  6  1  0
  6  7  1  0
  7  8  1  0
  8  9  2  0
  9 10  1  0
 10 11  2  0
 11 12  1  0
 12 13  2  0
 11 14  1  0
 14 15  1  0
 15 16  1  0
 14 17  1  0
 17 18  2  0
 17 19  1  0
 19 20  2  0
 20 21  1  0
 21 22  2  0
 22 23  1  0
 23 24  2  0
 22 25  1  0
 25 26  2  0
 26 27  1  0
 26 28  1  0
 28 29  2  0
 29 30  1  0
 30 31  2  0
 29 32  1  0
 32 33  2  0
 33 34  1  0
 34 35  1  0
 35 36  1  0
 35 37  2  0
  5 38  1  0
 38 39  1  0
 39  2  1  0
 13  5  1  0
 24 19  1  0
 31 25  1  0
 37 32  1  0
 13  8  1  0
 16 10  1  0
M  END
$$$$
