
     RDKit          3D

 39 45  0  0  0  0  0  0  0  0999 V2000
  145.4590  181.8525  163.3544 C   0  0  0  0  0  0  0  0  0  0  0  0
  145.8568  181.4297  162.0454 N   0  0  0  0  0  0  0  0  0  0  0  0
  146.5347  180.1799  162.1344 C   0  0  0  0  0  0  0  0  0  0  0  0
  147.3182  179.7348  160.9637 C   0  0  0  0  0  0  0  0  0  0  0  0
  147.6403  180.7092  159.9126 C   0  0  0  0  0  0  0  0  0  0  0  0
  149.1287  181.1227  159.8425 C   0  0  0  0  0  0  0  0  0  0  0  0
  149.0322  181.8298  158.5760 O   0  0  0  0  0  0  0  0  0  0  0  0
  148.3122  180.9482  157.7232 C   0  0  0  0  0  0  0  0  0  0  0  0
  148.3678  180.7537  156.3438 C   0  0  0  0  0  0  0  0  0  0  0  0
  147.5625  179.8065  155.7245 C   0  0  0  0  0  0  0  0  0  0  0  0
  146.7032  179.0650  156.5546 C   0  0  0  0  0  0  0  0  0  0  0  0
  146.6735  179.2861  157.8918 C   0  0  0  0  0  0  0  0  0  0  0  0
  147.4617  180.2231  158.5263 C   0  0  0  0  0  0  0  0  0  0  0  0
  146.0657  178.0826  155.6574 N   0  0  0  0  0  0  0  0  0  0  0  0
  145.9122  178.8119  154.4032 C   0  0  0  0  0  0  0  0  0  0  0  0
  147.3597  179.3701  154.3054 C   0  0  0  0  0  0  0  0  0  0  0  0
  145.7584  176.8182  156.1329 C   0  0  0  0  0  0  0  0  0  0  0  0
  146.6856  176.2021  156.8232 O   0  0  0  0  0  0  0  0  0  0  0  0
  144.5395  176.0621  155.9555 C   0  0  0  0  0  0  0  0  0  0  0  0
  143.4202  176.3587  156.7811 C   0  0  0  0  0  0  0  0  0  0  0  0
  142.2655  175.5957  156.7373 C   0  0  0  0  0  0  0  0  0  0  0  0
  142.1561  174.5235  155.8917 C   0  0  0  0  0  0  0  0  0  0  0  0
  143.2581  174.2552  155.0881 C   0  0  0  0  0  0  0  0  0  0  0  0
  144.4252  174.9922  155.1065 C   0  0  0  0  0  0  0  0  0  0  0  0
  140.9818  173.6259  155.8683 C   0  0  0  0  0  0  0  0  0  0  0  0
  140.3869  173.4543  154.6040 C   0  0  0  0  0  0  0  0  0  0  0  0
  140.9135  174.0904  153.3712 C   0  0  0  0  0  0  0  0  0  0  0  0
  139.2798  172.6588  154.4523 C   0  0  0  0  0  0  0  0  0  0  0  0
  138.7410  172.0108  155.5751 C   0  0  0  0  0  0  0  0  0  0  0  0
  139.3253  172.1810  156.8076 C   0  0  0  0  0  0  0  0  0  0  0  0
  140.4526  172.9940  156.9486 C   0  0  0  0  0  0  0  0  0  0  0  0
  137.5598  171.1990  155.3060 C   0  0  0  0  0  0  0  0  0  0  0  0
  137.1337  170.5824  154.1946 N   0  0  0  0  0  0  0  0  0  0  0  0
  135.9783  170.0003  154.4590 O   0  0  0  0  0  0  0  0  0  0  0  0
  135.6199  170.2023  155.7027 C   0  0  0  0  0  0  0  0  0  0  0  0
  134.3925  169.7268  156.4238 C   0  0  0  0  0  0  0  0  0  0  0  0
  136.5986  170.9467  156.2370 N   0  0  0  0  0  0  0  0  0  0  0  0
  146.9122  182.0448  160.0350 C   0  0  0  0  0  0  0  0  0  0  0  0
  146.7767  182.4205  161.4995 C   0  0  0  0  0  0  0  0  0  0  0  0
  1  2  1  0
  2  3  1  0
  3  4  1  0
  4  5  1  0
  5  6  1  0
  6  7  1  0
  7  8  1  0
  8  9  2  0
  9 10  1  0
 10 11  2  0
 11 12  1  0
 12 13  2  0
 11 14  1  0
 14 15  1  0
 15 16  1  0
 14 17  1  0
 17 18  2  0
 17 19  1  0
 19 20  2  0
 20 21  1  0
 21 22  2  0
 22 23  1  0
 23 24  2  0
 22 25  1  0
 25 26  2  0
 26 27  1  0
 26 28  1  0
 28 29  2  0
 29 30  1  0
 30 31  2  0
 29 32  1  0
 32 33  2  0
 33 34  1  0
 34 35  1  0
 35 36  1  0
 35 37  2  0
  5 38  1  0
 38 39  1  0
 39  2  1  0
 13  5  1  0
 24 19  1  0
 31 25  1  0
 37 32  1  0
 13  8  1  0
 16 10  1  0
M  END
$$$$
