
     RDKit          3D

 39 45  0  0  0  0  0  0  0  0999 V2000
  176.5586  158.7554  114.1328 C   0  0  0  0  0  0  0  0  0  0  0  0
  175.5172  159.6169  113.6598 N   0  0  0  0  0  0  0  0  0  0  0  0
  176.0227  160.4478  112.6188 C   0  0  0  0  0  0  0  0  0  0  0  0
  175.2251  161.6286  112.2293 C   0  0  0  0  0  0  0  0  0  0  0  0
  174.1484  162.0833  113.1192 C   0  0  0  0  0  0  0  0  0  0  0  0
  174.4289  163.4158  113.8520 C   0  0  0  0  0  0  0  0  0  0  0  0
  173.0798  163.5976  114.3620 O   0  0  0  0  0  0  0  0  0  0  0  0
  172.2347  163.3578  113.2435 C   0  0  0  0  0  0  0  0  0  0  0  0
  170.9880  163.8813  112.9040 C   0  0  0  0  0  0  0  0  0  0  0  0
  170.3505  163.5002  111.7304 C   0  0  0  0  0  0  0  0  0  0  0  0
  171.0239  162.5728  110.9156 C   0  0  0  0  0  0  0  0  0  0  0  0
  172.2334  162.0818  111.2817 C   0  0  0  0  0  0  0  0  0  0  0  0
  172.8822  162.4441  112.4434 C   0  0  0  0  0  0  0  0  0  0  0  0
  170.1789  162.4422  109.7133 N   0  0  0  0  0  0  0  0  0  0  0  0
  168.8211  162.5631  110.2332 C   0  0  0  0  0  0  0  0  0  0  0  0
  169.0374  163.8399  111.0931 C   0  0  0  0  0  0  0  0  0  0  0  0
  170.7714  162.2362  108.4781 C   0  0  0  0  0  0  0  0  0  0  0  0
  170.3848  161.1826  107.8026 O   0  0  0  0  0  0  0  0  0  0  0  0
  171.7894  163.0279  107.8255 C   0  0  0  0  0  0  0  0  0  0  0  0
  173.1128  163.0101  108.3458 C   0  0  0  0  0  0  0  0  0  0  0  0
  174.1028  163.8329  107.8356 C   0  0  0  0  0  0  0  0  0  0  0  0
  173.8445  164.6969  106.8043 C   0  0  0  0  0  0  0  0  0  0  0  0
  172.5472  164.6933  106.3053 C   0  0  0  0  0  0  0  0  0  0  0  0
  171.5353  163.8891  106.7901 C   0  0  0  0  0  0  0  0  0  0  0  0
  174.8402  165.6566  106.2821 C   0  0  0  0  0  0  0  0  0  0  0  0
  174.7323  166.9646  106.7911 C   0  0  0  0  0  0  0  0  0  0  0  0
  173.7236  167.3548  107.8068 C   0  0  0  0  0  0  0  0  0  0  0  0
  175.5873  167.9524  106.3727 C   0  0  0  0  0  0  0  0  0  0  0  0
  176.5789  167.6469  105.4270 C   0  0  0  0  0  0  0  0  0  0  0  0
  176.6807  166.3683  104.9329 C   0  0  0  0  0  0  0  0  0  0  0  0
  175.8036  165.3714  105.3673 C   0  0  0  0  0  0  0  0  0  0  0  0
  177.4265  168.7699  105.0433 C   0  0  0  0  0  0  0  0  0  0  0  0
  178.6095  168.8226  104.4151 N   0  0  0  0  0  0  0  0  0  0  0  0
  178.9815  170.0871  104.3346 O   0  0  0  0  0  0  0  0  0  0  0  0
  178.0920  170.8782  104.8814 C   0  0  0  0  0  0  0  0  0  0  0  0
  178.1064  172.3734  105.0105 C   0  0  0  0  0  0  0  0  0  0  0  0
  177.1209  170.0668  105.3243 N   0  0  0  0  0  0  0  0  0  0  0  0
  173.8117  161.1233  114.2567 C   0  0  0  0  0  0  0  0  0  0  0  0
  175.0826  160.4654  114.7630 C   0  0  0  0  0  0  0  0  0  0  0  0
  1  2  1  0
  2  3  1  0
  3  4  1  0
  4  5  1  0
  5  6  1  0
  6  7  1  0
  7  8  1  0
  8  9  2  0
  9 10  1  0
 10 11  2  0
 11 12  1  0
 12 13  2  0
 11 14  1  0
 14 15  1  0
 15 16  1  0
 14 17  1  0
 17 18  2  0
 17 19  1  0
 19 20  2  0
 20 21  1  0
 21 22  2  0
 22 23  1  0
 23 24  2  0
 22 25  1  0
 25 26  2  0
 26 27  1  0
 26 28  1  0
 28 29  2  0
 29 30  1  0
 30 31  2  0
 29 32  1  0
 32 33  2  0
 33 34  1  0
 34 35  1  0
 35 36  1  0
 35 37  2  0
  5 38  1  0
 38 39  1  0
 39  2  1  0
 13  5  1  0
 24 19  1  0
 31 25  1  0
 37 32  1  0
 13  8  1  0
 16 10  1  0
M  END
$$$$
