
     RDKit          3D

 39 45  0  0  0  0  0  0  0  0999 V2000
  195.8715  172.5304  127.9501 C   0  0  0  0  0  0  0  0  0  0  0  0
  194.7703  173.3439  127.5305 N   0  0  0  0  0  0  0  0  0  0  0  0
  193.5517  172.7743  127.9999 C   0  0  0  0  0  0  0  0  0  0  0  0
  192.2895  173.2552  127.4016 C   0  0  0  0  0  0  0  0  0  0  0  0
  192.3445  174.0284  126.1537 C   0  0  0  0  0  0  0  0  0  0  0  0
  191.8108  173.2879  124.9054 C   0  0  0  0  0  0  0  0  0  0  0  0
  191.8026  174.4486  124.0301 O   0  0  0  0  0  0  0  0  0  0  0  0
  191.1764  175.4726  124.7929 C   0  0  0  0  0  0  0  0  0  0  0  0
  190.3906  176.5573  124.4060 C   0  0  0  0  0  0  0  0  0  0  0  0
  189.8676  177.4314  125.3502 C   0  0  0  0  0  0  0  0  0  0  0  0
  190.1686  177.1634  126.6973 C   0  0  0  0  0  0  0  0  0  0  0  0
  190.9407  176.1012  127.0347 C   0  0  0  0  0  0  0  0  0  0  0  0
  191.4724  175.2234  126.1136 C   0  0  0  0  0  0  0  0  0  0  0  0
  189.4061  178.1683  127.4623 N   0  0  0  0  0  0  0  0  0  0  0  0
  189.4498  179.3529  126.6119 C   0  0  0  0  0  0  0  0  0  0  0  0
  189.0294  178.6716  125.2794 C   0  0  0  0  0  0  0  0  0  0  0  0
  188.8783  177.8331  128.6986 C   0  0  0  0  0  0  0  0  0  0  0  0
  189.2987  176.7173  129.2408 O   0  0  0  0  0  0  0  0  0  0  0  0
  187.8962  178.5485  129.4813 C   0  0  0  0  0  0  0  0  0  0  0  0
  188.2865  179.1083  130.7290 C   0  0  0  0  0  0  0  0  0  0  0  0
  187.3666  179.7046  131.5749 C   0  0  0  0  0  0  0  0  0  0  0  0
  186.0406  179.7805  131.2394 C   0  0  0  0  0  0  0  0  0  0  0  0
  185.6812  179.2343  130.0127 C   0  0  0  0  0  0  0  0  0  0  0  0
  186.5699  178.6309  129.1458 C   0  0  0  0  0  0  0  0  0  0  0  0
  185.0058  180.3271  132.1425 C   0  0  0  0  0  0  0  0  0  0  0  0
  183.8003  179.6010  132.1775 C   0  0  0  0  0  0  0  0  0  0  0  0
  183.5854  178.3555  131.4003 C   0  0  0  0  0  0  0  0  0  0  0  0
  182.7554  180.0148  132.9640 C   0  0  0  0  0  0  0  0  0  0  0  0
  182.8983  181.1754  133.7408 C   0  0  0  0  0  0  0  0  0  0  0  0
  184.0772  181.8811  133.7037 C   0  0  0  0  0  0  0  0  0  0  0  0
  185.1339  181.4491  132.8984 C   0  0  0  0  0  0  0  0  0  0  0  0
  181.7256  181.5322  134.5311 C   0  0  0  0  0  0  0  0  0  0  0  0
  180.8800  182.5696  134.4566 N   0  0  0  0  0  0  0  0  0  0  0  0
  179.9939  182.4542  135.4289 O   0  0  0  0  0  0  0  0  0  0  0  0
  180.2143  181.3799  136.1455 C   0  0  0  0  0  0  0  0  0  0  0  0
  179.4587  180.8635  137.3351 C   0  0  0  0  0  0  0  0  0  0  0  0
  181.2897  180.8001  135.5933 N   0  0  0  0  0  0  0  0  0  0  0  0
  193.7458  174.4604  125.7310 C   0  0  0  0  0  0  0  0  0  0  0  0
  194.7422  173.3673  126.0729 C   0  0  0  0  0  0  0  0  0  0  0  0
  1  2  1  0
  2  3  1  0
  3  4  1  0
  4  5  1  0
  5  6  1  0
  6  7  1  0
  7  8  1  0
  8  9  2  0
  9 10  1  0
 10 11  2  0
 11 12  1  0
 12 13  2  0
 11 14  1  0
 14 15  1  0
 15 16  1  0
 14 17  1  0
 17 18  2  0
 17 19  1  0
 19 20  2  0
 20 21  1  0
 21 22  2  0
 22 23  1  0
 23 24  2  0
 22 25  1  0
 25 26  2  0
 26 27  1  0
 26 28  1  0
 28 29  2  0
 29 30  1  0
 30 31  2  0
 29 32  1  0
 32 33  2  0
 33 34  1  0
 34 35  1  0
 35 36  1  0
 35 37  2  0
  5 38  1  0
 38 39  1  0
 39  2  1  0
 13  5  1  0
 24 19  1  0
 31 25  1  0
 37 32  1  0
 13  8  1  0
 16 10  1  0
M  END
$$$$
