
     RDKit          3D

 39 45  0  0  0  0  0  0  0  0999 V2000
  130.2989  133.8223  136.2117 C   0  0  0  0  0  0  0  0  0  0  0  0
  130.6969  135.1242  135.7676 N   0  0  0  0  0  0  0  0  0  0  0  0
  132.0801  135.1086  135.4265 C   0  0  0  0  0  0  0  0  0  0  0  0
  132.7679  136.4070  135.2730 C   0  0  0  0  0  0  0  0  0  0  0  0
  132.1181  137.6199  135.7875 C   0  0  0  0  0  0  0  0  0  0  0  0
  132.7854  138.2342  137.0400 C   0  0  0  0  0  0  0  0  0  0  0  0
  132.0279  139.4749  137.0247 O   0  0  0  0  0  0  0  0  0  0  0  0
  132.0890  139.9197  135.6752 C   0  0  0  0  0  0  0  0  0  0  0  0
  132.0829  141.2021  135.1285 C   0  0  0  0  0  0  0  0  0  0  0  0
  132.1677  141.3920  133.7553 C   0  0  0  0  0  0  0  0  0  0  0  0
  132.2609  140.2361  132.9602 C   0  0  0  0  0  0  0  0  0  0  0  0
  132.2587  139.0049  133.5279 C   0  0  0  0  0  0  0  0  0  0  0  0
  132.1721  138.7939  134.8879 C   0  0  0  0  0  0  0  0  0  0  0  0
  132.4449  140.7370  131.5848 N   0  0  0  0  0  0  0  0  0  0  0  0
  131.6350  141.9500  131.5500 C   0  0  0  0  0  0  0  0  0  0  0  0
  132.1646  142.5948  132.8615 C   0  0  0  0  0  0  0  0  0  0  0  0
  133.2408  140.0298  130.6984 C   0  0  0  0  0  0  0  0  0  0  0  0
  134.3600  139.5376  131.1683 O   0  0  0  0  0  0  0  0  0  0  0  0
  133.0123  139.7691  129.2953 C   0  0  0  0  0  0  0  0  0  0  0  0
  131.6751  139.7236  128.8135 C   0  0  0  0  0  0  0  0  0  0  0  0
  131.3877  139.3664  127.5068 C   0  0  0  0  0  0  0  0  0  0  0  0
  132.3850  139.0447  126.6244 C   0  0  0  0  0  0  0  0  0  0  0  0
  133.6850  139.1027  127.1130 C   0  0  0  0  0  0  0  0  0  0  0  0
  134.0083  139.4521  128.4088 C   0  0  0  0  0  0  0  0  0  0  0  0
  132.1279  138.5735  125.2470 C   0  0  0  0  0  0  0  0  0  0  0  0
  131.2587  137.4709  125.1460 C   0  0  0  0  0  0  0  0  0  0  0  0
  130.6105  136.8435  126.3241 C   0  0  0  0  0  0  0  0  0  0  0  0
  130.9532  136.9287  123.9235 C   0  0  0  0  0  0  0  0  0  0  0  0
  131.5168  137.4864  122.7650 C   0  0  0  0  0  0  0  0  0  0  0  0
  132.3649  138.5632  122.8684 C   0  0  0  0  0  0  0  0  0  0  0  0
  132.6680  139.1060  124.1195 C   0  0  0  0  0  0  0  0  0  0  0  0
  131.1356  136.8289  121.5203 C   0  0  0  0  0  0  0  0  0  0  0  0
  131.4719  137.0669  120.2448 N   0  0  0  0  0  0  0  0  0  0  0  0
  130.8279  136.2063  119.4776 O   0  0  0  0  0  0  0  0  0  0  0  0
  130.0788  135.4033  120.1918 C   0  0  0  0  0  0  0  0  0  0  0  0
  129.1878  134.2847  119.7366 C   0  0  0  0  0  0  0  0  0  0  0  0
  130.2648  135.7834  121.4640 N   0  0  0  0  0  0  0  0  0  0  0  0
  130.6671  137.4323  136.2214 C   0  0  0  0  0  0  0  0  0  0  0  0
  130.4980  136.0667  136.8622 C   0  0  0  0  0  0  0  0  0  0  0  0
  1  2  1  0
  2  3  1  0
  3  4  1  0
  4  5  1  0
  5  6  1  0
  6  7  1  0
  7  8  1  0
  8  9  2  0
  9 10  1  0
 10 11  2  0
 11 12  1  0
 12 13  2  0
 11 14  1  0
 14 15  1  0
 15 16  1  0
 14 17  1  0
 17 18  2  0
 17 19  1  0
 19 20  2  0
 20 21  1  0
 21 22  2  0
 22 23  1  0
 23 24  2  0
 22 25  1  0
 25 26  2  0
 26 27  1  0
 26 28  1  0
 28 29  2  0
 29 30  1  0
 30 31  2  0
 29 32  1  0
 32 33  2  0
 33 34  1  0
 34 35  1  0
 35 36  1  0
 35 37  2  0
  5 38  1  0
 38 39  1  0
 39  2  1  0
 13  5  1  0
 24 19  1  0
 31 25  1  0
 37 32  1  0
 13  8  1  0
 16 10  1  0
M  END
$$$$
