
     RDKit          3D

 39 45  0  0  0  0  0  0  0  0999 V2000
  201.2669  155.2543  124.5597 C   0  0  0  0  0  0  0  0  0  0  0  0
  201.1676  156.1051  125.7072 N   0  0  0  0  0  0  0  0  0  0  0  0
  201.3424  157.4622  125.3101 C   0  0  0  0  0  0  0  0  0  0  0  0
  201.6147  158.4603  126.3647 C   0  0  0  0  0  0  0  0  0  0  0  0
  202.0177  157.9930  127.6977 C   0  0  0  0  0  0  0  0  0  0  0  0
  203.4944  158.2684  128.0649 C   0  0  0  0  0  0  0  0  0  0  0  0
  203.3725  157.9125  129.4692 O   0  0  0  0  0  0  0  0  0  0  0  0
  202.2036  158.5896  129.9140 C   0  0  0  0  0  0  0  0  0  0  0  0
  201.8629  159.1145  131.1598 C   0  0  0  0  0  0  0  0  0  0  0  0
  200.6472  159.7574  131.3542 C   0  0  0  0  0  0  0  0  0  0  0  0
  199.7938  159.8495  130.2405 C   0  0  0  0  0  0  0  0  0  0  0  0
  200.1576  159.3222  129.0456 C   0  0  0  0  0  0  0  0  0  0  0  0
  201.3578  158.6774  128.8318 C   0  0  0  0  0  0  0  0  0  0  0  0
  198.6520  160.6601  130.7051 N   0  0  0  0  0  0  0  0  0  0  0  0
  198.4897  160.2579  132.0981 C   0  0  0  0  0  0  0  0  0  0  0  0
  199.9760  160.3961  132.5320 C   0  0  0  0  0  0  0  0  0  0  0  0
  198.0229  161.5259  129.8254 C   0  0  0  0  0  0  0  0  0  0  0  0
  198.4393  161.5165  128.5835 O   0  0  0  0  0  0  0  0  0  0  0  0
  196.9618  162.4692  130.0960 C   0  0  0  0  0  0  0  0  0  0  0  0
  197.1855  163.8490  129.8346 C   0  0  0  0  0  0  0  0  0  0  0  0
  196.2518  164.8121  130.1787 C   0  0  0  0  0  0  0  0  0  0  0  0
  195.0714  164.4704  130.7841 C   0  0  0  0  0  0  0  0  0  0  0  0
  194.8691  163.1163  131.0239 C   0  0  0  0  0  0  0  0  0  0  0  0
  195.7776  162.1297  130.6967 C   0  0  0  0  0  0  0  0  0  0  0  0
  194.0816  165.4647  131.2498 C   0  0  0  0  0  0  0  0  0  0  0  0
  193.9588  165.5749  132.6478 C   0  0  0  0  0  0  0  0  0  0  0  0
  194.7840  164.7855  133.5952 C   0  0  0  0  0  0  0  0  0  0  0  0
  193.0623  166.4503  133.2059 C   0  0  0  0  0  0  0  0  0  0  0  0
  192.2632  167.2427  132.3667 C   0  0  0  0  0  0  0  0  0  0  0  0
  192.3866  167.1320  131.0022 C   0  0  0  0  0  0  0  0  0  0  0  0
  193.3035  166.2364  130.4464 C   0  0  0  0  0  0  0  0  0  0  0  0
  191.3377  168.1305  133.0611 C   0  0  0  0  0  0  0  0  0  0  0  0
  191.2230  168.4677  134.3534 N   0  0  0  0  0  0  0  0  0  0  0  0
  190.1943  169.2860  134.4797 O   0  0  0  0  0  0  0  0  0  0  0  0
  189.6217  169.5093  133.3228 C   0  0  0  0  0  0  0  0  0  0  0  0
  188.4334  170.3690  133.0043 C   0  0  0  0  0  0  0  0  0  0  0  0
  190.3273  168.7945  132.4346 N   0  0  0  0  0  0  0  0  0  0  0  0
  201.8781  156.4892  127.9167 C   0  0  0  0  0  0  0  0  0  0  0  0
  202.2327  155.7517  126.6381 C   0  0  0  0  0  0  0  0  0  0  0  0
  1  2  1  0
  2  3  1  0
  3  4  1  0
  4  5  1  0
  5  6  1  0
  6  7  1  0
  7  8  1  0
  8  9  2  0
  9 10  1  0
 10 11  2  0
 11 12  1  0
 12 13  2  0
 11 14  1  0
 14 15  1  0
 15 16  1  0
 14 17  1  0
 17 18  2  0
 17 19  1  0
 19 20  2  0
 20 21  1  0
 21 22  2  0
 22 23  1  0
 23 24  2  0
 22 25  1  0
 25 26  2  0
 26 27  1  0
 26 28  1  0
 28 29  2  0
 29 30  1  0
 30 31  2  0
 29 32  1  0
 32 33  2  0
 33 34  1  0
 34 35  1  0
 35 36  1  0
 35 37  2  0
  5 38  1  0
 38 39  1  0
 39  2  1  0
 13  5  1  0
 24 19  1  0
 31 25  1  0
 37 32  1  0
 13  8  1  0
 16 10  1  0
M  END
$$$$
