
     RDKit          3D

 39 45  0  0  0  0  0  0  0  0999 V2000
  135.2424  186.3589  148.0098 C   0  0  0  0  0  0  0  0  0  0  0  0
  136.5628  185.8101  147.9320 N   0  0  0  0  0  0  0  0  0  0  0  0
  137.1211  185.7260  149.2400 C   0  0  0  0  0  0  0  0  0  0  0  0
  138.5783  185.5123  149.3561 C   0  0  0  0  0  0  0  0  0  0  0  0
  139.4234  185.7234  148.1733 C   0  0  0  0  0  0  0  0  0  0  0  0
  140.3320  186.9730  148.2374 C   0  0  0  0  0  0  0  0  0  0  0  0
  141.1269  186.6453  147.0652 O   0  0  0  0  0  0  0  0  0  0  0  0
  141.4799  185.2784  147.2379 C   0  0  0  0  0  0  0  0  0  0  0  0
  142.6044  184.5608  146.8326 C   0  0  0  0  0  0  0  0  0  0  0  0
  142.7362  183.2117  147.1352 C   0  0  0  0  0  0  0  0  0  0  0  0
  141.6890  182.6203  147.8638 C   0  0  0  0  0  0  0  0  0  0  0  0
  140.6084  183.3495  148.2362 C   0  0  0  0  0  0  0  0  0  0  0  0
  140.4561  184.6885  147.9436 C   0  0  0  0  0  0  0  0  0  0  0  0
  142.1438  181.2420  148.1284 N   0  0  0  0  0  0  0  0  0  0  0  0
  142.8903  180.8899  146.9253 C   0  0  0  0  0  0  0  0  0  0  0  0
  143.7709  182.1682  146.8419 C   0  0  0  0  0  0  0  0  0  0  0  0
  141.7970  180.6221  149.3178 C   0  0  0  0  0  0  0  0  0  0  0  0
  140.9996  181.2819  150.1206 O   0  0  0  0  0  0  0  0  0  0  0  0
  142.2146  179.3305  149.8141 C   0  0  0  0  0  0  0  0  0  0  0  0
  143.4695  179.2205  150.4739 C   0  0  0  0  0  0  0  0  0  0  0  0
  143.9749  177.9934  150.8694 C   0  0  0  0  0  0  0  0  0  0  0  0
  143.2809  176.8345  150.6415 C   0  0  0  0  0  0  0  0  0  0  0  0
  142.0534  176.9646  150.0023 C   0  0  0  0  0  0  0  0  0  0  0  0
  141.5200  178.1700  149.5925 C   0  0  0  0  0  0  0  0  0  0  0  0
  143.8135  175.4938  150.9643 C   0  0  0  0  0  0  0  0  0  0  0  0
  144.8287  175.0322  150.1052 C   0  0  0  0  0  0  0  0  0  0  0  0
  145.3614  175.8382  148.9791 C   0  0  0  0  0  0  0  0  0  0  0  0
  145.3937  173.7957  150.2886 C   0  0  0  0  0  0  0  0  0  0  0  0
  144.9499  172.9884  151.3479 C   0  0  0  0  0  0  0  0  0  0  0  0
  143.9587  173.4433  152.1844 C   0  0  0  0  0  0  0  0  0  0  0  0
  143.3914  174.7046  151.9868 C   0  0  0  0  0  0  0  0  0  0  0  0
  145.6083  171.6908  151.4469 C   0  0  0  0  0  0  0  0  0  0  0  0
  146.6272  171.1515  150.7629 N   0  0  0  0  0  0  0  0  0  0  0  0
  146.8272  169.9261  151.2125 O   0  0  0  0  0  0  0  0  0  0  0  0
  145.9843  169.6295  152.1704 C   0  0  0  0  0  0  0  0  0  0  0  0
  145.8558  168.3592  152.9592 C   0  0  0  0  0  0  0  0  0  0  0  0
  145.2226  170.7223  152.3229 N   0  0  0  0  0  0  0  0  0  0  0  0
  138.6578  185.9149  146.8671 C   0  0  0  0  0  0  0  0  0  0  0  0
  137.3886  186.7050  147.1300 C   0  0  0  0  0  0  0  0  0  0  0  0
  1  2  1  0
  2  3  1  0
  3  4  1  0
  4  5  1  0
  5  6  1  0
  6  7  1  0
  7  8  1  0
  8  9  2  0
  9 10  1  0
 10 11  2  0
 11 12  1  0
 12 13  2  0
 11 14  1  0
 14 15  1  0
 15 16  1  0
 14 17  1  0
 17 18  2  0
 17 19  1  0
 19 20  2  0
 20 21  1  0
 21 22  2  0
 22 23  1  0
 23 24  2  0
 22 25  1  0
 25 26  2  0
 26 27  1  0
 26 28  1  0
 28 29  2  0
 29 30  1  0
 30 31  2  0
 29 32  1  0
 32 33  2  0
 33 34  1  0
 34 35  1  0
 35 36  1  0
 35 37  2  0
  5 38  1  0
 38 39  1  0
 39  2  1  0
 13  5  1  0
 24 19  1  0
 31 25  1  0
 37 32  1  0
 13  8  1  0
 16 10  1  0
M  END
$$$$
