
     RDKit          3D

 39 45  0  0  0  0  0  0  0  0999 V2000
  109.4269  164.6535  148.2064 C   0  0  0  0  0  0  0  0  0  0  0  0
  110.4591  165.1550  147.3499 N   0  0  0  0  0  0  0  0  0  0  0  0
  111.7283  164.7195  147.8286 C   0  0  0  0  0  0  0  0  0  0  0  0
  112.9329  165.3935  147.3022 C   0  0  0  0  0  0  0  0  0  0  0  0
  112.7785  166.6673  146.5870 C   0  0  0  0  0  0  0  0  0  0  0  0
  113.3003  167.9082  147.3480 C   0  0  0  0  0  0  0  0  0  0  0  0
  113.2023  168.8284  146.2268 O   0  0  0  0  0  0  0  0  0  0  0  0
  113.7996  168.1363  145.1373 C   0  0  0  0  0  0  0  0  0  0  0  0
  114.5026  168.6015  144.0269 C   0  0  0  0  0  0  0  0  0  0  0  0
  115.0137  167.7176  143.0853 C   0  0  0  0  0  0  0  0  0  0  0  0
  114.7876  166.3485  143.3128 C   0  0  0  0  0  0  0  0  0  0  0  0
  114.0947  165.9343  144.4020 C   0  0  0  0  0  0  0  0  0  0  0  0
  113.5761  166.7946  145.3469 C   0  0  0  0  0  0  0  0  0  0  0  0
  115.5220  165.6597  142.2345 N   0  0  0  0  0  0  0  0  0  0  0  0
  115.3718  166.5536  141.0914 C   0  0  0  0  0  0  0  0  0  0  0  0
  115.7736  167.8758  141.8034 C   0  0  0  0  0  0  0  0  0  0  0  0
  116.1216  164.4365  142.4864 C   0  0  0  0  0  0  0  0  0  0  0  0
  115.4426  163.3645  142.1616 O   0  0  0  0  0  0  0  0  0  0  0  0
  117.4102  164.1727  143.0855 C   0  0  0  0  0  0  0  0  0  0  0  0
  117.4816  163.9352  144.4858 C   0  0  0  0  0  0  0  0  0  0  0  0
  118.6962  163.7900  145.1349 C   0  0  0  0  0  0  0  0  0  0  0  0
  119.8797  163.8672  144.4493 C   0  0  0  0  0  0  0  0  0  0  0  0
  119.7877  164.0923  143.0808 C   0  0  0  0  0  0  0  0  0  0  0  0
  118.5956  164.2439  142.4014 C   0  0  0  0  0  0  0  0  0  0  0  0
  121.2025  163.8065  145.1063 C   0  0  0  0  0  0  0  0  0  0  0  0
  121.4901  164.8807  145.9695 C   0  0  0  0  0  0  0  0  0  0  0  0
  120.5294  165.9788  146.2392 C   0  0  0  0  0  0  0  0  0  0  0  0
  122.6922  164.9494  146.6267 C   0  0  0  0  0  0  0  0  0  0  0  0
  123.6402  163.9325  146.4320 C   0  0  0  0  0  0  0  0  0  0  0  0
  123.3551  162.8854  145.5885 C   0  0  0  0  0  0  0  0  0  0  0  0
  122.1270  162.8272  144.9250 C   0  0  0  0  0  0  0  0  0  0  0  0
  124.8867  164.1076  147.1686 C   0  0  0  0  0  0  0  0  0  0  0  0
  125.5444  165.2070  147.5632 N   0  0  0  0  0  0  0  0  0  0  0  0
  126.6534  164.8313  148.1738 O   0  0  0  0  0  0  0  0  0  0  0  0
  126.7585  163.5259  148.2039 C   0  0  0  0  0  0  0  0  0  0  0  0
  127.8461  162.6766  148.7943 C   0  0  0  0  0  0  0  0  0  0  0  0
  125.6631  163.0678  147.5812 N   0  0  0  0  0  0  0  0  0  0  0  0
  111.3373  167.0423  146.2539 C   0  0  0  0  0  0  0  0  0  0  0  0
  110.4227  166.6122  147.3866 C   0  0  0  0  0  0  0  0  0  0  0  0
  1  2  1  0
  2  3  1  0
  3  4  1  0
  4  5  1  0
  5  6  1  0
  6  7  1  0
  7  8  1  0
  8  9  2  0
  9 10  1  0
 10 11  2  0
 11 12  1  0
 12 13  2  0
 11 14  1  0
 14 15  1  0
 15 16  1  0
 14 17  1  0
 17 18  2  0
 17 19  1  0
 19 20  2  0
 20 21  1  0
 21 22  2  0
 22 23  1  0
 23 24  2  0
 22 25  1  0
 25 26  2  0
 26 27  1  0
 26 28  1  0
 28 29  2  0
 29 30  1  0
 30 31  2  0
 29 32  1  0
 32 33  2  0
 33 34  1  0
 34 35  1  0
 35 36  1  0
 35 37  2  0
  5 38  1  0
 38 39  1  0
 39  2  1  0
 13  5  1  0
 24 19  1  0
 31 25  1  0
 37 32  1  0
 13  8  1  0
 16 10  1  0
M  END
$$$$
