
     RDKit          3D

 39 45  0  0  0  0  0  0  0  0999 V2000
  141.2737  175.0462  150.7863 C   0  0  0  0  0  0  0  0  0  0  0  0
  142.6588  175.2921  150.5193 N   0  0  0  0  0  0  0  0  0  0  0  0
  143.2033  176.1141  151.5477 C   0  0  0  0  0  0  0  0  0  0  0  0
  144.5069  176.7620  151.2959 C   0  0  0  0  0  0  0  0  0  0  0  0
  145.0212  176.8120  149.9208 C   0  0  0  0  0  0  0  0  0  0  0  0
  145.0146  178.2167  149.2742 C   0  0  0  0  0  0  0  0  0  0  0  0
  145.8081  177.8542  148.1113 O   0  0  0  0  0  0  0  0  0  0  0  0
  146.9078  177.1218  148.6376 C   0  0  0  0  0  0  0  0  0  0  0  0
  148.2240  176.9951  148.1958 C   0  0  0  0  0  0  0  0  0  0  0  0
  149.1397  176.2209  148.8965 C   0  0  0  0  0  0  0  0  0  0  0  0
  148.6723  175.5839  150.0597 C   0  0  0  0  0  0  0  0  0  0  0  0
  147.3834  175.7267  150.4552 C   0  0  0  0  0  0  0  0  0  0  0  0
  146.4575  176.4875  149.7729 C   0  0  0  0  0  0  0  0  0  0  0  0
  149.8640  174.9374  150.6416 N   0  0  0  0  0  0  0  0  0  0  0  0
  150.6318  174.5183  149.4740 C   0  0  0  0  0  0  0  0  0  0  0  0
  150.5806  175.8621  148.6944 C   0  0  0  0  0  0  0  0  0  0  0  0
  149.9931  174.8502  152.0182 C   0  0  0  0  0  0  0  0  0  0  0  0
  151.2055  174.9322  152.5071 O   0  0  0  0  0  0  0  0  0  0  0  0
  148.9577  174.6602  153.0085 C   0  0  0  0  0  0  0  0  0  0  0  0
  148.0509  173.5754  152.8556 C   0  0  0  0  0  0  0  0  0  0  0  0
  146.9710  173.4085  153.7062 C   0  0  0  0  0  0  0  0  0  0  0  0
  146.7359  174.2842  154.7331 C   0  0  0  0  0  0  0  0  0  0  0  0
  147.6379  175.3329  154.8699 C   0  0  0  0  0  0  0  0  0  0  0  0
  148.7231  175.5314  154.0401 C   0  0  0  0  0  0  0  0  0  0  0  0
  145.5515  174.2016  155.6138 C   0  0  0  0  0  0  0  0  0  0  0  0
  144.8699  175.4172  155.8129 C   0  0  0  0  0  0  0  0  0  0  0  0
  145.2766  176.6866  155.1612 C   0  0  0  0  0  0  0  0  0  0  0  0
  143.7644  175.4765  156.6228 C   0  0  0  0  0  0  0  0  0  0  0  0
  143.3133  174.3072  157.2554 C   0  0  0  0  0  0  0  0  0  0  0  0
  143.9817  173.1226  157.0580 C   0  0  0  0  0  0  0  0  0  0  0  0
  145.1065  173.0756  156.2307 C   0  0  0  0  0  0  0  0  0  0  0  0
  142.1383  174.4825  158.1014 C   0  0  0  0  0  0  0  0  0  0  0  0
  141.3275  175.5317  158.2981 N   0  0  0  0  0  0  0  0  0  0  0  0
  140.4207  175.1936  159.1965 O   0  0  0  0  0  0  0  0  0  0  0  0
  140.5937  173.9604  159.6032 C   0  0  0  0  0  0  0  0  0  0  0  0
  139.8005  173.1736  160.6054 C   0  0  0  0  0  0  0  0  0  0  0  0
  141.6600  173.5105  158.9264 N   0  0  0  0  0  0  0  0  0  0  0  0
  144.2464  175.9621  148.9177 C   0  0  0  0  0  0  0  0  0  0  0  0
  142.7657  176.0022  149.2503 C   0  0  0  0  0  0  0  0  0  0  0  0
  1  2  1  0
  2  3  1  0
  3  4  1  0
  4  5  1  0
  5  6  1  0
  6  7  1  0
  7  8  1  0
  8  9  2  0
  9 10  1  0
 10 11  2  0
 11 12  1  0
 12 13  2  0
 11 14  1  0
 14 15  1  0
 15 16  1  0
 14 17  1  0
 17 18  2  0
 17 19  1  0
 19 20  2  0
 20 21  1  0
 21 22  2  0
 22 23  1  0
 23 24  2  0
 22 25  1  0
 25 26  2  0
 26 27  1  0
 26 28  1  0
 28 29  2  0
 29 30  1  0
 30 31  2  0
 29 32  1  0
 32 33  2  0
 33 34  1  0
 34 35  1  0
 35 36  1  0
 35 37  2  0
  5 38  1  0
 38 39  1  0
 39  2  1  0
 13  5  1  0
 24 19  1  0
 31 25  1  0
 37 32  1  0
 13  8  1  0
 16 10  1  0
M  END
$$$$
