
     RDKit          3D

 39 45  0  0  0  0  0  0  0  0999 V2000
  189.0797  154.1666  126.1681 C   0  0  0  0  0  0  0  0  0  0  0  0
  188.8413  155.3170  126.9866 N   0  0  0  0  0  0  0  0  0  0  0  0
  187.4402  155.4723  127.1932 C   0  0  0  0  0  0  0  0  0  0  0  0
  186.9588  156.7680  127.7146 C   0  0  0  0  0  0  0  0  0  0  0  0
  187.8628  157.9254  127.6851 C   0  0  0  0  0  0  0  0  0  0  0  0
  187.4859  159.0196  126.6594 C   0  0  0  0  0  0  0  0  0  0  0  0
  188.4259  160.0163  127.1456 O   0  0  0  0  0  0  0  0  0  0  0  0
  188.2505  160.0211  128.5569 C   0  0  0  0  0  0  0  0  0  0  0  0
  188.3893  161.0410  129.4973 C   0  0  0  0  0  0  0  0  0  0  0  0
  188.1460  160.8063  130.8444 C   0  0  0  0  0  0  0  0  0  0  0  0
  187.7557  159.5032  131.2004 C   0  0  0  0  0  0  0  0  0  0  0  0
  187.6363  158.5359  130.2580 C   0  0  0  0  0  0  0  0  0  0  0  0
  187.8761  158.7465  128.9164 C   0  0  0  0  0  0  0  0  0  0  0  0
  187.4659  159.5767  132.6451 N   0  0  0  0  0  0  0  0  0  0  0  0
  188.4498  160.5311  133.1445 C   0  0  0  0  0  0  0  0  0  0  0  0
  188.2205  161.6446  132.0843 C   0  0  0  0  0  0  0  0  0  0  0  0
  186.4496  158.8024  133.1806 C   0  0  0  0  0  0  0  0  0  0  0  0
  185.8655  157.9501  132.3756 O   0  0  0  0  0  0  0  0  0  0  0  0
  185.9218  158.8163  134.5261 C   0  0  0  0  0  0  0  0  0  0  0  0
  186.4166  157.8730  135.4684 C   0  0  0  0  0  0  0  0  0  0  0  0
  185.8712  157.7615  136.7363 C   0  0  0  0  0  0  0  0  0  0  0  0
  184.8319  158.5607  137.1335 C   0  0  0  0  0  0  0  0  0  0  0  0
  184.3681  159.4807  136.2005 C   0  0  0  0  0  0  0  0  0  0  0  0
  184.8857  159.6182  134.9281 C   0  0  0  0  0  0  0  0  0  0  0  0
  184.1576  158.4232  138.4418 C   0  0  0  0  0  0  0  0  0  0  0  0
  184.9079  158.8625  139.5490 C   0  0  0  0  0  0  0  0  0  0  0  0
  186.2610  159.4580  139.4219 C   0  0  0  0  0  0  0  0  0  0  0  0
  184.4001  158.7726  140.8201 C   0  0  0  0  0  0  0  0  0  0  0  0
  183.1166  158.2367  141.0103 C   0  0  0  0  0  0  0  0  0  0  0  0
  182.3874  157.8093  139.9263 C   0  0  0  0  0  0  0  0  0  0  0  0
  182.9161  157.9062  138.6369 C   0  0  0  0  0  0  0  0  0  0  0  0
  182.6772  158.1769  142.3996 C   0  0  0  0  0  0  0  0  0  0  0  0
  182.1949  157.1700  143.1415 N   0  0  0  0  0  0  0  0  0  0  0  0
  181.9087  157.6385  144.3425 O   0  0  0  0  0  0  0  0  0  0  0  0
  182.1843  158.9162  144.4305 C   0  0  0  0  0  0  0  0  0  0  0  0
  182.0197  159.8423  145.6001 C   0  0  0  0  0  0  0  0  0  0  0  0
  182.6635  159.2590  143.2261 N   0  0  0  0  0  0  0  0  0  0  0  0
  189.3100  157.5968  127.3292 C   0  0  0  0  0  0  0  0  0  0  0  0
  189.3418  156.4940  126.2865 C   0  0  0  0  0  0  0  0  0  0  0  0
  1  2  1  0
  2  3  1  0
  3  4  1  0
  4  5  1  0
  5  6  1  0
  6  7  1  0
  7  8  1  0
  8  9  2  0
  9 10  1  0
 10 11  2  0
 11 12  1  0
 12 13  2  0
 11 14  1  0
 14 15  1  0
 15 16  1  0
 14 17  1  0
 17 18  2  0
 17 19  1  0
 19 20  2  0
 20 21  1  0
 21 22  2  0
 22 23  1  0
 23 24  2  0
 22 25  1  0
 25 26  2  0
 26 27  1  0
 26 28  1  0
 28 29  2  0
 29 30  1  0
 30 31  2  0
 29 32  1  0
 32 33  2  0
 33 34  1  0
 34 35  1  0
 35 36  1  0
 35 37  2  0
  5 38  1  0
 38 39  1  0
 39  2  1  0
 13  5  1  0
 24 19  1  0
 31 25  1  0
 37 32  1  0
 13  8  1  0
 16 10  1  0
M  END
$$$$
