
     RDKit          3D

 39 45  0  0  0  0  0  0  0  0999 V2000
  130.0308  150.5482  138.1017 C   0  0  0  0  0  0  0  0  0  0  0  0
  129.2567  149.7718  137.1806 N   0  0  0  0  0  0  0  0  0  0  0  0
  129.5863  150.1476  135.8466 C   0  0  0  0  0  0  0  0  0  0  0  0
  128.6747  149.7227  134.7645 C   0  0  0  0  0  0  0  0  0  0  0  0
  127.3335  149.2372  135.1156 C   0  0  0  0  0  0  0  0  0  0  0  0
  126.1762  150.1889  134.7333 C   0  0  0  0  0  0  0  0  0  0  0  0
  125.1051  149.2423  134.9979 O   0  0  0  0  0  0  0  0  0  0  0  0
  125.5176  148.0410  134.3582 C   0  0  0  0  0  0  0  0  0  0  0  0
  124.7821  147.0138  133.7685 C   0  0  0  0  0  0  0  0  0  0  0  0
  125.4183  145.9270  133.1828 C   0  0  0  0  0  0  0  0  0  0  0  0
  126.8240  145.9224  133.2155 C   0  0  0  0  0  0  0  0  0  0  0  0
  127.5049  146.9371  133.8027 C   0  0  0  0  0  0  0  0  0  0  0  0
  126.8933  148.0232  134.3925 C   0  0  0  0  0  0  0  0  0  0  0  0
  127.2163  144.7302  132.4399 N   0  0  0  0  0  0  0  0  0  0  0  0
  126.1744  143.7585  132.7536 C   0  0  0  0  0  0  0  0  0  0  0  0
  124.9462  144.6778  132.5029 C   0  0  0  0  0  0  0  0  0  0  0  0
  128.3699  144.7602  131.6733 C   0  0  0  0  0  0  0  0  0  0  0  0
  128.8333  145.9402  131.3440 O   0  0  0  0  0  0  0  0  0  0  0  0
  129.1389  143.6486  131.1615 C   0  0  0  0  0  0  0  0  0  0  0  0
  130.0741  143.0067  132.0194 C   0  0  0  0  0  0  0  0  0  0  0  0
  130.9196  142.0132  131.5551 C   0  0  0  0  0  0  0  0  0  0  0  0
  130.8853  141.6075  130.2472 C   0  0  0  0  0  0  0  0  0  0  0  0
  129.9592  142.2419  129.4273 C   0  0  0  0  0  0  0  0  0  0  0  0
  129.1029  143.2367  129.8548 C   0  0  0  0  0  0  0  0  0  0  0  0
  131.8234  140.6151  129.6813 C   0  0  0  0  0  0  0  0  0  0  0  0
  131.9101  139.4030  130.3918 C   0  0  0  0  0  0  0  0  0  0  0  0
  131.0962  139.1147  131.5984 C   0  0  0  0  0  0  0  0  0  0  0  0
  132.7578  138.4070  129.9781 C   0  0  0  0  0  0  0  0  0  0  0  0
  133.5432  138.6061  128.8317 C   0  0  0  0  0  0  0  0  0  0  0  0
  133.4551  139.7911  128.1409 C   0  0  0  0  0  0  0  0  0  0  0  0
  132.5878  140.7976  128.5728 C   0  0  0  0  0  0  0  0  0  0  0  0
  134.4163  137.4904  128.4857 C   0  0  0  0  0  0  0  0  0  0  0  0
  134.6689  136.3283  129.1044 N   0  0  0  0  0  0  0  0  0  0  0  0
  135.5692  135.6687  128.3986 O   0  0  0  0  0  0  0  0  0  0  0  0
  135.9236  136.3439  127.3334 C   0  0  0  0  0  0  0  0  0  0  0  0
  136.9077  135.9747  126.2621 C   0  0  0  0  0  0  0  0  0  0  0  0
  135.2105  137.4783  127.3796 N   0  0  0  0  0  0  0  0  0  0  0  0
  127.1108  148.9976  136.6062 C   0  0  0  0  0  0  0  0  0  0  0  0
  127.8449  150.0562  137.4090 C   0  0  0  0  0  0  0  0  0  0  0  0
  1  2  1  0
  2  3  1  0
  3  4  1  0
  4  5  1  0
  5  6  1  0
  6  7  1  0
  7  8  1  0
  8  9  2  0
  9 10  1  0
 10 11  2  0
 11 12  1  0
 12 13  2  0
 11 14  1  0
 14 15  1  0
 15 16  1  0
 14 17  1  0
 17 18  2  0
 17 19  1  0
 19 20  2  0
 20 21  1  0
 21 22  2  0
 22 23  1  0
 23 24  2  0
 22 25  1  0
 25 26  2  0
 26 27  1  0
 26 28  1  0
 28 29  2  0
 29 30  1  0
 30 31  2  0
 29 32  1  0
 32 33  2  0
 33 34  1  0
 34 35  1  0
 35 36  1  0
 35 37  2  0
  5 38  1  0
 38 39  1  0
 39  2  1  0
 13  5  1  0
 24 19  1  0
 31 25  1  0
 37 32  1  0
 13  8  1  0
 16 10  1  0
M  END
$$$$
