
     RDKit          3D

 39 45  0  0  0  0  0  0  0  0999 V2000
  143.2199  145.9346  121.6919 C   0  0  0  0  0  0  0  0  0  0  0  0
  142.1086  146.7780  121.3690 N   0  0  0  0  0  0  0  0  0  0  0  0
  142.4316  148.1306  121.6786 C   0  0  0  0  0  0  0  0  0  0  0  0
  141.3249  149.1070  121.7439 C   0  0  0  0  0  0  0  0  0  0  0  0
  139.9441  148.6113  121.8197 C   0  0  0  0  0  0  0  0  0  0  0  0
  139.2505  148.8237  123.1854 C   0  0  0  0  0  0  0  0  0  0  0  0
  137.9160  148.4597  122.7382 O   0  0  0  0  0  0  0  0  0  0  0  0
  137.7321  149.1790  121.5251 C   0  0  0  0  0  0  0  0  0  0  0  0
  136.5849  149.7054  120.9331 C   0  0  0  0  0  0  0  0  0  0  0  0
  136.6562  150.3948  119.7294 C   0  0  0  0  0  0  0  0  0  0  0  0
  137.9309  150.5316  119.1519 C   0  0  0  0  0  0  0  0  0  0  0  0
  139.0232  150.0014  119.7550 C   0  0  0  0  0  0  0  0  0  0  0  0
  138.9744  149.3110  120.9478 C   0  0  0  0  0  0  0  0  0  0  0  0
  137.7191  151.3830  117.9658 N   0  0  0  0  0  0  0  0  0  0  0  0
  136.4055  150.9745  117.4801 C   0  0  0  0  0  0  0  0  0  0  0  0
  135.6472  151.0488  118.8351 C   0  0  0  0  0  0  0  0  0  0  0  0
  138.7015  152.2816  117.5828 C   0  0  0  0  0  0  0  0  0  0  0  0
  138.6179  152.7717  116.3710 O   0  0  0  0  0  0  0  0  0  0  0  0
  139.8381  152.7499  118.3430 C   0  0  0  0  0  0  0  0  0  0  0  0
  139.7611  154.0166  118.9848 C   0  0  0  0  0  0  0  0  0  0  0  0
  140.8544  154.5690  119.6306 C   0  0  0  0  0  0  0  0  0  0  0  0
  142.0557  153.9123  119.6782 C   0  0  0  0  0  0  0  0  0  0  0  0
  142.1077  152.6727  119.0515 C   0  0  0  0  0  0  0  0  0  0  0  0
  141.0396  152.0927  118.3971 C   0  0  0  0  0  0  0  0  0  0  0  0
  143.2749  154.4949  120.2776 C   0  0  0  0  0  0  0  0  0  0  0  0
  144.4793  153.8637  119.9133 C   0  0  0  0  0  0  0  0  0  0  0  0
  144.5381  152.7220  118.9674 C   0  0  0  0  0  0  0  0  0  0  0  0
  145.6790  154.2995  120.4155 C   0  0  0  0  0  0  0  0  0  0  0  0
  145.6976  155.3886  121.3011 C   0  0  0  0  0  0  0  0  0  0  0  0
  144.5193  156.0021  121.6539 C   0  0  0  0  0  0  0  0  0  0  0  0
  143.3040  155.5485  121.1353 C   0  0  0  0  0  0  0  0  0  0  0  0
  147.0219  155.7637  121.7834 C   0  0  0  0  0  0  0  0  0  0  0  0
  147.5989  156.9590  121.9709 N   0  0  0  0  0  0  0  0  0  0  0  0
  148.8341  156.7625  122.3946 O   0  0  0  0  0  0  0  0  0  0  0  0
  149.1010  155.4843  122.4995 C   0  0  0  0  0  0  0  0  0  0  0  0
  150.3695  154.8148  122.9416 C   0  0  0  0  0  0  0  0  0  0  0  0
  147.9786  154.8558  122.1217 N   0  0  0  0  0  0  0  0  0  0  0  0
  139.7894  147.1123  121.5789 C   0  0  0  0  0  0  0  0  0  0  0  0
  140.9693  146.3732  122.1840 C   0  0  0  0  0  0  0  0  0  0  0  0
  1  2  1  0
  2  3  1  0
  3  4  1  0
  4  5  1  0
  5  6  1  0
  6  7  1  0
  7  8  1  0
  8  9  2  0
  9 10  1  0
 10 11  2  0
 11 12  1  0
 12 13  2  0
 11 14  1  0
 14 15  1  0
 15 16  1  0
 14 17  1  0
 17 18  2  0
 17 19  1  0
 19 20  2  0
 20 21  1  0
 21 22  2  0
 22 23  1  0
 23 24  2  0
 22 25  1  0
 25 26  2  0
 26 27  1  0
 26 28  1  0
 28 29  2  0
 29 30  1  0
 30 31  2  0
 29 32  1  0
 32 33  2  0
 33 34  1  0
 34 35  1  0
 35 36  1  0
 35 37  2  0
  5 38  1  0
 38 39  1  0
 39  2  1  0
 13  5  1  0
 24 19  1  0
 31 25  1  0
 37 32  1  0
 13  8  1  0
 16 10  1  0
M  END
$$$$
