
     RDKit          3D

 39 45  0  0  0  0  0  0  0  0999 V2000
  140.5911  179.6750  140.3255 C   0  0  0  0  0  0  0  0  0  0  0  0
  140.7780  180.0366  141.6984 N   0  0  0  0  0  0  0  0  0  0  0  0
  140.1283  179.0834  142.5345 C   0  0  0  0  0  0  0  0  0  0  0  0
  139.9069  179.4440  143.9499 C   0  0  0  0  0  0  0  0  0  0  0  0
  140.0509  180.8484  144.3557 C   0  0  0  0  0  0  0  0  0  0  0  0
  138.7268  181.5598  144.7193 C   0  0  0  0  0  0  0  0  0  0  0  0
  139.3418  182.7498  145.2840 O   0  0  0  0  0  0  0  0  0  0  0  0
  140.3546  182.2567  146.1520 C   0  0  0  0  0  0  0  0  0  0  0  0
  140.8811  182.7706  147.3362 C   0  0  0  0  0  0  0  0  0  0  0  0
  141.8742  182.0903  148.0291 C   0  0  0  0  0  0  0  0  0  0  0  0
  142.3100  180.8720  147.4788 C   0  0  0  0  0  0  0  0  0  0  0  0
  141.7776  180.4066  146.3221 C   0  0  0  0  0  0  0  0  0  0  0  0
  140.7938  181.0672  145.6168 C   0  0  0  0  0  0  0  0  0  0  0  0
  143.2668  180.3329  148.4639 N   0  0  0  0  0  0  0  0  0  0  0  0
  143.9283  181.5234  148.9870 C   0  0  0  0  0  0  0  0  0  0  0  0
  142.6526  182.3617  149.2805 C   0  0  0  0  0  0  0  0  0  0  0  0
  143.3508  178.9641  148.6599 C   0  0  0  0  0  0  0  0  0  0  0  0
  143.3459  178.2096  147.5892 O   0  0  0  0  0  0  0  0  0  0  0  0
  143.4271  178.2369  149.9067 C   0  0  0  0  0  0  0  0  0  0  0  0
  144.6478  177.5960  150.2551 C   0  0  0  0  0  0  0  0  0  0  0  0
  144.7489  176.7914  151.3776 C   0  0  0  0  0  0  0  0  0  0  0  0
  143.6730  176.5837  152.1998 C   0  0  0  0  0  0  0  0  0  0  0  0
  142.4917  177.2251  151.8459 C   0  0  0  0  0  0  0  0  0  0  0  0
  142.3540  178.0318  150.7342 C   0  0  0  0  0  0  0  0  0  0  0  0
  143.7036  175.6669  153.3589 C   0  0  0  0  0  0  0  0  0  0  0  0
  142.5433  174.8897  153.5359 C   0  0  0  0  0  0  0  0  0  0  0  0
  141.3839  174.9482  152.6118 C   0  0  0  0  0  0  0  0  0  0  0  0
  142.4407  174.0120  154.5851 C   0  0  0  0  0  0  0  0  0  0  0  0
  143.5098  173.8922  155.4870 C   0  0  0  0  0  0  0  0  0  0  0  0
  144.6410  174.6528  155.3102 C   0  0  0  0  0  0  0  0  0  0  0  0
  144.7328  175.5432  154.2376 C   0  0  0  0  0  0  0  0  0  0  0  0
  143.2938  172.9402  156.5705 C   0  0  0  0  0  0  0  0  0  0  0  0
  142.1795  172.5389  157.1983 N   0  0  0  0  0  0  0  0  0  0  0  0
  142.5201  171.6791  158.1409 O   0  0  0  0  0  0  0  0  0  0  0  0
  143.8161  171.4898  158.1634 C   0  0  0  0  0  0  0  0  0  0  0  0
  144.6284  170.6037  159.0621 C   0  0  0  0  0  0  0  0  0  0  0  0
  144.3051  172.2702  157.1891 N   0  0  0  0  0  0  0  0  0  0  0  0
  140.6575  181.7613  143.2938 C   0  0  0  0  0  0  0  0  0  0  0  0
  140.1675  181.3422  141.9195 C   0  0  0  0  0  0  0  0  0  0  0  0
  1  2  1  0
  2  3  1  0
  3  4  1  0
  4  5  1  0
  5  6  1  0
  6  7  1  0
  7  8  1  0
  8  9  2  0
  9 10  1  0
 10 11  2  0
 11 12  1  0
 12 13  2  0
 11 14  1  0
 14 15  1  0
 15 16  1  0
 14 17  1  0
 17 18  2  0
 17 19  1  0
 19 20  2  0
 20 21  1  0
 21 22  2  0
 22 23  1  0
 23 24  2  0
 22 25  1  0
 25 26  2  0
 26 27  1  0
 26 28  1  0
 28 29  2  0
 29 30  1  0
 30 31  2  0
 29 32  1  0
 32 33  2  0
 33 34  1  0
 34 35  1  0
 35 36  1  0
 35 37  2  0
  5 38  1  0
 38 39  1  0
 39  2  1  0
 13  5  1  0
 24 19  1  0
 31 25  1  0
 37 32  1  0
 13  8  1  0
 16 10  1  0
M  END
$$$$
