
     RDKit          3D

 39 45  0  0  0  0  0  0  0  0999 V2000
  111.2786  170.3838  144.2671 C   0  0  0  0  0  0  0  0  0  0  0  0
  111.8432  169.7159  143.1332 N   0  0  0  0  0  0  0  0  0  0  0  0
  113.1762  170.1741  142.9258 C   0  0  0  0  0  0  0  0  0  0  0  0
  113.8148  169.8750  141.6277 C   0  0  0  0  0  0  0  0  0  0  0  0
  112.9739  169.4290  140.5087 C   0  0  0  0  0  0  0  0  0  0  0  0
  112.8067  170.4606  139.3689 C   0  0  0  0  0  0  0  0  0  0  0  0
  112.1770  169.5490  138.4278 O   0  0  0  0  0  0  0  0  0  0  0  0
  112.9870  168.3804  138.4587 C   0  0  0  0  0  0  0  0  0  0  0  0
  113.2770  167.4363  137.4748 C   0  0  0  0  0  0  0  0  0  0  0  0
  114.1229  166.3671  137.7401 C   0  0  0  0  0  0  0  0  0  0  0  0
  114.6636  166.2931  139.0359 C   0  0  0  0  0  0  0  0  0  0  0  0
  114.3543  167.2277  139.9682 C   0  0  0  0  0  0  0  0  0  0  0  0
  113.5146  168.2947  139.7270 C   0  0  0  0  0  0  0  0  0  0  0  0
  115.5890  165.1448  138.9945 N   0  0  0  0  0  0  0  0  0  0  0  0
  114.9275  164.2030  138.0979 C   0  0  0  0  0  0  0  0  0  0  0  0
  114.6130  165.1960  136.9439 C   0  0  0  0  0  0  0  0  0  0  0  0
  116.7551  165.1768  139.7417 C   0  0  0  0  0  0  0  0  0  0  0  0
  117.8635  165.4533  139.1006 O   0  0  0  0  0  0  0  0  0  0  0  0
  116.9253  164.9257  141.1548 C   0  0  0  0  0  0  0  0  0  0  0  0
  116.7441  163.6030  141.6447 C   0  0  0  0  0  0  0  0  0  0  0  0
  116.7811  163.3210  142.9999 C   0  0  0  0  0  0  0  0  0  0  0  0
  116.9971  164.3093  143.9237 C   0  0  0  0  0  0  0  0  0  0  0  0
  117.1793  165.5934  143.4239 C   0  0  0  0  0  0  0  0  0  0  0  0
  117.1468  165.9114  142.0810 C   0  0  0  0  0  0  0  0  0  0  0  0
  116.9593  164.0771  145.3831 C   0  0  0  0  0  0  0  0  0  0  0  0
  115.6783  164.1362  145.9638 C   0  0  0  0  0  0  0  0  0  0  0  0
  114.4446  164.3740  145.1745 C   0  0  0  0  0  0  0  0  0  0  0  0
  115.5112  163.9544  147.3131 C   0  0  0  0  0  0  0  0  0  0  0  0
  116.6351  163.7056  148.1167 C   0  0  0  0  0  0  0  0  0  0  0  0
  117.8840  163.6485  147.5454 C   0  0  0  0  0  0  0  0  0  0  0  0
  118.0406  163.8354  146.1698 C   0  0  0  0  0  0  0  0  0  0  0  0
  116.3482  163.5379  149.5367 C   0  0  0  0  0  0  0  0  0  0  0  0
  117.0447  163.8666  150.6339 N   0  0  0  0  0  0  0  0  0  0  0  0
  116.3641  163.4686  151.6931 O   0  0  0  0  0  0  0  0  0  0  0  0
  115.2411  162.8910  151.3449 C   0  0  0  0  0  0  0  0  0  0  0  0
  114.1717  162.2977  152.2150 C   0  0  0  0  0  0  0  0  0  0  0  0
  115.2230  162.9305  150.0049 N   0  0  0  0  0  0  0  0  0  0  0  0
  111.5348  169.0898  140.8866 C   0  0  0  0  0  0  0  0  0  0  0  0
  111.0481  170.0495  141.9574 C   0  0  0  0  0  0  0  0  0  0  0  0
  1  2  1  0
  2  3  1  0
  3  4  1  0
  4  5  1  0
  5  6  1  0
  6  7  1  0
  7  8  1  0
  8  9  2  0
  9 10  1  0
 10 11  2  0
 11 12  1  0
 12 13  2  0
 11 14  1  0
 14 15  1  0
 15 16  1  0
 14 17  1  0
 17 18  2  0
 17 19  1  0
 19 20  2  0
 20 21  1  0
 21 22  2  0
 22 23  1  0
 23 24  2  0
 22 25  1  0
 25 26  2  0
 26 27  1  0
 26 28  1  0
 28 29  2  0
 29 30  1  0
 30 31  2  0
 29 32  1  0
 32 33  2  0
 33 34  1  0
 34 35  1  0
 35 36  1  0
 35 37  2  0
  5 38  1  0
 38 39  1  0
 39  2  1  0
 13  5  1  0
 24 19  1  0
 31 25  1  0
 37 32  1  0
 13  8  1  0
 16 10  1  0
M  END
$$$$
