
     RDKit          3D

 39 45  0  0  0  0  0  0  0  0999 V2000
  144.9139  159.7858  125.6377 C   0  0  0  0  0  0  0  0  0  0  0  0
  145.2537  160.3415  126.9130 N   0  0  0  0  0  0  0  0  0  0  0  0
  146.5004  161.0244  126.8178 C   0  0  0  0  0  0  0  0  0  0  0  0
  147.1941  161.3731  128.0747 C   0  0  0  0  0  0  0  0  0  0  0  0
  146.7635  160.7328  129.3247 C   0  0  0  0  0  0  0  0  0  0  0  0
  147.7611  159.7043  129.9062 C   0  0  0  0  0  0  0  0  0  0  0  0
  147.0922  159.5490  131.1876 O   0  0  0  0  0  0  0  0  0  0  0  0
  146.8291  160.8775  131.6218 C   0  0  0  0  0  0  0  0  0  0  0  0
  146.7516  161.4287  132.9000 C   0  0  0  0  0  0  0  0  0  0  0  0
  146.4917  162.7814  133.0784 C   0  0  0  0  0  0  0  0  0  0  0  0
  146.3163  163.5518  131.9153 C   0  0  0  0  0  0  0  0  0  0  0  0
  146.3940  162.9791  130.6889 C   0  0  0  0  0  0  0  0  0  0  0  0
  146.6477  161.6384  130.4894 C   0  0  0  0  0  0  0  0  0  0  0  0
  146.1683  164.9378  132.3986 N   0  0  0  0  0  0  0  0  0  0  0  0
  145.4424  164.7875  133.6551 C   0  0  0  0  0  0  0  0  0  0  0  0
  146.3239  163.6674  134.2752 C   0  0  0  0  0  0  0  0  0  0  0  0
  146.6717  165.9846  131.6435 C   0  0  0  0  0  0  0  0  0  0  0  0
  146.3476  166.0108  130.3746 O   0  0  0  0  0  0  0  0  0  0  0  0
  147.5359  167.0636  132.0651 C   0  0  0  0  0  0  0  0  0  0  0  0
  147.0078  168.3825  132.1289 C   0  0  0  0  0  0  0  0  0  0  0  0
  147.8130  169.4722  132.4146 C   0  0  0  0  0  0  0  0  0  0  0  0
  149.1538  169.3201  132.6504 C   0  0  0  0  0  0  0  0  0  0  0  0
  149.6486  168.0225  132.5909 C   0  0  0  0  0  0  0  0  0  0  0  0
  148.8766  166.9138  132.3070 C   0  0  0  0  0  0  0  0  0  0  0  0
  150.0719  170.4570  132.8733 C   0  0  0  0  0  0  0  0  0  0  0  0
  150.4516  170.6637  134.2131 C   0  0  0  0  0  0  0  0  0  0  0  0
  150.0021  169.7882  135.3236 C   0  0  0  0  0  0  0  0  0  0  0  0
  151.2871  171.6970  134.5535 C   0  0  0  0  0  0  0  0  0  0  0  0
  151.7657  172.5525  133.5486 C   0  0  0  0  0  0  0  0  0  0  0  0
  151.3926  172.3468  132.2418 C   0  0  0  0  0  0  0  0  0  0  0  0
  150.5409  171.2908  131.9083 C   0  0  0  0  0  0  0  0  0  0  0  0
  152.6373  173.6230  134.0189 C   0  0  0  0  0  0  0  0  0  0  0  0
  152.7861  174.1891  135.2249 N   0  0  0  0  0  0  0  0  0  0  0  0
  153.6871  175.1493  135.1249 O   0  0  0  0  0  0  0  0  0  0  0  0
  154.1461  175.2428  133.9016 C   0  0  0  0  0  0  0  0  0  0  0  0
  155.1730  176.1850  133.3447 C   0  0  0  0  0  0  0  0  0  0  0  0
  153.4985  174.2963  133.2070 N   0  0  0  0  0  0  0  0  0  0  0  0
  145.4642  159.9390  129.2212 C   0  0  0  0  0  0  0  0  0  0  0  0
  145.3924  159.2505  127.8703 C   0  0  0  0  0  0  0  0  0  0  0  0
  1  2  1  0
  2  3  1  0
  3  4  1  0
  4  5  1  0
  5  6  1  0
  6  7  1  0
  7  8  1  0
  8  9  2  0
  9 10  1  0
 10 11  2  0
 11 12  1  0
 12 13  2  0
 11 14  1  0
 14 15  1  0
 15 16  1  0
 14 17  1  0
 17 18  2  0
 17 19  1  0
 19 20  2  0
 20 21  1  0
 21 22  2  0
 22 23  1  0
 23 24  2  0
 22 25  1  0
 25 26  2  0
 26 27  1  0
 26 28  1  0
 28 29  2  0
 29 30  1  0
 30 31  2  0
 29 32  1  0
 32 33  2  0
 33 34  1  0
 34 35  1  0
 35 36  1  0
 35 37  2  0
  5 38  1  0
 38 39  1  0
 39  2  1  0
 13  5  1  0
 24 19  1  0
 31 25  1  0
 37 32  1  0
 13  8  1  0
 16 10  1  0
M  END
$$$$
