
     RDKit          3D

 39 45  0  0  0  0  0  0  0  0999 V2000
  142.8974  150.5541  117.6249 C   0  0  0  0  0  0  0  0  0  0  0  0
  143.7162  151.4137  118.4255 N   0  0  0  0  0  0  0  0  0  0  0  0
  144.9093  150.7275  118.7934 C   0  0  0  0  0  0  0  0  0  0  0  0
  145.7249  151.2978  119.8852 C   0  0  0  0  0  0  0  0  0  0  0  0
  145.1324  152.3253  120.7519 C   0  0  0  0  0  0  0  0  0  0  0  0
  144.8284  151.8624  122.1957 C   0  0  0  0  0  0  0  0  0  0  0  0
  144.5367  153.1854  122.7230 O   0  0  0  0  0  0  0  0  0  0  0  0
  145.6022  154.0039  122.2565 C   0  0  0  0  0  0  0  0  0  0  0  0
  146.2097  155.1283  122.8135 C   0  0  0  0  0  0  0  0  0  0  0  0
  147.2625  155.7632  122.1675 C   0  0  0  0  0  0  0  0  0  0  0  0
  147.6762  155.2153  120.9404 C   0  0  0  0  0  0  0  0  0  0  0  0
  147.0574  154.1233  120.4277 C   0  0  0  0  0  0  0  0  0  0  0  0
  146.0088  153.4798  121.0506 C   0  0  0  0  0  0  0  0  0  0  0  0
  148.8549  156.0114  120.5490 N   0  0  0  0  0  0  0  0  0  0  0  0
  148.5357  157.3535  121.0236 C   0  0  0  0  0  0  0  0  0  0  0  0
  148.1005  156.9693  122.4656 C   0  0  0  0  0  0  0  0  0  0  0  0
  149.8991  155.4029  119.8718 C   0  0  0  0  0  0  0  0  0  0  0  0
  149.9507  155.5826  118.5754 O   0  0  0  0  0  0  0  0  0  0  0  0
  150.9505  154.5664  120.4045 C   0  0  0  0  0  0  0  0  0  0  0  0
  151.0297  153.2102  119.9839 C   0  0  0  0  0  0  0  0  0  0  0  0
  151.9415  152.3305  120.5428 C   0  0  0  0  0  0  0  0  0  0  0  0
  152.8072  152.7357  121.5241 C   0  0  0  0  0  0  0  0  0  0  0  0
  152.7187  154.0665  121.9154 C   0  0  0  0  0  0  0  0  0  0  0  0
  151.8216  154.9703  121.3825 C   0  0  0  0  0  0  0  0  0  0  0  0
  153.7382  151.8176  122.2136 C   0  0  0  0  0  0  0  0  0  0  0  0
  153.2248  151.2073  123.3737 C   0  0  0  0  0  0  0  0  0  0  0  0
  151.8399  151.4302  123.8574 C   0  0  0  0  0  0  0  0  0  0  0  0
  153.9960  150.3469  124.1130 C   0  0  0  0  0  0  0  0  0  0  0  0
  155.3103  150.0760  123.7006 C   0  0  0  0  0  0  0  0  0  0  0  0
  155.8073  150.6738  122.5671 C   0  0  0  0  0  0  0  0  0  0  0  0
  155.0116  151.5484  121.8229 C   0  0  0  0  0  0  0  0  0  0  0  0
  156.0458  149.1574  124.5620 C   0  0  0  0  0  0  0  0  0  0  0  0
  157.3501  148.8584  124.6420 N   0  0  0  0  0  0  0  0  0  0  0  0
  157.5078  147.9309  125.5686 O   0  0  0  0  0  0  0  0  0  0  0  0
  156.3612  147.6030  126.1106 C   0  0  0  0  0  0  0  0  0  0  0  0
  156.0768  146.6031  127.1932 C   0  0  0  0  0  0  0  0  0  0  0  0
  155.4463  148.3619  125.4905 N   0  0  0  0  0  0  0  0  0  0  0  0
  143.7912  152.8713  120.2704 C   0  0  0  0  0  0  0  0  0  0  0  0
  142.9818  151.7534  119.6384 C   0  0  0  0  0  0  0  0  0  0  0  0
  1  2  1  0
  2  3  1  0
  3  4  1  0
  4  5  1  0
  5  6  1  0
  6  7  1  0
  7  8  1  0
  8  9  2  0
  9 10  1  0
 10 11  2  0
 11 12  1  0
 12 13  2  0
 11 14  1  0
 14 15  1  0
 15 16  1  0
 14 17  1  0
 17 18  2  0
 17 19  1  0
 19 20  2  0
 20 21  1  0
 21 22  2  0
 22 23  1  0
 23 24  2  0
 22 25  1  0
 25 26  2  0
 26 27  1  0
 26 28  1  0
 28 29  2  0
 29 30  1  0
 30 31  2  0
 29 32  1  0
 32 33  2  0
 33 34  1  0
 34 35  1  0
 35 36  1  0
 35 37  2  0
  5 38  1  0
 38 39  1  0
 39  2  1  0
 13  5  1  0
 24 19  1  0
 31 25  1  0
 37 32  1  0
 13  8  1  0
 16 10  1  0
M  END
$$$$
