
     RDKit          3D

 39 45  0  0  0  0  0  0  0  0999 V2000
  139.3982  182.2029  138.5026 C   0  0  0  0  0  0  0  0  0  0  0  0
  139.9115  182.4113  139.8230 N   0  0  0  0  0  0  0  0  0  0  0  0
  138.8288  182.5257  140.7420 C   0  0  0  0  0  0  0  0  0  0  0  0
  139.1164  183.0763  142.0824 C   0  0  0  0  0  0  0  0  0  0  0  0
  140.3884  183.7767  142.3044 C   0  0  0  0  0  0  0  0  0  0  0  0
  140.2643  185.3061  142.4967 C   0  0  0  0  0  0  0  0  0  0  0  0
  141.6355  185.5182  142.9303 O   0  0  0  0  0  0  0  0  0  0  0  0
  141.8646  184.5136  143.9106 C   0  0  0  0  0  0  0  0  0  0  0  0
  142.6783  184.5020  145.0426 C   0  0  0  0  0  0  0  0  0  0  0  0
  142.7278  183.3901  145.8735 C   0  0  0  0  0  0  0  0  0  0  0  0
  141.9219  182.2949  145.5154 C   0  0  0  0  0  0  0  0  0  0  0  0
  141.1472  182.3413  144.4037 C   0  0  0  0  0  0  0  0  0  0  0  0
  141.0857  183.4333  143.5638 C   0  0  0  0  0  0  0  0  0  0  0  0
  142.0913  181.3255  146.6145 N   0  0  0  0  0  0  0  0  0  0  0  0
  143.4855  181.4943  147.0095 C   0  0  0  0  0  0  0  0  0  0  0  0
  143.4876  183.0450  147.1182 C   0  0  0  0  0  0  0  0  0  0  0  0
  141.0244  180.5282  146.9958 C   0  0  0  0  0  0  0  0  0  0  0  0
  139.9017  180.6852  146.3396 O   0  0  0  0  0  0  0  0  0  0  0  0
  140.9713  179.5399  148.0491 C   0  0  0  0  0  0  0  0  0  0  0  0
  140.8949  179.9783  149.3999 C   0  0  0  0  0  0  0  0  0  0  0  0
  140.9561  179.0847  150.4559 C   0  0  0  0  0  0  0  0  0  0  0  0
  141.0904  177.7389  150.2386 C   0  0  0  0  0  0  0  0  0  0  0  0
  141.1556  177.3305  148.9115 C   0  0  0  0  0  0  0  0  0  0  0  0
  141.1000  178.1924  147.8347 C   0  0  0  0  0  0  0  0  0  0  0  0
  141.2479  176.7533  151.3291 C   0  0  0  0  0  0  0  0  0  0  0  0
  142.4777  176.8101  152.0118 C   0  0  0  0  0  0  0  0  0  0  0  0
  143.5308  177.8066  151.6961 C   0  0  0  0  0  0  0  0  0  0  0  0
  142.7532  175.9374  153.0336 C   0  0  0  0  0  0  0  0  0  0  0  0
  141.7922  174.9808  153.3973 C   0  0  0  0  0  0  0  0  0  0  0  0
  140.5927  174.9292  152.7282 C   0  0  0  0  0  0  0  0  0  0  0  0
  140.3244  175.8238  151.6892 C   0  0  0  0  0  0  0  0  0  0  0  0
  142.1895  174.0966  154.4869 C   0  0  0  0  0  0  0  0  0  0  0  0
  141.5378  173.1117  155.1211 N   0  0  0  0  0  0  0  0  0  0  0  0
  142.3255  172.6340  156.0673 O   0  0  0  0  0  0  0  0  0  0  0  0
  143.4763  173.2596  156.0861 C   0  0  0  0  0  0  0  0  0  0  0  0
  144.6572  173.0433  156.9868 C   0  0  0  0  0  0  0  0  0  0  0  0
  143.4003  174.1708  155.1056 N   0  0  0  0  0  0  0  0  0  0  0  0
  141.3955  183.6487  141.1649 C   0  0  0  0  0  0  0  0  0  0  0  0
  140.6653  183.6593  139.8342 C   0  0  0  0  0  0  0  0  0  0  0  0
  1  2  1  0
  2  3  1  0
  3  4  1  0
  4  5  1  0
  5  6  1  0
  6  7  1  0
  7  8  1  0
  8  9  2  0
  9 10  1  0
 10 11  2  0
 11 12  1  0
 12 13  2  0
 11 14  1  0
 14 15  1  0
 15 16  1  0
 14 17  1  0
 17 18  2  0
 17 19  1  0
 19 20  2  0
 20 21  1  0
 21 22  2  0
 22 23  1  0
 23 24  2  0
 22 25  1  0
 25 26  2  0
 26 27  1  0
 26 28  1  0
 28 29  2  0
 29 30  1  0
 30 31  2  0
 29 32  1  0
 32 33  2  0
 33 34  1  0
 34 35  1  0
 35 36  1  0
 35 37  2  0
  5 38  1  0
 38 39  1  0
 39  2  1  0
 13  5  1  0
 24 19  1  0
 31 25  1  0
 37 32  1  0
 13  8  1  0
 16 10  1  0
M  END
$$$$
