
     RDKit          3D

 39 45  0  0  0  0  0  0  0  0999 V2000
  141.4362  180.3909  145.0701 C   0  0  0  0  0  0  0  0  0  0  0  0
  142.3699  179.7767  145.9653 N   0  0  0  0  0  0  0  0  0  0  0  0
  142.7891  180.7262  146.9412 C   0  0  0  0  0  0  0  0  0  0  0  0
  143.9894  180.4093  147.7418 C   0  0  0  0  0  0  0  0  0  0  0  0
  144.8760  179.3268  147.2943 C   0  0  0  0  0  0  0  0  0  0  0  0
  146.2474  179.7913  146.7514 C   0  0  0  0  0  0  0  0  0  0  0  0
  146.8461  178.4678  146.6939 O   0  0  0  0  0  0  0  0  0  0  0  0
  146.5403  177.8773  147.9511 C   0  0  0  0  0  0  0  0  0  0  0  0
  147.2334  176.9454  148.7222 C   0  0  0  0  0  0  0  0  0  0  0  0
  146.7341  176.5210  149.9469 C   0  0  0  0  0  0  0  0  0  0  0  0
  145.5105  177.0773  150.3595 C   0  0  0  0  0  0  0  0  0  0  0  0
  144.8627  177.9776  149.5797 C   0  0  0  0  0  0  0  0  0  0  0  0
  145.3388  178.4099  148.3598 C   0  0  0  0  0  0  0  0  0  0  0  0
  145.2874  176.5375  151.7143 N   0  0  0  0  0  0  0  0  0  0  0  0
  145.8329  175.1864  151.6396 C   0  0  0  0  0  0  0  0  0  0  0  0
  147.1969  175.5456  150.9861 C   0  0  0  0  0  0  0  0  0  0  0  0
  144.6614  177.3210  152.6700 C   0  0  0  0  0  0  0  0  0  0  0  0
  144.3083  178.5295  152.3084 O   0  0  0  0  0  0  0  0  0  0  0  0
  144.3529  176.9906  154.0428 C   0  0  0  0  0  0  0  0  0  0  0  0
  145.3891  177.0542  155.0147 C   0  0  0  0  0  0  0  0  0  0  0  0
  145.1839  176.6410  156.3203 C   0  0  0  0  0  0  0  0  0  0  0  0
  143.9693  176.1558  156.7275 C   0  0  0  0  0  0  0  0  0  0  0  0
  142.9681  176.1090  155.7645 C   0  0  0  0  0  0  0  0  0  0  0  0
  143.1371  176.5100  154.4544 C   0  0  0  0  0  0  0  0  0  0  0  0
  143.7230  175.6214  158.0836 C   0  0  0  0  0  0  0  0  0  0  0  0
  143.4605  174.2397  158.1420 C   0  0  0  0  0  0  0  0  0  0  0  0
  143.4665  173.3656  156.9430 C   0  0  0  0  0  0  0  0  0  0  0  0
  143.1995  173.6257  159.3406 C   0  0  0  0  0  0  0  0  0  0  0  0
  143.1975  174.3907  160.5177 C   0  0  0  0  0  0  0  0  0  0  0  0
  143.4546  175.7395  160.4560 C   0  0  0  0  0  0  0  0  0  0  0  0
  143.7189  176.3527  159.2289 C   0  0  0  0  0  0  0  0  0  0  0  0
  142.8985  173.6432  161.7338 C   0  0  0  0  0  0  0  0  0  0  0  0
  141.7572  173.1191  162.2025 N   0  0  0  0  0  0  0  0  0  0  0  0
  142.0054  172.5639  163.3747 O   0  0  0  0  0  0  0  0  0  0  0  0
  143.2668  172.6948  163.7032 C   0  0  0  0  0  0  0  0  0  0  0  0
  143.9790  172.2177  164.9352 C   0  0  0  0  0  0  0  0  0  0  0  0
  143.8298  173.3647  162.6874 N   0  0  0  0  0  0  0  0  0  0  0  0
  144.3202  178.4751  146.1565 C   0  0  0  0  0  0  0  0  0  0  0  0
  143.5350  179.3524  145.1982 C   0  0  0  0  0  0  0  0  0  0  0  0
  1  2  1  0
  2  3  1  0
  3  4  1  0
  4  5  1  0
  5  6  1  0
  6  7  1  0
  7  8  1  0
  8  9  2  0
  9 10  1  0
 10 11  2  0
 11 12  1  0
 12 13  2  0
 11 14  1  0
 14 15  1  0
 15 16  1  0
 14 17  1  0
 17 18  2  0
 17 19  1  0
 19 20  2  0
 20 21  1  0
 21 22  2  0
 22 23  1  0
 23 24  2  0
 22 25  1  0
 25 26  2  0
 26 27  1  0
 26 28  1  0
 28 29  2  0
 29 30  1  0
 30 31  2  0
 29 32  1  0
 32 33  2  0
 33 34  1  0
 34 35  1  0
 35 36  1  0
 35 37  2  0
  5 38  1  0
 38 39  1  0
 39  2  1  0
 13  5  1  0
 24 19  1  0
 31 25  1  0
 37 32  1  0
 13  8  1  0
 16 10  1  0
M  END
$$$$
