
     RDKit          3D

 39 45  0  0  0  0  0  0  0  0999 V2000
  106.5926  170.2519  143.0372 C   0  0  0  0  0  0  0  0  0  0  0  0
  107.5858  169.4358  142.4064 N   0  0  0  0  0  0  0  0  0  0  0  0
  108.6489  170.2588  141.9348 C   0  0  0  0  0  0  0  0  0  0  0  0
  109.5984  169.6725  140.9668 C   0  0  0  0  0  0  0  0  0  0  0  0
  109.2381  168.4208  140.2877 C   0  0  0  0  0  0  0  0  0  0  0  0
  108.9146  168.5668  138.7826 C   0  0  0  0  0  0  0  0  0  0  0  0
  108.8894  167.1427  138.4920 O   0  0  0  0  0  0  0  0  0  0  0  0
  110.0655  166.6276  139.1037 C   0  0  0  0  0  0  0  0  0  0  0  0
  110.8890  165.5574  138.7571 C   0  0  0  0  0  0  0  0  0  0  0  0
  112.0121  165.2482  139.5134 C   0  0  0  0  0  0  0  0  0  0  0  0
  112.2689  166.0639  140.6295 C   0  0  0  0  0  0  0  0  0  0  0  0
  111.4421  167.0931  140.9381 C   0  0  0  0  0  0  0  0  0  0  0  0
  110.3206  167.4153  140.2030 C   0  0  0  0  0  0  0  0  0  0  0  0
  113.5554  165.5787  141.1645 N   0  0  0  0  0  0  0  0  0  0  0  0
  113.5044  164.1399  140.9288 C   0  0  0  0  0  0  0  0  0  0  0  0
  113.0663  164.1857  139.4381 C   0  0  0  0  0  0  0  0  0  0  0  0
  114.4433  166.4766  141.7342 C   0  0  0  0  0  0  0  0  0  0  0  0
  114.1423  167.7482  141.6428 O   0  0  0  0  0  0  0  0  0  0  0  0
  115.6889  166.2016  142.4138 C   0  0  0  0  0  0  0  0  0  0  0  0
  115.6522  165.7695  143.7681 C   0  0  0  0  0  0  0  0  0  0  0  0
  116.8117  165.6003  144.5061 C   0  0  0  0  0  0  0  0  0  0  0  0
  118.0431  165.8412  143.9564 C   0  0  0  0  0  0  0  0  0  0  0  0
  118.0574  166.2552  142.6296 C   0  0  0  0  0  0  0  0  0  0  0  0
  116.9225  166.4364  141.8648 C   0  0  0  0  0  0  0  0  0  0  0  0
  119.3036  165.7603  144.7243 C   0  0  0  0  0  0  0  0  0  0  0  0
  119.9442  166.9931  144.9514 C   0  0  0  0  0  0  0  0  0  0  0  0
  119.3859  168.2892  144.4933 C   0  0  0  0  0  0  0  0  0  0  0  0
  121.1307  167.0507  145.6375 C   0  0  0  0  0  0  0  0  0  0  0  0
  121.7051  165.8626  146.1165 C   0  0  0  0  0  0  0  0  0  0  0  0
  121.0760  164.6612  145.8927 C   0  0  0  0  0  0  0  0  0  0  0  0
  119.8680  164.6162  145.1924 C   0  0  0  0  0  0  0  0  0  0  0  0
  122.9699  166.0345  146.8220 C   0  0  0  0  0  0  0  0  0  0  0  0
  123.9156  165.1574  147.1871 N   0  0  0  0  0  0  0  0  0  0  0  0
  124.8592  165.8113  147.8396 O   0  0  0  0  0  0  0  0  0  0  0  0
  124.5809  167.0888  147.9206 C   0  0  0  0  0  0  0  0  0  0  0  0
  125.3689  168.1907  148.5667 C   0  0  0  0  0  0  0  0  0  0  0  0
  123.4072  167.2363  147.2895 N   0  0  0  0  0  0  0  0  0  0  0  0
  107.9993  167.7253  140.8452 C   0  0  0  0  0  0  0  0  0  0  0  0
  106.9755  168.7645  141.2650 C   0  0  0  0  0  0  0  0  0  0  0  0
  1  2  1  0
  2  3  1  0
  3  4  1  0
  4  5  1  0
  5  6  1  0
  6  7  1  0
  7  8  1  0
  8  9  2  0
  9 10  1  0
 10 11  2  0
 11 12  1  0
 12 13  2  0
 11 14  1  0
 14 15  1  0
 15 16  1  0
 14 17  1  0
 17 18  2  0
 17 19  1  0
 19 20  2  0
 20 21  1  0
 21 22  2  0
 22 23  1  0
 23 24  2  0
 22 25  1  0
 25 26  2  0
 26 27  1  0
 26 28  1  0
 28 29  2  0
 29 30  1  0
 30 31  2  0
 29 32  1  0
 32 33  2  0
 33 34  1  0
 34 35  1  0
 35 36  1  0
 35 37  2  0
  5 38  1  0
 38 39  1  0
 39  2  1  0
 13  5  1  0
 24 19  1  0
 31 25  1  0
 37 32  1  0
 13  8  1  0
 16 10  1  0
M  END
$$$$
