REMARK  Name = (3a,5b,12a)-3,12-dihydroxy-Cholan-24-oic acid.mol
REMARK  4 active torsions:
REMARK  status: ('A' for Active; 'I' for Inactive)
REMARK    1  A    between atoms: C_12  and  C_13
REMARK    2  A    between atoms: C_13  and  C_14
REMARK    3  A    between atoms: C_14  and  C_15
REMARK    4  A    between atoms: C_15  and  C_16
REMARK                            x       y       z     vdW  Elec       q    Type
REMARK                         _______ _______ _______ _____ _____    ______ ____
ROOT
ATOM      1  C   UNL     1      -2.454  -2.334   0.000  0.00  0.00    +0.000 C 
ATOM      2  C   UNL     1      -2.454  -1.509   0.000  0.00  0.00    +0.000 C 
ATOM      3  C   UNL     1      -1.740  -1.096   0.000  0.00  0.00    +0.000 C 
ATOM      4  C   UNL     1      -1.740  -2.746   0.000  0.00  0.00    +0.000 C 
ATOM      5  C   UNL     1      -1.025  -2.334   0.000  0.00  0.00    +0.000 C 
ATOM      6  C   UNL     1      -0.310  -2.746   0.000  0.00  0.00    +0.000 C 
ATOM      7  C   UNL     1       0.404  -2.334   0.000  0.00  0.00    +0.000 C 
ATOM      8  C   UNL     1       0.404  -1.509   0.000  0.00  0.00    +0.000 C 
ATOM      9  C   UNL     1       1.118  -1.096   0.000  0.00  0.00    +0.000 C 
ATOM     10  C   UNL     1       1.903  -1.351   0.000  0.00  0.00    +0.000 C 
ATOM     11  C   UNL     1       2.388  -0.684   0.000  0.00  0.00    +0.000 C 
ATOM     12  C   UNL     1       1.903  -0.016   0.000  0.00  0.00    +0.000 C 
ATOM     13  C   UNL     1       1.118  -0.271   0.000  0.00  0.00    +0.000 C 
ATOM     14  C   UNL     1       1.118   0.554   0.000  0.00  0.00    +0.000 C 
ATOM     15  C   UNL     1       0.404   0.141   0.000  0.00  0.00    +0.000 C 
ATOM     16  C   UNL     1      -0.310  -0.271   0.000  0.00  0.00    +0.000 C 
ATOM     17  C   UNL     1      -0.310  -1.096   0.000  0.00  0.00    +0.000 C 
ATOM     18  C   UNL     1      -1.025  -1.509   0.000  0.00  0.00    +0.000 C 
ATOM     19  C   UNL     1      -1.025  -0.684   0.000  0.00  0.00    +0.000 C 
ATOM     20  O   UNL     1       0.404   0.966   0.000  0.00  0.00    +0.000 OA
ATOM     21  O   UNL     1      -3.168  -2.746   0.000  0.00  0.00    +0.000 OA
ENDROOT
BRANCH  12  22
ATOM     22  C   UNL     1       2.158   0.768   0.000  0.00  0.00    +0.000 C 
ATOM     23  C   UNL     1       2.965   0.940   0.000  0.00  0.00    +0.000 C 
BRANCH  22  24
ATOM     24  C   UNL     1       1.575   1.352   0.000  0.00  0.00    +0.000 C 
BRANCH  24  25
ATOM     25  C   UNL     1       1.788   2.148   0.000  0.00  0.00    +0.000 C 
BRANCH  25  26
ATOM     26  C   UNL     1       2.585   2.362   0.000  0.00  0.00    +0.000 C 
ATOM     27  O   UNL     1       2.799   3.159   0.000  0.00  0.00    +0.000 OA
ATOM     28  O   UNL     1       3.168   1.779   0.000  0.00  0.00    +0.000 OA
ENDBRANCH  25  26
ENDBRANCH  24  25
ENDBRANCH  22  24
ENDBRANCH  12  22
TORSDOF 4
