REMARK  Name = [NO NAME]
REMARK  33 active torsions:
REMARK  status: ('A' for Active; 'I' for Inactive)
REMARK    1  A    between atoms: O_4  and  C_51
REMARK    2  A    between atoms: O_4  and  C_54
REMARK    3  A    between atoms: N_16  and  C_38
REMARK    4  A    between atoms: N_17  and  N_19
REMARK    5  A    between atoms: N_18  and  C_42
REMARK    6  A    between atoms: N_20  and  C_46
REMARK    7  A    between atoms: N_21  and  C_50
REMARK    8  A    between atoms: N_23  and  CA_59
REMARK    9  A    between atoms: N_25  and  C_55
REMARK   10  A    between atoms: N_26  and  CA_60
REMARK   11  A    between atoms: N_27  and  C_67
REMARK   12  A    between atoms: C_33  and  C_39
REMARK   13  A    between atoms: C_37  and  C_38
REMARK   14  A    between atoms: C_38  and  C_40
REMARK   15  A    between atoms: C_40  and  C_41
REMARK   16  A    between atoms: C_41  and  C_46
REMARK   17  A    between atoms: C_42  and  C_43
REMARK   18  A    between atoms: C_42  and  C_44
REMARK   19  A    between atoms: C_44  and  C_45
REMARK   20  A    between atoms: C_49  and  C_50
REMARK   21  A    between atoms: C_50  and  C_51
REMARK   22  A    between atoms: C_53  and  C_64
REMARK   23  A    between atoms: C_55  and  C_56
REMARK   24  A    between atoms: C_55  and  C_62
REMARK   25  A    between atoms: CA_59  and  CB_66
REMARK   26  A    between atoms: CA_59  and  C_68
REMARK   27  A    between atoms: CA_60  and  CB_63
REMARK   28  A    between atoms: CA_60  and  C_73
REMARK   29  A    between atoms: C_62  and  C_75
REMARK   30  A    between atoms: CB_63  and  CG_72
REMARK   31  A    between atoms: CB_66  and  CG_77
REMARK   32  A    between atoms: C_67  and  C_74
REMARK   33  A    between atoms: C_67  and  C_80
REMARK                            x       y       z     vdW  Elec       q    Type
REMARK                         _______ _______ _______ _____ _____    ______ ____
ROOT
ATOM      1  C   UNK A   4       8.998   1.660   0.000  0.00  0.00    +0.000 C 
ENDROOT
BRANCH   1   3
ATOM      2  O   UNK A   4       7.896   2.888   0.000  0.00  0.00    +0.000 OA
ATOM      3  N   UNK A   4       8.191   1.490   0.000  0.00  0.00    +0.000 NA
ATOM      4  C   UNK A   4       7.640   2.104   0.000  0.00  0.00    +0.000 C 
BRANCH   4   5
ATOM      5  C   UNK A   4       6.832   1.934   0.000  0.00  0.00    +0.000 C 
BRANCH   5   7
ATOM      6  O   TRP A   3       5.218   1.594   0.000  0.00  0.00    +0.000 OA
ATOM      7  N   UNK A   4       6.281   2.548   0.000  0.00  0.00    +0.000 NA
ATOM      8  C   TRP A   3       5.474   2.378   0.000  0.00  0.00    +0.000 C 
BRANCH   8   9
ATOM      9  CA  TRP A   3       4.923   2.992   0.000  0.00  0.00    +0.000 C 
BRANCH   9  11
ATOM     10  O   HIS A   2       3.821   4.220   0.000  0.00  0.00    +0.000 OA
ATOM     11  N   TRP A   3       5.179   3.776   0.000  0.00  0.00    +0.000 NA
ATOM     12  C   HIS A   2       4.628   4.390   0.000  0.00  0.00    +0.000 C 
BRANCH  12  13
ATOM     13  CA  HIS A   2       4.885   5.174   0.000  0.00  0.00    +0.000 C 
BRANCH  13  15
ATOM     14  O   UNK A   1       3.270   4.834   0.000  0.00  0.00    +0.000 OA
ATOM     15  N   HIS A   2       4.334   5.788   0.000  0.00  0.00    +0.000 NA
ATOM     16  C   UNK A   1       3.527   5.618   0.000  0.00  0.00    +0.000 C 
BRANCH  16  19
ATOM     17  O   UNK A   1       2.350   8.273   0.000  0.00  0.00    +0.000 OA
ATOM     18  N   UNK A   1       3.148   7.039   0.000  0.00  0.00    +0.000 NA
ATOM     19  C   UNK A   1       2.976   6.232   0.000  0.00  0.00    +0.000 C 
ATOM     20  C   UNK A   1       2.155   6.147   0.000  0.00  0.00    +0.000 C 
ATOM     21  C   UNK A   1       1.821   6.902   0.000  0.00  0.00    +0.000 C 
ATOM     22  C   UNK A   1       2.435   7.453   0.000  0.00  0.00    +0.000 C 
ENDBRANCH  16  19
ENDBRANCH  13  15
BRANCH  13  23
ATOM     23  CB  HIS A   2       5.692   5.345   0.000  0.00  0.00    +0.000 C 
BRANCH  23  26
ATOM     24  ND1 HIS A   2       6.734   6.382   0.000  0.00  0.00    +0.000 NA
ATOM     25  NE2 HIS A   2       5.951   7.464   0.000  0.00  0.00    +0.000 NA
ATOM     26  CG  HIS A   2       5.948   6.129   0.000  0.00  0.00    +0.000 A 
ATOM     27  CD2 HIS A   2       5.465   6.797   0.000  0.00  0.00    +0.000 A 
ATOM     28  CE1 HIS A   2       6.735   7.207   0.000  0.00  0.00    +0.000 A 
ENDBRANCH  23  26
ENDBRANCH  13  23
ENDBRANCH  12  13
ENDBRANCH   9  11
BRANCH   9  29
ATOM     29  CB  TRP A   3       4.116   2.822   0.000  0.00  0.00    +0.000 C 
BRANCH  29  31
ATOM     30  NE1 TRP A   3       3.860   0.710   0.000  0.00  0.00    +0.000 NA
ATOM     31  CG  TRP A   3       3.860   2.038   0.000  0.00  0.00    +0.000 A 
ATOM     32  CD2 TRP A   3       3.079   1.786   0.000  0.00  0.00    +0.000 A 
ATOM     33  CD1 TRP A   3       4.341   1.374   0.000  0.00  0.00    +0.000 A 
ATOM     34  CE2 TRP A   3       3.079   0.961   0.000  0.00  0.00    +0.000 A 
ATOM     35  CE3 TRP A   3       2.365   2.199   0.000  0.00  0.00    +0.000 A 
ATOM     36  CZ2 TRP A   3       2.365   0.549   0.000  0.00  0.00    +0.000 A 
ATOM     37  CZ3 TRP A   3       1.650   1.786   0.000  0.00  0.00    +0.000 A 
ATOM     38  CH2 TRP A   3       1.650   0.961   0.000  0.00  0.00    +0.000 A 
ENDBRANCH  29  31
ENDBRANCH   9  29
ENDBRANCH   8   9
ENDBRANCH   5   7
BRANCH   5  40
ATOM     39  O   UNK A   4       7.127   0.536   0.000  0.00  0.00    +0.000 OA
ATOM     40  C   UNK A   4       6.576   1.150   0.000  0.00  0.00    +0.000 C 
ENDBRANCH   5  40
ENDBRANCH   4   5
ENDBRANCH   1   3
BRANCH   1  43
ATOM     41  O   UNK A   4      10.356   1.216   0.000  0.00  0.00    +0.000 OA
ATOM     42  N   UNK A   4       9.293   0.262   0.000  0.00  0.00    +0.000 NA
ATOM     43  C   UNK A   4       9.549   1.046   0.000  0.00  0.00    +0.000 C 
BRANCH  42  44
ATOM     44  C   UNK A   4       9.844  -0.352   0.000  0.00  0.00    +0.000 C 
BRANCH  44  47
ATOM     45  O   UNK A   4       8.780  -1.306   0.000  0.00  0.00    +0.000 OA
ATOM     46  N   UNK A   4      10.138  -1.750   0.000  0.00  0.00    +0.000 NA
ATOM     47  C   UNK A   4       9.587  -1.136   0.000  0.00  0.00    +0.000 C 
BRANCH  46  48
ATOM     48  C   UNK A   4       9.882  -2.534   0.000  0.00  0.00    +0.000 C 
BRANCH  48  51
ATOM     49  O   UNK A   4      10.177  -3.933   0.000  0.00  0.00    +0.000 OA
ATOM     50  N   UNK A   4      11.240  -2.978   0.000  0.00  0.00    +0.000 NA
ATOM     51  C   UNK A   4      10.433  -3.149   0.000  0.00  0.00    +0.000 C 
BRANCH  50  52
ATOM     52  C   UNK A   4      11.791  -3.592   0.000  0.00  0.00    +0.000 C 
BRANCH  52  59
ATOM     53  O   UNK A   4      12.855  -2.638   0.000  0.00  0.00    +0.000 OA
ATOM     54  N   UNK A   4      13.149  -4.036   0.000  0.00  0.00    +0.000 N 
ATOM     55  C   UNK A   4      13.970  -3.952   0.000  0.00  0.00    +0.000 C 
ATOM     56  C   UNK A   4      14.304  -4.706   0.000  0.00  0.00    +0.000 C 
ATOM     57  C   UNK A   4      13.690  -5.257   0.000  0.00  0.00    +0.000 C 
ATOM     58  C   UNK A   4      12.977  -4.843   0.000  0.00  0.00    +0.000 C 
ATOM     59  C   UNK A   4      12.598  -3.422   0.000  0.00  0.00    +0.000 C 
BRANCH  55  62
ATOM     60  O   UNK A   4      13.973  -2.523   0.000  0.00  0.00    +0.000 OA
ATOM     61  N   UNK A   4      15.209  -3.239   0.000  0.00  0.00    +0.000 NA
ATOM     62  C   UNK A   4      14.384  -3.238   0.000  0.00  0.00    +0.000 C 
BRANCH  61  64
ATOM     63  O   UNK A   4      16.859  -3.242   0.000  0.00  0.00    +0.000 OA
ATOM     64  N   UNK A   4      15.623  -2.526   0.000  0.00  0.00    +0.000 NA
ATOM     65  N   UNK A   4      16.861  -1.813   0.000  0.00  0.00    +0.000 NA
ATOM     66  C   UNK A   4      16.448  -2.527   0.000  0.00  0.00    +0.000 C 
ENDBRANCH  61  64
ENDBRANCH  55  62
ENDBRANCH  52  59
BRANCH  52  67
ATOM     67  C   UNK A   4      11.535  -4.377   0.000  0.00  0.00    +0.000 C 
BRANCH  67  68
ATOM     68  C   UNK A   4      12.086  -4.991   0.000  0.00  0.00    +0.000 C 
BRANCH  68  69
ATOM     69  C   UNK A   4      11.829  -5.775   0.000  0.00  0.00    +0.000 C 
BRANCH  69  70
ATOM     70  N   UNK A   4      12.381  -6.389   0.000  0.00  0.00    +0.000 NA
ATOM     71  N   UNK A   4      11.317  -7.343   0.000  0.00  0.00    +0.000 NA
ATOM     72  N   UNK A   4      12.675  -7.787   0.000  0.00  0.00    +0.000 NA
ATOM     73  C   UNK A   4      12.124  -7.173   0.000  0.00  0.00    +0.000 C 
ENDBRANCH  69  70
ENDBRANCH  68  69
ENDBRANCH  67  68
ENDBRANCH  52  67
ENDBRANCH  50  52
ENDBRANCH  48  51
BRANCH  48  74
ATOM     74  C   UNK A   4       9.075  -2.705   0.000  0.00  0.00    +0.000 C 
BRANCH  74  75
ATOM     75  C   UNK A   4       8.818  -3.489   0.000  0.00  0.00    +0.000 C 
ATOM     76  C   UNK A   4       8.011  -3.659   0.000  0.00  0.00    +0.000 C 
ATOM     77  C   UNK A   4       9.369  -4.103   0.000  0.00  0.00    +0.000 C 
ENDBRANCH  74  75
ENDBRANCH  48  74
ENDBRANCH  46  48
ENDBRANCH  44  47
BRANCH  44  78
ATOM     78  C   UNK A   4      10.651  -0.182   0.000  0.00  0.00    +0.000 C 
BRANCH  78  79
ATOM     79  O   UNK A   4      11.202  -0.796   0.000  0.00  0.00    +0.000 OA
BRANCH  79  80
ATOM     80  C   UNK A   4      12.009  -0.626   0.000  0.00  0.00    +0.000 C 
ATOM     81  C   UNK A   4      12.179  -1.433   0.000  0.00  0.00    +0.000 C 
ATOM     82  C   UNK A   4      12.816  -0.456   0.000  0.00  0.00    +0.000 C 
ATOM     83  C   UNK A   4      11.839   0.181   0.000  0.00  0.00    +0.000 C 
ENDBRANCH  79  80
ENDBRANCH  78  79
ENDBRANCH  44  78
ENDBRANCH  42  44
ENDBRANCH   1  43
BRANCH   1  84
ATOM     84  C   UNK A   4       9.254   2.444   0.000  0.00  0.00    +0.000 C 
BRANCH  84  86
ATOM     85  O   UNK A   4      12.483   3.125   0.000  0.00  0.00    +0.000 OA
ATOM     86  C   UNK A   4      10.062   2.615   0.000  0.00  0.00    +0.000 A 
ATOM     87  C   UNK A   4      10.318   3.399   0.000  0.00  0.00    +0.000 A 
ATOM     88  C   UNK A   4      10.613   2.001   0.000  0.00  0.00    +0.000 A 
ATOM     89  C   UNK A   4      11.125   3.569   0.000  0.00  0.00    +0.000 A 
ATOM     90  C   UNK A   4      11.420   2.171   0.000  0.00  0.00    +0.000 A 
ATOM     91  C   UNK A   4      11.676   2.955   0.000  0.00  0.00    +0.000 A 
ENDBRANCH  84  86
ENDBRANCH   1  84
TORSDOF 33
