REMARK  Name = [NO NAME]
REMARK  5 active torsions:
REMARK  status: ('A' for Active; 'I' for Inactive)
REMARK    1  A    between atoms: O_1  and  C_2
REMARK    2  A    between atoms: O_1  and  C_4
REMARK    3  A    between atoms: C_12  and  N_14
REMARK    4  A    between atoms: C_16  and  N_17
REMARK    5  A    between atoms: N_17  and  S_18
REMARK                            x       y       z     vdW  Elec       q    Type
REMARK                         _______ _______ _______ _____ _____    ______ ____
ROOT
ATOM      1  C   UNL     1       0.715   0.412   0.000  0.00  0.00    +0.000 A 
ATOM      2  C   UNL     1       0.715  -0.412   0.000  0.00  0.00    +0.000 A 
ATOM      3  C   UNL     1       2.143  -0.412   0.000  0.00  0.00    +0.000 A 
ATOM      4  C   UNL     1       2.143   0.412   0.000  0.00  0.00    +0.000 A 
ATOM      5  C   UNL     1       1.429  -0.825   0.000  0.00  0.00    +0.000 A 
ATOM      6  C   UNL     1       1.429   0.825   0.000  0.00  0.00    +0.000 A 
ENDROOT
BRANCH   5   8
ATOM      7  O   UNL     1       2.143  -2.062   0.000  0.00  0.00    +0.000 OA
ATOM      8  N   UNL     1       1.429  -1.650   0.000  0.00  0.00    +0.000 N 
ATOM      9  O   UNL     1       0.714  -2.062   0.000  0.00  0.00    +0.000 OA
ENDBRANCH   5   8
BRANCH   1  10
ATOM     10  O   UNL     1       0.000   0.825   0.000  0.00  0.00    +0.000 OA
BRANCH  10  12
ATOM     11  C   UNL     1      -0.715  -0.412   0.000  0.00  0.00    +0.000 A 
ATOM     12  C   UNL     1      -0.715   0.412   0.000  0.00  0.00    +0.000 A 
ATOM     13  C   UNL     1      -1.429   0.825   0.000  0.00  0.00    +0.000 A 
ATOM     14  C   UNL     1      -2.143   0.412   0.000  0.00  0.00    +0.000 A 
ATOM     15  C   UNL     1      -2.143  -0.412   0.000  0.00  0.00    +0.000 A 
ATOM     16  C   UNL     1      -1.429  -0.825   0.000  0.00  0.00    +0.000 A 
ENDBRANCH  10  12
ENDBRANCH   1  10
BRANCH   6  17
ATOM     17  N   UNL     1       1.429   1.650   0.000  0.00  0.00    +0.000 NA
BRANCH  17  18
ATOM     18  S   UNL     1       2.143   2.062   0.000  0.00  0.00    +0.000 S 
ATOM     19  O   UNL     1       2.143   1.238   0.000  0.00  0.00    +0.000 OA
ATOM     20  O   UNL     1       2.143   2.888   0.000  0.00  0.00    +0.000 OA
ATOM     21  C   UNL     1       2.858   1.650   0.000  0.00  0.00    +0.000 C 
ENDBRANCH  17  18
ENDBRANCH   6  17
TORSDOF 5
