REMARK  Name = [NO NAME]
REMARK  8 active torsions:
REMARK  status: ('A' for Active; 'I' for Inactive)
REMARK    1  A    between atoms: C_25  and  C_26
REMARK    2  A    between atoms: C_25  and  O_32
REMARK    3  A    between atoms: C_26  and  C_34
REMARK    4  A    between atoms: C_28  and  C_29
REMARK    5  A    between atoms: C_28  and  O_32
REMARK    6  A    between atoms: C_34  and  O_35
REMARK    7  A    between atoms: O_35  and  C_36
REMARK    8  A    between atoms: C_36  and  C_38
REMARK                            x       y       z     vdW  Elec       q    Type
REMARK                         _______ _______ _______ _____ _____    ______ ____
ROOT
ATOM      1  C   UNL     1      -0.715   0.412   0.000  0.00  0.00    +0.000 C 
ATOM      2  C   UNL     1      -0.715  -0.412   0.000  0.00  0.00    +0.000 C 
ATOM      3  C   UNL     1       0.715  -0.412   0.000  0.00  0.00    +0.000 C 
ATOM      4  C   UNL     1       0.000  -0.825   0.000  0.00  0.00    +0.000 C 
ATOM      5  C   UNL     1       0.000   0.825   0.000  0.00  0.00    +0.000 C 
ATOM      6  C   UNL     1       0.715   0.412   0.000  0.00  0.00    +0.000 C 
ATOM      7  C   UNL     1       2.699   1.238   0.000  0.00  0.00    +0.000 C 
ATOM      8  C   UNL     1       2.213   0.570   0.000  0.00  0.00    +0.000 C 
ATOM      9  C   UNL     1       3.523   1.238   0.000  0.00  0.00    +0.000 C 
ATOM     10  C   UNL     1       0.000   1.650   0.000  0.00  0.00    +0.000 C 
ATOM     11  O   UNL     1      -0.715   2.062   0.000  0.00  0.00    +0.000 OA
ATOM     12  C   UNL     1      -1.429   0.825   0.000  0.00  0.00    +0.000 C 
ATOM     13  C   UNL     1      -1.429  -0.825   0.000  0.00  0.00    +0.000 C 
ATOM     14  C   UNL     1      -2.143   0.412   0.000  0.00  0.00    +0.000 C 
ATOM     15  C   UNL     1      -2.143  -0.412   0.000  0.00  0.00    +0.000 C 
ATOM     16  O   UNL     1      -2.858  -0.825   0.000  0.00  0.00    +0.000 OA
ATOM     17 CL   UNL     1       0.000   0.000   0.000  0.00  0.00    +0.000 Cl
ATOM     18  C   UNL     1       1.429   1.650   0.000  0.00  0.00    +0.000 C 
ATOM     19  C   UNL     1       1.429   2.475   0.000  0.00  0.00    +0.000 C 
ATOM     20  C   UNL     1       1.429   0.825   0.000  0.00  0.00    +0.000 C 
ATOM     21  C   UNL     1      -0.715   1.238   0.000  0.00  0.00    +0.000 C 
ATOM     22  C   UNL     1       0.715   2.062   0.000  0.00  0.00    +0.000 C 
ATOM     23  C   UNL     1       2.213   1.905   0.000  0.00  0.00    +0.000 C 
ENDROOT
BRANCH  23  24
ATOM     24  C   UNL     1       2.928   2.317   0.000  0.00  0.00    +0.000 C 
ATOM     25  O   UNL     1       2.928   3.142   0.000  0.00  0.00    +0.000 OA
BRANCH  24  26
ATOM     26  C   UNL     1       3.642   1.905   0.000  0.00  0.00    +0.000 C 
BRANCH  26  27
ATOM     27  O   UNL     1       4.357   2.317   0.000  0.00  0.00    +0.000 OA
BRANCH  27  28
ATOM     28  C   UNL     1       5.071   1.905   0.000  0.00  0.00    +0.000 C 
ATOM     29  O   UNL     1       5.071   1.080   0.000  0.00  0.00    +0.000 OA
BRANCH  28  30
ATOM     30  C   UNL     1       5.786   2.317   0.000  0.00  0.00    +0.000 C 
ATOM     31  C   UNL     1       6.500   1.905   0.000  0.00  0.00    +0.000 C 
ENDBRANCH  28  30
ENDBRANCH  27  28
ENDBRANCH  26  27
ENDBRANCH  24  26
ENDBRANCH  23  24
BRANCH  23  32
ATOM     32  O   UNL     1       2.213   2.888   0.000  0.00  0.00    +0.000 OA
BRANCH  32  33
ATOM     33  C   UNL     1       1.429   3.300   0.000  0.00  0.00    +0.000 C 
ATOM     34  O   UNL     1       1.429   4.125   0.000  0.00  0.00    +0.000 OA
BRANCH  33  36
ATOM     35  C   UNL     1       0.000   3.300   0.000  0.00  0.00    +0.000 C 
ATOM     36  C   UNL     1       0.715   2.888   0.000  0.00  0.00    +0.000 C 
ENDBRANCH  33  36
ENDBRANCH  32  33
ENDBRANCH  23  32
TORSDOF 8
