REMARK  Name = [NO NAME]
REMARK  5 active torsions:
REMARK  status: ('A' for Active; 'I' for Inactive)
REMARK    1  A    between atoms: N_2  and  C_5
REMARK    2  A    between atoms: C_5  and  C_6
REMARK    3  A    between atoms: C_12  and  C_14
REMARK    4  A    between atoms: C_22  and  C_24
REMARK    5  A    between atoms: C_33  and  C_35
REMARK                            x       y       z     vdW  Elec       q    Type
REMARK                         _______ _______ _______ _____ _____    ______ ____
ROOT
ATOM      1  C   UNL     1       1.296  -0.204   0.000  0.00  0.00    +0.000 C 
ATOM      2  N   UNL     1       0.471  -0.204   0.000  0.00  0.00    +0.000 N 
ATOM      3  C   UNL     1       0.471   0.621   0.000  0.00  0.00    +0.000 C 
ATOM      4  C   UNL     1       0.471  -1.029   0.000  0.00  0.00    +0.000 C 
ENDROOT
BRANCH   2   5
ATOM      5  C   UNL     1      -0.354  -0.204   0.000  0.00  0.00    +0.000 C 
BRANCH   5   6
ATOM      6  C   UNL     1      -0.766   0.510   0.000  0.00  0.00    +0.000 C 
ATOM      7  O   UNL     1      -1.591   0.510   0.000  0.00  0.00    +0.000 OA
ENDBRANCH   5   6
ENDBRANCH   2   5
TORSDOF 2
REMARK  Name = [NO NAME]
REMARK  5 active torsions:
REMARK  status: ('A' for Active; 'I' for Inactive)
REMARK    1  A    between atoms: N_2  and  C_5
REMARK    2  A    between atoms: C_5  and  C_6
REMARK    3  A    between atoms: C_12  and  C_14
REMARK    4  A    between atoms: C_22  and  C_24
REMARK    5  A    between atoms: C_33  and  C_35
REMARK                            x       y       z     vdW  Elec       q    Type
REMARK                         _______ _______ _______ _____ _____    ______ ____
ROOT
ATOM      1  C   UNL     1       5.776   0.857   0.000  0.00  0.00    +0.000 A 
ATOM      2  C   UNL     1       6.189   0.143   0.000  0.00  0.00    +0.000 A 
ATOM      3  C   UNL     1       5.776  -0.572   0.000  0.00  0.00    +0.000 A 
ATOM      4  C   UNL     1       4.951  -0.572   0.000  0.00  0.00    +0.000 A 
ATOM      5  C   UNL     1       4.539   0.143   0.000  0.00  0.00    +0.000 A 
ATOM      6  C   UNL     1       4.951   0.857   0.000  0.00  0.00    +0.000 A 
ATOM      7  O   UNL     1       4.539  -1.286   0.000  0.00  0.00    +0.000 OA
ENDROOT
BRANCH   5   8
ATOM      8  C   UNL     1       3.714   0.143   0.000  0.00  0.00    +0.000 C 
ATOM      9  O   UNL     1       3.301  -0.572   0.000  0.00  0.00    +0.000 OA
ATOM     10  O   UNL     1       3.301   0.857   0.000  0.00  0.00    +0.000 OA
ENDBRANCH   5   8
TORSDOF 1
REMARK  Name = [NO NAME]
REMARK  5 active torsions:
REMARK  status: ('A' for Active; 'I' for Inactive)
REMARK    1  A    between atoms: N_2  and  C_5
REMARK    2  A    between atoms: C_5  and  C_6
REMARK    3  A    between atoms: C_12  and  C_14
REMARK    4  A    between atoms: C_22  and  C_24
REMARK    5  A    between atoms: C_33  and  C_35
REMARK                            x       y       z     vdW  Elec       q    Type
REMARK                         _______ _______ _______ _____ _____    ______ ____
ROOT
ATOM      1  C   UNL     1      -1.809  -5.012   0.000  0.00  0.00    +0.000 A 
ATOM      2  C   UNL     1      -2.222  -4.297   0.000  0.00  0.00    +0.000 A 
ATOM      3  C   UNL     1      -1.809  -3.583   0.000  0.00  0.00    +0.000 A 
ATOM      4  C   UNL     1      -0.984  -3.583   0.000  0.00  0.00    +0.000 A 
ATOM      5  C   UNL     1      -0.572  -4.297   0.000  0.00  0.00    +0.000 A 
ATOM      6  C   UNL     1      -0.984  -5.012   0.000  0.00  0.00    +0.000 A 
ATOM      7  O   UNL     1      -0.572  -2.869   0.000  0.00  0.00    +0.000 OA
ENDROOT
BRANCH   5   8
ATOM      8  C   UNL     1       0.253  -4.297   0.000  0.00  0.00    +0.000 C 
ATOM      9  O   UNL     1       0.666  -3.583   0.000  0.00  0.00    +0.000 OA
ATOM     10  O   UNL     1       0.666  -5.012   0.000  0.00  0.00    +0.000 OA
ENDBRANCH   5   8
TORSDOF 1
REMARK  Name = [NO NAME]
REMARK  5 active torsions:
REMARK  status: ('A' for Active; 'I' for Inactive)
REMARK    1  A    between atoms: N_2  and  C_5
REMARK    2  A    between atoms: C_5  and  C_6
REMARK    3  A    between atoms: C_12  and  C_14
REMARK    4  A    between atoms: C_22  and  C_24
REMARK    5  A    between atoms: C_33  and  C_35
REMARK                            x       y       z     vdW  Elec       q    Type
REMARK                         _______ _______ _______ _____ _____    ______ ____
ROOT
ATOM      1 MG   UNL     1       2.478  -4.154   0.000  0.00  0.00    +0.000 Mg
ENDROOT
TORSDOF 0
REMARK  Name = [NO NAME]
REMARK  5 active torsions:
REMARK  status: ('A' for Active; 'I' for Inactive)
REMARK    1  A    between atoms: N_2  and  C_5
REMARK    2  A    between atoms: C_5  and  C_6
REMARK    3  A    between atoms: C_12  and  C_14
REMARK    4  A    between atoms: C_22  and  C_24
REMARK    5  A    between atoms: C_33  and  C_35
REMARK                            x       y       z     vdW  Elec       q    Type
REMARK                         _______ _______ _______ _____ _____    ______ ____
ROOT
ATOM      1  C   UNL     1       6.789  -3.356   0.000  0.00  0.00    +0.000 A 
ATOM      2  C   UNL     1       7.201  -4.071   0.000  0.00  0.00    +0.000 A 
ATOM      3  C   UNL     1       6.789  -4.785   0.000  0.00  0.00    +0.000 A 
ATOM      4  C   UNL     1       5.964  -4.785   0.000  0.00  0.00    +0.000 A 
ATOM      5  C   UNL     1       5.551  -4.071   0.000  0.00  0.00    +0.000 A 
ATOM      6  C   UNL     1       5.964  -3.356   0.000  0.00  0.00    +0.000 A 
ATOM      7  O   UNL     1       5.551  -5.499   0.000  0.00  0.00    +0.000 OA
ENDROOT
BRANCH   5   8
ATOM      8  C   UNL     1       4.726  -4.071   0.000  0.00  0.00    +0.000 C 
ATOM      9  O   UNL     1       4.314  -4.785   0.000  0.00  0.00    +0.000 OA
ATOM     10  O   UNL     1       4.314  -3.356   0.000  0.00  0.00    +0.000 OA
ENDBRANCH   5   8
TORSDOF 1
