REMARK  Name = [NO NAME]
REMARK  1 active torsions:
REMARK  status: ('A' for Active; 'I' for Inactive)
REMARK    1  A    between atoms: C_10  and  C_16
REMARK                            x       y       z     vdW  Elec       q    Type
REMARK                         _______ _______ _______ _____ _____    ______ ____
ROOT
ATOM      1  O   UNL     1       1.650   0.166   0.000  0.00  0.00    +0.000 OA
ATOM      2  O   UNL     1       4.508   0.166   0.000  0.00  0.00    +0.000 OA
ATOM      3  O   UNL     1       3.079  -2.309   0.000  0.00  0.00    +0.000 OA
ATOM      4  N   UNL     1       2.365  -1.072   0.000  0.00  0.00    +0.000 N 
ATOM      5  N   UNL     1       3.793  -1.072   0.000  0.00  0.00    +0.000 NA
ATOM      6  C   UNL     1       2.365  -0.247   0.000  0.00  0.00    +0.000 C 
ATOM      7  C   UNL     1       3.793  -0.247   0.000  0.00  0.00    +0.000 C 
ATOM      8  C   UNL     1       3.079  -1.484   0.000  0.00  0.00    +0.000 C 
ATOM      9  C   UNL     1       1.650  -1.484   0.000  0.00  0.00    +0.000 C 
ATOM     10  C   UNL     1       3.079   0.166   0.000  0.00  0.00    +0.000 C 
ATOM     11  C   UNL     1       2.445   0.745   0.000  0.00  0.00    +0.000 C 
ENDROOT
BRANCH  10  12
ATOM     12  C   UNL     1       3.079   0.991   0.000  0.00  0.00    +0.000 C 
ATOM     13  C   UNL     1       3.794   1.403   0.000  0.00  0.00    +0.000 C 
ATOM     14  C   UNL     1       3.794   2.228   0.000  0.00  0.00    +0.000 C 
ATOM     15  C   UNL     1       3.079   2.641   0.000  0.00  0.00    +0.000 C 
ATOM     16  C   UNL     1       2.365   2.228   0.000  0.00  0.00    +0.000 C 
ATOM     17  C   UNL     1       2.365   1.403   0.000  0.00  0.00    +0.000 C 
ENDBRANCH  10  12
TORSDOF 1
