REMARK  Name = [NO NAME]
REMARK  9 active torsions:
REMARK  status: ('A' for Active; 'I' for Inactive)
REMARK    1  A    between atoms: C_1  and  N_2
REMARK    2  A    between atoms: C_1  and  C_16
REMARK    3  A    between atoms: N_8  and  C_9
REMARK    4  A    between atoms: C_16  and  C_17
REMARK    5  A    between atoms: C_17  and  C_18
REMARK    6  A    between atoms: C_18  and  C_19
REMARK    7  A    between atoms: C_19  and  C_20
REMARK    8  A    between atoms: C_20  and  N_21
REMARK    9  A    between atoms: N_27  and  C_28
REMARK                            x       y       z     vdW  Elec       q    Type
REMARK                         _______ _______ _______ _____ _____    ______ ____
ROOT
ATOM      1  C   UNL     1       3.172   0.219   0.000  0.00  0.00    +0.000 C 
ENDROOT
BRANCH   1   2
ATOM      2  C   UNL     1       3.886   0.631   0.000  0.00  0.00    +0.000 C 
BRANCH   2   3
ATOM      3  C   UNL     1       3.886   1.456   0.000  0.00  0.00    +0.000 C 
BRANCH   3   4
ATOM      4  N   UNL     1       4.601   1.869   0.000  0.00  0.00    +0.000 NA
ATOM      5  C   UNL     1       5.315   1.456   0.000  0.00  0.00    +0.000 C 
ATOM      6  N   UNL     1       5.315   0.631   0.000  0.00  0.00    +0.000 NA
ATOM      7  N   UNL     1       6.030   1.869   0.000  0.00  0.00    +0.000 NA
ATOM      8  C   UNL     1       6.744   1.456   0.000  0.00  0.00    +0.000 C 
ATOM      9  N   UNL     1       6.744   0.631   0.000  0.00  0.00    +0.000 NA
ATOM     10  N   UNL     1       7.458   1.869   0.000  0.00  0.00    +0.000 NA
BRANCH  10  11
ATOM     11  C   UNL     1       8.173   1.456   0.000  0.00  0.00    +0.000 A 
ATOM     12  C   UNL     1       8.875   1.889   0.000  0.00  0.00    +0.000 A 
ATOM     13  C   UNL     1       8.197   0.632   0.000  0.00  0.00    +0.000 A 
ATOM     14  C   UNL     1       8.923   0.240   0.000  0.00  0.00    +0.000 A 
ATOM     15  C   UNL     1       9.601   1.498   0.000  0.00  0.00    +0.000 A 
ATOM     16  C   UNL     1       9.625   0.673   0.000  0.00  0.00    +0.000 A 
ATOM     17 CL   UNL     1      10.340   0.261   0.000  0.00  0.00    +0.000 Cl
ENDBRANCH  10  11
ENDBRANCH   3   4
ENDBRANCH   2   3
ENDBRANCH   1   2
BRANCH   1  18
ATOM     18  C   UNL     1       3.172  -0.606   0.000  0.00  0.00    +0.000 C 
BRANCH  18  19
ATOM     19  C   UNL     1       3.886  -1.019   0.000  0.00  0.00    +0.000 C 
BRANCH  19  20
ATOM     20  C   UNL     1       3.886  -1.844   0.000  0.00  0.00    +0.000 C 
BRANCH  20  21
ATOM     21  N   UNL     1       4.601  -2.256   0.000  0.00  0.00    +0.000 NA
ATOM     22  C   UNL     1       5.315  -1.844   0.000  0.00  0.00    +0.000 C 
ATOM     23  N   UNL     1       5.315  -1.019   0.000  0.00  0.00    +0.000 NA
ATOM     24  N   UNL     1       6.029  -2.256   0.000  0.00  0.00    +0.000 NA
ATOM     25  C   UNL     1       6.744  -1.844   0.000  0.00  0.00    +0.000 C 
ATOM     26  N   UNL     1       6.744  -1.019   0.000  0.00  0.00    +0.000 NA
ATOM     27  N   UNL     1       7.458  -2.256   0.000  0.00  0.00    +0.000 NA
BRANCH  27  28
ATOM     28  C   UNL     1       8.173  -1.844   0.000  0.00  0.00    +0.000 A 
ATOM     29  C   UNL     1       8.887  -0.606   0.000  0.00  0.00    +0.000 A 
ATOM     30  C   UNL     1       8.173  -1.019   0.000  0.00  0.00    +0.000 A 
ATOM     31  C   UNL     1       8.887  -2.256   0.000  0.00  0.00    +0.000 A 
ATOM     32  C   UNL     1       9.602  -1.844   0.000  0.00  0.00    +0.000 A 
ATOM     33  C   UNL     1       9.602  -1.019   0.000  0.00  0.00    +0.000 A 
ATOM     34 CL   UNL     1      10.316  -0.606   0.000  0.00  0.00    +0.000 Cl
ENDBRANCH  27  28
ENDBRANCH  20  21
ENDBRANCH  19  20
ENDBRANCH  18  19
ENDBRANCH   1  18
TORSDOF 9
