REMARK  Name = [NO NAME]
REMARK  1 active torsions:
REMARK  status: ('A' for Active; 'I' for Inactive)
REMARK    1  A    between atoms: C_1  and  C_3
REMARK                            x       y       z     vdW  Elec       q    Type
REMARK                         _______ _______ _______ _____ _____    ______ ____
ROOT
ATOM      1  C   UNL     1       1.872   1.749   0.000  0.00  0.00    +0.000 C 
ATOM      2  O   UNL     1       1.872   2.574   0.000  0.00  0.00    +0.000 OA
ATOM      3  O   UNL     1       2.586   1.337   0.000  0.00  0.00    +0.000 OA
ENDROOT
BRANCH   1   5
ATOM      4  C   UNL     1       1.157   0.511   0.000  0.00  0.00    +0.000 C 
ATOM      5  C   UNL     1       1.157   1.337   0.000  0.00  0.00    +0.000 C 
ATOM      6  O   UNL     1       0.443   1.749   0.000  0.00  0.00    +0.000 OA
ENDBRANCH   1   5
TORSDOF 1
REMARK  Name = [NO NAME]
REMARK  1 active torsions:
REMARK  status: ('A' for Active; 'I' for Inactive)
REMARK    1  A    between atoms: C_1  and  C_3
REMARK                            x       y       z     vdW  Elec       q    Type
REMARK                         _______ _______ _______ _____ _____    ______ ____
ROOT
ATOM      1  N   UNL     1       2.606   0.018   0.000  0.00  0.00    +0.000 NA
ENDROOT
TORSDOF 0
