REMARK  Name = [NO NAME]
REMARK  6 active torsions:
REMARK  status: ('A' for Active; 'I' for Inactive)
REMARK    1  A    between atoms: N_4  and  C_6
REMARK    2  A    between atoms: N_4  and  C_13
REMARK    3  A    between atoms: C_13  and  C_16
REMARK    4  A    between atoms: C_14  and  C_17
REMARK    5  A    between atoms: C_15  and  C_18
REMARK    6  A    between atoms: C_16  and  C_19
REMARK                            x       y       z     vdW  Elec       q    Type
REMARK                         _______ _______ _______ _____ _____    ______ ____
ROOT
ATOM      1  C   UNL     1       6.139  -0.201   0.000  0.00  0.00    +0.000 C 
ENDROOT
BRANCH   1   3
ATOM      2  O   UNL     1       7.568  -0.201   0.000  0.00  0.00    +0.000 OA
ATOM      3  C   UNL     1       6.853  -0.613   0.000  0.00  0.00    +0.000 C 
BRANCH   3   7
ATOM      4  O   UNL     1       6.853  -3.913   0.000  0.00  0.00    +0.000 OA
ATOM      5  O   UNL     1       9.766  -3.108   0.000  0.00  0.00    +0.000 OA
ATOM      6  N   UNL     1       8.305  -3.117   0.000  0.00  0.00    +0.000 NA
ATOM      7  C   UNL     1       6.853  -1.438   0.000  0.00  0.00    +0.000 A 
ATOM      8  C   UNL     1       7.568  -1.851   0.000  0.00  0.00    +0.000 A 
ATOM      9  C   UNL     1       6.139  -1.851   0.000  0.00  0.00    +0.000 A 
ATOM     10  C   UNL     1       7.568  -2.675   0.000  0.00  0.00    +0.000 A 
ATOM     11  C   UNL     1       6.139  -2.675   0.000  0.00  0.00    +0.000 A 
ATOM     12  C   UNL     1       8.305  -1.409   0.000  0.00  0.00    +0.000 A 
ATOM     13  C   UNL     1       6.853  -3.088   0.000  0.00  0.00    +0.000 A 
ATOM     14  C   UNL     1       9.053  -1.833   0.000  0.00  0.00    +0.000 A 
ATOM     15  C   UNL     1       9.053  -2.693   0.000  0.00  0.00    +0.000 A 
ENDBRANCH   3   7
ENDBRANCH   1   3
BRANCH   1  16
ATOM     16  N   UNL     1       6.139   0.625   0.000  0.00  0.00    +0.000 NA
BRANCH  16  17
ATOM     17  C   UNL     1       5.424   1.037   0.000  0.00  0.00    +0.000 C 
ATOM     18  C   UNL     1       4.676   0.703   0.000  0.00  0.00    +0.000 C 
ATOM     19  C   UNL     1       5.339   1.853   0.000  0.00  0.00    +0.000 C 
ATOM     20  C   UNL     1       4.125   1.311   0.000  0.00  0.00    +0.000 A 
ATOM     21  C   UNL     1       4.538   2.025   0.000  0.00  0.00    +0.000 A 
ATOM     22  C   UNL     1       3.300   1.311   0.000  0.00  0.00    +0.000 A 
ATOM     23  C   UNL     1       4.125   2.740   0.000  0.00  0.00    +0.000 A 
ATOM     24  C   UNL     1       2.888   2.025   0.000  0.00  0.00    +0.000 A 
ATOM     25  C   UNL     1       3.300   2.740   0.000  0.00  0.00    +0.000 A 
BRANCH  24  26
ATOM     26  C   UNL     1       2.062   2.025   0.000  0.00  0.00    +0.000 C 
ATOM     27  C   UNL     1       1.650   1.311   0.000  0.00  0.00    +0.000 C 
ENDBRANCH  24  26
BRANCH  25  28
ATOM     28  C   UNL     1       2.888   3.454   0.000  0.00  0.00    +0.000 C 
ATOM     29  C   UNL     1       3.300   4.169   0.000  0.00  0.00    +0.000 C 
ENDBRANCH  25  28
ENDBRANCH  16  17
ENDBRANCH   1  16
TORSDOF 6
