REMARK  Name = [NO NAME]
REMARK  4 active torsions:
REMARK  status: ('A' for Active; 'I' for Inactive)
REMARK    1  A    between atoms: N_4  and  C_11
REMARK    2  A    between atoms: C_6  and  C_8
REMARK    3  A    between atoms: C_7  and  C_9
REMARK    4  A    between atoms: C_20  and  C_21
REMARK                            x       y       z     vdW  Elec       q    Type
REMARK                         _______ _______ _______ _____ _____    ______ ____
ROOT
ATOM      1  O   UNL     1       3.793  -1.984   0.000  0.00  0.00    +0.000 OA
ATOM      2  C   UNL     1       3.793   0.491   0.000  0.00  0.00    +0.000 A 
ATOM      3  C   UNL     1       3.079  -0.747   0.000  0.00  0.00    +0.000 A 
ATOM      4  C   UNL     1       3.079   0.078   0.000  0.00  0.00    +0.000 A 
ATOM      5  C   UNL     1       4.508   0.078   0.000  0.00  0.00    +0.000 A 
ATOM      6  C   UNL     1       3.793  -1.159   0.000  0.00  0.00    +0.000 A 
ATOM      7  C   UNL     1       4.508  -0.747   0.000  0.00  0.00    +0.000 A 
ENDROOT
BRANCH   2   8
ATOM      8  C   UNL     1       3.793   1.316   0.000  0.00  0.00    +0.000 C 
ATOM      9  C   UNL     1       3.793   2.141   0.000  0.00  0.00    +0.000 C 
ATOM     10  C   UNL     1       2.968   1.316   0.000  0.00  0.00    +0.000 C 
ATOM     11  C   UNL     1       4.618   1.316   0.000  0.00  0.00    +0.000 C 
ENDBRANCH   2   8
BRANCH   3  12
ATOM     12  C   UNL     1       2.364  -1.159   0.000  0.00  0.00    +0.000 C 
ATOM     13  C   UNL     1       1.650  -1.572   0.000  0.00  0.00    +0.000 C 
ATOM     14  C   UNL     1       1.952  -0.445   0.000  0.00  0.00    +0.000 C 
ATOM     15  C   UNL     1       2.777  -1.874   0.000  0.00  0.00    +0.000 C 
ENDBRANCH   3  12
BRANCH   5  17
ATOM     16  O   UNL     1       5.937  -0.747   0.000  0.00  0.00    +0.000 OA
ATOM     17  N   UNL     1       5.222   0.491   0.000  0.00  0.00    +0.000 NA
ATOM     18  C   UNL     1       5.937   0.078   0.000  0.00  0.00    +0.000 C 
BRANCH  18  21
ATOM     19  O   UNL     1       7.366  -0.747   0.000  0.00  0.00    +0.000 OA
ATOM     20  N   UNL     1       7.366   1.728   0.000  0.00  0.00    +0.000 NA
ATOM     21  C   UNL     1       6.651   0.491   0.000  0.00  0.00    +0.000 A 
ATOM     22  C   UNL     1       7.366   0.078   0.000  0.00  0.00    +0.000 A 
ATOM     23  C   UNL     1       8.080   0.491   0.000  0.00  0.00    +0.000 A 
ATOM     24  C   UNL     1       6.651   1.316   0.000  0.00  0.00    +0.000 A 
ATOM     25  C   UNL     1       8.080   1.316   0.000  0.00  0.00    +0.000 A 
ATOM     26  C   UNL     1       8.818   0.050   0.000  0.00  0.00    +0.000 A 
ATOM     27  C   UNL     1       8.818   1.757   0.000  0.00  0.00    +0.000 A 
ATOM     28  C   UNL     1       9.565   0.474   0.000  0.00  0.00    +0.000 A 
ATOM     29  C   UNL     1       9.565   1.333   0.000  0.00  0.00    +0.000 A 
ENDBRANCH  18  21
ENDBRANCH   5  17
TORSDOF 4
