REMARK  Name = [NO NAME]
REMARK  0 active torsions:
REMARK  status: ('A' for Active; 'I' for Inactive)
REMARK                            x       y       z     vdW  Elec       q    Type
REMARK                         _______ _______ _______ _____ _____    ______ ____
ROOT
ATOM      1  C   UNL     1      11.525 -14.356   0.000  0.00  0.00    +0.000 C 
ATOM      2  C   UNL     1      10.026 -15.339   0.000  0.00  0.00    +0.000 C 
ATOM      3  C   UNL     1      10.026 -12.864   0.000  0.00  0.00    +0.000 C 
ATOM      4  C   UNL     1      12.010 -13.689   0.000  0.00  0.00    +0.000 C 
ATOM      5  C   UNL     1       9.311 -13.276   0.000  0.00  0.00    +0.000 C 
ATOM      6  C   UNL     1       7.882 -14.101   0.000  0.00  0.00    +0.000 C 
ATOM      7  C   UNL     1       7.882 -15.751   0.000  0.00  0.00    +0.000 C 
ATOM      8  C   UNL     1      10.026 -14.514   0.000  0.00  0.00    +0.000 C 
ATOM      9  C   UNL     1       9.311 -14.101   0.000  0.00  0.00    +0.000 C 
ATOM     10  C   UNL     1      10.740 -13.276   0.000  0.00  0.00    +0.000 C 
ATOM     11  C   UNL     1      10.740 -12.451   0.000  0.00  0.00    +0.000 C 
ATOM     12  C   UNL     1      10.740 -14.101   0.000  0.00  0.00    +0.000 C 
ATOM     13  C   UNL     1       8.597 -14.514   0.000  0.00  0.00    +0.000 C 
ATOM     14  C   UNL     1       8.597 -13.689   0.000  0.00  0.00    +0.000 C 
ATOM     15  C   UNL     1       7.168 -14.514   0.000  0.00  0.00    +0.000 C 
ATOM     16  C   UNL     1       7.168 -15.339   0.000  0.00  0.00    +0.000 C 
ATOM     17  O   UNL     1       6.454 -15.751   0.000  0.00  0.00    +0.000 OA
ATOM     18  C   UNL     1       8.597 -15.339   0.000  0.00  0.00    +0.000 C 
ATOM     19  C   UNL     1       9.311 -15.751   0.000  0.00  0.00    +0.000 C 
ATOM     20  C   UNL     1      11.525 -13.021   0.000  0.00  0.00    +0.000 C 
ATOM     21  C   UNL     1      12.239 -13.142   0.000  0.00  0.00    +0.000 C 
ATOM     22  O   UNL     1      11.525 -12.196   0.000  0.00  0.00    +0.000 OA
ENDROOT
TORSDOF 0
