REMARK  Name = [NO NAME]
REMARK  1 active torsions:
REMARK  status: ('A' for Active; 'I' for Inactive)
REMARK    1  A    between atoms: C_12  and  C_16
REMARK                            x       y       z     vdW  Elec       q    Type
REMARK                         _______ _______ _______ _____ _____    ______ ____
ROOT
ATOM      1  C   UNL     1      15.607 -12.769   0.000  0.00  0.00    +0.000 C 
ATOM      2  N   UNL     1      16.429 -12.772   0.000  0.00  0.00    +0.000 N 
ATOM      3  C   UNL     1      15.389 -13.564   0.000  0.00  0.00    +0.000 C 
ATOM      4  C   UNL     1      14.892 -12.362   0.000  0.00  0.00    +0.000 C 
ATOM      5  C   UNL     1      17.141 -12.313   0.000  0.00  0.00    +0.000 C 
ATOM      6  C   UNL     1      16.723 -13.502   0.000  0.00  0.00    +0.000 C 
ATOM      7  C   UNL     1      16.080 -14.020   0.000  0.00  0.00    +0.000 C 
ATOM      8  O   UNL     1      14.177 -12.769   0.000  0.00  0.00    +0.000 OA
ATOM      9  O   UNL     1      14.888 -11.532   0.000  0.00  0.00    +0.000 OA
ATOM     10  C   UNL     1      17.852 -12.731   0.000  0.00  0.00    +0.000 A 
ATOM     11  O   UNL     1      17.137 -11.488   0.000  0.00  0.00    +0.000 OA
ATOM     12  C   UNL     1      13.469 -12.362   0.000  0.00  0.00    +0.000 C 
ATOM     13  N   UNL     1      18.540 -12.282   0.000  0.00  0.00    +0.000 NA
ATOM     14  C   UNL     1      18.063 -13.530   0.000  0.00  0.00    +0.000 A 
ATOM     15  C   UNL     1      13.469 -11.536   0.000  0.00  0.00    +0.000 C 
ATOM     16  C   UNL     1      19.180 -12.800   0.000  0.00  0.00    +0.000 A 
ATOM     17  O   UNL     1      18.886 -13.526   0.000  0.00  0.00    +0.000 OA
ATOM     18  C   UNL     1      14.177 -11.124   0.000  0.00  0.00    +0.000 C 
ATOM     19  C   UNL     1      12.874 -10.949   0.000  0.00  0.00    +0.000 C 
ATOM     20  C   UNL     1      20.054 -12.469   0.000  0.00  0.00    +0.000 C 
ATOM     21  C   UNL     1      14.177 -10.302   0.000  0.00  0.00    +0.000 C 
ATOM     22  C   UNL     1      20.261 -11.671   0.000  0.00  0.00    +0.000 C 
ATOM     23  C   UNL     1      14.892  -9.891   0.000  0.00  0.00    +0.000 C 
ATOM     24  C   UNL     1      19.680 -11.083   0.000  0.00  0.00    +0.000 C 
ATOM     25  O   UNL     1      21.059 -11.449   0.000  0.00  0.00    +0.000 OA
ATOM     26  N   UNL     1      15.607 -10.295   0.000  0.00  0.00    +0.000 NA
ATOM     27  O   UNL     1      14.888  -9.062   0.000  0.00  0.00    +0.000 OA
ATOM     28  C   UNL     1      19.895 -10.285   0.000  0.00  0.00    +0.000 C 
ATOM     29  C   UNL     1      16.322  -9.888   0.000  0.00  0.00    +0.000 C 
ATOM     30  C   UNL     1      19.180  -9.877   0.000  0.00  0.00    +0.000 C 
ATOM     31  O   UNL     1      20.658  -9.971   0.000  0.00  0.00    +0.000 OA
ATOM     32  C   UNL     1      17.037 -10.292   0.000  0.00  0.00    +0.000 C 
ATOM     33  C   UNL     1      18.468 -10.288   0.000  0.00  0.00    +0.000 C 
ATOM     34  C   UNL     1      17.749  -9.884   0.000  0.00  0.00    +0.000 C 
ATOM     35  C   UNL     1      18.465 -11.114   0.000  0.00  0.00    +0.000 C 
ENDROOT
BRANCH  12  36
ATOM     36  C   UNL     1      12.749 -12.765   0.000  0.00  0.00    +0.000 C 
ATOM     37  C   UNL     1      12.746 -13.595   0.000  0.00  0.00    +0.000 C 
ATOM     38  C   UNL     1      12.031 -12.355   0.000  0.00  0.00    +0.000 C 
ENDBRANCH  12  36
TORSDOF 1
