REMARK  Name = [NO NAME]
REMARK  8 active torsions:
REMARK  status: ('A' for Active; 'I' for Inactive)
REMARK    1  A    between atoms: O_1  and  C_12
REMARK    2  A    between atoms: O_1  and  C_20
REMARK    3  A    between atoms: N_2  and  C_19
REMARK    4  A    between atoms: C_3  and  C_5
REMARK    5  A    between atoms: C_3  and  C_7
REMARK    6  A    between atoms: C_4  and  C_6
REMARK    7  A    between atoms: C_4  and  C_8
REMARK    8  A    between atoms: C_19  and  C_20
REMARK                            x       y       z     vdW  Elec       q    Type
REMARK                         _______ _______ _______ _____ _____    ______ ____
ROOT
ATOM      1  C   UNL     1       4.508   2.062   0.000  0.00  0.00    +0.000 C 
ATOM      2  C   UNL     1       3.793   2.475   0.000  0.00  0.00    +0.000 C 
ENDROOT
BRANCH   1   3
ATOM      3  C   UNL     1       5.222   2.475   0.000  0.00  0.00    +0.000 A 
ATOM      4  C   UNL     1       5.222   3.300   0.000  0.00  0.00    +0.000 A 
ATOM      5  C   UNL     1       5.937   2.062   0.000  0.00  0.00    +0.000 A 
ATOM      6  C   UNL     1       5.937   3.713   0.000  0.00  0.00    +0.000 A 
ATOM      7  C   UNL     1       6.652   2.475   0.000  0.00  0.00    +0.000 A 
ATOM      8  C   UNL     1       6.652   3.300   0.000  0.00  0.00    +0.000 A 
ATOM      9  O   UNL     1       7.366   3.713   0.000  0.00  0.00    +0.000 OA
ENDBRANCH   1   3
BRANCH   1  10
ATOM     10  C   UNL     1       4.508   1.238   0.000  0.00  0.00    +0.000 A 
ATOM     11  C   UNL     1       5.222   0.825   0.000  0.00  0.00    +0.000 A 
ATOM     12  C   UNL     1       3.793   0.825   0.000  0.00  0.00    +0.000 A 
ATOM     13  C   UNL     1       4.508  -0.412   0.000  0.00  0.00    +0.000 A 
ATOM     14  C   UNL     1       5.222   0.000   0.000  0.00  0.00    +0.000 A 
ATOM     15  C   UNL     1       3.793   0.000   0.000  0.00  0.00    +0.000 A 
BRANCH  13  16
ATOM     16  O   UNL     1       4.508  -1.238   0.000  0.00  0.00    +0.000 OA
BRANCH  16  17
ATOM     17  C   UNL     1       3.793  -1.650   0.000  0.00  0.00    +0.000 C 
BRANCH  17  18
ATOM     18  C   UNL     1       3.793  -2.475   0.000  0.00  0.00    +0.000 C 
BRANCH  18  19
ATOM     19  N   UNL     1       3.079  -2.888   0.000  0.00  0.00    +0.000 NA
ATOM     20  C   UNL     1       3.079  -3.713   0.000  0.00  0.00    +0.000 C 
ATOM     21  C   UNL     1       2.365  -2.475   0.000  0.00  0.00    +0.000 C 
ENDBRANCH  18  19
ENDBRANCH  17  18
ENDBRANCH  16  17
ENDBRANCH  13  16
ENDBRANCH   1  10
BRANCH   2  22
ATOM     22  C   UNL     1       3.079   2.062   0.000  0.00  0.00    +0.000 A 
ATOM     23  C   UNL     1       3.079   1.238   0.000  0.00  0.00    +0.000 A 
ATOM     24  C   UNL     1       2.365   2.475   0.000  0.00  0.00    +0.000 A 
ATOM     25  C   UNL     1       2.365   0.825   0.000  0.00  0.00    +0.000 A 
ATOM     26  C   UNL     1       1.650   2.062   0.000  0.00  0.00    +0.000 A 
ATOM     27  C   UNL     1       1.650   1.238   0.000  0.00  0.00    +0.000 A 
ENDBRANCH   2  22
BRANCH   2  28
ATOM     28  C   UNL     1       3.793   3.300   0.000  0.00  0.00    +0.000 C 
ATOM     29  C   UNL     1       3.079   3.713   0.000  0.00  0.00    +0.000 C 
ENDBRANCH   2  28
TORSDOF 8
