REMARK  Name = 007
REMARK  2 active torsions:
REMARK  status: ('A' for Active; 'I' for Inactive)
REMARK    1  A    between atoms: C_3  and  C_6
REMARK    2  A    between atoms: C_3  and  C_12
REMARK                            x       y       z     vdW  Elec       q    Type
REMARK                         _______ _______ _______ _____ _____    ______ ____
ROOT
ATOM      1  C   UNL     1       0.965   0.226   0.000  0.00  0.00    +0.000 C 
ATOM      2  C   UNL     1       1.632  -0.259   0.000  0.00  0.00    +0.000 C 
ATOM      3  C   UNL     1       0.297  -0.259   0.000  0.00  0.00    +0.000 C 
ATOM      4  C   UNL     1       1.377  -1.043   0.000  0.00  0.00    +0.000 C 
ATOM      5  C   UNL     1       0.552  -1.043   0.000  0.00  0.00    +0.000 C 
ENDROOT
BRANCH   3   6
ATOM      6  C   UNL     1      -0.261   0.349   0.000  0.00  0.00    +0.000 A 
ATOM      7  C   UNL     1      -1.066   0.169   0.000  0.00  0.00    +0.000 A 
ATOM      8  C   UNL     1      -0.014   1.136   0.000  0.00  0.00    +0.000 A 
ATOM      9  C   UNL     1      -1.625   0.776   0.000  0.00  0.00    +0.000 A 
ATOM     10  C   UNL     1      -0.573   1.743   0.000  0.00  0.00    +0.000 A 
ATOM     11  C   UNL     1      -1.378   1.563   0.000  0.00  0.00    +0.000 A 
ENDBRANCH   3   6
BRANCH   3  12
ATOM     12  C   UNL     1      -0.511  -0.422   0.000  0.00  0.00    +0.000 C 
ATOM     13  N   UNL     1      -0.774  -1.204   0.000  0.00  0.00    +0.000 NA
ENDBRANCH   3  12
TORSDOF 2
