REMARK  Name = 008
REMARK  5 active torsions:
REMARK  status: ('A' for Active; 'I' for Inactive)
REMARK    1  A    between atoms: C_7  and  C_8
REMARK    2  A    between atoms: C_8  and  C_9
REMARK    3  A    between atoms: C_9  and  C_11
REMARK    4  A    between atoms: C_11  and  C_12
REMARK    5  A    between atoms: C_23  and  C_24
REMARK                            x       y       z     vdW  Elec       q    Type
REMARK                         _______ _______ _______ _____ _____    ______ ____
ROOT
ATOM      1  C   UNL     1       0.276   0.321   0.000  0.00  0.00    +0.000 C 
ATOM      2  O   UNL     1       0.276   1.146   0.000  0.00  0.00    +0.000 OA
ATOM      3  N   UNL     1       0.990  -0.091   0.000  0.00  0.00    +0.000 N 
ATOM      4  C   UNL     1       1.705   0.321   0.000  0.00  0.00    +0.000 C 
ATOM      5  C   UNL     1       2.419  -0.091   0.000  0.00  0.00    +0.000 A 
ATOM      6  C   UNL     1       3.134   0.321   0.000  0.00  0.00    +0.000 A 
ATOM      7  C   UNL     1       3.848  -0.091   0.000  0.00  0.00    +0.000 A 
ATOM      8  C   UNL     1       3.848  -0.916   0.000  0.00  0.00    +0.000 A 
ATOM      9  C   UNL     1       2.419  -0.916   0.000  0.00  0.00    +0.000 A 
ATOM     10  C   UNL     1       3.134  -1.329   0.000  0.00  0.00    +0.000 A 
ATOM     11  C   UNL     1       1.705  -1.329   0.000  0.00  0.00    +0.000 C 
ATOM     12  C   UNL     1       0.990  -0.916   0.000  0.00  0.00    +0.000 C 
ENDROOT
BRANCH  12  13
ATOM     13  C   UNL     1       0.276  -1.329   0.000  0.00  0.00    +0.000 C 
ATOM     14  O   UNL     1       0.276  -2.154   0.000  0.00  0.00    +0.000 OA
ATOM     15  N   UNL     1      -0.439  -0.916   0.000  0.00  0.00    +0.000 NA
ENDBRANCH  12  13
BRANCH   1  16
ATOM     16  C   UNL     1      -0.439  -0.091   0.000  0.00  0.00    +0.000 C 
BRANCH  16  17
ATOM     17  C   UNL     1      -1.153   0.321   0.000  0.00  0.00    +0.000 C 
ATOM     18  N   UNL     1      -1.153   1.146   0.000  0.00  0.00    +0.000 NA
BRANCH  17  19
ATOM     19  C   UNL     1      -1.868  -0.091   0.000  0.00  0.00    +0.000 C 
BRANCH  19  26
ATOM     20  F   UNL     1      -3.297  -0.916   0.000  0.00  0.00    +0.000 F 
ATOM     21  C   UNL     1      -3.297  -0.091   0.000  0.00  0.00    +0.000 A 
ATOM     22  C   UNL     1      -4.011   0.321   0.000  0.00  0.00    +0.000 A 
ATOM     23  C   UNL     1      -4.011   1.146   0.000  0.00  0.00    +0.000 A 
ATOM     24  C   UNL     1      -3.297   1.559   0.000  0.00  0.00    +0.000 A 
ATOM     25  C   UNL     1      -2.582   1.146   0.000  0.00  0.00    +0.000 A 
ATOM     26  C   UNL     1      -2.582   0.321   0.000  0.00  0.00    +0.000 A 
ENDBRANCH  19  26
ENDBRANCH  17  19
ENDBRANCH  16  17
ENDBRANCH   1  16
TORSDOF 5
