REMARK  Name = 00G
REMARK  4 active torsions:
REMARK  status: ('A' for Active; 'I' for Inactive)
REMARK    1  A    between atoms: N_5  and  C_6
REMARK    2  A    between atoms: C_6  and  C_7
REMARK    3  A    between atoms: C_7  and  O_8
REMARK    4  A    between atoms: O_8  and  C_9
REMARK                            x       y       z     vdW  Elec       q    Type
REMARK                         _______ _______ _______ _____ _____    ______ ____
ROOT
ATOM      1  C   UNL     1      -0.871  -0.265   0.000  0.00  0.00    +0.000 A 
ATOM      2  C   UNL     1      -0.871   0.560   0.000  0.00  0.00    +0.000 A 
ATOM      3  C   UNL     1      -1.585  -0.677   0.000  0.00  0.00    +0.000 A 
ATOM      4  C   UNL     1      -2.300  -0.265   0.000  0.00  0.00    +0.000 A 
ATOM      5  C   UNL     1      -3.085  -0.519   0.000  0.00  0.00    +0.000 A 
ATOM      6  C   UNL     1      -3.570   0.148   0.000  0.00  0.00    +0.000 A 
ATOM      7  N   UNL     1      -3.085   0.815   0.000  0.00  0.00    +0.000 NA
ATOM      8  C   UNL     1      -2.300   0.560   0.000  0.00  0.00    +0.000 A 
ATOM      9  C   UNL     1      -1.585   0.973   0.000  0.00  0.00    +0.000 A 
ENDROOT
BRANCH   1  10
ATOM     10  O   UNL     1      -0.157  -0.677   0.000  0.00  0.00    +0.000 OA
BRANCH  10  11
ATOM     11  C   UNL     1       0.558  -0.265   0.000  0.00  0.00    +0.000 C 
BRANCH  11  12
ATOM     12  C   UNL     1       1.272  -0.677   0.000  0.00  0.00    +0.000 C 
BRANCH  12  17
ATOM     13  C   UNL     1       2.073   0.556   0.000  0.00  0.00    +0.000 A 
ATOM     14  C   UNL     1       2.880   0.728   0.000  0.00  0.00    +0.000 A 
ATOM     15  C   UNL     1       3.293   0.013   0.000  0.00  0.00    +0.000 A 
ATOM     16  C   UNL     1       2.740  -0.600   0.000  0.00  0.00    +0.000 A 
ATOM     17  N   UNL     1       1.987  -0.265   0.000  0.00  0.00    +0.000 N 
ENDBRANCH  12  17
ENDBRANCH  11  12
ENDBRANCH  10  11
ENDBRANCH   1  10
TORSDOF 4
