REMARK  Name = 024
REMARK  7 active torsions:
REMARK  status: ('A' for Active; 'I' for Inactive)
REMARK    1  A    between atoms: C_2  and  C_6
REMARK    2  A    between atoms: C_3  and  O_16
REMARK    3  A    between atoms: C_5  and  C_9
REMARK    4  A    between atoms: C_11  and  N_21
REMARK    5  A    between atoms: O_16  and  C_17
REMARK    6  A    between atoms: C_17  and  C_18
REMARK    7  A    between atoms: N_21  and  C_22
REMARK                            x       y       z     vdW  Elec       q    Type
REMARK                         _______ _______ _______ _____ _____    ______ ____
ROOT
ATOM      1  S   UNL     1       0.305  -1.587   0.000  0.00  0.00    +0.000 S 
ATOM      2  C   UNL     1       0.050  -2.372   0.000  0.00  0.00    +0.000 A 
ATOM      3  C   UNL     1      -0.775  -2.372   0.000  0.00  0.00    +0.000 A 
ATOM      4  C   UNL     1      -1.030  -1.587   0.000  0.00  0.00    +0.000 A 
ATOM      5  C   UNL     1      -0.362  -1.102   0.000  0.00  0.00    +0.000 A 
ATOM      6 BR   UNL     1      -1.814  -1.332   0.000  0.00  0.00    +0.000 Br
ENDROOT
BRANCH   5   7
ATOM      7  C   UNL     1      -0.362  -0.277   0.000  0.00  0.00    +0.000 A 
ATOM      8  C   UNL     1      -1.077   0.135   0.000  0.00  0.00    +0.000 A 
ATOM      9  C   UNL     1      -1.077   0.960   0.000  0.00  0.00    +0.000 A 
ATOM     10  C   UNL     1      -0.362   1.373   0.000  0.00  0.00    +0.000 A 
ATOM     11  C   UNL     1       0.352   0.960   0.000  0.00  0.00    +0.000 A 
ATOM     12  C   UNL     1       0.352   0.135   0.000  0.00  0.00    +0.000 A 
BRANCH   9  13
ATOM     13  N   UNL     1      -1.791   1.373   0.000  0.00  0.00    +0.000 NA
BRANCH  13  14
ATOM     14  C   UNL     1      -1.791   2.198   0.000  0.00  0.00    +0.000 C 
ATOM     15  C   UNL     1      -2.506   2.610   0.000  0.00  0.00    +0.000 C 
ATOM     16  C   UNL     1      -2.506   3.435   0.000  0.00  0.00    +0.000 C 
ATOM     17  C   UNL     1      -1.791   3.848   0.000  0.00  0.00    +0.000 C 
ATOM     18  C   UNL     1      -1.077   3.435   0.000  0.00  0.00    +0.000 C 
ATOM     19  C   UNL     1      -1.077   2.610   0.000  0.00  0.00    +0.000 C 
ENDBRANCH  13  14
ENDBRANCH   9  13
ENDBRANCH   5   7
BRANCH   2  20
ATOM     20  C   UNL     1       0.535  -3.039   0.000  0.00  0.00    +0.000 C 
ATOM     21  O   UNL     1       0.200  -3.793   0.000  0.00  0.00    +0.000 OA
ATOM     22  O   UNL     1       1.356  -2.953   0.000  0.00  0.00    +0.000 OA
ENDBRANCH   2  20
BRANCH   3  23
ATOM     23  O   UNL     1      -1.260  -3.039   0.000  0.00  0.00    +0.000 OA
BRANCH  23  24
ATOM     24  C   UNL     1      -0.924  -3.793   0.000  0.00  0.00    +0.000 C 
BRANCH  24  25
ATOM     25  C   UNL     1      -1.409  -4.460   0.000  0.00  0.00    +0.000 C 
ATOM     26  O   UNL     1      -1.073  -5.214   0.000  0.00  0.00    +0.000 OA
ATOM     27  O   UNL     1      -2.229  -4.374   0.000  0.00  0.00    +0.000 OA
ENDBRANCH  24  25
ENDBRANCH  23  24
ENDBRANCH   3  23
TORSDOF 7
