REMARK  Name = 028
REMARK  7 active torsions:
REMARK  status: ('A' for Active; 'I' for Inactive)
REMARK    1  A    between atoms: C_2  and  C_3
REMARK    2  A    between atoms: C_3  and  C_4
REMARK    3  A    between atoms: C_4  and  C_5
REMARK    4  A    between atoms: C_5  and  C_6
REMARK    5  A    between atoms: C_6  and  C_7
REMARK    6  A    between atoms: C_7  and  P_8
REMARK    7  A    between atoms: C_7  and  P_12
REMARK                            x       y       z     vdW  Elec       q    Type
REMARK                         _______ _______ _______ _____ _____    ______ ____
ROOT
ATOM      1  C   UNL     1       2.131   0.333   0.000  0.00  0.00    +0.000 C 
ATOM      2  O   UNL     1       2.812   0.798   0.000  0.00  0.00    +0.000 OA
ENDROOT
BRANCH   1   3
ATOM      3  P   UNL     1       2.597  -0.348   0.000  0.00  0.00    +0.000 P 
ATOM      4  O   UNL     1       3.062  -1.030   0.000  0.00  0.00    +0.000 OA
ATOM      5  O   UNL     1       3.278   0.117   0.000  0.00  0.00    +0.000 OA
ATOM      6  O   UNL     1       1.915  -0.814   0.000  0.00  0.00    +0.000 OA
ENDBRANCH   1   3
BRANCH   1   7
ATOM      7  P   UNL     1       1.666   1.014   0.000  0.00  0.00    +0.000 P 
ATOM      8  O   UNL     1       2.347   1.480   0.000  0.00  0.00    +0.000 OA
ATOM      9  O   UNL     1       0.985   0.549   0.000  0.00  0.00    +0.000 OA
ATOM     10  O   UNL     1       1.200   1.696   0.000  0.00  0.00    +0.000 OA
ENDBRANCH   1   7
BRANCH   1  11
ATOM     11  C   UNL     1       1.450  -0.132   0.000  0.00  0.00    +0.000 C 
BRANCH  11  12
ATOM     12  C   UNL     1       0.706   0.225   0.000  0.00  0.00    +0.000 C 
BRANCH  12  13
ATOM     13  C   UNL     1       0.025  -0.240   0.000  0.00  0.00    +0.000 C 
BRANCH  13  14
ATOM     14  C   UNL     1      -0.719   0.117   0.000  0.00  0.00    +0.000 C 
BRANCH  14  16
ATOM     15  C   UNL     1      -2.144   0.009   0.000  0.00  0.00    +0.000 C 
ATOM     16  C   UNL     1      -1.400  -0.348   0.000  0.00  0.00    +0.000 C 
ENDBRANCH  14  16
ENDBRANCH  13  14
ENDBRANCH  12  13
ENDBRANCH  11  12
ENDBRANCH   1  11
TORSDOF 7
