REMARK  Name = 039
REMARK  5 active torsions:
REMARK  status: ('A' for Active; 'I' for Inactive)
REMARK    1  A    between atoms: O_2  and  C_3
REMARK    2  A    between atoms: C_8  and  N_9
REMARK    3  A    between atoms: C_20  and  C_21
REMARK    4  A    between atoms: C_21  and  S_22
REMARK    5  A    between atoms: S_22  and  C_23
REMARK                            x       y       z     vdW  Elec       q    Type
REMARK                         _______ _______ _______ _____ _____    ______ ____
ROOT
ATOM      1  N   UNL     1       0.729  -0.848   0.000  0.00  0.00    +0.000 N 
ATOM      2  C   UNL     1       0.729  -1.673   0.000  0.00  0.00    +0.000 A 
ATOM      3  O   UNL     1       1.444  -2.086   0.000  0.00  0.00    +0.000 OA
ATOM      4  C   UNL     1       0.015  -2.086   0.000  0.00  0.00    +0.000 A 
ATOM      5  C   UNL     1       0.015  -2.911   0.000  0.00  0.00    +0.000 A 
ATOM      6 CL   UNL     1       0.729  -3.323   0.000  0.00  0.00    +0.000 Cl
ATOM      7  C   UNL     1      -0.700  -3.323   0.000  0.00  0.00    +0.000 A 
ATOM      8  C   UNL     1      -1.414  -2.911   0.000  0.00  0.00    +0.000 A 
ATOM      9  C   UNL     1      -1.414  -2.086   0.000  0.00  0.00    +0.000 A 
ATOM     10  C   UNL     1      -0.700  -1.673   0.000  0.00  0.00    +0.000 A 
ATOM     11  N   UNL     1      -0.700  -0.848   0.000  0.00  0.00    +0.000 NA
ATOM     12  C   UNL     1       0.015  -0.436   0.000  0.00  0.00    +0.000 A 
ENDROOT
BRANCH   1  18
ATOM     13  C   UNL     1       1.444   0.389   0.000  0.00  0.00    +0.000 A 
ATOM     14  C   UNL     1       2.158   0.802   0.000  0.00  0.00    +0.000 A 
ATOM     15  C   UNL     1       2.873   0.389   0.000  0.00  0.00    +0.000 A 
ATOM     16  C   UNL     1       2.873  -0.436   0.000  0.00  0.00    +0.000 A 
ATOM     17  C   UNL     1       2.158  -0.848   0.000  0.00  0.00    +0.000 A 
ATOM     18  C   UNL     1       1.444  -0.436   0.000  0.00  0.00    +0.000 A 
BRANCH  13  20
ATOM     19  C   UNL     1       0.729   1.627   0.000  0.00  0.00    +0.000 C 
ATOM     20  O   UNL     1       0.729   0.802   0.000  0.00  0.00    +0.000 OA
ENDBRANCH  13  20
ENDBRANCH   1  18
BRANCH  12  21
ATOM     21  C   UNL     1       0.015   0.389   0.000  0.00  0.00    +0.000 C 
BRANCH  21  22
ATOM     22  S   UNL     1      -0.700   0.802   0.000  0.00  0.00    +0.000 S 
BRANCH  22  23
ATOM     23  C   UNL     1      -0.700   1.627   0.000  0.00  0.00    +0.000 A 
ATOM     24  C   UNL     1      -1.414   2.039   0.000  0.00  0.00    +0.000 A 
ATOM     25  N   UNL     1      -2.199   1.784   0.000  0.00  0.00    +0.000 NA
ATOM     26  C   UNL     1      -2.684   2.452   0.000  0.00  0.00    +0.000 A 
ATOM     27  N   UNL     1      -2.199   3.119   0.000  0.00  0.00    +0.000 NA
ATOM     28  C   UNL     1      -1.414   2.864   0.000  0.00  0.00    +0.000 A 
ATOM     29  N   UNL     1      -0.700   3.277   0.000  0.00  0.00    +0.000 NA
ATOM     30  C   UNL     1       0.015   2.864   0.000  0.00  0.00    +0.000 A 
ATOM     31  N   UNL     1       0.015   2.039   0.000  0.00  0.00    +0.000 NA
ENDBRANCH  22  23
ENDBRANCH  21  22
ENDBRANCH  12  21
TORSDOF 5
