REMARK  Name = 041
REMARK  2 active torsions:
REMARK  status: ('A' for Active; 'I' for Inactive)
REMARK    1  A    between atoms: C_2  and  C_19
REMARK    2  A    between atoms: C_8  and  C_10
REMARK                            x       y       z     vdW  Elec       q    Type
REMARK                         _______ _______ _______ _____ _____    ______ ____
ROOT
ATOM      1  C   UNL     1       2.404  -0.139   0.000  0.00  0.00    +0.000 A 
ATOM      2  C   UNL     1       1.689  -0.551   0.000  0.00  0.00    +0.000 A 
ATOM      3  C   UNL     1       0.975  -0.139   0.000  0.00  0.00    +0.000 A 
ATOM      4  C   UNL     1       0.975   0.686   0.000  0.00  0.00    +0.000 A 
ATOM      5  C   UNL     1       1.689   1.099   0.000  0.00  0.00    +0.000 A 
ATOM      6  C   UNL     1       2.404   0.686   0.000  0.00  0.00    +0.000 A 
ATOM      7  O   UNL     1       0.190  -0.394   0.000  0.00  0.00    +0.000 OA
ATOM      8  C   UNL     1      -0.295   0.274   0.000  0.00  0.00    +0.000 A 
ATOM      9  N   UNL     1       0.190   0.941   0.000  0.00  0.00    +0.000 NA
ATOM     10  O   UNL     1       3.118   1.099   0.000  0.00  0.00    +0.000 OA
ENDROOT
BRANCH   8  11
ATOM     11  C   UNL     1      -1.120   0.274   0.000  0.00  0.00    +0.000 A 
ATOM     12  C   UNL     1      -1.532  -0.441   0.000  0.00  0.00    +0.000 A 
ATOM     13  C   UNL     1      -2.357  -0.441   0.000  0.00  0.00    +0.000 A 
ATOM     14  C   UNL     1      -2.770   0.274   0.000  0.00  0.00    +0.000 A 
ATOM     15  C   UNL     1      -2.357   0.988   0.000  0.00  0.00    +0.000 A 
ATOM     16  C   UNL     1      -1.532   0.988   0.000  0.00  0.00    +0.000 A 
ATOM     17  F   UNL     1      -2.770   1.702   0.000  0.00  0.00    +0.000 F 
ATOM     18  O   UNL     1      -3.595   0.274   0.000  0.00  0.00    +0.000 OA
ENDBRANCH   8  11
BRANCH   2  19
ATOM     19  C   UNL     1       1.689  -1.376   0.000  0.00  0.00    +0.000 C 
ATOM     20  C   UNL     1       0.975  -1.789   0.000  0.00  0.00    +0.000 C 
ENDBRANCH   2  19
TORSDOF 2
