REMARK  Name = 047
REMARK  5 active torsions:
REMARK  status: ('A' for Active; 'I' for Inactive)
REMARK    1  A    between atoms: N_1  and  C_19
REMARK    2  A    between atoms: C_4  and  C_6
REMARK    3  A    between atoms: C_6  and  N_7
REMARK    4  A    between atoms: N_7  and  C_8
REMARK    5  A    between atoms: C_8  and  C_9
REMARK                            x       y       z     vdW  Elec       q    Type
REMARK                         _______ _______ _______ _____ _____    ______ ____
ROOT
ATOM      1  N   UNL     1       3.150  -0.890   0.000  0.00  0.00    +0.000 N 
ATOM      2  C   UNL     1       3.934  -1.145   0.000  0.00  0.00    +0.000 A 
ATOM      3  C   UNL     1       3.934  -1.970   0.000  0.00  0.00    +0.000 A 
ATOM      4  C   UNL     1       3.150  -2.225   0.000  0.00  0.00    +0.000 A 
ATOM      5  C   UNL     1       2.665  -1.558   0.000  0.00  0.00    +0.000 A 
ATOM      6  C   UNL     1       4.649  -2.383   0.000  0.00  0.00    +0.000 A 
ATOM      7  C   UNL     1       5.363  -1.970   0.000  0.00  0.00    +0.000 A 
ATOM      8  C   UNL     1       5.363  -1.145   0.000  0.00  0.00    +0.000 A 
ATOM      9  C   UNL     1       4.649  -0.733   0.000  0.00  0.00    +0.000 A 
ENDROOT
BRANCH   1  10
ATOM     10  C   UNL     1       2.895  -0.106   0.000  0.00  0.00    +0.000 A 
ATOM     11  C   UNL     1       2.088   0.066   0.000  0.00  0.00    +0.000 A 
ATOM     12  C   UNL     1       1.833   0.851   0.000  0.00  0.00    +0.000 A 
ATOM     13  C   UNL     1       2.385   1.464   0.000  0.00  0.00    +0.000 A 
ATOM     14  C   UNL     1       3.192   1.292   0.000  0.00  0.00    +0.000 A 
ATOM     15  C   UNL     1       3.447   0.507   0.000  0.00  0.00    +0.000 A 
ATOM     16  C   UNL     1       2.130   2.248   0.000  0.00  0.00    +0.000 C 
ENDBRANCH   1  10
BRANCH   4  17
ATOM     17  C   UNL     1       2.895  -3.010   0.000  0.00  0.00    +0.000 C 
BRANCH  17  18
ATOM     18  N   UNL     1       3.447  -3.623   0.000  0.00  0.00    +0.000 NA
BRANCH  18  19
ATOM     19  C   UNL     1       3.192  -4.407   0.000  0.00  0.00    +0.000 C 
BRANCH  19  20
ATOM     20  C   UNL     1       3.744  -5.021   0.000  0.00  0.00    +0.000 C 
ATOM     21  C   UNL     1       3.489  -5.805   0.000  0.00  0.00    +0.000 C 
ATOM     22  C   UNL     1       4.041  -6.418   0.000  0.00  0.00    +0.000 C 
ATOM     23  C   UNL     1       4.848  -6.247   0.000  0.00  0.00    +0.000 C 
ATOM     24  C   UNL     1       5.103  -5.462   0.000  0.00  0.00    +0.000 C 
ATOM     25  C   UNL     1       4.551  -4.849   0.000  0.00  0.00    +0.000 C 
ENDBRANCH  19  20
ENDBRANCH  18  19
ENDBRANCH  17  18
ENDBRANCH   4  17
TORSDOF 5
