REMARK  Name = 057
REMARK  4 active torsions:
REMARK  status: ('A' for Active; 'I' for Inactive)
REMARK    1  A    between atoms: C_2  and  C_9
REMARK    2  A    between atoms: N_3  and  C_4
REMARK    3  A    between atoms: C_4  and  C_7
REMARK    4  A    between atoms: C_18  and  C_19
REMARK                            x       y       z     vdW  Elec       q    Type
REMARK                         _______ _______ _______ _____ _____    ______ ____
ROOT
ATOM      1  C   UNL     1      -0.519  -0.342   0.000  0.00  0.00    +0.000 A 
ATOM      2  C   UNL     1      -1.304  -0.087   0.000  0.00  0.00    +0.000 A 
ATOM      3  C   UNL     1      -1.475   0.720   0.000  0.00  0.00    +0.000 A 
ATOM      4  C   UNL     1      -0.862   1.272   0.000  0.00  0.00    +0.000 A 
ATOM      5  N   UNL     1      -0.862   2.097   0.000  0.00  0.00    +0.000 N 
ATOM      6  C   UNL     1      -1.530   2.582   0.000  0.00  0.00    +0.000 C 
ATOM      7  C   UNL     1      -0.078   2.352   0.000  0.00  0.00    +0.000 A 
ATOM      8  C   UNL     1       0.094   0.210   0.000  0.00  0.00    +0.000 A 
ATOM      9  C   UNL     1      -0.078   1.017   0.000  0.00  0.00    +0.000 A 
ATOM     10  C   UNL     1       0.407   1.685   0.000  0.00  0.00    +0.000 A 
ENDROOT
BRANCH  10  11
ATOM     11  C   UNL     1       1.232   1.685   0.000  0.00  0.00    +0.000 A 
ATOM     12  N   UNL     1       1.717   1.017   0.000  0.00  0.00    +0.000 NA
ATOM     13  C   UNL     1       1.717   2.352   0.000  0.00  0.00    +0.000 A 
ATOM     14  C   UNL     1       2.502   2.097   0.000  0.00  0.00    +0.000 A 
ATOM     15  C   UNL     1       3.216   2.510   0.000  0.00  0.00    +0.000 A 
ATOM     16  C   UNL     1       3.931   2.097   0.000  0.00  0.00    +0.000 A 
ATOM     17  C   UNL     1       2.502   1.272   0.000  0.00  0.00    +0.000 A 
ATOM     18  N   UNL     1       3.216   0.860   0.000  0.00  0.00    +0.000 NA
ATOM     19  C   UNL     1       3.931   1.272   0.000  0.00  0.00    +0.000 A 
ENDBRANCH  10  11
BRANCH   1  21
ATOM     20  O   UNL     1       0.437  -1.404   0.000  0.00  0.00    +0.000 OA
ATOM     21  C   UNL     1      -0.348  -1.149   0.000  0.00  0.00    +0.000 C 
ATOM     22  N   UNL     1      -0.961  -1.701   0.000  0.00  0.00    +0.000 NA
BRANCH  22  23
ATOM     23  C   UNL     1      -0.789  -2.508   0.000  0.00  0.00    +0.000 C 
ATOM     24  C   UNL     1       0.018  -2.336   0.000  0.00  0.00    +0.000 C 
ATOM     25  C   UNL     1      -1.596  -2.679   0.000  0.00  0.00    +0.000 C 
BRANCH  23  26
ATOM     26  C   UNL     1      -0.618  -3.315   0.000  0.00  0.00    +0.000 C 
ATOM     27  O   UNL     1      -1.231  -3.867   0.000  0.00  0.00    +0.000 OA
ENDBRANCH  23  26
ENDBRANCH  22  23
ENDBRANCH   1  21
TORSDOF 4
