REMARK  Name = 059
REMARK  12 active torsions:
REMARK  status: ('A' for Active; 'I' for Inactive)
REMARK    1  A    between atoms: C_6  and  C_7
REMARK    2  A    between atoms: C_7  and  C_8
REMARK    3  A    between atoms: C_8  and  S_9
REMARK    4  A    between atoms: S_9  and  N_12
REMARK    5  A    between atoms: N_12  and  C_13
REMARK    6  A    between atoms: C_13  and  C_14
REMARK    7  A    between atoms: C_13  and  P_17
REMARK    8  A    between atoms: P_17  and  C_20
REMARK    9  A    between atoms: C_20  and  C_21
REMARK   10  A    between atoms: C_21  and  C_22
REMARK   11  A    between atoms: C_21  and  C_25
REMARK   12  A    between atoms: C_30  and  C_31
REMARK                            x       y       z     vdW  Elec       q    Type
REMARK                         _______ _______ _______ _____ _____    ______ ____
ROOT
ATOM      1  C   UNL     1      -0.190  -0.164   0.000  0.00  0.00    +0.000 C 
ENDROOT
BRANCH   1   2
ATOM      2  C   UNL     1      -0.122  -0.987   0.000  0.00  0.00    +0.000 C 
ATOM      3  C   UNL     1       0.624  -1.339   0.000  0.00  0.00    +0.000 C 
ATOM      4  C   UNL     1      -0.800  -1.456   0.000  0.00  0.00    +0.000 C 
ENDBRANCH   1   2
BRANCH   1   5
ATOM      5  P   UNL     1       0.488   0.305   0.000  0.00  0.00    +0.000 P 
ATOM      6  O   UNL     1       0.018   0.984   0.000  0.00  0.00    +0.000 OA
ATOM      7  O   UNL     1       0.958  -0.373   0.000  0.00  0.00    +0.000 OA
BRANCH   5   8
ATOM      8  C   UNL     1       1.167   0.775   0.000  0.00  0.00    +0.000 C 
BRANCH   8   9
ATOM      9  C   UNL     1       1.913   0.423   0.000  0.00  0.00    +0.000 C 
BRANCH   9  10
ATOM     10  C   UNL     1       2.591   0.893   0.000  0.00  0.00    +0.000 A 
ATOM     11  C   UNL     1       3.337   0.540   0.000  0.00  0.00    +0.000 A 
ATOM     12  C   UNL     1       2.523   1.715   0.000  0.00  0.00    +0.000 A 
ATOM     13  C   UNL     1       3.201   2.185   0.000  0.00  0.00    +0.000 A 
ATOM     14  C   UNL     1       3.947   1.833   0.000  0.00  0.00    +0.000 A 
ATOM     15  C   UNL     1       4.015   1.010   0.000  0.00  0.00    +0.000 A 
BRANCH  15  16
ATOM     16  C   UNL     1       4.761   0.658   0.000  0.00  0.00    +0.000 C 
ATOM     17  N   UNL     1       5.439   1.128   0.000  0.00  0.00    +0.000 NA
ENDBRANCH  15  16
ENDBRANCH   9  10
BRANCH   9  18
ATOM     18  C   UNL     1       1.980  -0.399   0.000  0.00  0.00    +0.000 C 
ATOM     19  O   UNL     1       2.726  -0.752   0.000  0.00  0.00    +0.000 OA
ATOM     20  O   UNL     1       1.302  -0.869   0.000  0.00  0.00    +0.000 OA
ENDBRANCH   9  18
ENDBRANCH   8   9
ENDBRANCH   5   8
ENDBRANCH   1   5
BRANCH   1  21
ATOM     21  N   UNL     1      -0.936   0.188   0.000  0.00  0.00    +0.000 NA
BRANCH  21  22
ATOM     22  S   UNL     1      -1.614  -0.282   0.000  0.00  0.00    +0.000 S 
ATOM     23  O   UNL     1      -2.084   0.396   0.000  0.00  0.00    +0.000 OA
ATOM     24  O   UNL     1      -1.144  -0.960   0.000  0.00  0.00    +0.000 OA
BRANCH  22  25
ATOM     25  C   UNL     1      -2.292  -0.752   0.000  0.00  0.00    +0.000 C 
BRANCH  25  26
ATOM     26  C   UNL     1      -3.038  -0.399   0.000  0.00  0.00    +0.000 C 
BRANCH  26  32
ATOM     27  C   UNL     1      -3.648  -1.691   0.000  0.00  0.00    +0.000 A 
ATOM     28  C   UNL     1      -4.327  -2.161   0.000  0.00  0.00    +0.000 A 
ATOM     29  C   UNL     1      -5.072  -1.809   0.000  0.00  0.00    +0.000 A 
ATOM     30  C   UNL     1      -5.140  -0.987   0.000  0.00  0.00    +0.000 A 
ATOM     31  C   UNL     1      -4.462  -0.517   0.000  0.00  0.00    +0.000 A 
ATOM     32  C   UNL     1      -3.716  -0.869   0.000  0.00  0.00    +0.000 A 
ENDBRANCH  26  32
ENDBRANCH  25  26
ENDBRANCH  22  25
ENDBRANCH  21  22
ENDBRANCH   1  21
TORSDOF 12
