REMARK  Name = 074
REMARK  10 active torsions:
REMARK  status: ('A' for Active; 'I' for Inactive)
REMARK    1  A    between atoms: C_2  and  C_3
REMARK    2  A    between atoms: C_3  and  N_4
REMARK    3  A    between atoms: C_5  and  C_7
REMARK    4  A    between atoms: C_7  and  C_8
REMARK    5  A    between atoms: C_8  and  C_10
REMARK    6  A    between atoms: N_12  and  CA_13
REMARK    7  A    between atoms: CA_13  and  CB_14
REMARK    8  A    between atoms: CA_13  and  C_18
REMARK    9  A    between atoms: CB_14  and  CG1_16
REMARK   10  A    between atoms: CA_24  and  C_25
REMARK                            x       y       z     vdW  Elec       q    Type
REMARK                         _______ _______ _______ _____ _____    ______ ____
ROOT
ATOM      1  CA  ILE A   1       0.962  -0.440   0.000  0.00  0.00    +0.000 C 
ENDROOT
BRANCH   1   2
ATOM      2  C   ILE A   1       1.556  -1.012   0.000  0.00  0.00    +0.000 C 
ATOM      3  O   ILE A   1       1.358  -1.813   0.000  0.00  0.00    +0.000 OA
ATOM      4  N   PRO A   2       2.349  -0.783   0.000  0.00  0.00    +0.000 N 
ATOM      5  CD  PRO A   2       2.630  -0.007   0.000  0.00  0.00    +0.000 C 
ATOM      6  CG  PRO A   2       3.454  -0.035   0.000  0.00  0.00    +0.000 C 
ATOM      7  CB  PRO A   2       3.683  -0.827   0.000  0.00  0.00    +0.000 C 
ATOM      8  CA  PRO A   2       3.000  -1.290   0.000  0.00  0.00    +0.000 C 
BRANCH   8   9
ATOM      9  C   PRO A   2       2.973  -2.114   0.000  0.00  0.00    +0.000 C 
ATOM     10  O   PRO A   2       3.673  -2.550   0.000  0.00  0.00    +0.000 OA
ATOM     11  OXT PRO A   2       2.245  -2.503   0.000  0.00  0.00    +0.000 OA
ENDBRANCH   8   9
ENDBRANCH   1   2
BRANCH   1  14
ATOM     12  C   UNK A   0      -0.425  -0.097   0.000  0.00  0.00    +0.000 C 
ATOM     13  O   UNK A   0      -0.227   0.704   0.000  0.00  0.00    +0.000 OA
ATOM     14  N   ILE A   1       0.169  -0.668   0.000  0.00  0.00    +0.000 NA
BRANCH  12  15
ATOM     15  C   UNK A   0      -1.218  -0.325   0.000  0.00  0.00    +0.000 C 
BRANCH  15  16
ATOM     16  C   UNK A   0      -1.812   0.247   0.000  0.00  0.00    +0.000 C 
ATOM     17  O   UNK A   0      -1.614   1.048   0.000  0.00  0.00    +0.000 OA
BRANCH  16  19
ATOM     18  N   UNK A   0      -3.200   0.590   0.000  0.00  0.00    +0.000 NA
ATOM     19  C   UNK A   0      -2.605   0.018   0.000  0.00  0.00    +0.000 C 
ATOM     20  O   UNK A   0      -2.803  -0.783   0.000  0.00  0.00    +0.000 OA
BRANCH  18  21
ATOM     21  C   UNK A   0      -3.992   0.361   0.000  0.00  0.00    +0.000 C 
BRANCH  21  23
ATOM     22  C   UNK A   0      -5.379   0.704   0.000  0.00  0.00    +0.000 C 
ATOM     23  C   UNK A   0      -4.587   0.933   0.000  0.00  0.00    +0.000 C 
ENDBRANCH  21  23
ENDBRANCH  18  21
ENDBRANCH  16  19
ENDBRANCH  15  16
ENDBRANCH  12  15
ENDBRANCH   1  14
BRANCH   1  24
ATOM     24  CB  ILE A   1       1.160   0.361   0.000  0.00  0.00    +0.000 C 
ATOM     25  CG2 ILE A   1       1.953   0.590   0.000  0.00  0.00    +0.000 C 
BRANCH  24  26
ATOM     26  CG1 ILE A   1       0.566   0.933   0.000  0.00  0.00    +0.000 C 
ATOM     27  CD1 ILE A   1       0.764   1.734   0.000  0.00  0.00    +0.000 C 
ENDBRANCH  24  26
ENDBRANCH   1  24
TORSDOF 10
