REMARK  Name = 099
REMARK  6 active torsions:
REMARK  status: ('A' for Active; 'I' for Inactive)
REMARK    1  A    between atoms: C_6  and  C_10
REMARK    2  A    between atoms: C_6  and  C_16
REMARK    3  A    between atoms: C_9  and  C_10
REMARK    4  A    between atoms: C_10  and  C_15
REMARK    5  A    between atoms: C_15  and  C_18
REMARK    6  A    between atoms: C_20  and  N_22
REMARK                            x       y       z     vdW  Elec       q    Type
REMARK                         _______ _______ _______ _____ _____    ______ ____
ROOT
ATOM      1  C   UNL     1      -1.117   0.025   0.000  0.00  0.00    +0.000 C 
ENDROOT
BRANCH   1   2
ATOM      2  C   UNL     1      -0.292   0.025   0.000  0.00  0.00    +0.000 C 
ATOM      3  N   UNL     1       0.120  -0.689   0.000  0.00  0.00    +0.000 NA
ATOM      4  O   UNL     1       0.120   0.740   0.000  0.00  0.00    +0.000 OA
BRANCH   3  13
ATOM      5  C   UNL     1       2.828  -1.654   0.000  0.00  0.00    +0.000 A 
ATOM      6  C   UNL     1       1.259  -2.164   0.000  0.00  0.00    +0.000 A 
ATOM      7  C   UNL     1       1.430  -1.357   0.000  0.00  0.00    +0.000 A 
ATOM      8  C   UNL     1       2.657  -2.461   0.000  0.00  0.00    +0.000 A 
ATOM      9  C   UNL     1       1.872  -2.716   0.000  0.00  0.00    +0.000 A 
ATOM     10  C   UNL     1       2.215  -0.277   0.000  0.00  0.00    +0.000 C 
ATOM     11  C   UNL     1       2.215  -1.102   0.000  0.00  0.00    +0.000 A 
ATOM     12  C   UNL     1       1.430  -0.022   0.000  0.00  0.00    +0.000 C 
ATOM     13  C   UNL     1       0.946  -0.689   0.000  0.00  0.00    +0.000 C 
ATOM     14  O   UNL     1       1.175   0.763   0.000  0.00  0.00    +0.000 OA
ENDBRANCH   3  13
ENDBRANCH   1   2
BRANCH   1  15
ATOM     15  C   UNL     1      -1.530   0.740   0.000  0.00  0.00    +0.000 C 
BRANCH  15  21
ATOM     16  C   UNL     1      -0.292   1.454   0.000  0.00  0.00    +0.000 A 
ATOM     17  C   UNL     1      -0.292   2.883   0.000  0.00  0.00    +0.000 A 
ATOM     18  C   UNL     1      -1.530   2.168   0.000  0.00  0.00    +0.000 A 
ATOM     19  C   UNL     1      -1.117   2.883   0.000  0.00  0.00    +0.000 A 
ATOM     20  C   UNL     1       0.120   2.168   0.000  0.00  0.00    +0.000 A 
ATOM     21  C   UNL     1      -1.117   1.454   0.000  0.00  0.00    +0.000 A 
ATOM     22  O   UNL     1      -1.530   3.598   0.000  0.00  0.00    +0.000 OA
ENDBRANCH  15  21
ENDBRANCH   1  15
BRANCH   1  23
ATOM     23  C   UNL     1      -1.530  -0.689   0.000  0.00  0.00    +0.000 C 
BRANCH  23  24
ATOM     24  C   UNL     1      -2.354  -0.689   0.000  0.00  0.00    +0.000 C 
ATOM     25  N   UNL     1      -2.767  -1.404   0.000  0.00  0.00    +0.000 NA
ATOM     26  O   UNL     1      -3.592  -1.404   0.000  0.00  0.00    +0.000 OA
ATOM     27  O   UNL     1      -2.767   0.025   0.000  0.00  0.00    +0.000 OA
ENDBRANCH  23  24
ENDBRANCH   1  23
TORSDOF 6
