REMARK  Name = 0AG
REMARK  6 active torsions:
REMARK  status: ('A' for Active; 'I' for Inactive)
REMARK    1  A    between atoms: C_2  and  O_3
REMARK    2  A    between atoms: O_3  and  C_4
REMARK    3  A    between atoms: N_6  and  CA_7
REMARK    4  A    between atoms: CA_7  and  C_8
REMARK    5  A    between atoms: CA_7  and  CB_10
REMARK    6  A    between atoms: CB_10  and  CG_11
REMARK                            x       y       z     vdW  Elec       q    Type
REMARK                         _______ _______ _______ _____ _____    ______ ____
ROOT
ATOM      1  CA  LEU A   1       0.299   0.343   0.000  0.00  0.00    +0.000 C 
ENDROOT
BRANCH   1   2
ATOM      2  C   LEU A   1       0.299  -0.482   0.000  0.00  0.00    +0.000 C 
ATOM      3  O   LEU A   1       1.014  -0.894   0.000  0.00  0.00    +0.000 OA
ATOM      4  OXT LEU A   1      -0.415  -0.894   0.000  0.00  0.00    +0.000 OA
ENDBRANCH   1   2
BRANCH   1   7
ATOM      5  C   UNK A   0      -1.130   0.343   0.000  0.00  0.00    +0.000 C 
ATOM      6  O   UNK A   0      -1.130  -0.482   0.000  0.00  0.00    +0.000 OA
ATOM      7  N   LEU A   1      -0.415   0.756   0.000  0.00  0.00    +0.000 NA
BRANCH   5   8
ATOM      8  O   UNK A   0      -1.844   0.756   0.000  0.00  0.00    +0.000 OA
BRANCH   8  10
ATOM      9  C   UNK A   0      -3.273   0.756   0.000  0.00  0.00    +0.000 C 
ATOM     10  C   UNK A   0      -2.559   0.343   0.000  0.00  0.00    +0.000 C 
ENDBRANCH   8  10
ENDBRANCH   5   8
ENDBRANCH   1   7
BRANCH   1  11
ATOM     11  CB  LEU A   1       1.014   0.756   0.000  0.00  0.00    +0.000 C 
BRANCH  11  12
ATOM     12  CG  LEU A   1       1.728   0.343   0.000  0.00  0.00    +0.000 C 
ATOM     13  CD1 LEU A   1       2.443   0.756   0.000  0.00  0.00    +0.000 C 
ATOM     14  CD2 LEU A   1       1.728  -0.482   0.000  0.00  0.00    +0.000 C 
ENDBRANCH  11  12
ENDBRANCH   1  11
TORSDOF 6
