REMARK  Name = 0AY
REMARK  9 active torsions:
REMARK  status: ('A' for Active; 'I' for Inactive)
REMARK    1  A    between atoms: C_2  and  C_3
REMARK    2  A    between atoms: C_2  and  B_8
REMARK    3  A    between atoms: C_3  and  C_4
REMARK    4  A    between atoms: C_4  and  C_5
REMARK    5  A    between atoms: C_5  and  C_6
REMARK    6  A    between atoms: B_8  and  O_9
REMARK    7  A    between atoms: B_8  and  O_12
REMARK    8  A    between atoms: O_9  and  C_10
REMARK    9  A    between atoms: O_12  and  C_13
REMARK                            x       y       z     vdW  Elec       q    Type
REMARK                         _______ _______ _______ _____ _____    ______ ____
ROOT
ATOM      1  N   UNL     1       0.375  -1.250   0.000  0.00  0.00    +0.000 NA
ATOM      2  C   UNL     1       0.105  -0.471   0.000  0.00  0.00    +0.000 C 
ENDROOT
BRANCH   2   3
ATOM      3  C   UNL     1       0.645   0.153   0.000  0.00  0.00    +0.000 C 
BRANCH   3   4
ATOM      4  C   UNL     1       1.455  -0.003   0.000  0.00  0.00    +0.000 C 
BRANCH   4   5
ATOM      5  C   UNL     1       1.995   0.621   0.000  0.00  0.00    +0.000 C 
BRANCH   5   6
ATOM      6  C   UNL     1       2.805   0.465   0.000  0.00  0.00    +0.000 C 
ATOM      7  N   UNL     1       3.345   1.088   0.000  0.00  0.00    +0.000 NA
ENDBRANCH   5   6
ENDBRANCH   4   5
ENDBRANCH   3   4
ENDBRANCH   2   3
BRANCH   2   8
ATOM      8  B   UNL     1      -0.705  -0.315   0.000  0.00  0.00    +0.000 B 
BRANCH   8   9
ATOM      9  O   UNL     1      -1.246  -0.938   0.000  0.00  0.00    +0.000 OA
BRANCH   9  10
ATOM     10  C   UNL     1      -2.056  -0.782   0.000  0.00  0.00    +0.000 C 
ATOM     11  C   UNL     1      -2.596  -1.406   0.000  0.00  0.00    +0.000 C 
ENDBRANCH   9  10
ENDBRANCH   8   9
BRANCH   8  12
ATOM     12  O   UNL     1      -0.975   0.465   0.000  0.00  0.00    +0.000 OA
BRANCH  12  13
ATOM     13  C   UNL     1      -1.786   0.621   0.000  0.00  0.00    +0.000 C 
ATOM     14  C   UNL     1      -2.056   1.400   0.000  0.00  0.00    +0.000 C 
ENDBRANCH  12  13
ENDBRANCH   8  12
ENDBRANCH   2   8
TORSDOF 9
