REMARK  Name = 0MO
REMARK  7 active torsions:
REMARK  status: ('A' for Active; 'I' for Inactive)
REMARK    1  A    between atoms: O_3  and  C_9
REMARK    2  A    between atoms: O_3  and  C_10
REMARK    3  A    between atoms: C_4  and  C_7
REMARK    4  A    between atoms: O_6  and  C_11
REMARK    5  A    between atoms: C_7  and  C_9
REMARK    6  A    between atoms: C_15  and  C_16
REMARK    7  A    between atoms: C_16  and  C_17
REMARK                            x       y       z     vdW  Elec       q    Type
REMARK                         _______ _______ _______ _____ _____    ______ ____
ROOT
ATOM      1  C   UNL     1       0.151   0.331   0.000  0.00  0.00    +0.000 A 
ATOM      2  C   UNL     1       0.151   1.156   0.000  0.00  0.00    +0.000 A 
ATOM      3  C   UNL     1      -0.563   1.568   0.000  0.00  0.00    +0.000 A 
ATOM      4  C   UNL     1      -1.278   1.156   0.000  0.00  0.00    +0.000 A 
ATOM      5  C   UNL     1      -1.278   0.331   0.000  0.00  0.00    +0.000 A 
ATOM      6  C   UNL     1      -0.563  -0.082   0.000  0.00  0.00    +0.000 A 
ENDROOT
BRANCH   2   7
ATOM      7  O   UNL     1       0.866   1.568   0.000  0.00  0.00    +0.000 OA
ATOM      8  C   UNL     1       0.866   2.393   0.000  0.00  0.00    +0.000 C 
ENDBRANCH   2   7
BRANCH   1   9
ATOM      9  O   UNL     1       0.866  -0.082   0.000  0.00  0.00    +0.000 OA
BRANCH   9  10
ATOM     10  C   UNL     1       1.580   0.331   0.000  0.00  0.00    +0.000 C 
BRANCH  10  11
ATOM     11  C   UNL     1       2.295  -0.082   0.000  0.00  0.00    +0.000 C 
BRANCH  11  13
ATOM     12  C   UNL     1       3.723  -0.082   0.000  0.00  0.00    +0.000 C 
ATOM     13  C   UNL     1       3.009   0.331   0.000  0.00  0.00    +0.000 C 
ENDBRANCH  11  13
ENDBRANCH  10  11
ENDBRANCH   9  10
ENDBRANCH   1   9
BRANCH   5  14
ATOM     14  C   UNL     1      -1.992  -0.082   0.000  0.00  0.00    +0.000 C 
BRANCH  14  18
ATOM     15  N   UNL     1      -1.580  -2.176   0.000  0.00  0.00    +0.000 NA
ATOM     16  N   UNL     1      -2.660  -1.391   0.000  0.00  0.00    +0.000 NA
ATOM     17  O   UNL     1      -2.890  -2.844   0.000  0.00  0.00    +0.000 OA
ATOM     18  C   UNL     1      -1.992  -0.907   0.000  0.00  0.00    +0.000 C 
ATOM     19  C   UNL     1      -1.325  -1.391   0.000  0.00  0.00    +0.000 C 
ATOM     20  C   UNL     1      -2.405  -2.176   0.000  0.00  0.00    +0.000 C 
ENDBRANCH  14  18
ENDBRANCH   5  14
TORSDOF 7
