REMARK  Name = 1000
REMARK  3 active torsions:
REMARK  status: ('A' for Active; 'I' for Inactive)
REMARK    1  A    between atoms: N_7  and  CA_10
REMARK    2  A    between atoms: CA_11  and  C_20
REMARK    3  A    between atoms: C_14  and  C_19
REMARK                            x       y       z     vdW  Elec       q    Type
REMARK                         _______ _______ _______ _____ _____    ______ ____
ROOT
ATOM      1  S   UNL     1       6.237   0.459   0.000  0.00  0.00    +0.000 S 
ATOM      2  O   UNL     1       4.038  -1.208   0.000  0.00  0.00    +0.000 OA
ATOM      3  N   UNL     1       5.452  -0.621   0.000  0.00  0.00    +0.000 N 
ATOM      4  C   UNL     1       5.452   0.204   0.000  0.00  0.00    +0.000 C 
ATOM      5  CA  UNL     1       4.620   0.208   0.000  0.00  0.00    +0.000 C 
ATOM      6  CA  UNL     1       6.237  -0.875   0.000  0.00  0.00    +0.000 C 
ATOM      7  C   UNL     1       6.721  -0.208   0.000  0.00  0.00    +0.000 C 
ATOM      8  C   UNL     1       4.620  -0.624   0.000  0.00  0.00    +0.000 C 
ATOM      9  C   UNL     1       7.389  -0.693   0.000  0.00  0.00    +0.000 C 
ATOM     10  C   UNL     1       7.389   0.277   0.000  0.00  0.00    +0.000 C 
ENDROOT
BRANCH   6  13
ATOM     11  O   UNL     1       5.939  -2.273   0.000  0.00  0.00    +0.000 OA
ATOM     12  OXT UNL     1       7.298  -1.832   0.000  0.00  0.00    +0.000 OA
ATOM     13  C   UNL     1       6.491  -1.660   0.000  0.00  0.00    +0.000 C 
ENDBRANCH   6  13
BRANCH   5  15
ATOM     14  O   UNL     1       3.311  -0.241   0.000  0.00  0.00    +0.000 OA
ATOM     15  N   UNL     1       4.038   0.792   0.000  0.00  0.00    +0.000 NA
ATOM     16  C   UNL     1       3.240   0.581   0.000  0.00  0.00    +0.000 C 
BRANCH  16  18
ATOM     17  N   UNL     1       2.184   0.490   0.000  0.00  0.00    +0.000 NA
ATOM     18  C   UNL     1       2.658   1.165   0.000  0.00  0.00    +0.000 C 
ATOM     19  C   UNL     1       3.243   1.747   0.000  0.00  0.00    +0.000 C 
ATOM     20  C   UNL     1       1.862   1.380   0.000  0.00  0.00    +0.000 C 
ATOM     21  C   UNL     1       3.031   2.545   0.000  0.00  0.00    +0.000 C 
ATOM     22  C   UNL     1       1.650   2.178   0.000  0.00  0.00    +0.000 C 
ATOM     23  C   UNL     1       2.235   2.760   0.000  0.00  0.00    +0.000 C 
ENDBRANCH  16  18
ENDBRANCH   5  15
TORSDOF 3
