REMARK  Name = 1002
REMARK  5 active torsions:
REMARK  status: ('A' for Active; 'I' for Inactive)
REMARK    1  A    between atoms: N_2  and  C_9
REMARK    2  A    between atoms: N_3  and  C_13
REMARK    3  A    between atoms: C_4  and  C_10
REMARK    4  A    between atoms: C_9  and  C_11
REMARK    5  A    between atoms: C_11  and  C_12
REMARK                            x       y       z     vdW  Elec       q    Type
REMARK                         _______ _______ _______ _____ _____    ______ ____
ROOT
ATOM      1  O   UNL     1       5.937  -0.206   0.000  0.00  0.00    +0.000 OA
ATOM      2  N   UNL     1       4.508  -0.206   0.000  0.00  0.00    +0.000 NA
ATOM      3  C   UNL     1       5.222   0.206   0.000  0.00  0.00    +0.000 C 
ENDROOT
BRANCH   2   4
ATOM      4  C   UNL     1       4.508  -1.031   0.000  0.00  0.00    +0.000 A 
ATOM      5  C   UNL     1       5.222  -1.444   0.000  0.00  0.00    +0.000 A 
ATOM      6  C   UNL     1       3.793  -1.444   0.000  0.00  0.00    +0.000 A 
ATOM      7  C   UNL     1       5.222  -2.269   0.000  0.00  0.00    +0.000 A 
ATOM      8  C   UNL     1       3.793  -2.269   0.000  0.00  0.00    +0.000 A 
ATOM      9  C   UNL     1       5.937  -1.031   0.000  0.00  0.00    +0.000 C 
ATOM     10  C   UNL     1       3.079  -1.031   0.000  0.00  0.00    +0.000 C 
ATOM     11  C   UNL     1       4.508  -2.681   0.000  0.00  0.00    +0.000 A 
ENDBRANCH   2   4
BRANCH   3  13
ATOM     12  N   UNL     1       4.508   1.444   0.000  0.00  0.00    +0.000 NA
ATOM     13  C   UNL     1       5.222   1.031   0.000  0.00  0.00    +0.000 C 
ATOM     14  C   UNL     1       5.937   1.444   0.000  0.00  0.00    +0.000 C 
ATOM     15  C   UNL     1       4.508   2.269   0.000  0.00  0.00    +0.000 C 
ATOM     16  C   UNL     1       5.937   2.269   0.000  0.00  0.00    +0.000 C 
ATOM     17  C   UNL     1       5.222   2.681   0.000  0.00  0.00    +0.000 C 
BRANCH  12  18
ATOM     18  C   UNL     1       3.793   1.031   0.000  0.00  0.00    +0.000 C 
BRANCH  18  19
ATOM     19  C   UNL     1       3.079   1.444   0.000  0.00  0.00    +0.000 C 
BRANCH  19  20
ATOM     20  C   UNL     1       2.365   1.031   0.000  0.00  0.00    +0.000 C 
ATOM     21  C   UNL     1       1.650   1.444   0.000  0.00  0.00    +0.000 C 
ENDBRANCH  19  20
ENDBRANCH  18  19
ENDBRANCH  12  18
ENDBRANCH   3  13
TORSDOF 5
