REMARK  Name = 1006
REMARK  5 active torsions:
REMARK  status: ('A' for Active; 'I' for Inactive)
REMARK    1  A    between atoms: N_1  and  C_6
REMARK    2  A    between atoms: C_6  and  C_7
REMARK    3  A    between atoms: C_6  and  C_8
REMARK    4  A    between atoms: C_18  and  C_21
REMARK    5  A    between atoms: C_19  and  C_22
REMARK                            x       y       z     vdW  Elec       q    Type
REMARK                         _______ _______ _______ _____ _____    ______ ____
ROOT
ATOM      1  C   UNL     1       3.670   1.031   0.000  0.00  0.00    +0.000 C 
ENDROOT
BRANCH   1   2
ATOM      2  C   UNL     1       3.670   0.206   0.000  0.00  0.00    +0.000 A 
ATOM      3  C   UNL     1       2.956  -0.206   0.000  0.00  0.00    +0.000 A 
ATOM      4  C   UNL     1       4.385  -0.206   0.000  0.00  0.00    +0.000 A 
ATOM      5  C   UNL     1       2.956  -1.031   0.000  0.00  0.00    +0.000 A 
ATOM      6  C   UNL     1       4.385  -1.031   0.000  0.00  0.00    +0.000 A 
ATOM      7  C   UNL     1       3.670  -1.444   0.000  0.00  0.00    +0.000 A 
BRANCH   7   9
ATOM      8  N   UNL     1       3.670  -3.094   0.000  0.00  0.00    +0.000 NA
ATOM      9  C   UNL     1       3.670  -2.269   0.000  0.00  0.00    +0.000 C 
ENDBRANCH   7   9
ENDBRANCH   1   2
BRANCH   1  10
ATOM     10  C   UNL     1       4.385   1.444   0.000  0.00  0.00    +0.000 A 
ATOM     11  C   UNL     1       5.099   1.031   0.000  0.00  0.00    +0.000 A 
ATOM     12  C   UNL     1       4.385   2.269   0.000  0.00  0.00    +0.000 A 
ATOM     13  C   UNL     1       5.814   1.444   0.000  0.00  0.00    +0.000 A 
ATOM     14  C   UNL     1       5.099   2.681   0.000  0.00  0.00    +0.000 A 
ATOM     15  C   UNL     1       5.814   2.269   0.000  0.00  0.00    +0.000 A 
BRANCH  15  17
ATOM     16  N   UNL     1       7.243   3.094   0.000  0.00  0.00    +0.000 NA
ATOM     17  C   UNL     1       6.528   2.681   0.000  0.00  0.00    +0.000 C 
ENDBRANCH  15  17
ENDBRANCH   1  10
BRANCH   1  18
ATOM     18  N   UNL     1       2.956   1.444   0.000  0.00  0.00    +0.000 N 
ATOM     19  N   UNL     1       2.869   2.264   0.000  0.00  0.00    +0.000 NA
ATOM     20  N   UNL     1       1.650   1.721   0.000  0.00  0.00    +0.000 NA
ATOM     21  C   UNL     1       2.202   1.108   0.000  0.00  0.00    +0.000 A 
ATOM     22  C   UNL     1       2.062   2.436   0.000  0.00  0.00    +0.000 A 
ENDBRANCH   1  18
TORSDOF 5
