REMARK  Name = 1007
REMARK  6 active torsions:
REMARK  status: ('A' for Active; 'I' for Inactive)
REMARK    1  A    between atoms: O_5  and  C_8
REMARK    2  A    between atoms: O_5  and  C_11
REMARK    3  A    between atoms: N_6  and  C_9
REMARK    4  A    between atoms: C_8  and  C_9
REMARK    5  A    between atoms: C_8  and  C_10
REMARK    6  A    between atoms: C_11  and  C_15
REMARK                            x       y       z     vdW  Elec       q    Type
REMARK                         _______ _______ _______ _____ _____    ______ ____
ROOT
ATOM      1  C   UNL     1       4.385   0.139   0.000  0.00  0.00    +0.000 C 
ENDROOT
BRANCH   1   4
ATOM      2 CL   UNL     1       2.956  -0.686   0.000  0.00  0.00    +0.000 Cl
ATOM      3 CL   UNL     1       4.385  -3.161   0.000  0.00  0.00    +0.000 Cl
ATOM      4  C   UNL     1       4.385  -0.686   0.000  0.00  0.00    +0.000 A 
ATOM      5  C   UNL     1       3.670  -1.099   0.000  0.00  0.00    +0.000 A 
ATOM      6  C   UNL     1       5.099  -1.099   0.000  0.00  0.00    +0.000 A 
ATOM      7  C   UNL     1       3.670  -1.924   0.000  0.00  0.00    +0.000 A 
ATOM      8  C   UNL     1       5.099  -1.924   0.000  0.00  0.00    +0.000 A 
ATOM      9  C   UNL     1       4.385  -2.336   0.000  0.00  0.00    +0.000 A 
ENDBRANCH   1   4
BRANCH   1  10
ATOM     10  O   UNL     1       3.670   0.551   0.000  0.00  0.00    +0.000 OA
BRANCH  10  11
ATOM     11  C   UNL     1       3.670   1.376   0.000  0.00  0.00    +0.000 C 
BRANCH  11  14
ATOM     12 CL   UNL     1       3.483   3.161   0.000  0.00  0.00    +0.000 Cl
ATOM     13  S   UNL     1       2.062   2.781   0.000  0.00  0.00    +0.000 S 
ATOM     14  C   UNL     1       2.956   1.789   0.000  0.00  0.00    +0.000 A 
ATOM     15  C   UNL     1       2.202   1.453   0.000  0.00  0.00    +0.000 A 
ATOM     16  C   UNL     1       2.869   2.609   0.000  0.00  0.00    +0.000 A 
ATOM     17  C   UNL     1       1.650   2.066   0.000  0.00  0.00    +0.000 A 
ENDBRANCH  11  14
ENDBRANCH  10  11
ENDBRANCH   1  10
BRANCH   1  18
ATOM     18  C   UNL     1       5.099   0.551   0.000  0.00  0.00    +0.000 C 
BRANCH  18  19
ATOM     19  N   UNL     1       5.099   1.376   0.000  0.00  0.00    +0.000 N 
ATOM     20  N   UNL     1       5.512   2.646   0.000  0.00  0.00    +0.000 NA
ATOM     21  C   UNL     1       4.432   1.861   0.000  0.00  0.00    +0.000 A 
ATOM     22  C   UNL     1       5.767   1.861   0.000  0.00  0.00    +0.000 A 
ATOM     23  C   UNL     1       4.687   2.646   0.000  0.00  0.00    +0.000 A 
ENDBRANCH  18  19
ENDBRANCH   1  18
TORSDOF 6
