REMARK  Name = 1009
REMARK  4 active torsions:
REMARK  status: ('A' for Active; 'I' for Inactive)
REMARK    1  A    between atoms: C_4  and  C_5
REMARK    2  A    between atoms: C_4  and  C_13
REMARK    3  A    between atoms: C_7  and  C_12
REMARK    4  A    between atoms: C_12  and  C_14
REMARK                            x       y       z     vdW  Elec       q    Type
REMARK                         _______ _______ _______ _____ _____    ______ ____
ROOT
ATOM      1  C   UNL     1       3.079  -0.775   0.000  0.00  0.00    +0.000 A 
ATOM      2  C   UNL     1       3.079   0.050   0.000  0.00  0.00    +0.000 A 
ATOM      3  C   UNL     1       3.793   0.462   0.000  0.00  0.00    +0.000 A 
ATOM      4  C   UNL     1       3.793  -1.188   0.000  0.00  0.00    +0.000 A 
ATOM      5  C   UNL     1       4.508   0.050   0.000  0.00  0.00    +0.000 A 
ATOM      6  C   UNL     1       4.508  -0.775   0.000  0.00  0.00    +0.000 A 
ENDROOT
BRANCH   3   8
ATOM      7  O   UNL     1       3.079   1.700   0.000  0.00  0.00    +0.000 OA
ATOM      8  C   UNL     1       3.793   1.287   0.000  0.00  0.00    +0.000 C 
BRANCH   8   9
ATOM      9  C   UNL     1       4.508   1.700   0.000  0.00  0.00    +0.000 A 
ATOM     10  C   UNL     1       4.508   2.525   0.000  0.00  0.00    +0.000 A 
ATOM     11  C   UNL     1       5.222   1.287   0.000  0.00  0.00    +0.000 A 
ATOM     12  C   UNL     1       5.222   2.937   0.000  0.00  0.00    +0.000 A 
ATOM     13  C   UNL     1       5.937   1.700   0.000  0.00  0.00    +0.000 A 
ATOM     14  C   UNL     1       5.937   2.525   0.000  0.00  0.00    +0.000 A 
ENDBRANCH   8   9
ENDBRANCH   3   8
BRANCH   1  15
ATOM     15  C   UNL     1       2.365  -1.188   0.000  0.00  0.00    +0.000 C 
ATOM     16  C   UNL     1       1.650  -0.775   0.000  0.00  0.00    +0.000 C 
BRANCH  15  19
ATOM     17  O   UNL     1       1.650  -2.426   0.000  0.00  0.00    +0.000 OA
ATOM     18  O   UNL     1       3.079  -2.426   0.000  0.00  0.00    +0.000 OA
ATOM     19  C   UNL     1       2.365  -2.013   0.000  0.00  0.00    +0.000 C 
ENDBRANCH  15  19
ENDBRANCH   1  15
TORSDOF 4
