REMARK  Name = 1010
REMARK  2 active torsions:
REMARK  status: ('A' for Active; 'I' for Inactive)
REMARK    1  A    between atoms: N_2  and  C_3
REMARK    2  A    between atoms: N_2  and  C_4
REMARK                            x       y       z     vdW  Elec       q    Type
REMARK                         _______ _______ _______ _____ _____    ______ ____
ROOT
ATOM      1  O   UNL     1       1.650  -1.601   0.000  0.00  0.00    +0.000 OA
ATOM      2  C   UNL     1       3.079   0.050   0.000  0.00  0.00    +0.000 A 
ATOM      3  C   UNL     1       2.365  -0.363   0.000  0.00  0.00    +0.000 A 
ATOM      4  C   UNL     1       3.793  -0.363   0.000  0.00  0.00    +0.000 A 
ATOM      5  C   UNL     1       2.365  -1.188   0.000  0.00  0.00    +0.000 A 
ATOM      6  C   UNL     1       3.793  -1.188   0.000  0.00  0.00    +0.000 A 
ATOM      7  C   UNL     1       3.079  -1.601   0.000  0.00  0.00    +0.000 A 
ENDROOT
BRANCH   2   8
ATOM      8  N   UNL     1       3.079   0.875   0.000  0.00  0.00    +0.000 NA
ATOM      9  C   UNL     1       3.904   0.875   0.000  0.00  0.00    +0.000 C 
ATOM     10  C   UNL     1       2.254   0.875   0.000  0.00  0.00    +0.000 C 
BRANCH   8  11
ATOM     11  C   UNL     1       3.079   1.700   0.000  0.00  0.00    +0.000 C 
ATOM     12  C   UNL     1       3.793   2.112   0.000  0.00  0.00    +0.000 C 
ENDBRANCH   8  11
ENDBRANCH   2   8
TORSDOF 2
