REMARK  Name = 1012
REMARK  7 active torsions:
REMARK  status: ('A' for Active; 'I' for Inactive)
REMARK    1  A    between atoms: N_4  and  C_5
REMARK    2  A    between atoms: N_4  and  C_6
REMARK    3  A    between atoms: C_5  and  C_7
REMARK    4  A    between atoms: C_6  and  C_8
REMARK    5  A    between atoms: C_8  and  C_9
REMARK    6  A    between atoms: C_9  and  C_13
REMARK    7  A    between atoms: C_21  and  C_26
REMARK                            x       y       z     vdW  Elec       q    Type
REMARK                         _______ _______ _______ _____ _____    ______ ____
ROOT
ATOM      1  N   UNL     1       4.619   1.223   0.000  0.00  0.00    +0.000 NA
ENDROOT
BRANCH   1   2
ATOM      2  C   UNL     1       5.333   1.636   0.000  0.00  0.00    +0.000 C 
ATOM      3  C   UNL     1       6.048   1.223   0.000  0.00  0.00    +0.000 C 
BRANCH   2   4
ATOM      4  C   UNL     1       5.333   2.461   0.000  0.00  0.00    +0.000 A 
ATOM      5  C   UNL     1       6.048   2.873   0.000  0.00  0.00    +0.000 A 
ATOM      6  C   UNL     1       6.048   3.698   0.000  0.00  0.00    +0.000 A 
ATOM      7  C   UNL     1       4.619   2.873   0.000  0.00  0.00    +0.000 A 
ATOM      8  C   UNL     1       6.785   2.432   0.000  0.00  0.00    +0.000 A 
ATOM      9  C   UNL     1       5.333   4.111   0.000  0.00  0.00    +0.000 A 
ATOM     10  C   UNL     1       4.619   3.698   0.000  0.00  0.00    +0.000 A 
ATOM     11  C   UNL     1       6.785   4.139   0.000  0.00  0.00    +0.000 A 
ATOM     12  C   UNL     1       7.532   2.856   0.000  0.00  0.00    +0.000 A 
ATOM     13  C   UNL     1       7.532   3.716   0.000  0.00  0.00    +0.000 A 
ENDBRANCH   2   4
ENDBRANCH   1   2
BRANCH   1  14
ATOM     14  C   UNL     1       4.619   0.398   0.000  0.00  0.00    +0.000 C 
BRANCH  14  15
ATOM     15  C   UNL     1       3.904  -0.014   0.000  0.00  0.00    +0.000 C 
BRANCH  15  16
ATOM     16  C   UNL     1       3.904  -0.839   0.000  0.00  0.00    +0.000 C 
BRANCH  16  17
ATOM     17  C   UNL     1       3.189  -1.252   0.000  0.00  0.00    +0.000 A 
ATOM     18  C   UNL     1       3.189  -2.077   0.000  0.00  0.00    +0.000 A 
ATOM     19  C   UNL     1       2.475  -0.839   0.000  0.00  0.00    +0.000 A 
ATOM     20  C   UNL     1       2.475  -2.489   0.000  0.00  0.00    +0.000 A 
ATOM     21  C   UNL     1       1.761  -1.252   0.000  0.00  0.00    +0.000 A 
ATOM     22  C   UNL     1       1.761  -2.077   0.000  0.00  0.00    +0.000 A 
BRANCH  20  26
ATOM     23  F   UNL     1       3.300  -3.314   0.000  0.00  0.00    +0.000 F 
ATOM     24  F   UNL     1       1.650  -3.314   0.000  0.00  0.00    +0.000 F 
ATOM     25  F   UNL     1       2.475  -4.139   0.000  0.00  0.00    +0.000 F 
ATOM     26  C   UNL     1       2.475  -3.314   0.000  0.00  0.00    +0.000 C 
ENDBRANCH  20  26
ENDBRANCH  16  17
ENDBRANCH  15  16
ENDBRANCH  14  15
ENDBRANCH   1  14
TORSDOF 7
