REMARK  Name = 1016
REMARK  8 active torsions:
REMARK  status: ('A' for Active; 'I' for Inactive)
REMARK    1  A    between atoms: S_2  and  N_9
REMARK    2  A    between atoms: S_2  and  C_18
REMARK    3  A    between atoms: O_7  and  C_28
REMARK    4  A    between atoms: N_8  and  C_11
REMARK    5  A    between atoms: N_10  and  C_25
REMARK    6  A    between atoms: C_19  and  C_20
REMARK    7  A    between atoms: C_20  and  C_25
REMARK    8  A    between atoms: C_26  and  C_27
REMARK                            x       y       z     vdW  Elec       q    Type
REMARK                         _______ _______ _______ _____ _____    ______ ____
ROOT
ATOM      1  C   UNL     1       5.222   1.031   0.000  0.00  0.00    +0.000 A 
ATOM      2  C   UNL     1       5.222  -0.619   0.000  0.00  0.00    +0.000 A 
ATOM      3  C   UNL     1       4.508   0.619   0.000  0.00  0.00    +0.000 A 
ATOM      4  C   UNL     1       5.937   0.619   0.000  0.00  0.00    +0.000 A 
ATOM      5  C   UNL     1       4.508  -0.206   0.000  0.00  0.00    +0.000 A 
ATOM      6  C   UNL     1       5.937  -0.206   0.000  0.00  0.00    +0.000 A 
ENDROOT
BRANCH   1   7
ATOM      7  S   UNL     1       5.222   1.856   0.000  0.00  0.00    +0.000 S 
ATOM      8  O   UNL     1       4.397   1.856   0.000  0.00  0.00    +0.000 OA
ATOM      9  O   UNL     1       6.048   1.856   0.000  0.00  0.00    +0.000 OA
BRANCH   7  12
ATOM     10  O   UNL     1       6.652   2.681   0.000  0.00  0.00    +0.000 OA
ATOM     11  N   UNL     1       5.937   3.919   0.000  0.00  0.00    +0.000 NA
ATOM     12  N   UNL     1       5.222   2.681   0.000  0.00  0.00    +0.000 NA
ATOM     13  C   UNL     1       5.937   3.094   0.000  0.00  0.00    +0.000 C 
BRANCH  11  14
ATOM     14  C   UNL     1       6.652   4.331   0.000  0.00  0.00    +0.000 C 
ATOM     15  C   UNL     1       7.366   3.919   0.000  0.00  0.00    +0.000 C 
ATOM     16  C   UNL     1       6.652   5.156   0.000  0.00  0.00    +0.000 C 
ATOM     17  C   UNL     1       8.080   4.331   0.000  0.00  0.00    +0.000 C 
ATOM     18  C   UNL     1       7.366   5.569   0.000  0.00  0.00    +0.000 C 
ATOM     19  C   UNL     1       8.080   5.156   0.000  0.00  0.00    +0.000 C 
ENDBRANCH  11  14
ENDBRANCH   7  12
ENDBRANCH   1   7
BRANCH   2  20
ATOM     20  C   UNL     1       5.222  -1.444   0.000  0.00  0.00    +0.000 C 
BRANCH  20  21
ATOM     21  C   UNL     1       4.508  -1.856   0.000  0.00  0.00    +0.000 C 
BRANCH  21  23
ATOM     22  O   UNL     1       3.079  -2.681   0.000  0.00  0.00    +0.000 OA
ATOM     23  N   UNL     1       4.508  -2.681   0.000  0.00  0.00    +0.000 NA
ATOM     24  C   UNL     1       3.793  -3.094   0.000  0.00  0.00    +0.000 C 
BRANCH  24  26
ATOM     25 CL   UNL     1       5.222  -5.569   0.000  0.00  0.00    +0.000 Cl
ATOM     26  C   UNL     1       3.793  -3.919   0.000  0.00  0.00    +0.000 A 
ATOM     27  C   UNL     1       3.079  -4.331   0.000  0.00  0.00    +0.000 A 
ATOM     28  C   UNL     1       4.508  -4.331   0.000  0.00  0.00    +0.000 A 
ATOM     29  C   UNL     1       3.079  -5.156   0.000  0.00  0.00    +0.000 A 
ATOM     30  C   UNL     1       4.508  -5.156   0.000  0.00  0.00    +0.000 A 
ATOM     31  C   UNL     1       3.793  -5.569   0.000  0.00  0.00    +0.000 A 
BRANCH  27  32
ATOM     32  O   UNL     1       2.365  -3.919   0.000  0.00  0.00    +0.000 OA
ATOM     33  C   UNL     1       1.650  -4.331   0.000  0.00  0.00    +0.000 C 
ENDBRANCH  27  32
ENDBRANCH  24  26
ENDBRANCH  21  23
ENDBRANCH  20  21
ENDBRANCH   2  20
TORSDOF 8
