REMARK  Name = 1020
REMARK  2 active torsions:
REMARK  status: ('A' for Active; 'I' for Inactive)
REMARK    1  A    between atoms: O_3  and  N_7
REMARK    2  A    between atoms: O_3  and  C_10
REMARK                            x       y       z     vdW  Elec       q    Type
REMARK                         _______ _______ _______ _____ _____    ______ ____
ROOT
ATOM      1  O   UNL     1       3.264  -1.095   0.000  0.00  0.00    +0.000 OA
ATOM      2  O   UNL     1       4.830   0.237   0.000  0.00  0.00    +0.000 OA
ATOM      3  O   UNL     1       5.086  -1.875   0.000  0.00  0.00    +0.000 OA
ATOM      4  C   UNL     1       4.049  -0.015   0.000  0.00  0.00    +0.000 C 
ATOM      5  C   UNL     1       4.049  -0.840   0.000  0.00  0.00    +0.000 C 
ATOM      6  C   UNL     1       3.264   0.240   0.000  0.00  0.00    +0.000 C 
ATOM      7  C   UNL     1       4.830  -1.091   0.000  0.00  0.00    +0.000 C 
ATOM      8  C   UNL     1       2.779  -0.427   0.000  0.00  0.00    +0.000 C 
ATOM      9  C   UNL     1       5.311  -0.427   0.000  0.00  0.00    +0.000 C 
ENDROOT
BRANCH   6  10
ATOM     10  O   UNL     1       3.009   1.025   0.000  0.00  0.00    +0.000 OA
BRANCH  10  13
ATOM     11  O   UNL     1       1.947   1.981   0.000  0.00  0.00    +0.000 OA
ATOM     12  O   UNL     1       1.650   0.583   0.000  0.00  0.00    +0.000 OA
ATOM     13  N   UNL     1       2.202   1.196   0.000  0.00  0.00    +0.000 N 
ENDBRANCH  10  13
ENDBRANCH   6  10
TORSDOF 2
