REMARK  Name = 1021
REMARK  2 active torsions:
REMARK  status: ('A' for Active; 'I' for Inactive)
REMARK    1  A    between atoms: S_5  and  C_17
REMARK    2  A    between atoms: C_13  and  C_18
REMARK                            x       y       z     vdW  Elec       q    Type
REMARK                         _______ _______ _______ _____ _____    ______ ____
ROOT
ATOM      1 CL   UNL     1       6.705   0.906   0.000  0.00  0.00    +0.000 Cl
ATOM      2  S   UNL     1       3.793  -0.764   0.000  0.00  0.00    +0.000 S 
ATOM      3  O   UNL     1       4.205  -1.478   0.000  0.00  0.00    +0.000 OA
ATOM      4  O   UNL     1       3.380  -1.478   0.000  0.00  0.00    +0.000 OA
ATOM      5  N   UNL     1       3.079  -0.352   0.000  0.00  0.00    +0.000 NA
ATOM      6  N   UNL     1       3.793   0.886   0.000  0.00  0.00    +0.000 NA
ATOM      7  C   UNL     1       3.079   0.473   0.000  0.00  0.00    +0.000 C 
ATOM      8  C   UNL     1       4.507  -0.352   0.000  0.00  0.00    +0.000 A 
ATOM      9  C   UNL     1       4.507   0.473   0.000  0.00  0.00    +0.000 A 
ATOM     10  C   UNL     1       5.245  -0.793   0.000  0.00  0.00    +0.000 A 
ATOM     11  C   UNL     1       5.992  -0.369   0.000  0.00  0.00    +0.000 A 
ATOM     12  C   UNL     1       5.245   0.914   0.000  0.00  0.00    +0.000 A 
ATOM     13  C   UNL     1       5.992   0.490   0.000  0.00  0.00    +0.000 A 
ENDROOT
BRANCH  11  14
ATOM     14  S   UNL     1       6.705  -0.784   0.000  0.00  0.00    +0.000 S 
ATOM     15  O   UNL     1       7.120  -0.071   0.000  0.00  0.00    +0.000 OA
ATOM     16  O   UNL     1       6.290  -1.497   0.000  0.00  0.00    +0.000 OA
ATOM     17  N   UNL     1       7.418  -1.199   0.000  0.00  0.00    +0.000 NA
ENDBRANCH  11  14
BRANCH   7  20
ATOM     18 CL   UNL     1       2.364   1.711   0.000  0.00  0.00    +0.000 Cl
ATOM     19 CL   UNL     1       1.650   0.473   0.000  0.00  0.00    +0.000 Cl
ATOM     20  C   UNL     1       2.364   0.886   0.000  0.00  0.00    +0.000 C 
ENDBRANCH   7  20
TORSDOF 2
