REMARK  Name = 1024
REMARK  6 active torsions:
REMARK  status: ('A' for Active; 'I' for Inactive)
REMARK    1  A    between atoms: O_2  and  C_11
REMARK    2  A    between atoms: C_8  and  C_13
REMARK    3  A    between atoms: C_13  and  C_16
REMARK    4  A    between atoms: C_18  and  C_19
REMARK    5  A    between atoms: C_19  and  C_20
REMARK    6  A    between atoms: C_20  and  C_23
REMARK                            x       y       z     vdW  Elec       q    Type
REMARK                         _______ _______ _______ _____ _____    ______ ____
ROOT
ATOM      1  O   UNL     1       9.786  -0.128   0.000  0.00  0.00    +0.000 OA
ATOM      2  O   UNL     1       7.809   1.522   0.000  0.00  0.00    +0.000 OA
ATOM      3  O   UNL     1       9.560   1.320   0.000  0.00  0.00    +0.000 OA
ATOM      4  C   UNL     1       8.523  -0.540   0.000  0.00  0.00    +0.000 A 
ATOM      5  C   UNL     1       7.094   0.285   0.000  0.00  0.00    +0.000 A 
ATOM      6  C   UNL     1       8.523   0.285   0.000  0.00  0.00    +0.000 A 
ATOM      7  C   UNL     1       7.809  -0.953   0.000  0.00  0.00    +0.000 A 
ATOM      8  C   UNL     1       7.094  -0.540   0.000  0.00  0.00    +0.000 A 
ATOM      9  C   UNL     1       7.809   0.697   0.000  0.00  0.00    +0.000 A 
ATOM     10  C   UNL     1       9.304  -0.792   0.000  0.00  0.00    +0.000 C 
ATOM     11  C   UNL     1       9.304   0.536   0.000  0.00  0.00    +0.000 C 
ATOM     12  C   UNL     1       7.809  -1.778   0.000  0.00  0.00    +0.000 C 
ENDROOT
BRANCH   8  13
ATOM     13  O   UNL     1       6.380  -0.953   0.000  0.00  0.00    +0.000 OA
ATOM     14  C   UNL     1       6.380  -1.778   0.000  0.00  0.00    +0.000 C 
ENDBRANCH   8  13
BRANCH   5  15
ATOM     15  C   UNL     1       6.380   0.697   0.000  0.00  0.00    +0.000 C 
BRANCH  15  16
ATOM     16  C   UNL     1       5.665   0.285   0.000  0.00  0.00    +0.000 C 
ATOM     17  C   UNL     1       4.951   0.697   0.000  0.00  0.00    +0.000 C 
ATOM     18  C   UNL     1       4.951   1.522   0.000  0.00  0.00    +0.000 C 
BRANCH  17  19
ATOM     19  C   UNL     1       4.237   0.285   0.000  0.00  0.00    +0.000 C 
BRANCH  19  20
ATOM     20  C   UNL     1       3.522   0.697   0.000  0.00  0.00    +0.000 C 
BRANCH  20  23
ATOM     21  O   UNL     1       2.093   0.697   0.000  0.00  0.00    +0.000 OA
ATOM     22  O   UNL     1       2.808  -0.540   0.000  0.00  0.00    +0.000 OA
ATOM     23  C   UNL     1       2.808   0.285   0.000  0.00  0.00    +0.000 C 
ENDBRANCH  20  23
ENDBRANCH  19  20
ENDBRANCH  17  19
ENDBRANCH  15  16
ENDBRANCH   5  15
TORSDOF 6
