REMARK  Name = 1025
REMARK  2 active torsions:
REMARK  status: ('A' for Active; 'I' for Inactive)
REMARK    1  A    between atoms: C_7  and  C_8
REMARK    2  A    between atoms: C_20  and  C_22
REMARK                            x       y       z     vdW  Elec       q    Type
REMARK                         _______ _______ _______ _____ _____    ______ ____
ROOT
ATOM      1  O   UNL     1       5.278  -1.110   0.000  0.00  0.00    +0.000 OA
ATOM      2  O   UNL     1       5.278   1.365   0.000  0.00  0.00    +0.000 OA
ATOM      3  N   UNL     1       6.730  -1.139   0.000  0.00  0.00    +0.000 NA
ATOM      4  N   UNL     1       8.191  -1.130   0.000  0.00  0.00    +0.000 NA
ATOM      5  C   UNL     1       3.079   0.144   0.000  0.00  0.00    +0.000 A 
ATOM      6  C   UNL     1       4.564   0.127   0.000  0.00  0.00    +0.000 A 
ATOM      7  C   UNL     1       3.826   0.568   0.000  0.00  0.00    +0.000 A 
ATOM      8  C   UNL     1       4.564  -0.698   0.000  0.00  0.00    +0.000 A 
ATOM      9  C   UNL     1       3.079  -0.715   0.000  0.00  0.00    +0.000 A 
ATOM     10  C   UNL     1       5.993   0.127   0.000  0.00  0.00    +0.000 A 
ATOM     11  C   UNL     1       5.278   0.539   0.000  0.00  0.00    +0.000 A 
ATOM     12  C   UNL     1       3.826  -1.139   0.000  0.00  0.00    +0.000 A 
ATOM     13  C   UNL     1       5.993  -0.698   0.000  0.00  0.00    +0.000 A 
ATOM     14  C   UNL     1       6.730   0.568   0.000  0.00  0.00    +0.000 A 
ATOM     15  C   UNL     1       7.478   0.144   0.000  0.00  0.00    +0.000 A 
ATOM     16  C   UNL     1       7.478  -0.715   0.000  0.00  0.00    +0.000 A 
ENDROOT
BRANCH  15  19
ATOM     17  O   UNL     1       8.188   1.384   0.000  0.00  0.00    +0.000 OA
ATOM     18  O   UNL     1       8.907   0.150   0.000  0.00  0.00    +0.000 OA
ATOM     19  C   UNL     1       8.191   0.559   0.000  0.00  0.00    +0.000 C 
ENDBRANCH  15  19
BRANCH   5  20
ATOM     20  C   UNL     1       2.366   0.559   0.000  0.00  0.00    +0.000 C 
ATOM     21  C   UNL     1       1.650   0.150   0.000  0.00  0.00    +0.000 C 
ATOM     22  C   UNL     1       2.369   1.384   0.000  0.00  0.00    +0.000 C 
ENDBRANCH   5  20
TORSDOF 2
