REMARK  Name = 1028
REMARK  2 active torsions:
REMARK  status: ('A' for Active; 'I' for Inactive)
REMARK    1  A    between atoms: O_5  and  C_6
REMARK    2  A    between atoms: C_6  and  C_7
REMARK                            x       y       z     vdW  Elec       q    Type
REMARK                         _______ _______ _______ _____ _____    ______ ____
ROOT
ATOM      1  F   UNL     1       2.667   0.453   0.000  0.00  0.00    +0.000 F 
ATOM      2  F   UNL     1       3.492  -0.976   0.000  0.00  0.00    +0.000 F 
ATOM      3  C   UNL     1       3.079  -0.262   0.000  0.00  0.00    +0.000 C 
ENDROOT
BRANCH   3   6
ATOM      4 CL   UNL     1       4.508  -0.262   0.000  0.00  0.00    +0.000 Cl
ATOM      5 CL   UNL     1       3.793   0.976   0.000  0.00  0.00    +0.000 Cl
ATOM      6  C   UNL     1       3.793   0.151   0.000  0.00  0.00    +0.000 C 
ENDBRANCH   3   6
BRANCH   3   7
ATOM      7  O   UNL     1       2.365  -0.674   0.000  0.00  0.00    +0.000 OA
ATOM      8  C   UNL     1       1.650  -0.262   0.000  0.00  0.00    +0.000 C 
ENDBRANCH   3   7
TORSDOF 2
