REMARK  Name = 1029
REMARK  7 active torsions:
REMARK  status: ('A' for Active; 'I' for Inactive)
REMARK    1  A    between atoms: N_3  and  C_16
REMARK    2  A    between atoms: C_14  and  C_15
REMARK    3  A    between atoms: C_15  and  C_17
REMARK    4  A    between atoms: C_16  and  C_18
REMARK    5  A    between atoms: C_17  and  C_19
REMARK    6  A    between atoms: C_25  and  C_26
REMARK    7  A    between atoms: C_27  and  C_31
REMARK                            x       y       z     vdW  Elec       q    Type
REMARK                         _______ _______ _______ _____ _____    ______ ____
ROOT
ATOM      1  C   UNL     1       3.548   0.096   0.000  0.00  0.00    +0.000 A 
ATOM      2  C   UNL     1       4.369   0.182   0.000  0.00  0.00    +0.000 A 
ATOM      3  C   UNL     1       3.063   0.763   0.000  0.00  0.00    +0.000 A 
ATOM      4  C   UNL     1       4.704   0.936   0.000  0.00  0.00    +0.000 A 
ATOM      5  C   UNL     1       3.399   1.517   0.000  0.00  0.00    +0.000 A 
ATOM      6  C   UNL     1       4.220   1.603   0.000  0.00  0.00    +0.000 A 
ENDROOT
BRANCH   6   7
ATOM      7  C   UNL     1       4.555   2.357   0.000  0.00  0.00    +0.000 A 
ATOM      8  C   UNL     1       4.070   3.024   0.000  0.00  0.00    +0.000 A 
ATOM      9  C   UNL     1       5.375   2.443   0.000  0.00  0.00    +0.000 A 
ATOM     10  C   UNL     1       4.406   3.778   0.000  0.00  0.00    +0.000 A 
ATOM     11  C   UNL     1       5.711   3.197   0.000  0.00  0.00    +0.000 A 
ATOM     12  C   UNL     1       5.226   3.864   0.000  0.00  0.00    +0.000 A 
BRANCH   8  17
ATOM     13  N   UNL     1       2.837   2.224   0.000  0.00  0.00    +0.000 NA
ATOM     14  N   UNL     1       2.698   3.551   0.000  0.00  0.00    +0.000 NA
ATOM     15  N   UNL     1       2.030   2.395   0.000  0.00  0.00    +0.000 NA
ATOM     16  N   UNL     1       1.944   3.216   0.000  0.00  0.00    +0.000 NA
ATOM     17  C   UNL     1       3.250   2.938   0.000  0.00  0.00    +0.000 A 
ENDBRANCH   8  17
ENDBRANCH   6   7
BRANCH   1  18
ATOM     18  C   UNL     1       3.213  -0.658   0.000  0.00  0.00    +0.000 C 
BRANCH  18  21
ATOM     19  O   UNL     1       2.658  -2.365   0.000  0.00  0.00    +0.000 OA
ATOM     20  N   UNL     1       4.778  -2.110   0.000  0.00  0.00    +0.000 NA
ATOM     21  N   UNL     1       3.698  -1.325   0.000  0.00  0.00    +0.000 N 
ATOM     22  C   UNL     1       4.110  -2.595   0.000  0.00  0.00    +0.000 C 
ATOM     23  C   UNL     1       4.778  -3.080   0.000  0.00  0.00    +0.000 C 
ATOM     24  C   UNL     1       3.443  -3.080   0.000  0.00  0.00    +0.000 C 
ATOM     25  C   UNL     1       4.523  -3.864   0.000  0.00  0.00    +0.000 C 
ATOM     26  C   UNL     1       3.698  -3.864   0.000  0.00  0.00    +0.000 C 
ATOM     27  C   UNL     1       3.443  -2.110   0.000  0.00  0.00    +0.000 C 
ATOM     28  C   UNL     1       4.523  -1.325   0.000  0.00  0.00    +0.000 C 
BRANCH  28  29
ATOM     29  C   UNL     1       5.008  -0.658   0.000  0.00  0.00    +0.000 C 
BRANCH  29  30
ATOM     30  C   UNL     1       5.828  -0.744   0.000  0.00  0.00    +0.000 C 
BRANCH  30  31
ATOM     31  C   UNL     1       6.313  -0.077   0.000  0.00  0.00    +0.000 C 
ATOM     32  C   UNL     1       7.134  -0.163   0.000  0.00  0.00    +0.000 C 
ENDBRANCH  30  31
ENDBRANCH  29  30
ENDBRANCH  28  29
ENDBRANCH  18  21
ENDBRANCH   1  18
TORSDOF 7
