REMARK  Name = 103
REMARK  3 active torsions:
REMARK  status: ('A' for Active; 'I' for Inactive)
REMARK    1  A    between atoms: P_1  and  O_9
REMARK    2  A    between atoms: C_8  and  O_9
REMARK    3  A    between atoms: C_11  and  N_12
REMARK                            x       y       z     vdW  Elec       q    Type
REMARK                         _______ _______ _______ _____ _____    ______ ____
ROOT
ATOM      1  C   UNL     1      -1.599  -1.333   0.000  0.00  0.00    +0.000 C 
ATOM      2  C   UNL     1      -0.931  -0.849   0.000  0.00  0.00    +0.000 C 
ATOM      3  O   UNL     1      -0.931  -0.024   0.000  0.00  0.00    +0.000 OA
ATOM      4  C   UNL     1      -0.146  -1.103   0.000  0.00  0.00    +0.000 C 
ATOM      5  C   UNL     1       0.338  -0.436   0.000  0.00  0.00    +0.000 C 
ATOM      6  C   UNL     1      -0.146   0.232   0.000  0.00  0.00    +0.000 C 
ENDROOT
BRANCH   6   7
ATOM      7  N   UNL     1       0.108   1.016   0.000  0.00  0.00    +0.000 N 
ATOM      8  C   UNL     1      -0.377   1.683   0.000  0.00  0.00    +0.000 A 
ATOM      9  N   UNL     1       0.108   2.351   0.000  0.00  0.00    +0.000 NA
ATOM     10  C   UNL     1       0.893   2.096   0.000  0.00  0.00    +0.000 A 
ATOM     11  C   UNL     1       1.607   2.509   0.000  0.00  0.00    +0.000 A 
ATOM     12  N   UNL     1       1.607   3.333   0.000  0.00  0.00    +0.000 NA
ATOM     13  N   UNL     1       2.322   2.096   0.000  0.00  0.00    +0.000 NA
ATOM     14  C   UNL     1       2.322   1.271   0.000  0.00  0.00    +0.000 A 
ATOM     15  N   UNL     1       1.607   0.859   0.000  0.00  0.00    +0.000 NA
ATOM     16  C   UNL     1       0.893   1.271   0.000  0.00  0.00    +0.000 A 
ENDBRANCH   6   7
BRANCH   4  17
ATOM     17  O   UNL     1       0.108  -1.888   0.000  0.00  0.00    +0.000 OA
BRANCH  17  18
ATOM     18  P   UNL     1      -0.444  -2.501   0.000  0.00  0.00    +0.000 P 
ATOM     19  O   UNL     1      -0.996  -3.114   0.000  0.00  0.00    +0.000 OA
ATOM     20  O   UNL     1       0.170  -3.053   0.000  0.00  0.00    +0.000 OA
ATOM     21  O   UNL     1      -1.057  -1.949   0.000  0.00  0.00    +0.000 OA
ENDBRANCH  17  18
ENDBRANCH   4  17
TORSDOF 3
