REMARK  Name = 1030
REMARK  3 active torsions:
REMARK  status: ('A' for Active; 'I' for Inactive)
REMARK    1  A    between atoms: N_8  and  C_26
REMARK    2  A    between atoms: C_9  and  C_18
REMARK    3  A    between atoms: C_24  and  C_26
REMARK                            x       y       z     vdW  Elec       q    Type
REMARK                         _______ _______ _______ _____ _____    ______ ____
ROOT
ATOM      1  O   UNL     1       5.592   4.000   0.000  0.00  0.00    +0.000 OA
ATOM      2  O   UNL     1       6.734   1.992   0.000  0.00  0.00    +0.000 OA
ATOM      3  O   UNL     1       3.436   2.705   0.000  0.00  0.00    +0.000 OA
ATOM      4  O   UNL     1       7.053   3.980   0.000  0.00  0.00    +0.000 OA
ATOM      5  O   UNL     1       3.815  -3.584   0.000  0.00  0.00    +0.000 OA
ATOM      6  N   UNL     1       4.150   1.468   0.000  0.00  0.00    +0.000 N 
ATOM      7  N   UNL     1       5.204  -0.430   0.000  0.00  0.00    +0.000 NA
ATOM      8  C   UNL     1       6.330   2.711   0.000  0.00  0.00    +0.000 C 
ATOM      9  C   UNL     1       5.579   2.293   0.000  0.00  0.00    +0.000 A 
ATOM     10  C   UNL     1       4.865   1.055   0.000  0.00  0.00    +0.000 A 
ATOM     11  C   UNL     1       3.542   0.917   0.000  0.00  0.00    +0.000 C 
ATOM     12  C   UNL     1       4.865   2.705   0.000  0.00  0.00    +0.000 A 
ATOM     13  C   UNL     1       3.877   0.169   0.000  0.00  0.00    +0.000 A 
ATOM     14  C   UNL     1       4.692   0.254   0.000  0.00  0.00    +0.000 A 
ATOM     15  C   UNL     1       5.579   1.468   0.000  0.00  0.00    +0.000 A 
ATOM     16  C   UNL     1       4.150   2.293   0.000  0.00  0.00    +0.000 A 
ATOM     17  C   UNL     1       4.852   3.564   0.000  0.00  0.00    +0.000 C 
ATOM     18  C   UNL     1       6.337   3.570   0.000  0.00  0.00    +0.000 C 
ATOM     19  C   UNL     1       3.517  -0.606   0.000  0.00  0.00    +0.000 A 
ATOM     20  C   UNL     1       4.013  -1.301   0.000  0.00  0.00    +0.000 A 
ATOM     21  C   UNL     1       4.862  -1.213   0.000  0.00  0.00    +0.000 A 
ATOM     22  C   UNL     1       3.638  -2.108   0.000  0.00  0.00    +0.000 A 
ATOM     23  C   UNL     1       5.396  -1.925   0.000  0.00  0.00    +0.000 A 
ATOM     24  C   UNL     1       4.154  -2.833   0.000  0.00  0.00    +0.000 A 
ATOM     25  C   UNL     1       5.039  -2.740   0.000  0.00  0.00    +0.000 A 
ENDROOT
BRANCH   8  26
ATOM     26  C   UNL     1       7.155   2.701   0.000  0.00  0.00    +0.000 C 
ATOM     27  C   UNL     1       7.559   1.982   0.000  0.00  0.00    +0.000 C 
ENDBRANCH   8  26
BRANCH  22  28
ATOM     28  C   UNL     1       2.816  -2.184   0.000  0.00  0.00    +0.000 C 
BRANCH  28  29
ATOM     29  N   UNL     1       2.471  -2.933   0.000  0.00  0.00    +0.000 NA
ATOM     30  C   UNL     1       1.650  -3.010   0.000  0.00  0.00    +0.000 C 
ATOM     31  C   UNL     1       2.948  -3.607   0.000  0.00  0.00    +0.000 C 
ENDBRANCH  28  29
ENDBRANCH  22  28
TORSDOF 3
