REMARK  Name = 1031
REMARK  3 active torsions:
REMARK  status: ('A' for Active; 'I' for Inactive)
REMARK    1  A    between atoms: O_1  and  C_4
REMARK    2  A    between atoms: O_1  and  C_11
REMARK    3  A    between atoms: C_4  and  C_10
REMARK                            x       y       z     vdW  Elec       q    Type
REMARK                         _______ _______ _______ _____ _____    ______ ____
ROOT
ATOM      1  C   UNL     1       2.731  -0.111   0.000  0.00  0.00    +0.000 C 
ATOM      2  C   UNL     1       2.016  -0.523   0.000  0.00  0.00    +0.000 C 
ATOM      3  C   UNL     1       3.445  -0.523   0.000  0.00  0.00    +0.000 C 
ATOM      4  C   UNL     1       2.016  -1.349   0.000  0.00  0.00    +0.000 C 
ATOM      5  C   UNL     1       3.445  -1.349   0.000  0.00  0.00    +0.000 C 
ATOM      6  C   UNL     1       2.731  -1.761   0.000  0.00  0.00    +0.000 C 
ENDROOT
BRANCH   1   7
ATOM      7  C   UNL     1       2.318   0.604   0.000  0.00  0.00    +0.000 C 
ATOM      8  C   UNL     1       1.906   1.318   0.000  0.00  0.00    +0.000 C 
ENDBRANCH   1   7
BRANCH   1   9
ATOM      9  O   UNL     1       3.143   0.604   0.000  0.00  0.00    +0.000 OA
BRANCH   9  12
ATOM     10  O   UNL     1       4.381  -0.111   0.000  0.00  0.00    +0.000 OA
ATOM     11  N   UNL     1       4.381   1.318   0.000  0.00  0.00    +0.000 NA
ATOM     12  C   UNL     1       3.968   0.604   0.000  0.00  0.00    +0.000 C 
ENDBRANCH   9  12
ENDBRANCH   1   9
TORSDOF 3
