REMARK  Name = 1032
REMARK  7 active torsions:
REMARK  status: ('A' for Active; 'I' for Inactive)
REMARK    1  A    between atoms: S_1  and  N_6
REMARK    2  A    between atoms: S_1  and  C_11
REMARK    3  A    between atoms: N_6  and  C_7
REMARK    4  A    between atoms: N_6  and  C_8
REMARK    5  A    between atoms: C_7  and  C_9
REMARK    6  A    between atoms: C_8  and  C_10
REMARK    7  A    between atoms: C_18  and  C_19
REMARK                            x       y       z     vdW  Elec       q    Type
REMARK                         _______ _______ _______ _____ _____    ______ ____
ROOT
ATOM      1  S   UNL     1       3.079   0.875   0.000  0.00  0.00    +0.000 S 
ATOM      2  O   UNL     1       2.254   0.875   0.000  0.00  0.00    +0.000 OA
ATOM      3  O   UNL     1       3.904   0.875   0.000  0.00  0.00    +0.000 OA
ENDROOT
BRANCH   1   4
ATOM      4  C   UNL     1       3.079   0.050   0.000  0.00  0.00    +0.000 A 
ATOM      5  C   UNL     1       2.365  -0.363   0.000  0.00  0.00    +0.000 A 
ATOM      6  C   UNL     1       3.793  -0.363   0.000  0.00  0.00    +0.000 A 
ATOM      7  C   UNL     1       2.365  -1.188   0.000  0.00  0.00    +0.000 A 
ATOM      8  C   UNL     1       3.793  -1.188   0.000  0.00  0.00    +0.000 A 
ATOM      9  C   UNL     1       3.079  -1.601   0.000  0.00  0.00    +0.000 A 
BRANCH   9  12
ATOM     10  O   UNL     1       2.365  -2.838   0.000  0.00  0.00    +0.000 OA
ATOM     11  O   UNL     1       3.793  -2.838   0.000  0.00  0.00    +0.000 OA
ATOM     12  C   UNL     1       3.079  -2.426   0.000  0.00  0.00    +0.000 C 
ENDBRANCH   9  12
ENDBRANCH   1   4
BRANCH   1  13
ATOM     13  N   UNL     1       3.079   1.700   0.000  0.00  0.00    +0.000 NA
BRANCH  13  14
ATOM     14  C   UNL     1       3.793   2.112   0.000  0.00  0.00    +0.000 C 
BRANCH  14  15
ATOM     15  C   UNL     1       3.793   2.937   0.000  0.00  0.00    +0.000 C 
ATOM     16  C   UNL     1       4.508   3.350   0.000  0.00  0.00    +0.000 C 
ENDBRANCH  14  15
ENDBRANCH  13  14
BRANCH  13  17
ATOM     17  C   UNL     1       2.365   2.112   0.000  0.00  0.00    +0.000 C 
BRANCH  17  18
ATOM     18  C   UNL     1       2.365   2.937   0.000  0.00  0.00    +0.000 C 
ATOM     19  C   UNL     1       1.650   3.350   0.000  0.00  0.00    +0.000 C 
ENDBRANCH  17  18
ENDBRANCH  13  17
ENDBRANCH   1  13
TORSDOF 7
