REMARK  Name = 1033
REMARK  0 active torsions:
REMARK  status: ('A' for Active; 'I' for Inactive)
REMARK                            x       y       z     vdW  Elec       q    Type
REMARK                         _______ _______ _______ _____ _____    ______ ____
ROOT
ATOM      1  S   UNL     1       2.364   1.493   0.000  0.00  0.00    +0.000 S 
ATOM      2  N   UNL     1       3.860   0.507   0.000  0.00  0.00    +0.000 NA
ATOM      3  N   UNL     1       2.364  -0.982   0.000  0.00  0.00    +0.000 NA
ATOM      4  N   UNL     1       3.860  -0.821   0.000  0.00  0.00    +0.000 NA
ATOM      5  N   UNL     1       1.650   0.256   0.000  0.00  0.00    +0.000 NA
ATOM      6  C   UNL     1       3.079   0.256   0.000  0.00  0.00    +0.000 A 
ATOM      7  C   UNL     1       3.079  -0.569   0.000  0.00  0.00    +0.000 A 
ATOM      8  C   UNL     1       2.364   0.668   0.000  0.00  0.00    +0.000 A 
ATOM      9  C   UNL     1       4.341  -0.157   0.000  0.00  0.00    +0.000 A 
ATOM     10  C   UNL     1       1.650  -0.569   0.000  0.00  0.00    +0.000 A 
ENDROOT
TORSDOF 0
