REMARK  Name = 1035
REMARK  6 active torsions:
REMARK  status: ('A' for Active; 'I' for Inactive)
REMARK    1  A    between atoms: N_2  and  C_5
REMARK    2  A    between atoms: N_2  and  C_6
REMARK    3  A    between atoms: N_2  and  C_7
REMARK    4  A    between atoms: N_3  and  C_8
REMARK    5  A    between atoms: C_5  and  C_8
REMARK    6  A    between atoms: C_11  and  C_12
REMARK                            x       y       z     vdW  Elec       q    Type
REMARK                         _______ _______ _______ _____ _____    ______ ____
ROOT
ATOM      1  O   UNL     1       1.650   0.334   0.000  0.00  0.00    +0.000 OA
ATOM      2  N   UNL     1       3.079   0.334   0.000  0.00  0.00    +0.000 NA
ATOM      3  C   UNL     1       2.365  -0.078   0.000  0.00  0.00    +0.000 C 
ENDROOT
BRANCH   3   5
ATOM      4  N   UNL     1       2.365  -3.378   0.000  0.00  0.00    +0.000 NA
ATOM      5  C   UNL     1       2.365  -0.903   0.000  0.00  0.00    +0.000 A 
ATOM      6  C   UNL     1       3.079  -1.316   0.000  0.00  0.00    +0.000 A 
ATOM      7  C   UNL     1       1.650  -1.316   0.000  0.00  0.00    +0.000 A 
ATOM      8  C   UNL     1       3.079  -2.141   0.000  0.00  0.00    +0.000 A 
ATOM      9  C   UNL     1       1.650  -2.141   0.000  0.00  0.00    +0.000 A 
ATOM     10  C   UNL     1       2.365  -2.553   0.000  0.00  0.00    +0.000 A 
ENDBRANCH   3   5
BRANCH   2  11
ATOM     11  C   UNL     1       3.079   1.159   0.000  0.00  0.00    +0.000 C 
BRANCH  11  12
ATOM     12  C   UNL     1       3.793   1.572   0.000  0.00  0.00    +0.000 C 
BRANCH  12  13
ATOM     13  N   UNL     1       3.793   2.397   0.000  0.00  0.00    +0.000 NA
BRANCH  13  14
ATOM     14  C   UNL     1       3.079   2.809   0.000  0.00  0.00    +0.000 C 
ATOM     15  C   UNL     1       3.079   3.634   0.000  0.00  0.00    +0.000 C 
ENDBRANCH  13  14
BRANCH  13  16
ATOM     16  C   UNL     1       4.508   2.809   0.000  0.00  0.00    +0.000 C 
ATOM     17  C   UNL     1       4.508   3.634   0.000  0.00  0.00    +0.000 C 
ENDBRANCH  13  16
ENDBRANCH  12  13
ENDBRANCH  11  12
ENDBRANCH   2  11
TORSDOF 6
