REMARK  Name = 1039
REMARK  7 active torsions:
REMARK  status: ('A' for Active; 'I' for Inactive)
REMARK    1  A    between atoms: O_2  and  C_6
REMARK    2  A    between atoms: O_2  and  C_11
REMARK    3  A    between atoms: O_3  and  C_9
REMARK    4  A    between atoms: O_3  and  C_10
REMARK    5  A    between atoms: C_6  and  C_9
REMARK    6  A    between atoms: C_14  and  C_19
REMARK    7  A    between atoms: C_19  and  C_20
REMARK                            x       y       z     vdW  Elec       q    Type
REMARK                         _______ _______ _______ _____ _____    ______ ____
ROOT
ATOM      1  C   UNL     1       4.508  -0.206   0.000  0.00  0.00    +0.000 A 
ATOM      2  C   UNL     1       5.222   0.206   0.000  0.00  0.00    +0.000 A 
ATOM      3  C   UNL     1       3.793   0.206   0.000  0.00  0.00    +0.000 A 
ATOM      4  C   UNL     1       4.508   1.444   0.000  0.00  0.00    +0.000 A 
ATOM      5  C   UNL     1       5.222   1.031   0.000  0.00  0.00    +0.000 A 
ATOM      6  C   UNL     1       3.793   1.031   0.000  0.00  0.00    +0.000 A 
ENDROOT
BRANCH   4   8
ATOM      7  O   UNL     1       3.793   2.681   0.000  0.00  0.00    +0.000 OA
ATOM      8  C   UNL     1       4.508   2.269   0.000  0.00  0.00    +0.000 C 
BRANCH   8  10
ATOM      9 CL   UNL     1       7.366   3.919   0.000  0.00  0.00    +0.000 Cl
ATOM     10  C   UNL     1       5.222   2.681   0.000  0.00  0.00    +0.000 A 
ATOM     11  C   UNL     1       5.222   3.506   0.000  0.00  0.00    +0.000 A 
ATOM     12  C   UNL     1       5.937   2.269   0.000  0.00  0.00    +0.000 A 
ATOM     13  C   UNL     1       5.937   3.919   0.000  0.00  0.00    +0.000 A 
ATOM     14  C   UNL     1       6.652   2.681   0.000  0.00  0.00    +0.000 A 
ATOM     15  C   UNL     1       6.652   3.506   0.000  0.00  0.00    +0.000 A 
ENDBRANCH   8  10
ENDBRANCH   4   8
BRANCH   1  16
ATOM     16  O   UNL     1       4.508  -1.031   0.000  0.00  0.00    +0.000 OA
BRANCH  16  17
ATOM     17  C   UNL     1       3.793  -1.444   0.000  0.00  0.00    +0.000 C 
ATOM     18  C   UNL     1       4.206  -2.158   0.000  0.00  0.00    +0.000 C 
ATOM     19  C   UNL     1       3.381  -0.729   0.000  0.00  0.00    +0.000 C 
BRANCH  17  21
ATOM     20  O   UNL     1       2.365  -1.444   0.000  0.00  0.00    +0.000 OA
ATOM     21  C   UNL     1       3.079  -1.856   0.000  0.00  0.00    +0.000 C 
BRANCH  21  22
ATOM     22  O   UNL     1       3.079  -2.681   0.000  0.00  0.00    +0.000 OA
BRANCH  22  23
ATOM     23  C   UNL     1       2.365  -3.094   0.000  0.00  0.00    +0.000 C 
ATOM     24  C   UNL     1       2.365  -3.919   0.000  0.00  0.00    +0.000 C 
ATOM     25  C   UNL     1       1.650  -2.681   0.000  0.00  0.00    +0.000 C 
ENDBRANCH  22  23
ENDBRANCH  21  22
ENDBRANCH  17  21
ENDBRANCH  16  17
ENDBRANCH   1  16
TORSDOF 7
