REMARK  Name = 1041
REMARK  1 active torsions:
REMARK  status: ('A' for Active; 'I' for Inactive)
REMARK    1  A    between atoms: N_5  and  C_7
REMARK                            x       y       z     vdW  Elec       q    Type
REMARK                         _______ _______ _______ _____ _____    ______ ____
ROOT
ATOM      1  O   UNL     1       4.116  -1.448   0.000  0.00  0.00    +0.000 OA
ATOM      2  O   UNL     1       4.116   1.448   0.000  0.00  0.00    +0.000 OA
ATOM      3  N   UNL     1       4.341   0.000   0.000  0.00  0.00    +0.000 N 
ATOM      4  C   UNL     1       3.860  -0.664   0.000  0.00  0.00    +0.000 C 
ATOM      5  C   UNL     1       3.860   0.664   0.000  0.00  0.00    +0.000 C 
ATOM      6  C   UNL     1       3.079  -0.412   0.000  0.00  0.00    +0.000 A 
ATOM      7  C   UNL     1       3.079   0.412   0.000  0.00  0.00    +0.000 A 
ATOM      8  C   UNL     1       2.365  -0.825   0.000  0.00  0.00    +0.000 A 
ATOM      9  C   UNL     1       2.365   0.825   0.000  0.00  0.00    +0.000 A 
ATOM     10  C   UNL     1       1.650  -0.412   0.000  0.00  0.00    +0.000 A 
ATOM     11  C   UNL     1       1.650   0.412   0.000  0.00  0.00    +0.000 A 
ENDROOT
BRANCH   3  15
ATOM     12  O   UNL     1       5.166  -1.429   0.000  0.00  0.00    +0.000 OA
ATOM     13  O   UNL     1       7.641   0.000   0.000  0.00  0.00    +0.000 OA
ATOM     14  N   UNL     1       6.404  -0.715   0.000  0.00  0.00    +0.000 NA
ATOM     15  C   UNL     1       5.166   0.000   0.000  0.00  0.00    +0.000 C 
ATOM     16  C   UNL     1       5.579   0.715   0.000  0.00  0.00    +0.000 C 
ATOM     17  C   UNL     1       6.404   0.715   0.000  0.00  0.00    +0.000 C 
ATOM     18  C   UNL     1       5.579  -0.715   0.000  0.00  0.00    +0.000 C 
ATOM     19  C   UNL     1       6.816   0.000   0.000  0.00  0.00    +0.000 C 
ENDBRANCH   3  15
TORSDOF 1
