REMARK  Name = 1043
REMARK  0 active torsions:
REMARK  status: ('A' for Active; 'I' for Inactive)
REMARK                            x       y       z     vdW  Elec       q    Type
REMARK                         _______ _______ _______ _____ _____    ______ ____
ROOT
ATOM      1  N   UNL     1       2.502  -1.499   0.000  0.00  0.00    +0.000 NA
ATOM      2  C   UNL     1       3.083   0.920   0.000  0.00  0.00    +0.000 C 
ATOM      3  C   UNL     1       2.381  -0.295   0.000  0.00  0.00    +0.000 C 
ATOM      4  C   UNL     1       2.502  -0.660   0.000  0.00  0.00    +0.000 C 
ATOM      5  C   UNL     1       3.784  -0.295   0.000  0.00  0.00    +0.000 C 
ATOM      6  C   UNL     1       2.381   0.515   0.000  0.00  0.00    +0.000 C 
ATOM      7  C   UNL     1       2.502   0.217   0.000  0.00  0.00    +0.000 C 
ATOM      8  C   UNL     1       1.679  -0.700   0.000  0.00  0.00    +0.000 C 
ATOM      9  C   UNL     1       3.784   0.515   0.000  0.00  0.00    +0.000 C 
ATOM     10  C   UNL     1       3.083  -0.549   0.000  0.00  0.00    +0.000 C 
ATOM     11  C   UNL     1       3.263  -1.060   0.000  0.00  0.00    +0.000 C 
ATOM     12  C   UNL     1       3.083   1.760   0.000  0.00  0.00    +0.000 C 
ATOM     13  C   UNL     1       1.787   0.298   0.000  0.00  0.00    +0.000 C 
ENDROOT
TORSDOF 0
