REMARK  Name = 1044
REMARK  4 active torsions:
REMARK  status: ('A' for Active; 'I' for Inactive)
REMARK    1  A    between atoms: O_2  and  C_14
REMARK    2  A    between atoms: N_6  and  C_9
REMARK    3  A    between atoms: N_7  and  C_16
REMARK    4  A    between atoms: C_21  and  C_26
REMARK                            x       y       z     vdW  Elec       q    Type
REMARK                         _______ _______ _______ _____ _____    ______ ____
ROOT
ATOM      1  F   UNL     1       3.793   1.185   0.000  0.00  0.00    +0.000 F 
ATOM      2  O   UNL     1       6.665   2.038   0.000  0.00  0.00    +0.000 OA
ATOM      3  N   UNL     1       6.675  -0.494   0.000  0.00  0.00    +0.000 N 
ATOM      4  C   UNL     1       5.937  -0.053   0.000  0.00  0.00    +0.000 A 
ATOM      5  C   UNL     1       7.422  -0.070   0.000  0.00  0.00    +0.000 A 
ATOM      6  C   UNL     1       5.222  -0.465   0.000  0.00  0.00    +0.000 A 
ATOM      7  C   UNL     1       5.937   0.772   0.000  0.00  0.00    +0.000 A 
ATOM      8  C   UNL     1       4.508  -0.053   0.000  0.00  0.00    +0.000 A 
ATOM      9  C   UNL     1       7.422   0.789   0.000  0.00  0.00    +0.000 A 
ATOM     10  C   UNL     1       6.675   1.213   0.000  0.00  0.00    +0.000 A 
ATOM     11  C   UNL     1       5.222   1.185   0.000  0.00  0.00    +0.000 A 
ATOM     12  C   UNL     1       4.508   0.772   0.000  0.00  0.00    +0.000 A 
ENDROOT
BRANCH   8  13
ATOM     13  N   UNL     1       3.793  -0.465   0.000  0.00  0.00    +0.000 N 
ATOM     14  N   UNL     1       2.365  -1.290   0.000  0.00  0.00    +0.000 NA
ATOM     15  C   UNL     1       3.079  -0.053   0.000  0.00  0.00    +0.000 C 
ATOM     16  C   UNL     1       2.365  -0.465   0.000  0.00  0.00    +0.000 C 
ATOM     17  C   UNL     1       3.793  -1.290   0.000  0.00  0.00    +0.000 C 
ATOM     18  C   UNL     1       3.079  -1.703   0.000  0.00  0.00    +0.000 C 
ATOM     19  C   UNL     1       1.650  -0.053   0.000  0.00  0.00    +0.000 C 
ENDBRANCH   8  13
BRANCH   9  22
ATOM     20  O   UNL     1       8.851   0.795   0.000  0.00  0.00    +0.000 OA
ATOM     21  O   UNL     1       8.132   2.030   0.000  0.00  0.00    +0.000 OA
ATOM     22  C   UNL     1       8.135   1.204   0.000  0.00  0.00    +0.000 C 
ENDBRANCH   9  22
BRANCH   3  23
ATOM     23  C   UNL     1       6.665  -1.319   0.000  0.00  0.00    +0.000 C 
ATOM     24  C   UNL     1       7.069  -2.038   0.000  0.00  0.00    +0.000 C 
ATOM     25  C   UNL     1       6.244  -2.029   0.000  0.00  0.00    +0.000 C 
ENDBRANCH   3  23
BRANCH   6  26
ATOM     26  O   UNL     1       5.222  -1.290   0.000  0.00  0.00    +0.000 OA
ATOM     27  C   UNL     1       4.508  -1.703   0.000  0.00  0.00    +0.000 C 
ENDBRANCH   6  26
TORSDOF 4
