REMARK  Name = 1050
REMARK  4 active torsions:
REMARK  status: ('A' for Active; 'I' for Inactive)
REMARK    1  A    between atoms: C_3  and  C_4
REMARK    2  A    between atoms: C_4  and  C_5
REMARK    3  A    between atoms: C_6  and  C_7
REMARK    4  A    between atoms: C_7  and  C_15
REMARK                            x       y       z     vdW  Elec       q    Type
REMARK                         _______ _______ _______ _____ _____    ______ ____
ROOT
ATOM      1  C   UNL     1       3.079  -0.953   0.000  0.00  0.00    +0.000 A 
ATOM      2  C   UNL     1       3.079   0.697   0.000  0.00  0.00    +0.000 A 
ATOM      3  C   UNL     1       2.365  -0.540   0.000  0.00  0.00    +0.000 A 
ATOM      4  C   UNL     1       3.793  -0.540   0.000  0.00  0.00    +0.000 A 
ATOM      5  C   UNL     1       2.365   0.285   0.000  0.00  0.00    +0.000 A 
ATOM      6  C   UNL     1       3.793   0.285   0.000  0.00  0.00    +0.000 A 
ENDROOT
BRANCH   2   7
ATOM      7  C   UNL     1       3.079   1.522   0.000  0.00  0.00    +0.000 C 
ATOM      8  C   UNL     1       2.365   1.935   0.000  0.00  0.00    +0.000 C 
BRANCH   7  11
ATOM      9  O   UNL     1       3.793   2.760   0.000  0.00  0.00    +0.000 OA
ATOM     10  O   UNL     1       4.508   1.522   0.000  0.00  0.00    +0.000 OA
ATOM     11  C   UNL     1       3.793   1.935   0.000  0.00  0.00    +0.000 C 
ENDBRANCH   7  11
ENDBRANCH   2   7
BRANCH   1  12
ATOM     12  C   UNL     1       3.079  -1.778   0.000  0.00  0.00    +0.000 C 
BRANCH  12  13
ATOM     13  C   UNL     1       2.365  -2.190   0.000  0.00  0.00    +0.000 C 
ATOM     14  C   UNL     1       2.365  -3.015   0.000  0.00  0.00    +0.000 C 
ATOM     15  C   UNL     1       1.650  -1.778   0.000  0.00  0.00    +0.000 C 
ENDBRANCH  12  13
ENDBRANCH   1  12
TORSDOF 4
