REMARK  Name = 1053
REMARK  4 active torsions:
REMARK  status: ('A' for Active; 'I' for Inactive)
REMARK    1  A    between atoms: N_7  and  CA_11
REMARK    2  A    between atoms: CA_10  and  C_15
REMARK    3  A    between atoms: C_16  and  C_17
REMARK    4  A    between atoms: C_17  and  C_18
REMARK                            x       y       z     vdW  Elec       q    Type
REMARK                         _______ _______ _______ _____ _____    ______ ____
ROOT
ATOM      1  S   UNL     1       7.620   1.070   0.000  0.00  0.00    +0.000 S 
ATOM      2  O   UNL     1       5.421  -0.598   0.000  0.00  0.00    +0.000 OA
ATOM      3  N   UNL     1       6.835  -0.010   0.000  0.00  0.00    +0.000 N 
ATOM      4  C   UNL     1       6.835   0.815   0.000  0.00  0.00    +0.000 C 
ATOM      5  C   UNL     1       8.105   0.403   0.000  0.00  0.00    +0.000 C 
ATOM      6  CA  UNL     1       7.620  -0.265   0.000  0.00  0.00    +0.000 C 
ATOM      7  CA  UNL     1       6.004   0.819   0.000  0.00  0.00    +0.000 C 
ATOM      8  C   UNL     1       6.004  -0.013   0.000  0.00  0.00    +0.000 C 
ATOM      9  C   UNL     1       8.772  -0.082   0.000  0.00  0.00    +0.000 C 
ATOM     10  C   UNL     1       8.772   0.888   0.000  0.00  0.00    +0.000 C 
ENDROOT
BRANCH   6  13
ATOM     11  O   UNL     1       7.323  -1.662   0.000  0.00  0.00    +0.000 OA
ATOM     12  OXT UNL     1       8.682  -1.221   0.000  0.00  0.00    +0.000 OA
ATOM     13  C   UNL     1       7.875  -1.049   0.000  0.00  0.00    +0.000 C 
ENDBRANCH   6  13
BRANCH   7  15
ATOM     14  O   UNL     1       4.409   0.395   0.000  0.00  0.00    +0.000 OA
ATOM     15  N   UNL     1       5.421   1.403   0.000  0.00  0.00    +0.000 NA
ATOM     16  C   UNL     1       4.624   1.192   0.000  0.00  0.00    +0.000 C 
BRANCH  16  17
ATOM     17  C   UNL     1       4.042   1.776   0.000  0.00  0.00    +0.000 C 
BRANCH  17  18
ATOM     18  C   UNL     1       3.245   1.564   0.000  0.00  0.00    +0.000 A 
ATOM     19  C   UNL     1       3.030   0.768   0.000  0.00  0.00    +0.000 A 
ATOM     20  C   UNL     1       2.663   2.149   0.000  0.00  0.00    +0.000 A 
ATOM     21  C   UNL     1       2.232   0.556   0.000  0.00  0.00    +0.000 A 
ATOM     22  C   UNL     1       1.865   1.937   0.000  0.00  0.00    +0.000 A 
ATOM     23  C   UNL     1       1.650   1.140   0.000  0.00  0.00    +0.000 A 
ENDBRANCH  17  18
ENDBRANCH  16  17
ENDBRANCH   7  15
TORSDOF 4
