REMARK  Name = 1055
REMARK  3 active torsions:
REMARK  status: ('A' for Active; 'I' for Inactive)
REMARK    1  A    between atoms: N_5  and  C_7
REMARK    2  A    between atoms: C_7  and  CA_8
REMARK    3  A    between atoms: CA_8  and  C_11
REMARK                            x       y       z     vdW  Elec       q    Type
REMARK                         _______ _______ _______ _____ _____    ______ ____
ROOT
ATOM      1  O   UNL     1       4.951  -1.906   0.000  0.00  0.00    +0.000 OA
ATOM      2  O   UNL     1       3.522  -2.731   0.000  0.00  0.00    +0.000 OA
ATOM      3  N   UNL     1       3.522  -0.256   0.000  0.00  0.00    +0.000 N 
ATOM      4  C   UNL     1       4.237  -0.668   0.000  0.00  0.00    +0.000 A 
ATOM      5  C   UNL     1       2.808  -0.668   0.000  0.00  0.00    +0.000 A 
ATOM      6  C   UNL     1       4.237  -1.493   0.000  0.00  0.00    +0.000 A 
ATOM      7  C   UNL     1       2.808  -1.493   0.000  0.00  0.00    +0.000 A 
ATOM      8  C   UNL     1       3.522  -1.906   0.000  0.00  0.00    +0.000 A 
ENDROOT
BRANCH   3   9
ATOM      9  C   UNL     1       3.522   0.569   0.000  0.00  0.00    +0.000 C 
BRANCH   9  11
ATOM     10  N   UNL     1       2.093   0.569   0.000  0.00  0.00    +0.000 NA
ATOM     11  CA  UNL     1       2.808   0.982   0.000  0.00  0.00    +0.000 C 
BRANCH  11  14
ATOM     12  O   UNL     1       2.093   2.219   0.000  0.00  0.00    +0.000 OA
ATOM     13  OXT UNL     1       3.522   2.219   0.000  0.00  0.00    +0.000 OA
ATOM     14  C   UNL     1       2.808   1.807   0.000  0.00  0.00    +0.000 C 
ENDBRANCH  11  14
ENDBRANCH   9  11
ENDBRANCH   3   9
TORSDOF 3
