REMARK  Name = 1056
REMARK  2 active torsions:
REMARK  status: ('A' for Active; 'I' for Inactive)
REMARK    1  A    between atoms: N_2  and  C_4
REMARK    2  A    between atoms: C_7  and  C_8
REMARK                            x       y       z     vdW  Elec       q    Type
REMARK                         _______ _______ _______ _____ _____    ______ ____
ROOT
ATOM      1  C   UNL     1       3.079  -0.668   0.000  0.00  0.00    +0.000 A 
ATOM      2  C   UNL     1       3.793  -1.081   0.000  0.00  0.00    +0.000 A 
ATOM      3  C   UNL     1       2.365  -1.081   0.000  0.00  0.00    +0.000 A 
ATOM      4  C   UNL     1       3.793  -1.906   0.000  0.00  0.00    +0.000 A 
ATOM      5  C   UNL     1       2.365  -1.906   0.000  0.00  0.00    +0.000 A 
ATOM      6  C   UNL     1       4.508  -0.668   0.000  0.00  0.00    +0.000 C 
ATOM      7  C   UNL     1       1.650  -0.668   0.000  0.00  0.00    +0.000 C 
ATOM      8  C   UNL     1       3.079  -2.318   0.000  0.00  0.00    +0.000 A 
ENDROOT
BRANCH   1  10
ATOM      9  O   UNL     1       4.508   0.157   0.000  0.00  0.00    +0.000 OA
ATOM     10  N   UNL     1       3.079   0.157   0.000  0.00  0.00    +0.000 NA
ATOM     11  C   UNL     1       3.793   0.569   0.000  0.00  0.00    +0.000 C 
BRANCH  11  13
ATOM     12  N   UNL     1       4.508   1.807   0.000  0.00  0.00    +0.000 NA
ATOM     13  C   UNL     1       3.793   1.394   0.000  0.00  0.00    +0.000 C 
ATOM     14  C   UNL     1       3.079   1.807   0.000  0.00  0.00    +0.000 C 
ENDBRANCH  11  13
ENDBRANCH   1  10
TORSDOF 2
