REMARK  Name = 1057
REMARK  8 active torsions:
REMARK  status: ('A' for Active; 'I' for Inactive)
REMARK    1  A    between atoms: S_1  and  P_2
REMARK    2  A    between atoms: S_1  and  C_11
REMARK    3  A    between atoms: P_2  and  O_3
REMARK    4  A    between atoms: P_2  and  O_4
REMARK    5  A    between atoms: O_3  and  C_12
REMARK    6  A    between atoms: O_4  and  C_13
REMARK    7  A    between atoms: N_6  and  C_7
REMARK    8  A    between atoms: C_7  and  C_11
REMARK                            x       y       z     vdW  Elec       q    Type
REMARK                         _______ _______ _______ _____ _____    ______ ____
ROOT
ATOM      1  P   UNL     1       2.586   1.157   0.000  0.00  0.00    +0.000 P 
ATOM      2  O   UNL     1       2.999   0.443   0.000  0.00  0.00    +0.000 OA
ENDROOT
BRANCH   1   3
ATOM      3  O   UNL     1       2.174   1.872   0.000  0.00  0.00    +0.000 OA
BRANCH   3   4
ATOM      4  C   UNL     1       2.586   2.586   0.000  0.00  0.00    +0.000 C 
ATOM      5  C   UNL     1       2.174   3.301   0.000  0.00  0.00    +0.000 C 
ENDBRANCH   3   4
ENDBRANCH   1   3
BRANCH   1   6
ATOM      6  O   UNL     1       1.872   0.745   0.000  0.00  0.00    +0.000 OA
BRANCH   6   7
ATOM      7  C   UNL     1       1.157   1.157   0.000  0.00  0.00    +0.000 C 
ATOM      8  C   UNL     1       0.443   0.745   0.000  0.00  0.00    +0.000 C 
ENDBRANCH   6   7
ENDBRANCH   1   6
BRANCH   1   9
ATOM      9  S   UNL     1       3.301   1.570   0.000  0.00  0.00    +0.000 S 
BRANCH   9  10
ATOM     10  C   UNL     1       4.015   1.157   0.000  0.00  0.00    +0.000 C 
BRANCH  10  11
ATOM     11  C   UNL     1       4.730   1.570   0.000  0.00  0.00    +0.000 C 
BRANCH  11  12
ATOM     12  N   UNL     1       5.444   1.157   0.000  0.00  0.00    +0.000 N 
ATOM     13  C   UNL     1       6.159   0.745   0.000  0.00  0.00    +0.000 C 
ATOM     14  C   UNL     1       5.857   1.872   0.000  0.00  0.00    +0.000 C 
ATOM     15  C   UNL     1       5.032   0.443   0.000  0.00  0.00    +0.000 C 
ENDBRANCH  11  12
ENDBRANCH  10  11
ENDBRANCH   9  10
ENDBRANCH   1   9
TORSDOF 8
