REMARK  Name = 1058
REMARK  1 active torsions:
REMARK  status: ('A' for Active; 'I' for Inactive)
REMARK    1  A    between atoms: C_6  and  C_10
REMARK                            x       y       z     vdW  Elec       q    Type
REMARK                         _______ _______ _______ _____ _____    ______ ____
ROOT
ATOM      1  O   UNL     1       3.801   1.449   0.000  0.00  0.00    +0.000 OA
ATOM      2  O   UNL     1       5.268  -1.899   0.000  0.00  0.00    +0.000 OA
ATOM      3  N   UNL     1       5.996  -0.633   0.000  0.00  0.00    +0.000 N 
ATOM      4  N   UNL     1       4.511   0.209   0.000  0.00  0.00    +0.000 N 
ATOM      5  C   UNL     1       5.996   0.192   0.000  0.00  0.00    +0.000 C 
ATOM      6  C   UNL     1       5.259   0.633   0.000  0.00  0.00    +0.000 C 
ATOM      7  C   UNL     1       3.798   0.624   0.000  0.00  0.00    +0.000 C 
ATOM      8  C   UNL     1       6.711   0.605   0.000  0.00  0.00    +0.000 A 
ATOM      9  C   UNL     1       6.711  -1.046   0.000  0.00  0.00    +0.000 C 
ATOM     10  C   UNL     1       4.511  -0.650   0.000  0.00  0.00    +0.000 C 
ATOM     11  C   UNL     1       7.425  -0.633   0.000  0.00  0.00    +0.000 C 
ATOM     12  C   UNL     1       5.259  -1.074   0.000  0.00  0.00    +0.000 C 
ATOM     13  C   UNL     1       7.425   0.192   0.000  0.00  0.00    +0.000 A 
ATOM     14  C   UNL     1       6.697   1.464   0.000  0.00  0.00    +0.000 A 
ATOM     15  C   UNL     1       8.176   0.610   0.000  0.00  0.00    +0.000 A 
ATOM     16  C   UNL     1       7.438   1.899   0.000  0.00  0.00    +0.000 A 
ATOM     17  C   UNL     1       8.182   1.469   0.000  0.00  0.00    +0.000 A 
ENDROOT
BRANCH   7  18
ATOM     18  C   UNL     1       3.082   0.215   0.000  0.00  0.00    +0.000 C 
ATOM     19  C   UNL     1       3.079  -0.610   0.000  0.00  0.00    +0.000 C 
ATOM     20  C   UNL     1       2.369   0.630   0.000  0.00  0.00    +0.000 C 
ATOM     21  C   UNL     1       2.363  -1.020   0.000  0.00  0.00    +0.000 C 
ATOM     22  C   UNL     1       1.653   0.220   0.000  0.00  0.00    +0.000 C 
ATOM     23  C   UNL     1       1.650  -0.605   0.000  0.00  0.00    +0.000 C 
ENDBRANCH   7  18
TORSDOF 1
