REMARK  Name = 106
REMARK  3 active torsions:
REMARK  status: ('A' for Active; 'I' for Inactive)
REMARK    1  A    between atoms: C_3  and  N_11
REMARK    2  A    between atoms: N_13  and  C_14
REMARK    3  A    between atoms: C_17  and  S_20
REMARK                            x       y       z     vdW  Elec       q    Type
REMARK                         _______ _______ _______ _____ _____    ______ ____
ROOT
ATOM      1  N   UNL     1       0.474  -0.604   0.000  0.00  0.00    +0.000 NA
ATOM      2  N   UNL     1      -0.333  -0.433   0.000  0.00  0.00    +0.000 NA
ENDROOT
BRANCH   1   5
ATOM      3  N   UNL     1       0.729  -2.724   0.000  0.00  0.00    +0.000 NA
ATOM      4  C   UNL     1       0.244  -2.056   0.000  0.00  0.00    +0.000 C 
ATOM      5  C   UNL     1       0.729  -1.389   0.000  0.00  0.00    +0.000 C 
ATOM      6  C   UNL     1       2.228  -1.231   0.000  0.00  0.00    +0.000 A 
ATOM      7  C   UNL     1       2.943  -1.644   0.000  0.00  0.00    +0.000 A 
ATOM      8  C   UNL     1       2.943  -2.469   0.000  0.00  0.00    +0.000 A 
ATOM      9  C   UNL     1       2.228  -2.881   0.000  0.00  0.00    +0.000 A 
ATOM     10  C   UNL     1       1.514  -2.469   0.000  0.00  0.00    +0.000 A 
ATOM     11  C   UNL     1       1.514  -1.644   0.000  0.00  0.00    +0.000 A 
ATOM     12  O   UNL     1      -0.581  -2.056   0.000  0.00  0.00    +0.000 OA
ATOM     13 BR   UNL     1       3.657  -1.231   0.000  0.00  0.00    +0.000 Br
ENDBRANCH   1   5
BRANCH   2  14
ATOM     14  C   UNL     1      -0.588   0.352   0.000  0.00  0.00    +0.000 A 
ATOM     15  C   UNL     1      -1.395   0.523   0.000  0.00  0.00    +0.000 A 
ATOM     16  C   UNL     1      -1.650   1.308   0.000  0.00  0.00    +0.000 A 
ATOM     17  C   UNL     1      -1.097   1.921   0.000  0.00  0.00    +0.000 A 
ATOM     18  C   UNL     1      -0.291   1.750   0.000  0.00  0.00    +0.000 A 
ATOM     19  C   UNL     1      -0.036   0.965   0.000  0.00  0.00    +0.000 A 
BRANCH  17  20
ATOM     20  S   UNL     1      -1.353   2.706   0.000  0.00  0.00    +0.000 S 
ATOM     21  O   UNL     1      -1.607   3.490   0.000  0.00  0.00    +0.000 OA
ATOM     22  O   UNL     1      -0.568   2.961   0.000  0.00  0.00    +0.000 OA
ATOM     23  N   UNL     1      -2.137   2.451   0.000  0.00  0.00    +0.000 NA
ENDBRANCH  17  20
ENDBRANCH   2  14
TORSDOF 3
