REMARK  Name = 1062
REMARK  10 active torsions:
REMARK  status: ('A' for Active; 'I' for Inactive)
REMARK    1  A    between atoms: O_2  and  C_13
REMARK    2  A    between atoms: O_2  and  C_19
REMARK    3  A    between atoms: N_4  and  C_21
REMARK    4  A    between atoms: N_4  and  C_22
REMARK    5  A    between atoms: N_4  and  C_23
REMARK    6  A    between atoms: C_5  and  C_8
REMARK    7  A    between atoms: C_8  and  C_12
REMARK    8  A    between atoms: C_8  and  C_13
REMARK    9  A    between atoms: C_19  and  C_20
REMARK   10  A    between atoms: C_21  and  C_24
REMARK                            x       y       z     vdW  Elec       q    Type
REMARK                         _______ _______ _______ _____ _____    ______ ____
ROOT
ATOM      1  O   UNL     1       1.906   0.549   0.000  0.00  0.00    +0.000 OA
ATOM      2  C   UNL     1       2.731   0.549   0.000  0.00  0.00    +0.000 C 
ENDROOT
BRANCH   2   3
ATOM      3  C   UNL     1       2.731  -0.276   0.000  0.00  0.00    +0.000 A 
ATOM      4  C   UNL     1       3.445  -0.689   0.000  0.00  0.00    +0.000 A 
ATOM      5  C   UNL     1       2.016  -0.689   0.000  0.00  0.00    +0.000 A 
ATOM      6  C   UNL     1       3.445  -1.514   0.000  0.00  0.00    +0.000 A 
ATOM      7  C   UNL     1       2.016  -1.514   0.000  0.00  0.00    +0.000 A 
ATOM      8  C   UNL     1       2.731  -1.926   0.000  0.00  0.00    +0.000 A 
ENDBRANCH   2   3
BRANCH   2   9
ATOM      9  C   UNL     1       2.731   1.374   0.000  0.00  0.00    +0.000 C 
ATOM     10  C   UNL     1       2.016   1.786   0.000  0.00  0.00    +0.000 C 
ATOM     11  C   UNL     1       3.445   1.786   0.000  0.00  0.00    +0.000 C 
ATOM     12  C   UNL     1       2.016   2.611   0.000  0.00  0.00    +0.000 C 
ATOM     13  C   UNL     1       3.445   2.611   0.000  0.00  0.00    +0.000 C 
ATOM     14  C   UNL     1       2.731   3.024   0.000  0.00  0.00    +0.000 C 
ENDBRANCH   2   9
BRANCH   2  16
ATOM     15  O   UNL     1       3.968   1.263   0.000  0.00  0.00    +0.000 OA
ATOM     16  C   UNL     1       3.556   0.549   0.000  0.00  0.00    +0.000 C 
BRANCH  16  17
ATOM     17  O   UNL     1       3.968  -0.166   0.000  0.00  0.00    +0.000 OA
BRANCH  17  18
ATOM     18  C   UNL     1       4.793  -0.166   0.000  0.00  0.00    +0.000 C 
BRANCH  18  19
ATOM     19  C   UNL     1       5.206  -0.880   0.000  0.00  0.00    +0.000 C 
ATOM     20  C   UNL     1       5.618  -1.595   0.000  0.00  0.00    +0.000 C 
BRANCH  20  21
ATOM     21  C   UNL     1       6.031  -2.309   0.000  0.00  0.00    +0.000 C 
BRANCH  21  22
ATOM     22  N   UNL     1       6.856  -2.309   0.000  0.00  0.00    +0.000 NA
BRANCH  22  23
ATOM     23  C   UNL     1       7.268  -1.595   0.000  0.00  0.00    +0.000 C 
ATOM     24  C   UNL     1       8.093  -1.595   0.000  0.00  0.00    +0.000 C 
ENDBRANCH  22  23
BRANCH  22  25
ATOM     25  C   UNL     1       7.268  -3.024   0.000  0.00  0.00    +0.000 C 
ATOM     26  C   UNL     1       8.093  -3.024   0.000  0.00  0.00    +0.000 C 
ENDBRANCH  22  25
ENDBRANCH  21  22
ENDBRANCH  20  21
ENDBRANCH  18  19
ENDBRANCH  17  18
ENDBRANCH  16  17
ENDBRANCH   2  16
TORSDOF 10
