REMARK  Name = 1068
REMARK  2 active torsions:
REMARK  status: ('A' for Active; 'I' for Inactive)
REMARK    1  A    between atoms: N_7  and  C_15
REMARK    2  A    between atoms: C_10  and  C_11
REMARK                            x       y       z     vdW  Elec       q    Type
REMARK                         _______ _______ _______ _____ _____    ______ ____
ROOT
ATOM      1  O   UNL     1       2.340   2.593   0.000  0.00  0.00    +0.000 OA
ATOM      2  N   UNL     1       2.184   1.205   0.000  0.00  0.00    +0.000 NA
ATOM      3  N   UNL     1       4.037   1.205   0.000  0.00  0.00    +0.000 NA
ATOM      4  C   UNL     1       3.111   0.042   0.000  0.00  0.00    +0.000 A 
ATOM      5  C   UNL     1       2.367   0.400   0.000  0.00  0.00    +0.000 A 
ATOM      6  C   UNL     1       3.854   0.400   0.000  0.00  0.00    +0.000 C 
ATOM      7  C   UNL     1       3.188  -0.814   0.000  0.00  0.00    +0.000 A 
ATOM      8  C   UNL     1       1.650  -0.073   0.000  0.00  0.00    +0.000 A 
ATOM      9  C   UNL     1       3.523   1.850   0.000  0.00  0.00    +0.000 C 
ATOM     10  C   UNL     1       2.482  -1.303   0.000  0.00  0.00    +0.000 A 
ATOM     11  C   UNL     1       2.698   1.850   0.000  0.00  0.00    +0.000 C 
ATOM     12  C   UNL     1       1.708  -0.930   0.000  0.00  0.00    +0.000 A 
ENDROOT
BRANCH   6  14
ATOM     13 CL   UNL     1       3.608  -1.231   0.000  0.00  0.00    +0.000 Cl
ATOM     14  C   UNL     1       4.499  -0.114   0.000  0.00  0.00    +0.000 A 
ATOM     15  C   UNL     1       4.376  -0.930   0.000  0.00  0.00    +0.000 A 
ATOM     16  C   UNL     1       5.267   0.187   0.000  0.00  0.00    +0.000 A 
ATOM     17  C   UNL     1       5.021  -1.444   0.000  0.00  0.00    +0.000 A 
ATOM     18  C   UNL     1       5.912  -0.327   0.000  0.00  0.00    +0.000 A 
ATOM     19  C   UNL     1       5.789  -1.143   0.000  0.00  0.00    +0.000 A 
ENDBRANCH   6  14
BRANCH  10  22
ATOM     20  O   UNL     1       1.867  -2.593   0.000  0.00  0.00    +0.000 OA
ATOM     21  O   UNL     1       3.291  -2.481   0.000  0.00  0.00    +0.000 OA
ATOM     22  N   UNL     1       2.547  -2.126   0.000  0.00  0.00    +0.000 N 
ENDBRANCH  10  22
TORSDOF 2
