REMARK  Name = 107
REMARK  6 active torsions:
REMARK  status: ('A' for Active; 'I' for Inactive)
REMARK    1  A    between atoms: C_13  and  C_14
REMARK    2  A    between atoms: C_14  and  N_15
REMARK    3  A    between atoms: N_15  and  C_16
REMARK    4  A    between atoms: C_19  and  S_22
REMARK    5  A    between atoms: S_22  and  N_25
REMARK    6  A    between atoms: N_25  and  C_30
REMARK                            x       y       z     vdW  Elec       q    Type
REMARK                         _______ _______ _______ _____ _____    ______ ____
ROOT
ATOM      1  C   UNL     1      -0.631   0.248   0.000  0.00  0.00    +0.000 A 
ATOM      2  C   UNL     1       0.154  -0.007   0.000  0.00  0.00    +0.000 A 
ATOM      3  C   UNL     1       0.325  -0.814   0.000  0.00  0.00    +0.000 A 
ATOM      4  C   UNL     1      -0.288  -1.366   0.000  0.00  0.00    +0.000 A 
ATOM      5  C   UNL     1      -1.073  -1.111   0.000  0.00  0.00    +0.000 A 
ATOM      6  C   UNL     1      -1.244  -0.304   0.000  0.00  0.00    +0.000 A 
ENDROOT
BRANCH   4   7
ATOM      7  S   UNL     1      -0.116  -2.173   0.000  0.00  0.00    +0.000 S 
ATOM      8  O   UNL     1      -0.923  -2.344   0.000  0.00  0.00    +0.000 OA
ATOM      9  O   UNL     1       0.691  -2.001   0.000  0.00  0.00    +0.000 OA
BRANCH   7  10
ATOM     10  N   UNL     1       0.055  -2.980   0.000  0.00  0.00    +0.000 NA
BRANCH  10  15
ATOM     11  C   UNL     1       2.237  -2.937   0.000  0.00  0.00    +0.000 A 
ATOM     12  C   UNL     1       2.409  -3.744   0.000  0.00  0.00    +0.000 A 
ATOM     13  C   UNL     1       1.796  -4.296   0.000  0.00  0.00    +0.000 A 
ATOM     14  N   UNL     1       1.011  -4.042   0.000  0.00  0.00    +0.000 NA
ATOM     15  C   UNL     1       0.840  -3.235   0.000  0.00  0.00    +0.000 A 
ATOM     16  C   UNL     1       1.453  -2.683   0.000  0.00  0.00    +0.000 A 
ENDBRANCH  10  15
ENDBRANCH   7  10
ENDBRANCH   4   7
BRANCH   1  17
ATOM     17  N   UNL     1      -0.802   1.055   0.000  0.00  0.00    +0.000 NA
BRANCH  17  18
ATOM     18  C   UNL     1      -1.587   1.310   0.000  0.00  0.00    +0.000 C 
BRANCH  18  31
ATOM     19  O   UNL     1      -3.227   2.040   0.000  0.00  0.00    +0.000 OA
ATOM     20  C   UNL     1      -2.512   2.453   0.000  0.00  0.00    +0.000 C 
ATOM     21  N   UNL     1      -2.426   3.273   0.000  0.00  0.00    +0.000 NA
ATOM     22  C   UNL     1      -1.619   3.445   0.000  0.00  0.00    +0.000 A 
ATOM     23  C   UNL     1      -1.207   4.159   0.000  0.00  0.00    +0.000 A 
ATOM     24  C   UNL     1      -0.382   4.159   0.000  0.00  0.00    +0.000 A 
ATOM     25  C   UNL     1       0.031   3.445   0.000  0.00  0.00    +0.000 A 
ATOM     26  N   UNL     1       0.838   3.273   0.000  0.00  0.00    +0.000 NA
ATOM     27  C   UNL     1       0.924   2.453   0.000  0.00  0.00    +0.000 A 
ATOM     28  S   UNL     1       0.170   2.117   0.000  0.00  0.00    +0.000 S 
ATOM     29  C   UNL     1      -0.382   2.730   0.000  0.00  0.00    +0.000 A 
ATOM     30  C   UNL     1      -1.207   2.730   0.000  0.00  0.00    +0.000 A 
ATOM     31  C   UNL     1      -1.759   2.117   0.000  0.00  0.00    +0.000 C 
ENDBRANCH  18  31
ENDBRANCH  17  18
ENDBRANCH   1  17
TORSDOF 6
