REMARK  Name = 1071
REMARK  2 active torsions:
REMARK  status: ('A' for Active; 'I' for Inactive)
REMARK    1  A    between atoms: N_3  and  C_11
REMARK    2  A    between atoms: C_5  and  C_11
REMARK                            x       y       z     vdW  Elec       q    Type
REMARK                         _______ _______ _______ _____ _____    ______ ____
ROOT
ATOM      1  S   UNL     1       3.696  -2.982   0.000  0.00  0.00    +0.000 S 
ATOM      2  N   UNL     1       3.696  -1.398   0.000  0.00  0.00    +0.000 N 
ATOM      3  C   UNL     1       4.382  -1.794   0.000  0.00  0.00    +0.000 A 
ATOM      4  C   UNL     1       3.010  -1.794   0.000  0.00  0.00    +0.000 A 
ATOM      5  C   UNL     1       4.382  -2.586   0.000  0.00  0.00    +0.000 A 
ATOM      6  C   UNL     1       3.010  -2.586   0.000  0.00  0.00    +0.000 A 
ATOM      7  C   UNL     1       5.090  -1.370   0.000  0.00  0.00    +0.000 A 
ATOM      8  C   UNL     1       2.302  -1.370   0.000  0.00  0.00    +0.000 A 
ATOM      9  C   UNL     1       5.090  -3.009   0.000  0.00  0.00    +0.000 A 
ATOM     10  C   UNL     1       2.302  -3.009   0.000  0.00  0.00    +0.000 A 
ATOM     11  C   UNL     1       5.808  -1.777   0.000  0.00  0.00    +0.000 A 
ATOM     12  C   UNL     1       1.584  -1.777   0.000  0.00  0.00    +0.000 A 
ATOM     13  C   UNL     1       5.808  -2.602   0.000  0.00  0.00    +0.000 A 
ATOM     14  C   UNL     1       1.584  -2.602   0.000  0.00  0.00    +0.000 A 
ENDROOT
BRANCH   2  15
ATOM     15  C   UNL     1       3.696  -0.606   0.000  0.00  0.00    +0.000 C 
BRANCH  15  18
ATOM     16  N   UNL     1       5.748   1.036   0.000  0.00  0.00    +0.000 NA
ATOM     17  C   UNL     1       4.983   1.241   0.000  0.00  0.00    +0.000 C 
ATOM     18  C   UNL     1       4.382  -0.210   0.000  0.00  0.00    +0.000 C 
ATOM     19  C   UNL     1       5.147  -0.415   0.000  0.00  0.00    +0.000 C 
ATOM     20  C   UNL     1       4.191   2.613   0.000  0.00  0.00    +0.000 C 
ATOM     21  C   UNL     1       6.420   2.016   0.000  0.00  0.00    +0.000 C 
ATOM     22  C   UNL     1       4.877   3.009   0.000  0.00  0.00    +0.000 C 
ATOM     23  C   UNL     1       6.816   1.330   0.000  0.00  0.00    +0.000 C 
ENDBRANCH  15  18
ENDBRANCH   2  15
TORSDOF 2
