REMARK  Name = 1074
REMARK  4 active torsions:
REMARK  status: ('A' for Active; 'I' for Inactive)
REMARK    1  A    between atoms: C_2  and  C_3
REMARK    2  A    between atoms: C_2  and  C_4
REMARK    3  A    between atoms: C_2  and  C_5
REMARK    4  A    between atoms: C_5  and  C_10
REMARK                            x       y       z     vdW  Elec       q    Type
REMARK                         _______ _______ _______ _____ _____    ______ ____
ROOT
ATOM      1  C   UNL     1       3.793  -0.412   0.000  0.00  0.00    +0.000 C 
ENDROOT
BRANCH   1   2
ATOM      2  C   UNL     1       3.079  -0.825   0.000  0.00  0.00    +0.000 C 
ATOM      3  C   UNL     1       3.079  -1.650   0.000  0.00  0.00    +0.000 C 
ATOM      4  C   UNL     1       2.365  -0.412   0.000  0.00  0.00    +0.000 C 
ATOM      5  C   UNL     1       2.365  -2.062   0.000  0.00  0.00    +0.000 C 
ATOM      6  C   UNL     1       1.650  -0.825   0.000  0.00  0.00    +0.000 C 
ATOM      7  C   UNL     1       1.650  -1.650   0.000  0.00  0.00    +0.000 C 
ENDBRANCH   1   2
BRANCH   1   8
ATOM      8  C   UNL     1       3.793   0.412   0.000  0.00  0.00    +0.000 C 
ATOM      9  C   UNL     1       4.508   0.825   0.000  0.00  0.00    +0.000 C 
ATOM     10  C   UNL     1       3.079   0.825   0.000  0.00  0.00    +0.000 C 
ATOM     11  C   UNL     1       4.508   1.650   0.000  0.00  0.00    +0.000 C 
ATOM     12  C   UNL     1       3.079   1.650   0.000  0.00  0.00    +0.000 C 
ATOM     13  C   UNL     1       3.793   2.062   0.000  0.00  0.00    +0.000 C 
ENDBRANCH   1   8
BRANCH   1  14
ATOM     14  C   UNL     1       4.508  -0.825   0.000  0.00  0.00    +0.000 C 
BRANCH  14  16
ATOM     15  N   UNL     1       5.937  -0.825   0.000  0.00  0.00    +0.000 NA
ATOM     16  C   UNL     1       5.222  -0.412   0.000  0.00  0.00    +0.000 C 
ATOM     17  C   UNL     1       5.222   0.412   0.000  0.00  0.00    +0.000 C 
ATOM     18  C   UNL     1       5.937   0.825   0.000  0.00  0.00    +0.000 C 
ATOM     19  C   UNL     1       6.652  -0.412   0.000  0.00  0.00    +0.000 C 
ATOM     20  C   UNL     1       6.652   0.412   0.000  0.00  0.00    +0.000 C 
ENDBRANCH  14  16
ENDBRANCH   1  14
TORSDOF 4
