REMARK  Name = 1080
REMARK  4 active torsions:
REMARK  status: ('A' for Active; 'I' for Inactive)
REMARK    1  A    between atoms: C_4  and  C_5
REMARK    2  A    between atoms: C_4  and  C_6
REMARK    3  A    between atoms: C_5  and  C_7
REMARK    4  A    between atoms: C_6  and  C_8
REMARK                            x       y       z     vdW  Elec       q    Type
REMARK                         _______ _______ _______ _____ _____    ______ ____
ROOT
ATOM      1  C   UNL     1       4.237   0.412   0.000  0.00  0.00    +0.000 C 
ENDROOT
BRANCH   1   3
ATOM      2  N   UNL     1       5.665   0.412   0.000  0.00  0.00    +0.000 NA
ATOM      3  C   UNL     1       4.951   0.000   0.000  0.00  0.00    +0.000 C 
BRANCH   3   4
ATOM      4  C   UNL     1       4.951  -0.825   0.000  0.00  0.00    +0.000 C 
ATOM      5  C   UNL     1       4.237  -1.238   0.000  0.00  0.00    +0.000 C 
ENDBRANCH   3   4
ENDBRANCH   1   3
BRANCH   1   6
ATOM      6  C   UNL     1       3.522   0.000   0.000  0.00  0.00    +0.000 C 
BRANCH   6   9
ATOM      7  O   UNL     1       2.093   0.000   0.000  0.00  0.00    +0.000 OA
ATOM      8  O   UNL     1       2.808   1.238   0.000  0.00  0.00    +0.000 OA
ATOM      9  C   UNL     1       2.808   0.412   0.000  0.00  0.00    +0.000 C 
ENDBRANCH   6   9
ENDBRANCH   1   6
TORSDOF 4
