REMARK  Name = 1083
REMARK  23 active torsions:
REMARK  status: ('A' for Active; 'I' for Inactive)
REMARK    1  A    between atoms: O_2  and  C_11
REMARK    2  A    between atoms: O_2  and  C_21
REMARK    3  A    between atoms: N_6  and  C_22
REMARK    4  A    between atoms: C_7  and  C_9
REMARK    5  A    between atoms: C_8  and  C_10
REMARK    6  A    between atoms: C_9  and  C_11
REMARK    7  A    between atoms: C_10  and  C_14
REMARK    8  A    between atoms: C_11  and  C_13
REMARK    9  A    between atoms: C_13  and  C_15
REMARK   10  A    between atoms: C_14  and  C_16
REMARK   11  A    between atoms: C_15  and  C_17
REMARK   12  A    between atoms: C_16  and  C_19
REMARK   13  A    between atoms: C_17  and  C_18
REMARK   14  A    between atoms: C_18  and  C_20
REMARK   15  A    between atoms: C_19  and  C_24
REMARK   16  A    between atoms: C_20  and  C_23
REMARK   17  A    between atoms: C_21  and  C_22
REMARK   18  A    between atoms: C_22  and  C_25
REMARK   19  A    between atoms: C_23  and  C_26
REMARK   20  A    between atoms: C_25  and  C_27
REMARK   21  A    between atoms: C_26  and  C_28
REMARK   22  A    between atoms: C_28  and  C_30
REMARK   23  A    between atoms: C_30  and  C_33
REMARK                            x       y       z     vdW  Elec       q    Type
REMARK                         _______ _______ _______ _____ _____    ______ ____
ROOT
ATOM      1  C   UNL     1       7.996  -1.544   0.000  0.00  0.00    +0.000 C 
ENDROOT
BRANCH   1   2
ATOM      2  C   UNL     1       8.210  -0.747   0.000  0.00  0.00    +0.000 C 
BRANCH   2   3
ATOM      3  C   UNL     1       9.007  -0.534   0.000  0.00  0.00    +0.000 C 
BRANCH   3   4
ATOM      4  C   UNL     1       9.220   0.263   0.000  0.00  0.00    +0.000 C 
BRANCH   4   5
ATOM      5  C   UNL     1      10.017   0.477   0.000  0.00  0.00    +0.000 C 
BRANCH   5   6
ATOM      6  C   UNL     1      10.231   1.274   0.000  0.00  0.00    +0.000 C 
BRANCH   6   7
ATOM      7  C   UNL     1      11.028   1.487   0.000  0.00  0.00    +0.000 C 
BRANCH   7   8
ATOM      8  C   UNL     1      11.241   2.284   0.000  0.00  0.00    +0.000 C 
BRANCH   8   9
ATOM      9  C   UNL     1      12.038   2.498   0.000  0.00  0.00    +0.000 C 
BRANCH   9  10
ATOM     10  C   UNL     1      12.252   3.294   0.000  0.00  0.00    +0.000 C 
BRANCH  10  11
ATOM     11  C   UNL     1      13.049   3.508   0.000  0.00  0.00    +0.000 C 
ATOM     12  C   UNL     1      13.262   4.305   0.000  0.00  0.00    +0.000 C 
ENDBRANCH  10  11
ENDBRANCH   9  10
ENDBRANCH   8   9
ENDBRANCH   7   8
ENDBRANCH   6   7
ENDBRANCH   5   6
ENDBRANCH   4   5
ENDBRANCH   3   4
ENDBRANCH   2   3
ENDBRANCH   1   2
BRANCH   1  13
ATOM     13  C   UNL     1       7.199  -1.758   0.000  0.00  0.00    +0.000 C 
BRANCH  13  16
ATOM     14  O   UNL     1       6.616  -0.349   0.000  0.00  0.00    +0.000 OA
ATOM     15  O   UNL     1       5.208   0.234   0.000  0.00  0.00    +0.000 OA
ATOM     16  C   UNL     1       6.616  -1.174   0.000  0.00  0.00    +0.000 C 
ATOM     17  C   UNL     1       5.791  -1.174   0.000  0.00  0.00    +0.000 C 
ATOM     18  C   UNL     1       5.791  -0.349   0.000  0.00  0.00    +0.000 C 
BRANCH  17  19
ATOM     19  C   UNL     1       5.208  -1.758   0.000  0.00  0.00    +0.000 C 
BRANCH  19  20
ATOM     20  C   UNL     1       4.411  -1.544   0.000  0.00  0.00    +0.000 C 
BRANCH  20  21
ATOM     21  C   UNL     1       3.827  -2.128   0.000  0.00  0.00    +0.000 C 
BRANCH  21  22
ATOM     22  C   UNL     1       3.030  -1.914   0.000  0.00  0.00    +0.000 C 
BRANCH  22  23
ATOM     23  C   UNL     1       2.447  -2.498   0.000  0.00  0.00    +0.000 C 
ATOM     24  C   UNL     1       1.650  -2.284   0.000  0.00  0.00    +0.000 C 
ENDBRANCH  22  23
ENDBRANCH  21  22
ENDBRANCH  20  21
ENDBRANCH  19  20
ENDBRANCH  17  19
ENDBRANCH  13  16
ENDBRANCH   1  13
BRANCH   1  25
ATOM     25  O   UNL     1       8.580  -2.128   0.000  0.00  0.00    +0.000 OA
BRANCH  25  27
ATOM     26  O   UNL     1       9.590  -1.117   0.000  0.00  0.00    +0.000 OA
ATOM     27  C   UNL     1       9.377  -1.914   0.000  0.00  0.00    +0.000 C 
BRANCH  27  28
ATOM     28  C   UNL     1       9.960  -2.498   0.000  0.00  0.00    +0.000 C 
BRANCH  28  30
ATOM     29  O   UNL     1      11.127  -3.664   0.000  0.00  0.00    +0.000 OA
ATOM     30  N   UNL     1      10.757  -2.284   0.000  0.00  0.00    +0.000 NA
ATOM     31  C   UNL     1      11.340  -2.867   0.000  0.00  0.00    +0.000 C 
ENDBRANCH  28  30
BRANCH  28  32
ATOM     32  C   UNL     1       9.746  -3.294   0.000  0.00  0.00    +0.000 C 
BRANCH  32  33
ATOM     33  C   UNL     1       8.950  -3.508   0.000  0.00  0.00    +0.000 C 
ATOM     34  C   UNL     1       8.366  -2.925   0.000  0.00  0.00    +0.000 C 
ATOM     35  C   UNL     1       8.736  -4.305   0.000  0.00  0.00    +0.000 C 
ENDBRANCH  32  33
ENDBRANCH  28  32
ENDBRANCH  27  28
ENDBRANCH  25  27
ENDBRANCH   1  25
TORSDOF 23
