REMARK  Name = 1084
REMARK  4 active torsions:
REMARK  status: ('A' for Active; 'I' for Inactive)
REMARK    1  A    between atoms: O_1  and  C_16
REMARK    2  A    between atoms: O_1  and  C_21
REMARK    3  A    between atoms: N_4  and  C_13
REMARK    4  A    between atoms: C_13  and  C_16
REMARK                            x       y       z     vdW  Elec       q    Type
REMARK                         _______ _______ _______ _____ _____    ______ ____
ROOT
ATOM      1  N   UNL     1       5.166  -1.659   0.000  0.00  0.00    +0.000 N 
ATOM      2  N   UNL     1       6.973  -2.071   0.000  0.00  0.00    +0.000 NA
ATOM      3  N   UNL     1       3.860  -0.995   0.000  0.00  0.00    +0.000 N 
ATOM      4  N   UNL     1       3.860  -2.323   0.000  0.00  0.00    +0.000 NA
ATOM      5  C   UNL     1       5.524  -0.915   0.000  0.00  0.00    +0.000 C 
ATOM      6  C   UNL     1       5.524  -2.402   0.000  0.00  0.00    +0.000 C 
ATOM      7  C   UNL     1       6.329  -0.732   0.000  0.00  0.00    +0.000 C 
ATOM      8  C   UNL     1       6.329  -2.586   0.000  0.00  0.00    +0.000 C 
ATOM      9  C   UNL     1       6.973  -1.246   0.000  0.00  0.00    +0.000 C 
ATOM     10  C   UNL     1       4.341  -1.659   0.000  0.00  0.00    +0.000 A 
ATOM     11  C   UNL     1       3.079  -1.246   0.000  0.00  0.00    +0.000 A 
ATOM     12  C   UNL     1       3.079  -2.071   0.000  0.00  0.00    +0.000 A 
ATOM     13  C   UNL     1       7.717  -2.429   0.000  0.00  0.00    +0.000 C 
ATOM     14  C   UNL     1       2.365  -0.834   0.000  0.00  0.00    +0.000 A 
ATOM     15  C   UNL     1       2.365  -2.484   0.000  0.00  0.00    +0.000 A 
ATOM     16  C   UNL     1       1.650  -1.246   0.000  0.00  0.00    +0.000 A 
ATOM     17  C   UNL     1       1.650  -2.071   0.000  0.00  0.00    +0.000 A 
ENDROOT
BRANCH   3  18
ATOM     18  C   UNL     1       4.116  -0.211   0.000  0.00  0.00    +0.000 C 
BRANCH  18  19
ATOM     19  C   UNL     1       3.565   0.403   0.000  0.00  0.00    +0.000 C 
BRANCH  19  20
ATOM     20  O   UNL     1       3.821   1.188   0.000  0.00  0.00    +0.000 OA
BRANCH  20  21
ATOM     21  C   UNL     1       3.270   1.802   0.000  0.00  0.00    +0.000 C 
ATOM     22  C   UNL     1       3.527   2.586   0.000  0.00  0.00    +0.000 C 
ENDBRANCH  20  21
ENDBRANCH  19  20
ENDBRANCH  18  19
ENDBRANCH   3  18
TORSDOF 4
