REMARK  Name = 1085
REMARK  3 active torsions:
REMARK  status: ('A' for Active; 'I' for Inactive)
REMARK    1  A    between atoms: C_5  and  C_7
REMARK    2  A    between atoms: C_6  and  C_9
REMARK    3  A    between atoms: C_7  and  C_11
REMARK                            x       y       z     vdW  Elec       q    Type
REMARK                         _______ _______ _______ _____ _____    ______ ____
ROOT
ATOM      1  O   UNL     1       4.128  -1.416   0.000  0.00  0.00    +0.000 OA
ATOM      2  O   UNL     1       2.818  -2.083   0.000  0.00  0.00    +0.000 OA
ATOM      3  C   UNL     1       3.715  -0.146   0.000  0.00  0.00    +0.000 C 
ATOM      4  C   UNL     1       3.048  -0.631   0.000  0.00  0.00    +0.000 C 
ATOM      5  C   UNL     1       4.383  -0.631   0.000  0.00  0.00    +0.000 C 
ATOM      6  C   UNL     1       3.303  -1.416   0.000  0.00  0.00    +0.000 C 
ENDROOT
BRANCH   4   7
ATOM      7  C   UNL     1       2.263  -0.376   0.000  0.00  0.00    +0.000 C 
ATOM      8  C   UNL     1       1.650  -0.928   0.000  0.00  0.00    +0.000 C 
ENDBRANCH   4   7
BRANCH   3   9
ATOM      9  C   UNL     1       3.715   0.679   0.000  0.00  0.00    +0.000 C 
BRANCH   9  12
ATOM     10  N   UNL     1       5.183   0.756   0.000  0.00  0.00    +0.000 N 
ATOM     11  N   UNL     1       5.323   2.083   0.000  0.00  0.00    +0.000 NA
ATOM     12  C   UNL     1       4.430   1.091   0.000  0.00  0.00    +0.000 A 
ATOM     13  C   UNL     1       4.516   1.912   0.000  0.00  0.00    +0.000 A 
ATOM     14  C   UNL     1       5.735   1.369   0.000  0.00  0.00    +0.000 A 
ATOM     15  C   UNL     1       5.355  -0.051   0.000  0.00  0.00    +0.000 C 
ENDBRANCH   9  12
ENDBRANCH   3   9
TORSDOF 3
