REMARK  Name = 1086
REMARK  3 active torsions:
REMARK  status: ('A' for Active; 'I' for Inactive)
REMARK    1  A    between atoms: O_1  and  C_10
REMARK    2  A    between atoms: O_1  and  C_11
REMARK    3  A    between atoms: C_4  and  C_10
REMARK                            x       y       z     vdW  Elec       q    Type
REMARK                         _______ _______ _______ _____ _____    ______ ____
ROOT
ATOM      1  N   UNL     1       2.365  -2.347   0.000  0.00  0.00    +0.000 NA
ATOM      2  C   UNL     1       2.365   0.128   0.000  0.00  0.00    +0.000 A 
ATOM      3  C   UNL     1       3.079  -0.285   0.000  0.00  0.00    +0.000 A 
ATOM      4  C   UNL     1       1.650  -0.285   0.000  0.00  0.00    +0.000 A 
ATOM      5  C   UNL     1       2.365  -1.522   0.000  0.00  0.00    +0.000 A 
ATOM      6  C   UNL     1       3.079  -1.110   0.000  0.00  0.00    +0.000 A 
ATOM      7  C   UNL     1       1.650  -1.110   0.000  0.00  0.00    +0.000 A 
ENDROOT
BRANCH   2   9
ATOM      8  O   UNL     1       1.650   1.365   0.000  0.00  0.00    +0.000 OA
ATOM      9  C   UNL     1       2.365   0.953   0.000  0.00  0.00    +0.000 C 
BRANCH   9  10
ATOM     10  O   UNL     1       3.079   1.365   0.000  0.00  0.00    +0.000 OA
BRANCH  10  11
ATOM     11  C   UNL     1       3.079   2.190   0.000  0.00  0.00    +0.000 C 
ATOM     12  C   UNL     1       3.793   2.603   0.000  0.00  0.00    +0.000 C 
ENDBRANCH  10  11
ENDBRANCH   9  10
ENDBRANCH   2   9
TORSDOF 3
