REMARK  Name = 1087
REMARK  6 active torsions:
REMARK  status: ('A' for Active; 'I' for Inactive)
REMARK    1  A    between atoms: O_1  and  C_14
REMARK    2  A    between atoms: N_2  and  C_5
REMARK    3  A    between atoms: N_2  and  C_9
REMARK    4  A    between atoms: C_5  and  C_6
REMARK    5  A    between atoms: C_6  and  C_7
REMARK    6  A    between atoms: C_7  and  C_10
REMARK                            x       y       z     vdW  Elec       q    Type
REMARK                         _______ _______ _______ _____ _____    ______ ____
ROOT
ATOM      1  N   UNL     1       5.689   0.846   0.000  0.00  0.00    +0.000 NA
ATOM      2  C   UNL     1       4.237   0.875   0.000  0.00  0.00    +0.000 A 
ATOM      3  C   UNL     1       4.951   1.287   0.000  0.00  0.00    +0.000 A 
ATOM      4  C   UNL     1       3.522   1.287   0.000  0.00  0.00    +0.000 A 
ATOM      5  C   UNL     1       4.951   2.112   0.000  0.00  0.00    +0.000 A 
ATOM      6  C   UNL     1       3.522   2.112   0.000  0.00  0.00    +0.000 A 
ATOM      7  C   UNL     1       4.237   2.525   0.000  0.00  0.00    +0.000 A 
ATOM      8  C   UNL     1       5.689   2.553   0.000  0.00  0.00    +0.000 A 
ATOM      9  C   UNL     1       6.436   2.129   0.000  0.00  0.00    +0.000 A 
ATOM     10  C   UNL     1       6.436   1.270   0.000  0.00  0.00    +0.000 A 
ENDROOT
BRANCH   6  11
ATOM     11  O   UNL     1       2.808   2.525   0.000  0.00  0.00    +0.000 OA
ATOM     12  C   UNL     1       2.808   3.350   0.000  0.00  0.00    +0.000 C 
ENDBRANCH   6  11
BRANCH   2  13
ATOM     13  N   UNL     1       4.237   0.050   0.000  0.00  0.00    +0.000 NA
BRANCH  13  14
ATOM     14  C   UNL     1       3.522  -0.363   0.000  0.00  0.00    +0.000 C 
ATOM     15  C   UNL     1       2.808   0.050   0.000  0.00  0.00    +0.000 C 
BRANCH  14  16
ATOM     16  C   UNL     1       3.522  -1.188   0.000  0.00  0.00    +0.000 C 
BRANCH  16  17
ATOM     17  C   UNL     1       2.808  -1.601   0.000  0.00  0.00    +0.000 C 
BRANCH  17  19
ATOM     18  N   UNL     1       2.093  -2.838   0.000  0.00  0.00    +0.000 NA
ATOM     19  C   UNL     1       2.808  -2.426   0.000  0.00  0.00    +0.000 C 
ENDBRANCH  17  19
ENDBRANCH  16  17
ENDBRANCH  14  16
ENDBRANCH  13  14
ENDBRANCH   2  13
TORSDOF 6
