REMARK  Name = 1089
REMARK  9 active torsions:
REMARK  status: ('A' for Active; 'I' for Inactive)
REMARK    1  A    between atoms: O_1  and  C_18
REMARK    2  A    between atoms: O_2  and  C_19
REMARK    3  A    between atoms: O_2  and  C_29
REMARK    4  A    between atoms: O_3  and  C_24
REMARK    5  A    between atoms: O_6  and  C_37
REMARK    6  A    between atoms: O_7  and  C_38
REMARK    7  A    between atoms: O_8  and  C_39
REMARK    8  A    between atoms: C_14  and  C_24
REMARK    9  A    between atoms: C_29  and  C_34
REMARK                            x       y       z     vdW  Elec       q    Type
REMARK                         _______ _______ _______ _____ _____    ______ ____
ROOT
ATOM      1  N   UNL     1       5.746   1.746   0.000  0.00  0.00    +0.000 NA
ATOM      2  N   UNL     1       3.723   0.824   0.000  0.00  0.00    +0.000 NA
ATOM      3  C   UNL     1       6.286   0.126   0.000  0.00  0.00    +0.000 C 
ATOM      4  C   UNL     1       6.861   0.765   0.000  0.00  0.00    +0.000 C 
ATOM      5  C   UNL     1       5.447   0.311   0.000  0.00  0.00    +0.000 C 
ATOM      6  C   UNL     1       6.550  -0.729   0.000  0.00  0.00    +0.000 C 
ATOM      7  C   UNL     1       5.194   1.133   0.000  0.00  0.00    +0.000 C 
ATOM      8  C   UNL     1       6.589   1.580   0.000  0.00  0.00    +0.000 C 
ATOM      9  C   UNL     1       7.739   0.592   0.000  0.00  0.00    +0.000 C 
ATOM     10  C   UNL     1       7.424  -0.922   0.000  0.00  0.00    +0.000 C 
ATOM     11  C   UNL     1       8.023  -0.257   0.000  0.00  0.00    +0.000 C 
ATOM     12  C   UNL     1       4.387   1.304   0.000  0.00  0.00    +0.000 A 
ATOM     13  C   UNL     1       5.491   2.530   0.000  0.00  0.00    +0.000 C 
ATOM     14  C   UNL     1       4.684   2.702   0.000  0.00  0.00    +0.000 C 
ATOM     15  C   UNL     1       4.132   2.089   0.000  0.00  0.00    +0.000 A 
ATOM     16  C   UNL     1       3.312   2.087   0.000  0.00  0.00    +0.000 A 
ATOM     17  C   UNL     1       3.059   1.307   0.000  0.00  0.00    +0.000 A 
ATOM     18  C   UNL     1       2.750   2.730   0.000  0.00  0.00    +0.000 A 
ATOM     19  C   UNL     1       2.227   1.115   0.000  0.00  0.00    +0.000 A 
ATOM     20  C   UNL     1       1.913   2.558   0.000  0.00  0.00    +0.000 A 
ATOM     21  C   UNL     1       1.650   1.745   0.000  0.00  0.00    +0.000 A 
ENDROOT
BRANCH   6  23
ATOM     22  O   UNL     1       5.186  -1.155   0.000  0.00  0.00    +0.000 OA
ATOM     23  C   UNL     1       5.991  -1.336   0.000  0.00  0.00    +0.000 C 
BRANCH  23  24
ATOM     24  O   UNL     1       6.236  -2.123   0.000  0.00  0.00    +0.000 OA
ATOM     25  C   UNL     1       5.677  -2.730   0.000  0.00  0.00    +0.000 C 
ENDBRANCH  23  24
ENDBRANCH   6  23
BRANCH  10  26
ATOM     26  O   UNL     1       7.676  -1.707   0.000  0.00  0.00    +0.000 OA
ATOM     27  C   UNL     1       8.482  -1.882   0.000  0.00  0.00    +0.000 C 
ENDBRANCH  10  26
BRANCH  11  28
ATOM     28  O   UNL     1       8.830  -0.425   0.000  0.00  0.00    +0.000 OA
BRANCH  28  30
ATOM     29  O   UNL     1       9.122   0.974   0.000  0.00  0.00    +0.000 OA
ATOM     30  C   UNL     1       9.380   0.190   0.000  0.00  0.00    +0.000 C 
BRANCH  30  31
ATOM     31  C   UNL     1      10.188   0.022   0.000  0.00  0.00    +0.000 A 
ATOM     32  C   UNL     1      10.737   0.637   0.000  0.00  0.00    +0.000 A 
ATOM     33  C   UNL     1      10.445  -0.762   0.000  0.00  0.00    +0.000 A 
ATOM     34  C   UNL     1      11.253  -0.930   0.000  0.00  0.00    +0.000 A 
ATOM     35  C   UNL     1      11.545   0.468   0.000  0.00  0.00    +0.000 A 
ATOM     36  C   UNL     1      11.803  -0.315   0.000  0.00  0.00    +0.000 A 
BRANCH  35  37
ATOM     37  O   UNL     1      12.094   1.084   0.000  0.00  0.00    +0.000 OA
ATOM     38  C   UNL     1      11.836   1.867   0.000  0.00  0.00    +0.000 C 
ENDBRANCH  35  37
BRANCH  36  39
ATOM     39  O   UNL     1      12.610  -0.484   0.000  0.00  0.00    +0.000 OA
ATOM     40  C   UNL     1      13.160   0.132   0.000  0.00  0.00    +0.000 C 
ENDBRANCH  36  39
BRANCH  34  41
ATOM     41  O   UNL     1      11.511  -1.714   0.000  0.00  0.00    +0.000 OA
ATOM     42  C   UNL     1      10.961  -2.329   0.000  0.00  0.00    +0.000 C 
ENDBRANCH  34  41
ENDBRANCH  30  31
ENDBRANCH  28  30
ENDBRANCH  11  28
TORSDOF 9
