REMARK  Name = 1090
REMARK  6 active torsions:
REMARK  status: ('A' for Active; 'I' for Inactive)
REMARK    1  A    between atoms: N_1  and  C_7
REMARK    2  A    between atoms: N_2  and  C_8
REMARK    3  A    between atoms: C_7  and  C_13
REMARK    4  A    between atoms: C_8  and  C_14
REMARK    5  A    between atoms: C_13  and  C_15
REMARK    6  A    between atoms: C_14  and  C_15
REMARK                            x       y       z     vdW  Elec       q    Type
REMARK                         _______ _______ _______ _____ _____    ______ ____
ROOT
ATOM      1  C   UNL     1       4.996  -0.608   0.000  0.00  0.00    +0.000 C 
ENDROOT
BRANCH   1   2
ATOM      2  C   UNL     1       5.481   0.059   0.000  0.00  0.00    +0.000 C 
BRANCH   2   3
ATOM      3  C   UNL     1       6.301  -0.027   0.000  0.00  0.00    +0.000 C 
BRANCH   3   4
ATOM      4  N   UNL     1       6.786   0.641   0.000  0.00  0.00    +0.000 N 
ATOM      5  C   UNL     1       6.119   1.125   0.000  0.00  0.00    +0.000 C 
ATOM      6  C   UNL     1       7.454   1.125   0.000  0.00  0.00    +0.000 C 
ATOM      7  C   UNL     1       6.374   1.910   0.000  0.00  0.00    +0.000 C 
ATOM      8  C   UNL     1       7.199   1.910   0.000  0.00  0.00    +0.000 C 
ATOM      9  C   UNL     1       7.271  -0.027   0.000  0.00  0.00    +0.000 C 
ENDBRANCH   3   4
ENDBRANCH   2   3
ENDBRANCH   1   2
BRANCH   1  10
ATOM     10  C   UNL     1       4.175  -0.522   0.000  0.00  0.00    +0.000 C 
BRANCH  10  11
ATOM     11  C   UNL     1       3.690  -1.189   0.000  0.00  0.00    +0.000 C 
BRANCH  11  12
ATOM     12  N   UNL     1       2.870  -1.103   0.000  0.00  0.00    +0.000 N 
ATOM     13  C   UNL     1       2.063  -1.275   0.000  0.00  0.00    +0.000 C 
ATOM     14  C   UNL     1       2.956  -0.283   0.000  0.00  0.00    +0.000 C 
ATOM     15  C   UNL     1       1.650  -0.560   0.000  0.00  0.00    +0.000 C 
ATOM     16  C   UNL     1       2.202   0.053   0.000  0.00  0.00    +0.000 C 
ATOM     17  C   UNL     1       3.041  -1.910   0.000  0.00  0.00    +0.000 C 
ENDBRANCH  11  12
ENDBRANCH  10  11
ENDBRANCH   1  10
TORSDOF 6
