REMARK  Name = 1091
REMARK  5 active torsions:
REMARK  status: ('A' for Active; 'I' for Inactive)
REMARK    1  A    between atoms: N_1  and  C_7
REMARK    2  A    between atoms: N_1  and  C_11
REMARK    3  A    between atoms: C_2  and  C_3
REMARK    4  A    between atoms: C_7  and  C_8
REMARK    5  A    between atoms: C_11  and  C_14
REMARK                            x       y       z     vdW  Elec       q    Type
REMARK                         _______ _______ _______ _____ _____    ______ ____
ROOT
ATOM      1  N   UNL     1       5.222   0.137   0.000  0.00  0.00    +0.000 NA
ATOM      2  C   UNL     1       4.508   0.549   0.000  0.00  0.00    +0.000 C 
ENDROOT
BRANCH   1   3
ATOM      3  C   UNL     1       5.222  -0.688   0.000  0.00  0.00    +0.000 C 
BRANCH   3   5
ATOM      4  C   UNL     1       3.079  -1.926   0.000  0.00  0.00    +0.000 A 
ATOM      5  C   UNL     1       4.508  -1.101   0.000  0.00  0.00    +0.000 A 
ATOM      6  C   UNL     1       3.793  -2.338   0.000  0.00  0.00    +0.000 A 
ATOM      7  C   UNL     1       3.079  -1.101   0.000  0.00  0.00    +0.000 A 
ATOM      8  C   UNL     1       4.508  -1.926   0.000  0.00  0.00    +0.000 A 
ATOM      9  C   UNL     1       3.793  -0.688   0.000  0.00  0.00    +0.000 A 
BRANCH   4  10
ATOM     10  C   UNL     1       2.365  -2.338   0.000  0.00  0.00    +0.000 C 
ATOM     11  C   UNL     1       1.650  -2.751   0.000  0.00  0.00    +0.000 C 
ATOM     12  C   UNL     1       2.777  -3.053   0.000  0.00  0.00    +0.000 C 
ATOM     13  C   UNL     1       1.952  -1.624   0.000  0.00  0.00    +0.000 C 
ENDBRANCH   4  10
ENDBRANCH   3   5
ENDBRANCH   1   3
BRANCH   1  14
ATOM     14  C   UNL     1       5.937   0.549   0.000  0.00  0.00    +0.000 C 
BRANCH  14  15
ATOM     15  C   UNL     1       5.937   1.374   0.000  0.00  0.00    +0.000 A 
ATOM     16  C   UNL     1       6.652   1.787   0.000  0.00  0.00    +0.000 A 
ATOM     17  C   UNL     1       6.652   2.612   0.000  0.00  0.00    +0.000 A 
ATOM     18  C   UNL     1       5.222   1.787   0.000  0.00  0.00    +0.000 A 
ATOM     19  C   UNL     1       7.389   1.346   0.000  0.00  0.00    +0.000 A 
ATOM     20  C   UNL     1       5.937   3.024   0.000  0.00  0.00    +0.000 A 
ATOM     21  C   UNL     1       5.222   2.612   0.000  0.00  0.00    +0.000 A 
ATOM     22  C   UNL     1       7.389   3.053   0.000  0.00  0.00    +0.000 A 
ATOM     23  C   UNL     1       8.136   1.770   0.000  0.00  0.00    +0.000 A 
ATOM     24  C   UNL     1       8.136   2.629   0.000  0.00  0.00    +0.000 A 
ENDBRANCH  14  15
ENDBRANCH   1  14
TORSDOF 5
