REMARK  Name = 1092
REMARK  4 active torsions:
REMARK  status: ('A' for Active; 'I' for Inactive)
REMARK    1  A    between atoms: O_6  and  C_31
REMARK    2  A    between atoms: O_6  and  C_35
REMARK    3  A    between atoms: C_17  and  C_28
REMARK    4  A    between atoms: C_21  and  C_32
REMARK                            x       y       z     vdW  Elec       q    Type
REMARK                         _______ _______ _______ _____ _____    ______ ____
ROOT
ATOM      1  O   UNL     1       9.399  -1.153   0.000  0.00  0.00    +0.000 OA
ATOM      2  O   UNL     1       7.207  -2.430   0.000  0.00  0.00    +0.000 OA
ATOM      3  O   UNL     1       7.256   0.909   0.000  0.00  0.00    +0.000 OA
ATOM      4  O   UNL     1       5.937   0.361   0.000  0.00  0.00    +0.000 OA
ATOM      5  C   UNL     1       7.970  -0.328   0.000  0.00  0.00    +0.000 C 
ATOM      6  C   UNL     1       8.685  -0.741   0.000  0.00  0.00    +0.000 C 
ATOM      7  C   UNL     1       9.399  -0.328   0.000  0.00  0.00    +0.000 C 
ATOM      8  C   UNL     1       9.399   0.497   0.000  0.00  0.00    +0.000 C 
ATOM      9  C   UNL     1       7.219  -0.746   0.000  0.00  0.00    +0.000 C 
ATOM     10  C   UNL     1       7.213  -1.606   0.000  0.00  0.00    +0.000 C 
ATOM     11  C   UNL     1       7.970   0.497   0.000  0.00  0.00    +0.000 C 
ATOM     12  C   UNL     1       8.685   0.909   0.000  0.00  0.00    +0.000 C 
ATOM     13  C   UNL     1      10.180   0.748   0.000  0.00  0.00    +0.000 C 
ATOM     14  C   UNL     1       8.698  -1.600   0.000  0.00  0.00    +0.000 C 
ATOM     15  C   UNL     1      10.180  -0.580   0.000  0.00  0.00    +0.000 C 
ATOM     16  C   UNL     1       7.957  -2.035   0.000  0.00  0.00    +0.000 C 
ATOM     17  C   UNL     1       6.455  -0.281   0.000  0.00  0.00    +0.000 C 
ATOM     18  C   UNL     1      10.661   0.084   0.000  0.00  0.00    +0.000 C 
ATOM     19  C   UNL     1       6.441  -2.059   0.000  0.00  0.00    +0.000 C 
ATOM     20  C   UNL     1       9.399   1.322   0.000  0.00  0.00    +0.000 C 
ATOM     21  C   UNL     1       5.673  -0.716   0.000  0.00  0.00    +0.000 C 
ATOM     22  C   UNL     1       5.666  -1.612   0.000  0.00  0.00    +0.000 C 
ENDROOT
BRANCH  13  25
ATOM     23  O   UNL     1      10.438   2.867   0.000  0.00  0.00    +0.000 OA
ATOM     24  O   UNL     1      11.891   3.095   0.000  0.00  0.00    +0.000 OA
ATOM     25  C   UNL     1      10.436   1.532   0.000  0.00  0.00    +0.000 C 
ATOM     26  C   UNL     1       9.952   2.201   0.000  0.00  0.00    +0.000 C 
ATOM     27  C   UNL     1      11.221   1.786   0.000  0.00  0.00    +0.000 C 
ATOM     28  C   UNL     1      11.223   2.611   0.000  0.00  0.00    +0.000 C 
ENDBRANCH  13  25
BRANCH   9  30
ATOM     29  O   UNL     1       6.514   0.497   0.000  0.00  0.00    +0.000 OA
ATOM     30  C   UNL     1       7.226   0.079   0.000  0.00  0.00    +0.000 C 
ENDBRANCH   9  30
BRANCH  22  31
ATOM     31  O   UNL     1       4.950  -2.021   0.000  0.00  0.00    +0.000 OA
BRANCH  31  36
ATOM     32  O   UNL     1       4.240  -0.781   0.000  0.00  0.00    +0.000 OA
ATOM     33  O   UNL     1       3.518  -2.841   0.000  0.00  0.00    +0.000 OA
ATOM     34  O   UNL     1       2.092  -2.010   0.000  0.00  0.00    +0.000 OA
ATOM     35  O   UNL     1       2.098  -0.360   0.000  0.00  0.00    +0.000 OA
ATOM     36  C   UNL     1       4.237  -1.606   0.000  0.00  0.00    +0.000 C 
ATOM     37  C   UNL     1       3.521  -2.016   0.000  0.00  0.00    +0.000 C 
ATOM     38  C   UNL     1       2.808  -1.601   0.000  0.00  0.00    +0.000 C 
ATOM     39  C   UNL     1       3.527  -0.366   0.000  0.00  0.00    +0.000 C 
ATOM     40  C   UNL     1       2.811  -0.775   0.000  0.00  0.00    +0.000 C 
ATOM     41  C   UNL     1       3.530   0.459   0.000  0.00  0.00    +0.000 C 
ENDBRANCH  31  36
ENDBRANCH  22  31
TORSDOF 4
