REMARK  Name = 1094
REMARK  2 active torsions:
REMARK  status: ('A' for Active; 'I' for Inactive)
REMARK    1  A    between atoms: O_4  and  C_21
REMARK    2  A    between atoms: C_7  and  C_9
REMARK                            x       y       z     vdW  Elec       q    Type
REMARK                         _______ _______ _______ _____ _____    ______ ____
ROOT
ATOM      1  O   UNL     1       5.937   0.223   0.000  0.00  0.00    +0.000 OA
ATOM      2  O   UNL     1       5.937  -2.252   0.000  0.00  0.00    +0.000 OA
ATOM      3  O   UNL     1       7.379  -2.280   0.000  0.00  0.00    +0.000 OA
ATOM      4  O   UNL     1       8.849   0.243   0.000  0.00  0.00    +0.000 OA
ATOM      5  C   UNL     1       5.222  -0.189   0.000  0.00  0.00    +0.000 C 
ATOM      6  C   UNL     1       5.222  -1.014   0.000  0.00  0.00    +0.000 C 
ATOM      7  C   UNL     1       6.651  -1.014   0.000  0.00  0.00    +0.000 A 
ATOM      8  C   UNL     1       5.937  -1.427   0.000  0.00  0.00    +0.000 C 
ATOM      9  C   UNL     1       6.651  -0.189   0.000  0.00  0.00    +0.000 A 
ATOM     10  C   UNL     1       7.389  -1.456   0.000  0.00  0.00    +0.000 A 
ATOM     11  C   UNL     1       7.389   0.252   0.000  0.00  0.00    +0.000 A 
ATOM     12  C   UNL     1       8.136  -1.032   0.000  0.00  0.00    +0.000 A 
ATOM     13  C   UNL     1       8.136  -0.172   0.000  0.00  0.00    +0.000 A 
ENDROOT
BRANCH   5  15
ATOM     14  O   UNL     1       3.793   2.286   0.000  0.00  0.00    +0.000 OA
ATOM     15  C   UNL     1       4.508   0.223   0.000  0.00  0.00    +0.000 A 
ATOM     16  C   UNL     1       4.508   1.048   0.000  0.00  0.00    +0.000 A 
ATOM     17  C   UNL     1       3.793  -0.189   0.000  0.00  0.00    +0.000 A 
ATOM     18  C   UNL     1       3.793   1.461   0.000  0.00  0.00    +0.000 A 
ATOM     19  C   UNL     1       3.079   0.223   0.000  0.00  0.00    +0.000 A 
ATOM     20  C   UNL     1       3.079   1.048   0.000  0.00  0.00    +0.000 A 
BRANCH  20  21
ATOM     21  O   UNL     1       2.364   1.461   0.000  0.00  0.00    +0.000 OA
ATOM     22  C   UNL     1       1.650   1.048   0.000  0.00  0.00    +0.000 C 
ENDBRANCH  20  21
ENDBRANCH   5  15
TORSDOF 2
