REMARK  Name = 1096
REMARK  5 active torsions:
REMARK  status: ('A' for Active; 'I' for Inactive)
REMARK    1  A    between atoms: N_5  and  C_10
REMARK    2  A    between atoms: N_5  and  C_14
REMARK    3  A    between atoms: N_6  and  C_17
REMARK    4  A    between atoms: C_7  and  C_10
REMARK    5  A    between atoms: C_16  and  C_20
REMARK                            x       y       z     vdW  Elec       q    Type
REMARK                         _______ _______ _______ _____ _____    ______ ____
ROOT
ATOM      1  N   UNL     1       5.245  -0.969   0.000  0.00  0.00    +0.000 NA
ATOM      2  C   UNL     1       5.993  -0.545   0.000  0.00  0.00    +0.000 C 
ATOM      3  C   UNL     1       5.993   0.315   0.000  0.00  0.00    +0.000 C 
ATOM      4  C   UNL     1       5.245   0.739   0.000  0.00  0.00    +0.000 C 
ATOM      5  C   UNL     1       4.508   0.297   0.000  0.00  0.00    +0.000 A 
ATOM      6  C   UNL     1       4.508  -0.528   0.000  0.00  0.00    +0.000 A 
ATOM      7  C   UNL     1       3.793   0.710   0.000  0.00  0.00    +0.000 A 
ATOM      8  C   UNL     1       3.793  -0.940   0.000  0.00  0.00    +0.000 A 
ATOM      9  C   UNL     1       3.079   0.297   0.000  0.00  0.00    +0.000 A 
ATOM     10  C   UNL     1       3.079  -0.528   0.000  0.00  0.00    +0.000 A 
ENDROOT
BRANCH  10  13
ATOM     11  O   UNL     1       2.365  -1.765   0.000  0.00  0.00    +0.000 OA
ATOM     12  O   UNL     1       1.650  -0.528   0.000  0.00  0.00    +0.000 OA
ATOM     13  N   UNL     1       2.365  -0.940   0.000  0.00  0.00    +0.000 N 
ENDBRANCH  10  13
BRANCH   9  15
ATOM     14  O   UNL     1       2.365   1.535   0.000  0.00  0.00    +0.000 OA
ATOM     15  C   UNL     1       2.365   0.710   0.000  0.00  0.00    +0.000 C 
ENDBRANCH   9  15
BRANCH   2  16
ATOM     16  C   UNL     1       6.706  -0.960   0.000  0.00  0.00    +0.000 C 
BRANCH  16  17
ATOM     17  N   UNL     1       7.422  -0.550   0.000  0.00  0.00    +0.000 NA
BRANCH  17  18
ATOM     18  C   UNL     1       8.135  -0.966   0.000  0.00  0.00    +0.000 C 
ATOM     19  C   UNL     1       8.851  -0.556   0.000  0.00  0.00    +0.000 C 
ATOM     20  C   UNL     1       8.132  -1.791   0.000  0.00  0.00    +0.000 C 
ENDBRANCH  17  18
ENDBRANCH  16  17
ENDBRANCH   2  16
TORSDOF 5
