REMARK  Name = 1097
REMARK  3 active torsions:
REMARK  status: ('A' for Active; 'I' for Inactive)
REMARK    1  A    between atoms: N_6  and  C_8
REMARK    2  A    between atoms: C_9  and  C_17
REMARK    3  A    between atoms: C_10  and  C_15
REMARK                            x       y       z     vdW  Elec       q    Type
REMARK                         _______ _______ _______ _____ _____    ______ ____
ROOT
ATOM      1  C   UNL     1       3.817   0.016   0.000  0.00  0.00    +0.000 A 
ATOM      2  C   UNL     1       3.817   1.666   0.000  0.00  0.00    +0.000 A 
ATOM      3  C   UNL     1       4.531   0.428   0.000  0.00  0.00    +0.000 A 
ATOM      4  C   UNL     1       3.102   0.428   0.000  0.00  0.00    +0.000 A 
ATOM      5  C   UNL     1       4.531   1.254   0.000  0.00  0.00    +0.000 A 
ATOM      6  C   UNL     1       3.102   1.254   0.000  0.00  0.00    +0.000 A 
ENDROOT
BRANCH   2  10
ATOM      7  F   UNL     1       2.991   2.491   0.000  0.00  0.00    +0.000 F 
ATOM      8  F   UNL     1       4.642   2.491   0.000  0.00  0.00    +0.000 F 
ATOM      9  F   UNL     1       3.817   3.316   0.000  0.00  0.00    +0.000 F 
ATOM     10  C   UNL     1       3.817   2.491   0.000  0.00  0.00    +0.000 C 
ENDBRANCH   2  10
BRANCH   1  12
ATOM     11  O   UNL     1       2.388  -0.809   0.000  0.00  0.00    +0.000 OA
ATOM     12  N   UNL     1       3.817  -0.809   0.000  0.00  0.00    +0.000 NA
ATOM     13  C   UNL     1       3.102  -1.222   0.000  0.00  0.00    +0.000 C 
BRANCH  13  16
ATOM     14  O   UNL     1       2.690  -3.316   0.000  0.00  0.00    +0.000 OA
ATOM     15  N   UNL     1       3.515  -3.316   0.000  0.00  0.00    +0.000 NA
ATOM     16  C   UNL     1       3.102  -2.046   0.000  0.00  0.00    +0.000 A 
ATOM     17  C   UNL     1       2.435  -2.531   0.000  0.00  0.00    +0.000 A 
ATOM     18  C   UNL     1       3.769  -2.531   0.000  0.00  0.00    +0.000 A 
ATOM     19  C   UNL     1       1.650  -2.276   0.000  0.00  0.00    +0.000 C 
ENDBRANCH  13  16
ENDBRANCH   1  12
TORSDOF 3
