REMARK  Name = 10U
REMARK  7 active torsions:
REMARK  status: ('A' for Active; 'I' for Inactive)
REMARK    1  A    between atoms: C_2  and  C_4
REMARK    2  A    between atoms: C_4  and  N_22
REMARK    3  A    between atoms: C_8  and  C_9
REMARK    4  A    between atoms: N_10  and  C_11
REMARK    5  A    between atoms: C_11  and  C_12
REMARK    6  A    between atoms: C_15  and  C_16
REMARK    7  A    between atoms: N_22  and  C_23
REMARK                            x       y       z     vdW  Elec       q    Type
REMARK                         _______ _______ _______ _____ _____    ______ ____
ROOT
ATOM      1  N   UNL     1       0.024   0.991   0.000  0.00  0.00    +0.000 N 
ATOM      2  C   UNL     1       0.809   1.246   0.000  0.00  0.00    +0.000 C 
ATOM      3  O   UNL     1       1.422   0.694   0.000  0.00  0.00    +0.000 OA
ATOM      4  C   UNL     1      -0.643   1.476   0.000  0.00  0.00    +0.000 C 
ATOM      5  C   UNL     1      -1.310   0.991   0.000  0.00  0.00    +0.000 C 
ATOM      6  C   UNL     1      -1.056   0.206   0.000  0.00  0.00    +0.000 C 
ATOM      7  C   UNL     1      -0.231   0.206   0.000  0.00  0.00    +0.000 C 
ENDROOT
BRANCH   7   8
ATOM      8  C   UNL     1       0.254  -0.461   0.000  0.00  0.00    +0.000 C 
ATOM      9  N   UNL     1      -0.081  -1.215   0.000  0.00  0.00    +0.000 NA
ATOM     10  O   UNL     1       1.075  -0.375   0.000  0.00  0.00    +0.000 OA
BRANCH   9  11
ATOM     11  C   UNL     1       0.404  -1.882   0.000  0.00  0.00    +0.000 C 
BRANCH  11  12
ATOM     12  C   UNL     1       0.068  -2.636   0.000  0.00  0.00    +0.000 A 
ATOM     13  C   UNL     1      -0.752  -2.722   0.000  0.00  0.00    +0.000 A 
ATOM     14  C   UNL     1      -1.088  -3.476   0.000  0.00  0.00    +0.000 A 
ATOM     15  C   UNL     1      -0.603  -4.144   0.000  0.00  0.00    +0.000 A 
ATOM     16  C   UNL     1       0.217  -4.057   0.000  0.00  0.00    +0.000 A 
ATOM     17  C   UNL     1       0.553  -3.304   0.000  0.00  0.00    +0.000 A 
BRANCH  15  18
ATOM     18  C   UNL     1      -0.939  -4.897   0.000  0.00  0.00    +0.000 C 
ATOM     19  N   UNL     1      -0.454  -5.565   0.000  0.00  0.00    +0.000 NA
ATOM     20  N   UNL     1      -1.759  -4.983   0.000  0.00  0.00    +0.000 NA
ENDBRANCH  15  18
ENDBRANCH  11  12
ENDBRANCH   9  11
ENDBRANCH   7   8
BRANCH   2  21
ATOM     21  C   UNL     1       0.981   2.053   0.000  0.00  0.00    +0.000 C 
BRANCH  21  22
ATOM     22  N   UNL     1       1.765   2.308   0.000  0.00  0.00    +0.000 NA
BRANCH  22  23
ATOM     23  C   UNL     1       1.937   3.115   0.000  0.00  0.00    +0.000 C 
ATOM     24  C   UNL     1       2.690   3.450   0.000  0.00  0.00    +0.000 C 
ATOM     25  C   UNL     1       2.604   4.271   0.000  0.00  0.00    +0.000 C 
ATOM     26  C   UNL     1       1.797   4.442   0.000  0.00  0.00    +0.000 C 
ATOM     27  C   UNL     1       1.385   3.728   0.000  0.00  0.00    +0.000 C 
ENDBRANCH  22  23
ENDBRANCH  21  22
ENDBRANCH   2  21
TORSDOF 7
