REMARK  Name = 1100
REMARK  7 active torsions:
REMARK  status: ('A' for Active; 'I' for Inactive)
REMARK    1  A    between atoms: N_4  and  C_12
REMARK    2  A    between atoms: N_5  and  C_7
REMARK    3  A    between atoms: C_12  and  C_13
REMARK    4  A    between atoms: C_13  and  C_15
REMARK    5  A    between atoms: C_15  and  C_17
REMARK    6  A    between atoms: C_17  and  C_20
REMARK    7  A    between atoms: C_17  and  C_21
REMARK                            x       y       z     vdW  Elec       q    Type
REMARK                         _______ _______ _______ _____ _____    ______ ____
ROOT
ATOM      1  C   UNL     1       4.885   0.345   0.000  0.00  0.00    +0.000 C 
ENDROOT
BRANCH   1   2
ATOM      2  N   UNL     1       4.628  -0.439   0.000  0.00  0.00    +0.000 NA
ATOM      3  C   UNL     1       4.116  -2.008   0.000  0.00  0.00    +0.000 C 
ATOM      4  C   UNL     1       4.923  -1.838   0.000  0.00  0.00    +0.000 C 
ATOM      5  C   UNL     1       3.565  -1.394   0.000  0.00  0.00    +0.000 C 
ATOM      6  C   UNL     1       5.179  -1.054   0.000  0.00  0.00    +0.000 C 
ATOM      7  C   UNL     1       3.821  -0.610   0.000  0.00  0.00    +0.000 C 
BRANCH   3   9
ATOM      8  O   UNL     1       5.166  -3.456   0.000  0.00  0.00    +0.000 OA
ATOM      9  N   UNL     1       3.860  -2.792   0.000  0.00  0.00    +0.000 N 
ATOM     10  N   UNL     1       3.860  -4.120   0.000  0.00  0.00    +0.000 NA
ATOM     11  C   UNL     1       3.079  -3.043   0.000  0.00  0.00    +0.000 A 
ATOM     12  C   UNL     1       4.341  -3.456   0.000  0.00  0.00    +0.000 A 
ATOM     13  C   UNL     1       3.079  -3.868   0.000  0.00  0.00    +0.000 A 
ATOM     14  C   UNL     1       2.365  -2.631   0.000  0.00  0.00    +0.000 A 
ATOM     15  C   UNL     1       2.365  -4.281   0.000  0.00  0.00    +0.000 A 
ATOM     16  C   UNL     1       1.650  -3.043   0.000  0.00  0.00    +0.000 A 
ATOM     17  C   UNL     1       1.650  -3.868   0.000  0.00  0.00    +0.000 A 
ENDBRANCH   3   9
ENDBRANCH   1   2
BRANCH   1  18
ATOM     18  C   UNL     1       5.692   0.515   0.000  0.00  0.00    +0.000 C 
BRANCH  18  19
ATOM     19  C   UNL     1       5.948   1.299   0.000  0.00  0.00    +0.000 C 
BRANCH  19  20
ATOM     20  C   UNL     1       6.756   1.469   0.000  0.00  0.00    +0.000 C 
BRANCH  20  22
ATOM     21  F   UNL     1       7.781   4.606   0.000  0.00  0.00    +0.000 F 
ATOM     22  C   UNL     1       7.012   2.253   0.000  0.00  0.00    +0.000 A 
ATOM     23  C   UNL     1       6.461   2.868   0.000  0.00  0.00    +0.000 A 
ATOM     24  C   UNL     1       7.819   2.424   0.000  0.00  0.00    +0.000 A 
ATOM     25  C   UNL     1       6.717   3.652   0.000  0.00  0.00    +0.000 A 
ATOM     26  C   UNL     1       8.075   3.208   0.000  0.00  0.00    +0.000 A 
ATOM     27  C   UNL     1       7.525   3.822   0.000  0.00  0.00    +0.000 A 
ENDBRANCH  20  22
BRANCH  20  29
ATOM     28  F   UNL     1       8.960  -0.987   0.000  0.00  0.00    +0.000 F 
ATOM     29  C   UNL     1       7.307   0.855   0.000  0.00  0.00    +0.000 A 
ATOM     30  C   UNL     1       8.114   1.025   0.000  0.00  0.00    +0.000 A 
ATOM     31  C   UNL     1       7.050   0.071   0.000  0.00  0.00    +0.000 A 
ATOM     32  C   UNL     1       8.665   0.411   0.000  0.00  0.00    +0.000 A 
ATOM     33  C   UNL     1       7.601  -0.543   0.000  0.00  0.00    +0.000 A 
ATOM     34  C   UNL     1       8.409  -0.373   0.000  0.00  0.00    +0.000 A 
ENDBRANCH  20  29
ENDBRANCH  19  20
ENDBRANCH  18  19
ENDBRANCH   1  18
TORSDOF 7
