REMARK  Name = 1101
REMARK  6 active torsions:
REMARK  status: ('A' for Active; 'I' for Inactive)
REMARK    1  A    between atoms: O_6  and  C_23
REMARK    2  A    between atoms: O_6  and  C_24
REMARK    3  A    between atoms: N_8  and  C_13
REMARK    4  A    between atoms: C_20  and  C_21
REMARK    5  A    between atoms: C_20  and  C_22
REMARK    6  A    between atoms: C_21  and  C_23
REMARK                            x       y       z     vdW  Elec       q    Type
REMARK                         _______ _______ _______ _____ _____    ______ ____
ROOT
ATOM      1  F   UNL     1       5.937  -0.035   0.000  0.00  0.00    +0.000 F 
ATOM      2  O   UNL     1       3.079  -1.685   0.000  0.00  0.00    +0.000 OA
ATOM      3  O   UNL     1       3.079   0.790   0.000  0.00  0.00    +0.000 OA
ATOM      4  N   UNL     1       4.508  -1.685   0.000  0.00  0.00    +0.000 N 
ATOM      5  N   UNL     1       3.793  -0.448   0.000  0.00  0.00    +0.000 NA
ATOM      6  N   UNL     1       4.508   0.790   0.000  0.00  0.00    +0.000 NA
ATOM      7  C   UNL     1       5.222  -1.273   0.000  0.00  0.00    +0.000 A 
ATOM      8  C   UNL     1       3.793  -1.273   0.000  0.00  0.00    +0.000 A 
ATOM      9  C   UNL     1       5.222  -0.448   0.000  0.00  0.00    +0.000 A 
ATOM     10  C   UNL     1       4.508  -0.035   0.000  0.00  0.00    +0.000 A 
ATOM     11  C   UNL     1       3.793   1.202   0.000  0.00  0.00    +0.000 C 
ENDROOT
BRANCH   4  17
ATOM     12  O   UNL     1       5.175  -2.995   0.000  0.00  0.00    +0.000 OA
ATOM     13  O   UNL     1       3.056  -2.740   0.000  0.00  0.00    +0.000 OA
ATOM     14  O   UNL     1       3.611  -4.447   0.000  0.00  0.00    +0.000 OA
ATOM     15  C   UNL     1       3.841  -2.995   0.000  0.00  0.00    +0.000 C 
ATOM     16  C   UNL     1       4.096  -3.780   0.000  0.00  0.00    +0.000 C 
ATOM     17  C   UNL     1       4.508  -2.510   0.000  0.00  0.00    +0.000 C 
ATOM     18  C   UNL     1       4.920  -3.780   0.000  0.00  0.00    +0.000 C 
ATOM     19  C   UNL     1       5.405  -4.447   0.000  0.00  0.00    +0.000 C 
ENDBRANCH   4  17
BRANCH  11  20
ATOM     20  O   UNL     1       3.793   2.027   0.000  0.00  0.00    +0.000 OA
BRANCH  20  21
ATOM     21  C   UNL     1       3.079   2.440   0.000  0.00  0.00    +0.000 C 
BRANCH  21  22
ATOM     22  C   UNL     1       3.079   3.265   0.000  0.00  0.00    +0.000 C 
BRANCH  22  23
ATOM     23  C   UNL     1       2.365   3.677   0.000  0.00  0.00    +0.000 C 
BRANCH  23  24
ATOM     24  C   UNL     1       2.365   4.502   0.000  0.00  0.00    +0.000 C 
ATOM     25  C   UNL     1       1.650   4.915   0.000  0.00  0.00    +0.000 C 
ENDBRANCH  23  24
ENDBRANCH  22  23
ENDBRANCH  21  22
ENDBRANCH  20  21
ENDBRANCH  11  20
TORSDOF 6
