REMARK  Name = 1102
REMARK  8 active torsions:
REMARK  status: ('A' for Active; 'I' for Inactive)
REMARK    1  A    between atoms: N_5  and  C_8
REMARK    2  A    between atoms: N_5  and  C_9
REMARK    3  A    between atoms: C_6  and  C_7
REMARK    4  A    between atoms: C_6  and  C_8
REMARK    5  A    between atoms: C_7  and  C_10
REMARK    6  A    between atoms: C_9  and  C_11
REMARK    7  A    between atoms: C_10  and  C_12
REMARK    8  A    between atoms: C_11  and  C_13
REMARK                            x       y       z     vdW  Elec       q    Type
REMARK                         _______ _______ _______ _____ _____    ______ ____
ROOT
ATOM      1  N   UNL     1       4.237   0.078   0.000  0.00  0.00    +0.000 NA
ENDROOT
BRANCH   1   2
ATOM      2  C   UNL     1       4.951   0.491   0.000  0.00  0.00    +0.000 C 
BRANCH   2   3
ATOM      3  C   UNL     1       4.951   1.316   0.000  0.00  0.00    +0.000 C 
BRANCH   3   4
ATOM      4  C   UNL     1       5.665   1.728   0.000  0.00  0.00    +0.000 C 
BRANCH   4   5
ATOM      5  C   UNL     1       5.665   2.553   0.000  0.00  0.00    +0.000 C 
BRANCH   5   7
ATOM      6  O   UNL     1       8.523   4.204   0.000  0.00  0.00    +0.000 OA
ATOM      7  C   UNL     1       6.380   2.966   0.000  0.00  0.00    +0.000 A 
ATOM      8  C   UNL     1       6.380   3.791   0.000  0.00  0.00    +0.000 A 
ATOM      9  C   UNL     1       7.094   2.553   0.000  0.00  0.00    +0.000 A 
ATOM     10  C   UNL     1       7.094   4.204   0.000  0.00  0.00    +0.000 A 
ATOM     11  C   UNL     1       7.809   2.966   0.000  0.00  0.00    +0.000 A 
ATOM     12  C   UNL     1       7.809   3.791   0.000  0.00  0.00    +0.000 A 
ENDBRANCH   5   7
ENDBRANCH   4   5
ENDBRANCH   3   4
ENDBRANCH   2   3
ENDBRANCH   1   2
BRANCH   1  13
ATOM     13  C   UNL     1       4.237  -0.747   0.000  0.00  0.00    +0.000 C 
BRANCH  13  15
ATOM     14  O   UNL     1       2.808  -0.747   0.000  0.00  0.00    +0.000 OA
ATOM     15  C   UNL     1       3.522  -1.159   0.000  0.00  0.00    +0.000 C 
BRANCH  15  18
ATOM     16  O   UNL     1       2.093  -3.634   0.000  0.00  0.00    +0.000 OA
ATOM     17  O   UNL     1       3.522  -4.459   0.000  0.00  0.00    +0.000 OA
ATOM     18  C   UNL     1       3.522  -1.984   0.000  0.00  0.00    +0.000 A 
ATOM     19  C   UNL     1       2.808  -2.397   0.000  0.00  0.00    +0.000 A 
ATOM     20  C   UNL     1       4.237  -2.397   0.000  0.00  0.00    +0.000 A 
ATOM     21  C   UNL     1       2.808  -3.222   0.000  0.00  0.00    +0.000 A 
ATOM     22  C   UNL     1       4.237  -3.222   0.000  0.00  0.00    +0.000 A 
ATOM     23  C   UNL     1       3.522  -3.634   0.000  0.00  0.00    +0.000 A 
ENDBRANCH  15  18
ENDBRANCH  13  15
ENDBRANCH   1  13
TORSDOF 8
