REMARK  Name = 1103
REMARK  9 active torsions:
REMARK  status: ('A' for Active; 'I' for Inactive)
REMARK    1  A    between atoms: O_2  and  C_24
REMARK    2  A    between atoms: N_3  and  C_9
REMARK    3  A    between atoms: N_3  and  C_12
REMARK    4  A    between atoms: N_3  and  C_13
REMARK    5  A    between atoms: N_4  and  C_6
REMARK    6  A    between atoms: N_4  and  C_10
REMARK    7  A    between atoms: C_6  and  C_7
REMARK    8  A    between atoms: C_7  and  C_8
REMARK    9  A    between atoms: C_8  and  C_9
REMARK                            x       y       z     vdW  Elec       q    Type
REMARK                         _______ _______ _______ _____ _____    ______ ____
ROOT
ATOM      1 CL   UNL     1       2.310  -3.305   0.000  0.00  0.00    +0.000 Cl
ATOM      2  N   UNL     1       5.222  -3.285   0.000  0.00  0.00    +0.000 NA
ATOM      3  C   UNL     1       5.222  -1.635   0.000  0.00  0.00    +0.000 A 
ATOM      4  C   UNL     1       5.936  -2.048   0.000  0.00  0.00    +0.000 A 
ATOM      5  C   UNL     1       4.507  -2.048   0.000  0.00  0.00    +0.000 A 
ATOM      6  C   UNL     1       5.936  -2.873   0.000  0.00  0.00    +0.000 A 
ATOM      7  C   UNL     1       4.507  -2.873   0.000  0.00  0.00    +0.000 A 
ATOM      8  C   UNL     1       6.673  -1.607   0.000  0.00  0.00    +0.000 A 
ATOM      9  C   UNL     1       3.770  -1.607   0.000  0.00  0.00    +0.000 A 
ATOM     10  C   UNL     1       6.673  -3.314   0.000  0.00  0.00    +0.000 A 
ATOM     11  C   UNL     1       3.770  -3.314   0.000  0.00  0.00    +0.000 A 
ATOM     12  C   UNL     1       7.421  -2.031   0.000  0.00  0.00    +0.000 A 
ATOM     13  C   UNL     1       7.421  -2.890   0.000  0.00  0.00    +0.000 A 
ATOM     14  C   UNL     1       3.022  -2.031   0.000  0.00  0.00    +0.000 A 
ATOM     15  C   UNL     1       3.022  -2.890   0.000  0.00  0.00    +0.000 A 
ENDROOT
BRANCH  12  16
ATOM     16  O   UNL     1       8.134  -1.616   0.000  0.00  0.00    +0.000 OA
ATOM     17  C   UNL     1       8.850  -2.025   0.000  0.00  0.00    +0.000 C 
ENDBRANCH  12  16
BRANCH   3  18
ATOM     18  N   UNL     1       5.222  -0.811   0.000  0.00  0.00    +0.000 NA
BRANCH  18  19
ATOM     19  C   UNL     1       4.507  -0.398   0.000  0.00  0.00    +0.000 C 
ATOM     20  C   UNL     1       3.793  -0.811   0.000  0.00  0.00    +0.000 C 
BRANCH  19  21
ATOM     21  C   UNL     1       4.507   0.427   0.000  0.00  0.00    +0.000 C 
BRANCH  21  22
ATOM     22  C   UNL     1       3.793   0.839   0.000  0.00  0.00    +0.000 C 
BRANCH  22  23
ATOM     23  C   UNL     1       3.793   1.664   0.000  0.00  0.00    +0.000 C 
BRANCH  23  24
ATOM     24  N   UNL     1       3.079   2.076   0.000  0.00  0.00    +0.000 NA
BRANCH  24  25
ATOM     25  C   UNL     1       3.079   2.901   0.000  0.00  0.00    +0.000 C 
ATOM     26  C   UNL     1       2.364   3.314   0.000  0.00  0.00    +0.000 C 
ENDBRANCH  24  25
BRANCH  24  27
ATOM     27  C   UNL     1       2.364   1.664   0.000  0.00  0.00    +0.000 C 
ATOM     28  C   UNL     1       1.650   2.076   0.000  0.00  0.00    +0.000 C 
ENDBRANCH  24  27
ENDBRANCH  23  24
ENDBRANCH  22  23
ENDBRANCH  21  22
ENDBRANCH  19  21
ENDBRANCH  18  19
ENDBRANCH   3  18
TORSDOF 9
