REMARK  Name = 1104
REMARK  2 active torsions:
REMARK  status: ('A' for Active; 'I' for Inactive)
REMARK    1  A    between atoms: N_3  and  C_6
REMARK    2  A    between atoms: C_4  and  C_10
REMARK                            x       y       z     vdW  Elec       q    Type
REMARK                         _______ _______ _______ _____ _____    ______ ____
ROOT
ATOM      1  C   UNL     1       3.079   0.206   0.000  0.00  0.00    +0.000 C 
ATOM      2  C   UNL     1       2.364   0.619   0.000  0.00  0.00    +0.000 C 
ATOM      3  C   UNL     1       3.079   1.856   0.000  0.00  0.00    +0.000 C 
ATOM      4  C   UNL     1       2.364   1.444   0.000  0.00  0.00    +0.000 C 
ATOM      5  C   UNL     1       3.793   0.619   0.000  0.00  0.00    +0.000 A 
ATOM      6  C   UNL     1       3.793   1.444   0.000  0.00  0.00    +0.000 A 
ATOM      7  C   UNL     1       4.530   0.178   0.000  0.00  0.00    +0.000 A 
ATOM      8  C   UNL     1       4.530   1.885   0.000  0.00  0.00    +0.000 A 
ATOM      9  C   UNL     1       5.278   0.602   0.000  0.00  0.00    +0.000 A 
ATOM     10  C   UNL     1       5.278   1.461   0.000  0.00  0.00    +0.000 A 
ENDROOT
BRANCH   1  13
ATOM     11 CL   UNL     1       1.650  -2.268   0.000  0.00  0.00    +0.000 Cl
ATOM     12 CL   UNL     1       3.079  -3.093   0.000  0.00  0.00    +0.000 Cl
ATOM     13  C   UNL     1       3.079  -0.619   0.000  0.00  0.00    +0.000 A 
ATOM     14  C   UNL     1       2.364  -1.031   0.000  0.00  0.00    +0.000 A 
ATOM     15  C   UNL     1       3.793  -1.031   0.000  0.00  0.00    +0.000 A 
ATOM     16  C   UNL     1       2.364  -1.856   0.000  0.00  0.00    +0.000 A 
ATOM     17  C   UNL     1       3.793  -1.856   0.000  0.00  0.00    +0.000 A 
ATOM     18  C   UNL     1       3.079  -2.268   0.000  0.00  0.00    +0.000 A 
ENDBRANCH   1  13
BRANCH   3  19
ATOM     19  N   UNL     1       3.079   2.681   0.000  0.00  0.00    +0.000 NA
ATOM     20  C   UNL     1       2.364   3.093   0.000  0.00  0.00    +0.000 C 
ENDBRANCH   3  19
TORSDOF 2
