REMARK  Name = 1105
REMARK  5 active torsions:
REMARK  status: ('A' for Active; 'I' for Inactive)
REMARK    1  A    between atoms: N_2  and  C_6
REMARK    2  A    between atoms: C_3  and  C_6
REMARK    3  A    between atoms: C_3  and  C_8
REMARK    4  A    between atoms: C_6  and  C_9
REMARK    5  A    between atoms: C_9  and  C_10
REMARK                            x       y       z     vdW  Elec       q    Type
REMARK                         _______ _______ _______ _____ _____    ______ ____
ROOT
ATOM      1  C   UNL     1       4.125   0.936   0.000  0.00  0.00    +0.000 C 
ATOM      2  C   UNL     1       4.950   0.936   0.000  0.00  0.00    +0.000 C 
ATOM      3  C   UNL     1       4.125   1.761   0.000  0.00  0.00    +0.000 C 
ATOM      4  C   UNL     1       4.950   1.761   0.000  0.00  0.00    +0.000 C 
ENDROOT
BRANCH   1   6
ATOM      5 CL   UNL     1       4.125  -2.365   0.000  0.00  0.00    +0.000 Cl
ATOM      6  C   UNL     1       4.125   0.111   0.000  0.00  0.00    +0.000 A 
ATOM      7  C   UNL     1       4.840  -0.302   0.000  0.00  0.00    +0.000 A 
ATOM      8  C   UNL     1       3.411  -0.302   0.000  0.00  0.00    +0.000 A 
ATOM      9  C   UNL     1       4.840  -1.127   0.000  0.00  0.00    +0.000 A 
ATOM     10  C   UNL     1       3.411  -1.127   0.000  0.00  0.00    +0.000 A 
ATOM     11  C   UNL     1       4.125  -1.540   0.000  0.00  0.00    +0.000 A 
ENDBRANCH   1   6
BRANCH   1  12
ATOM     12  C   UNL     1       3.300   0.936   0.000  0.00  0.00    +0.000 C 
BRANCH  12  13
ATOM     13  N   UNL     1       2.888   1.650   0.000  0.00  0.00    +0.000 NA
ATOM     14  C   UNL     1       2.062   1.650   0.000  0.00  0.00    +0.000 C 
ATOM     15  C   UNL     1       3.300   2.365   0.000  0.00  0.00    +0.000 C 
ENDBRANCH  12  13
BRANCH  12  16
ATOM     16  C   UNL     1       2.888   0.221   0.000  0.00  0.00    +0.000 C 
BRANCH  16  17
ATOM     17  C   UNL     1       2.062   0.221   0.000  0.00  0.00    +0.000 C 
ATOM     18  C   UNL     1       1.650  -0.493   0.000  0.00  0.00    +0.000 C 
ATOM     19  C   UNL     1       1.650   0.936   0.000  0.00  0.00    +0.000 C 
ENDBRANCH  16  17
ENDBRANCH  12  16
ENDBRANCH   1  12
TORSDOF 5
