REMARK  Name = 1107
REMARK  2 active torsions:
REMARK  status: ('A' for Active; 'I' for Inactive)
REMARK    1  A    between atoms: C_4  and  C_7
REMARK    2  A    between atoms: C_4  and  C_8
REMARK                            x       y       z     vdW  Elec       q    Type
REMARK                         _______ _______ _______ _____ _____    ______ ____
ROOT
ATOM      1  O   UNL     1       1.650   0.111   0.000  0.00  0.00    +0.000 OA
ATOM      2  O   UNL     1       4.508   0.111   0.000  0.00  0.00    +0.000 OA
ATOM      3  N   UNL     1       3.793  -1.127   0.000  0.00  0.00    +0.000 NA
ATOM      4  C   UNL     1       3.079   0.111   0.000  0.00  0.00    +0.000 C 
ATOM      5  C   UNL     1       2.365  -1.127   0.000  0.00  0.00    +0.000 C 
ATOM      6  C   UNL     1       2.365  -0.302   0.000  0.00  0.00    +0.000 C 
ATOM      7  C   UNL     1       3.793  -0.302   0.000  0.00  0.00    +0.000 C 
ATOM      8  C   UNL     1       3.079  -1.540   0.000  0.00  0.00    +0.000 C 
ATOM      9  C   UNL     1       1.650  -1.540   0.000  0.00  0.00    +0.000 C 
ENDROOT
BRANCH   4  10
ATOM     10  C   UNL     1       2.667   0.825   0.000  0.00  0.00    +0.000 C 
ATOM     11  C   UNL     1       1.841   0.825   0.000  0.00  0.00    +0.000 C 
ENDBRANCH   4  10
BRANCH   4  12
ATOM     12  C   UNL     1       3.492   0.825   0.000  0.00  0.00    +0.000 C 
ATOM     13  C   UNL     1       3.079   1.540   0.000  0.00  0.00    +0.000 C 
ENDBRANCH   4  12
TORSDOF 2
