REMARK  Name = 1111
REMARK  44 active torsions:
REMARK  status: ('A' for Active; 'I' for Inactive)
REMARK    1  A    between atoms: S_1  and  C_100
REMARK    2  A    between atoms: S_2  and  C_103
REMARK    3  A    between atoms: S_3  and  C_105
REMARK    4  A    between atoms: S_4  and  C_106
REMARK    5  A    between atoms: S_5  and  C_107
REMARK    6  A    between atoms: N_38  and  C_61
REMARK    7  A    between atoms: N_41  and  C_72
REMARK    8  A    between atoms: N_43  and  C_74
REMARK    9  A    between atoms: N_43  and  C_100
REMARK   10  A    between atoms: N_44  and  C_77
REMARK   11  A    between atoms: N_44  and  C_103
REMARK   12  A    between atoms: N_45  and  C_85
REMARK   13  A    between atoms: N_46  and  C_87
REMARK   14  A    between atoms: N_47  and  C_90
REMARK   15  A    between atoms: N_47  and  C_105
REMARK   16  A    between atoms: N_48  and  C_94
REMARK   17  A    between atoms: N_48  and  C_106
REMARK   18  A    between atoms: N_49  and  C_101
REMARK   19  A    between atoms: N_49  and  C_107
REMARK   20  A    between atoms: C_50  and  C_52
REMARK   21  A    between atoms: C_51  and  C_53
REMARK   22  A    between atoms: C_52  and  C_54
REMARK   23  A    between atoms: C_53  and  C_55
REMARK   24  A    between atoms: C_57  and  C_62
REMARK   25  A    between atoms: C_59  and  C_63
REMARK   26  A    between atoms: C_62  and  C_74
REMARK   27  A    between atoms: C_63  and  C_77
REMARK   28  A    between atoms: C_69  and  C_78
REMARK   29  A    between atoms: C_72  and  C_81
REMARK   30  A    between atoms: C_72  and  C_82
REMARK   31  A    between atoms: C_73  and  C_75
REMARK   32  A    between atoms: C_73  and  C_86
REMARK   33  A    between atoms: C_75  and  C_79
REMARK   34  A    between atoms: C_78  and  C_90
REMARK   35  A    between atoms: C_79  and  C_83
REMARK   36  A    between atoms: C_80  and  C_88
REMARK   37  A    between atoms: C_82  and  C_94
REMARK   38  A    between atoms: C_83  and  C_91
REMARK   39  A    between atoms: C_85  and  C_93
REMARK   40  A    between atoms: C_85  and  C_95
REMARK   41  A    between atoms: C_87  and  C_96
REMARK   42  A    between atoms: C_87  and  C_97
REMARK   43  A    between atoms: C_91  and  C_98
REMARK   44  A    between atoms: C_96  and  C_101
REMARK                            x       y       z     vdW  Elec       q    Type
REMARK                         _______ _______ _______ _____ _____    ______ ____
ROOT
ATOM      1  O   UNL     1      16.533   9.556   0.000  0.00  0.00    +0.000 OA
ATOM      2  O   UNL     1      18.630   7.311   0.000  0.00  0.00    +0.000 OA
ATOM      3  O   UNL     1      13.462   9.556   0.000  0.00  0.00    +0.000 OA
ATOM      4  O   UNL     1      11.366   7.311   0.000  0.00  0.00    +0.000 OA
ATOM      5  O   UNL     1      18.420   4.247   0.000  0.00  0.00    +0.000 OA
ATOM      6  O   UNL     1      16.038   2.309   0.000  0.00  0.00    +0.000 OA
ATOM      7  O   UNL     1      12.995   2.727   0.000  0.00  0.00    +0.000 OA
ATOM      8  N   UNL     1      16.910   8.371   0.000  0.00  0.00    +0.000 NA
ATOM      9  N   UNL     1      14.585   9.022   0.000  0.00  0.00    +0.000 NA
ATOM     10  N   UNL     1      18.020   6.227   0.000  0.00  0.00    +0.000 NA
ATOM     11  N   UNL     1      12.523   7.768   0.000  0.00  0.00    +0.000 NA
ATOM     12  N   UNL     1      17.212   3.953   0.000  0.00  0.00    +0.000 NA
ATOM     13  N   UNL     1      14.998   2.991   0.000  0.00  0.00    +0.000 NA
ATOM     14  N   UNL     1      12.784   3.953   0.000  0.00  0.00    +0.000 NA
ATOM     15  C   UNL     1      15.410   9.022   0.000  0.00  0.00    +0.000 C 
ATOM     16  C   UNL     1      17.473   7.768   0.000  0.00  0.00    +0.000 C 
ATOM     17  C   UNL     1      16.205   8.799   0.000  0.00  0.00    +0.000 C 
ATOM     18  C   UNL     1      13.086   8.371   0.000  0.00  0.00    +0.000 C 
ATOM     19  C   UNL     1      17.852   7.035   0.000  0.00  0.00    +0.000 C 
ATOM     20  C   UNL     1      17.964   5.404   0.000  0.00  0.00    +0.000 C 
ATOM     21  C   UNL     1      13.791   8.799   0.000  0.00  0.00    +0.000 C 
ATOM     22  C   UNL     1      11.975   6.227   0.000  0.00  0.00    +0.000 C 
ATOM     23  C   UNL     1      12.032   5.404   0.000  0.00  0.00    +0.000 C 
ATOM     24  C   UNL     1      16.572   3.432   0.000  0.00  0.00    +0.000 C 
ATOM     25  C   UNL     1      12.143   7.035   0.000  0.00  0.00    +0.000 C 
ATOM     26  C   UNL     1      17.688   4.627   0.000  0.00  0.00    +0.000 C 
ATOM     27  C   UNL     1      12.308   4.627   0.000  0.00  0.00    +0.000 C 
ATOM     28  C   UNL     1      14.180   3.103   0.000  0.00  0.00    +0.000 C 
ATOM     29  C   UNL     1      15.815   3.103   0.000  0.00  0.00    +0.000 C 
ATOM     30  C   UNL     1      13.424   3.432   0.000  0.00  0.00    +0.000 C 
ENDROOT
BRANCH  22  32
ATOM     31  O   UNL     1      11.055   4.858   0.000  0.00  0.00    +0.000 OA
ATOM     32  N   UNL     1      11.152   6.284   0.000  0.00  0.00    +0.000 NA
ATOM     33  C   UNL     1      10.692   5.599   0.000  0.00  0.00    +0.000 C 
BRANCH  33  34
ATOM     34  C   UNL     1       9.869   5.655   0.000  0.00  0.00    +0.000 C 
BRANCH  34  36
ATOM     35  O   UNL     1       8.223   5.768   0.000  0.00  0.00    +0.000 OA
ATOM     36  N   UNL     1       9.408   4.971   0.000  0.00  0.00    +0.000 NA
ATOM     37  C   UNL     1       8.585   5.027   0.000  0.00  0.00    +0.000 C 
BRANCH  37  38
ATOM     38  C   UNL     1       8.125   4.342   0.000  0.00  0.00    +0.000 C 
BRANCH  38  40
ATOM     39  O   UNL     1       8.027   2.917   0.000  0.00  0.00    +0.000 OA
ATOM     40  C   UNL     1       8.488   3.601   0.000  0.00  0.00    +0.000 C 
ATOM     41  C   UNL     1       9.311   3.545   0.000  0.00  0.00    +0.000 C 
ENDBRANCH  38  40
BRANCH  38  43
ATOM     42  O   UNL     1       7.204   2.973   0.000  0.00  0.00    +0.000 OA
ATOM     43  N   UNL     1       7.302   4.399   0.000  0.00  0.00    +0.000 NA
ATOM     44  C   UNL     1       6.842   3.714   0.000  0.00  0.00    +0.000 C 
BRANCH  44  45
ATOM     45  C   UNL     1       6.019   3.770   0.000  0.00  0.00    +0.000 C 
BRANCH  45  47
ATOM     46  O   UNL     1       4.372   3.883   0.000  0.00  0.00    +0.000 OA
ATOM     47  N   UNL     1       5.558   3.086   0.000  0.00  0.00    +0.000 NA
ATOM     48  C   UNL     1       4.735   3.142   0.000  0.00  0.00    +0.000 C 
BRANCH  48  49
ATOM     49  C   UNL     1       4.275   2.457   0.000  0.00  0.00    +0.000 C 
BRANCH  49  50
ATOM     50  C   UNL     1       3.452   2.514   0.000  0.00  0.00    +0.000 C 
BRANCH  50  51
ATOM     51  C   UNL     1       2.991   1.829   0.000  0.00  0.00    +0.000 C 
BRANCH  51  52
ATOM     52  C   UNL     1       2.168   1.885   0.000  0.00  0.00    +0.000 C 
BRANCH  52  53
ATOM     53  C   UNL     1       1.708   1.200   0.000  0.00  0.00    +0.000 C 
ATOM     54  C   UNL     1       2.071   0.459   0.000  0.00  0.00    +0.000 C 
BRANCH  53  55
ATOM     55  C   UNL     1       0.885   1.257   0.000  0.00  0.00    +0.000 C 
ATOM     56  C   UNL     1       0.424   0.572   0.000  0.00  0.00    +0.000 C 
ENDBRANCH  53  55
ENDBRANCH  52  53
ENDBRANCH  51  52
ENDBRANCH  50  51
ENDBRANCH  49  50
ENDBRANCH  48  49
ENDBRANCH  45  47
BRANCH  45  57
ATOM     57  C   UNL     1       5.656   4.511   0.000  0.00  0.00    +0.000 C 
BRANCH  57  58
ATOM     58  C   UNL     1       4.833   4.567   0.000  0.00  0.00    +0.000 C 
BRANCH  58  59
ATOM     59  N   UNL     1       4.470   5.309   0.000  0.00  0.00    +0.000 NA
BRANCH  59  60
ATOM     60  C   UNL     1       3.647   5.365   0.000  0.00  0.00    +0.000 C 
BRANCH  60  61
ATOM     61  S   UNL     1       3.284   6.106   0.000  0.00  0.00    +0.000 S 
ATOM     62  O   UNL     1       2.921   6.847   0.000  0.00  0.00    +0.000 OA
ATOM     63  O   UNL     1       2.543   5.743   0.000  0.00  0.00    +0.000 OA
ATOM     64  O   UNL     1       4.025   6.469   0.000  0.00  0.00    +0.000 OA
ENDBRANCH  60  61
ENDBRANCH  59  60
ENDBRANCH  58  59
ENDBRANCH  57  58
ENDBRANCH  45  57
ENDBRANCH  44  45
ENDBRANCH  38  43
ENDBRANCH  37  38
ENDBRANCH  34  36
BRANCH  34  65
ATOM     65  C   UNL     1       9.506   6.396   0.000  0.00  0.00    +0.000 C 
BRANCH  65  66
ATOM     66  C   UNL     1       8.683   6.453   0.000  0.00  0.00    +0.000 C 
BRANCH  66  67
ATOM     67  N   UNL     1       8.320   7.194   0.000  0.00  0.00    +0.000 NA
BRANCH  67  68
ATOM     68  C   UNL     1       7.497   7.250   0.000  0.00  0.00    +0.000 C 
BRANCH  68  69
ATOM     69  S   UNL     1       7.134   7.991   0.000  0.00  0.00    +0.000 S 
ATOM     70  O   UNL     1       6.771   8.732   0.000  0.00  0.00    +0.000 OA
ATOM     71  O   UNL     1       7.875   8.354   0.000  0.00  0.00    +0.000 OA
ATOM     72  O   UNL     1       6.393   7.628   0.000  0.00  0.00    +0.000 OA
ENDBRANCH  68  69
ENDBRANCH  67  68
ENDBRANCH  66  67
ENDBRANCH  65  66
ENDBRANCH  34  65
ENDBRANCH  33  34
ENDBRANCH  22  32
BRANCH  28  74
ATOM     73  O   UNL     1      14.534   1.719   0.000  0.00  0.00    +0.000 OA
ATOM     74  C   UNL     1      13.958   2.309   0.000  0.00  0.00    +0.000 C 
ATOM     75  C   UNL     1      13.159   2.105   0.000  0.00  0.00    +0.000 C 
ENDBRANCH  28  74
BRANCH  15  76
ATOM     76  C   UNL     1      15.523   9.839   0.000  0.00  0.00    +0.000 C 
BRANCH  76  77
ATOM     77  C   UNL     1      14.871  10.345   0.000  0.00  0.00    +0.000 C 
ATOM     78  C   UNL     1      14.983  11.163   0.000  0.00  0.00    +0.000 C 
ATOM     79  C   UNL     1      14.107  10.034   0.000  0.00  0.00    +0.000 C 
ENDBRANCH  76  77
ENDBRANCH  15  76
BRANCH  16  80
ATOM     80  C   UNL     1      18.147   8.244   0.000  0.00  0.00    +0.000 C 
BRANCH  80  81
ATOM     81  C   UNL     1      18.072   9.065   0.000  0.00  0.00    +0.000 C 
ATOM     82  C   UNL     1      18.746   9.541   0.000  0.00  0.00    +0.000 C 
ATOM     83  C   UNL     1      17.323   9.411   0.000  0.00  0.00    +0.000 C 
ENDBRANCH  80  81
ENDBRANCH  16  80
BRANCH  18  84
ATOM     84  C   UNL     1      12.565   9.011   0.000  0.00  0.00    +0.000 C 
BRANCH  84  85
ATOM     85  C   UNL     1      11.751   8.880   0.000  0.00  0.00    +0.000 C 
BRANCH  85  86
ATOM     86  N   UNL     1      11.230   9.520   0.000  0.00  0.00    +0.000 NA
BRANCH  86  87
ATOM     87  C   UNL     1      10.415   9.389   0.000  0.00  0.00    +0.000 C 
BRANCH  87  88
ATOM     88  S   UNL     1       9.895  10.029   0.000  0.00  0.00    +0.000 S 
ATOM     89  O   UNL     1       9.374  10.669   0.000  0.00  0.00    +0.000 OA
ATOM     90  O   UNL     1       9.255   9.508   0.000  0.00  0.00    +0.000 OA
ATOM     91  O   UNL     1      10.535  10.550   0.000  0.00  0.00    +0.000 OA
ENDBRANCH  87  88
ENDBRANCH  86  87
ENDBRANCH  85  86
ENDBRANCH  84  85
ENDBRANCH  18  84
BRANCH  20  92
ATOM     92  C   UNL     1      18.772   5.237   0.000  0.00  0.00    +0.000 C 
BRANCH  92  93
ATOM     93  C   UNL     1      19.321   5.852   0.000  0.00  0.00    +0.000 C 
BRANCH  93  94
ATOM     94  N   UNL     1      20.129   5.684   0.000  0.00  0.00    +0.000 NA
BRANCH  94  95
ATOM     95  C   UNL     1      20.678   6.300   0.000  0.00  0.00    +0.000 C 
BRANCH  95  96
ATOM     96  S   UNL     1      21.486   6.132   0.000  0.00  0.00    +0.000 S 
ATOM     97  O   UNL     1      22.294   5.964   0.000  0.00  0.00    +0.000 OA
ATOM     98  O   UNL     1      21.318   5.324   0.000  0.00  0.00    +0.000 OA
ATOM     99  O   UNL     1      21.654   6.940   0.000  0.00  0.00    +0.000 OA
ENDBRANCH  95  96
ENDBRANCH  94  95
ENDBRANCH  93  94
ENDBRANCH  92  93
ENDBRANCH  20  92
BRANCH  24 100
ATOM    100  C   UNL     1      17.000   2.727   0.000  0.00  0.00    +0.000 C 
BRANCH 100 101
ATOM    101  C   UNL     1      17.825   2.746   0.000  0.00  0.00    +0.000 C 
BRANCH 101 102
ATOM    102  N   UNL     1      18.254   2.041   0.000  0.00  0.00    +0.000 NA
BRANCH 102 103
ATOM    103  C   UNL     1      19.079   2.060   0.000  0.00  0.00    +0.000 C 
BRANCH 103 104
ATOM    104  S   UNL     1      19.508   1.355   0.000  0.00  0.00    +0.000 S 
ATOM    105  O   UNL     1      19.936   0.650   0.000  0.00  0.00    +0.000 OA
ATOM    106  O   UNL     1      18.803   0.926   0.000  0.00  0.00    +0.000 OA
ATOM    107  O   UNL     1      20.212   1.784   0.000  0.00  0.00    +0.000 OA
ENDBRANCH 103 104
ENDBRANCH 102 103
ENDBRANCH 101 102
ENDBRANCH 100 101
ENDBRANCH  24 100
TORSDOF 44
