REMARK  Name = 1113
REMARK  6 active torsions:
REMARK  status: ('A' for Active; 'I' for Inactive)
REMARK    1  A    between atoms: O_1  and  C_13
REMARK    2  A    between atoms: O_2  and  C_15
REMARK    3  A    between atoms: O_3  and  C_19
REMARK    4  A    between atoms: O_4  and  C_20
REMARK    5  A    between atoms: C_7  and  C_8
REMARK    6  A    between atoms: C_7  and  C_10
REMARK                            x       y       z     vdW  Elec       q    Type
REMARK                         _______ _______ _______ _____ _____    ______ ____
ROOT
ATOM      1  N   UNL     1       5.279   1.032   0.000  0.00  0.00    +0.000 NA
ATOM      2  C   UNL     1       3.793   1.050   0.000  0.00  0.00    +0.000 A 
ATOM      3  C   UNL     1       4.531   0.608   0.000  0.00  0.00    +0.000 A 
ATOM      4  C   UNL     1       3.793   1.875   0.000  0.00  0.00    +0.000 A 
ATOM      5  C   UNL     1       3.079   0.637   0.000  0.00  0.00    +0.000 A 
ATOM      6  C   UNL     1       3.079   2.287   0.000  0.00  0.00    +0.000 A 
ATOM      7  C   UNL     1       2.365   1.050   0.000  0.00  0.00    +0.000 A 
ATOM      8  C   UNL     1       4.531   2.316   0.000  0.00  0.00    +0.000 A 
ATOM      9  C   UNL     1       2.365   1.875   0.000  0.00  0.00    +0.000 A 
ATOM     10  C   UNL     1       5.279   1.892   0.000  0.00  0.00    +0.000 A 
ENDROOT
BRANCH   7  11
ATOM     11  O   UNL     1       1.650   0.637   0.000  0.00  0.00    +0.000 OA
ATOM     12  C   UNL     1       1.650  -0.188   0.000  0.00  0.00    +0.000 C 
ENDBRANCH   7  11
BRANCH   9  13
ATOM     13  O   UNL     1       1.650   2.287   0.000  0.00  0.00    +0.000 OA
ATOM     14  C   UNL     1       1.650   3.112   0.000  0.00  0.00    +0.000 C 
ENDBRANCH   9  13
BRANCH   3  15
ATOM     15  C   UNL     1       4.521  -0.216   0.000  0.00  0.00    +0.000 C 
BRANCH  15  16
ATOM     16  C   UNL     1       5.231  -0.637   0.000  0.00  0.00    +0.000 A 
ATOM     17  C   UNL     1       5.222  -1.462   0.000  0.00  0.00    +0.000 A 
ATOM     18  C   UNL     1       5.950  -0.233   0.000  0.00  0.00    +0.000 A 
ATOM     19  C   UNL     1       5.931  -1.883   0.000  0.00  0.00    +0.000 A 
ATOM     20  C   UNL     1       6.651  -1.479   0.000  0.00  0.00    +0.000 A 
ATOM     21  C   UNL     1       6.660  -0.654   0.000  0.00  0.00    +0.000 A 
BRANCH  19  22
ATOM     22  O   UNL     1       5.922  -2.708   0.000  0.00  0.00    +0.000 OA
ATOM     23  C   UNL     1       5.203  -3.112   0.000  0.00  0.00    +0.000 C 
ENDBRANCH  19  22
BRANCH  20  24
ATOM     24  O   UNL     1       7.360  -1.899   0.000  0.00  0.00    +0.000 OA
ATOM     25  C   UNL     1       8.079  -1.495   0.000  0.00  0.00    +0.000 C 
ENDBRANCH  20  24
ENDBRANCH  15  16
ENDBRANCH   3  15
TORSDOF 6
