REMARK  Name = 1115
REMARK  6 active torsions:
REMARK  status: ('A' for Active; 'I' for Inactive)
REMARK    1  A    between atoms: O_1  and  C_17
REMARK    2  A    between atoms: O_2  and  C_18
REMARK    3  A    between atoms: N_8  and  C_15
REMARK    4  A    between atoms: C_9  and  C_12
REMARK    5  A    between atoms: C_10  and  C_17
REMARK    6  A    between atoms: C_11  and  C_18
REMARK                            x       y       z     vdW  Elec       q    Type
REMARK                         _______ _______ _______ _____ _____    ______ ____
ROOT
ATOM      1  N   UNL     1       4.508  -1.807   0.000  0.00  0.00    +0.000 NA
ATOM      2  C   UNL     1       4.508  -0.157   0.000  0.00  0.00    +0.000 C 
ATOM      3  C   UNL     1       5.222  -0.569   0.000  0.00  0.00    +0.000 C 
ATOM      4  C   UNL     1       3.793  -0.569   0.000  0.00  0.00    +0.000 C 
ATOM      5  C   UNL     1       5.222  -1.394   0.000  0.00  0.00    +0.000 C 
ATOM      6  C   UNL     1       3.793  -1.394   0.000  0.00  0.00    +0.000 C 
ATOM      7  C   UNL     1       5.937  -1.807   0.000  0.00  0.00    +0.000 C 
ATOM      8  C   UNL     1       3.079  -1.807   0.000  0.00  0.00    +0.000 C 
ENDROOT
BRANCH   2   9
ATOM      9  C   UNL     1       4.508   0.668   0.000  0.00  0.00    +0.000 A 
ATOM     10  C   UNL     1       5.222   1.081   0.000  0.00  0.00    +0.000 A 
ATOM     11  C   UNL     1       3.793   1.081   0.000  0.00  0.00    +0.000 A 
ATOM     12  C   UNL     1       5.222   1.906   0.000  0.00  0.00    +0.000 A 
ATOM     13  C   UNL     1       3.793   1.906   0.000  0.00  0.00    +0.000 A 
ATOM     14  C   UNL     1       4.508   2.318   0.000  0.00  0.00    +0.000 A 
BRANCH  10  17
ATOM     15  O   UNL     1       5.937   2.318   0.000  0.00  0.00    +0.000 OA
ATOM     16  O   UNL     1       6.652   1.081   0.000  0.00  0.00    +0.000 OA
ATOM     17  N   UNL     1       5.937   1.493   0.000  0.00  0.00    +0.000 N 
ENDBRANCH  10  17
ENDBRANCH   2   9
BRANCH   3  19
ATOM     18  O   UNL     1       5.937   0.668   0.000  0.00  0.00    +0.000 OA
ATOM     19  C   UNL     1       5.937  -0.157   0.000  0.00  0.00    +0.000 C 
BRANCH  19  20
ATOM     20  O   UNL     1       6.652  -0.569   0.000  0.00  0.00    +0.000 OA
ATOM     21  C   UNL     1       7.366  -0.157   0.000  0.00  0.00    +0.000 C 
ENDBRANCH  19  20
ENDBRANCH   3  19
BRANCH   4  23
ATOM     22  O   UNL     1       3.079   0.668   0.000  0.00  0.00    +0.000 OA
ATOM     23  C   UNL     1       3.079  -0.157   0.000  0.00  0.00    +0.000 C 
BRANCH  23  24
ATOM     24  O   UNL     1       2.365  -0.569   0.000  0.00  0.00    +0.000 OA
ATOM     25  C   UNL     1       1.650  -0.157   0.000  0.00  0.00    +0.000 C 
ENDBRANCH  23  24
ENDBRANCH   4  23
TORSDOF 6
