REMARK  Name = 1116
REMARK  4 active torsions:
REMARK  status: ('A' for Active; 'I' for Inactive)
REMARK    1  A    between atoms: N_3  and  C_13
REMARK    2  A    between atoms: N_4  and  C_14
REMARK    3  A    between atoms: C_13  and  C_15
REMARK    4  A    between atoms: C_14  and  C_16
REMARK                            x       y       z     vdW  Elec       q    Type
REMARK                         _______ _______ _______ _____ _____    ______ ____
ROOT
ATOM      1  S   UNL     1       2.978   1.786   0.000  0.00  0.00    +0.000 S 
ATOM      2  O   UNL     1       4.951  -0.930   0.000  0.00  0.00    +0.000 OA
ATOM      3  N   UNL     1       3.646  -0.263   0.000  0.00  0.00    +0.000 N 
ATOM      4  N   UNL     1       4.720   0.517   0.000  0.00  0.00    +0.000 N 
ATOM      5  C   UNL     1       3.390   0.516   0.000  0.00  0.00    +0.000 C 
ATOM      6  C   UNL     1       2.723   1.001   0.000  0.00  0.00    +0.000 C 
ATOM      7  C   UNL     1       4.058   1.001   0.000  0.00  0.00    +0.000 C 
ATOM      8  C   UNL     1       3.803   1.786   0.000  0.00  0.00    +0.000 C 
ATOM      9  C   UNL     1       1.903   1.003   0.000  0.00  0.00    +0.000 C 
ATOM     10  C   UNL     1       2.313   2.266   0.000  0.00  0.00    +0.000 C 
ATOM     11  C   UNL     1       1.650   1.783   0.000  0.00  0.00    +0.000 C 
ATOM     12  C   UNL     1       4.466  -0.263   0.000  0.00  0.00    +0.000 C 
ENDROOT
BRANCH   3  13
ATOM     13  C   UNL     1       3.162  -0.931   0.000  0.00  0.00    +0.000 C 
BRANCH  13  14
ATOM     14  C   UNL     1       3.499  -1.685   0.000  0.00  0.00    +0.000 A 
ATOM     15  C   UNL     1       4.319  -1.770   0.000  0.00  0.00    +0.000 A 
ATOM     16  C   UNL     1       3.015  -2.353   0.000  0.00  0.00    +0.000 A 
ATOM     17  C   UNL     1       4.656  -2.522   0.000  0.00  0.00    +0.000 A 
ATOM     18  C   UNL     1       3.352  -3.106   0.000  0.00  0.00    +0.000 A 
ATOM     19  C   UNL     1       4.173  -3.191   0.000  0.00  0.00    +0.000 A 
ENDBRANCH  13  14
ENDBRANCH   3  13
BRANCH   4  20
ATOM     20  C   UNL     1       5.505   0.771   0.000  0.00  0.00    +0.000 C 
BRANCH  20  21
ATOM     21  C   UNL     1       5.678   1.577   0.000  0.00  0.00    +0.000 A 
ATOM     22  C   UNL     1       5.066   2.131   0.000  0.00  0.00    +0.000 A 
ATOM     23  C   UNL     1       6.463   1.831   0.000  0.00  0.00    +0.000 A 
ATOM     24  C   UNL     1       5.239   2.937   0.000  0.00  0.00    +0.000 A 
ATOM     25  C   UNL     1       6.636   2.638   0.000  0.00  0.00    +0.000 A 
ATOM     26  C   UNL     1       6.024   3.191   0.000  0.00  0.00    +0.000 A 
ENDBRANCH  20  21
ENDBRANCH   4  20
TORSDOF 4
