REMARK  Name = 1119
REMARK  0 active torsions:
REMARK  status: ('A' for Active; 'I' for Inactive)
REMARK                            x       y       z     vdW  Elec       q    Type
REMARK                         _______ _______ _______ _____ _____    ______ ____
ROOT
ATOM      1 CL   UNL     1       5.752  -0.714   0.000  0.00  0.00    +0.000 Cl
ATOM      2  S   UNL     1       2.956  -0.695   0.000  0.00  0.00    +0.000 S 
ATOM      3  O   UNL     1       3.352  -1.381   0.000  0.00  0.00    +0.000 OA
ATOM      4  O   UNL     1       2.560  -1.381   0.000  0.00  0.00    +0.000 OA
ATOM      5  N   UNL     1       2.956   0.889   0.000  0.00  0.00    +0.000 NA
ATOM      6  N   UNL     1       2.270  -0.299   0.000  0.00  0.00    +0.000 NA
ATOM      7  C   UNL     1       3.642  -0.299   0.000  0.00  0.00    +0.000 A 
ATOM      8  C   UNL     1       3.642   0.493   0.000  0.00  0.00    +0.000 A 
ATOM      9  C   UNL     1       2.270   0.493   0.000  0.00  0.00    +0.000 C 
ATOM     10  C   UNL     1       4.350  -0.722   0.000  0.00  0.00    +0.000 A 
ATOM     11  C   UNL     1       4.350   0.917   0.000  0.00  0.00    +0.000 A 
ATOM     12  C   UNL     1       5.068  -0.315   0.000  0.00  0.00    +0.000 A 
ATOM     13  C   UNL     1       5.068   0.510   0.000  0.00  0.00    +0.000 A 
ATOM     14  C   UNL     1       1.584   0.889   0.000  0.00  0.00    +0.000 C 
ENDROOT
TORSDOF 0
