REMARK  Name = 1121
REMARK  2 active torsions:
REMARK  status: ('A' for Active; 'I' for Inactive)
REMARK    1  A    between atoms: C_5  and  C_6
REMARK    2  A    between atoms: C_5  and  C_9
REMARK                            x       y       z     vdW  Elec       q    Type
REMARK                         _______ _______ _______ _____ _____    ______ ____
ROOT
ATOM      1  C   UNL     1       2.365  -0.128   0.000  0.00  0.00    +0.000 C 
ENDROOT
BRANCH   1   6
ATOM      2  O   UNL     1       3.793  -0.128   0.000  0.00  0.00    +0.000 OA
ATOM      3  O   UNL     1       4.508   1.110   0.000  0.00  0.00    +0.000 OA
ATOM      4  N   UNL     1       3.079   1.110   0.000  0.00  0.00    +0.000 NA
ATOM      5  N   UNL     1       3.793   2.347   0.000  0.00  0.00    +0.000 NA
ATOM      6  C   UNL     1       3.079   0.285   0.000  0.00  0.00    +0.000 C 
ATOM      7  C   UNL     1       3.793   1.522   0.000  0.00  0.00    +0.000 C 
ENDBRANCH   1   6
BRANCH   1   8
ATOM      8  C   UNL     1       2.365  -0.953   0.000  0.00  0.00    +0.000 A 
ATOM      9  C   UNL     1       3.079  -1.365   0.000  0.00  0.00    +0.000 A 
ATOM     10  C   UNL     1       1.650  -1.365   0.000  0.00  0.00    +0.000 A 
ATOM     11  C   UNL     1       3.079  -2.190   0.000  0.00  0.00    +0.000 A 
ATOM     12  C   UNL     1       1.650  -2.190   0.000  0.00  0.00    +0.000 A 
ATOM     13  C   UNL     1       2.365  -2.603   0.000  0.00  0.00    +0.000 A 
ENDBRANCH   1   8
TORSDOF 2
