REMARK  Name = 1122
REMARK  15 active torsions:
REMARK  status: ('A' for Active; 'I' for Inactive)
REMARK    1  A    between atoms: N_5  and  C_9
REMARK    2  A    between atoms: N_5  and  C_11
REMARK    3  A    between atoms: N_5  and  C_13
REMARK    4  A    between atoms: N_5  and  C_14
REMARK    5  A    between atoms: N_6  and  C_10
REMARK    6  A    between atoms: N_6  and  C_12
REMARK    7  A    between atoms: N_6  and  C_15
REMARK    8  A    between atoms: N_6  and  C_16
REMARK    9  A    between atoms: N_7  and  C_17
REMARK   10  A    between atoms: N_8  and  C_18
REMARK   11  A    between atoms: C_9  and  C_17
REMARK   12  A    between atoms: C_10  and  C_18
REMARK   13  A    between atoms: C_11  and  C_19
REMARK   14  A    between atoms: C_12  and  C_20
REMARK   15  A    between atoms: C_29  and  C_30
REMARK                            x       y       z     vdW  Elec       q    Type
REMARK                         _______ _______ _______ _____ _____    ______ ____
ROOT
ATOM      1  O   UNL     1       6.652  -0.206   0.000  0.00  0.00    +0.000 OA
ATOM      2  N   UNL     1       5.937   1.031   0.000  0.00  0.00    +0.000 NA
ATOM      3  C   UNL     1       5.937   0.206   0.000  0.00  0.00    +0.000 C 
ENDROOT
BRANCH   3   6
ATOM      4  O   UNL     1       4.508   0.206   0.000  0.00  0.00    +0.000 OA
ATOM      5  N   UNL     1       5.222  -1.031   0.000  0.00  0.00    +0.000 NA
ATOM      6  C   UNL     1       5.222  -0.206   0.000  0.00  0.00    +0.000 C 
BRANCH   5   7
ATOM      7  C   UNL     1       4.508  -1.444   0.000  0.00  0.00    +0.000 C 
BRANCH   7   8
ATOM      8  C   UNL     1       4.508  -2.269   0.000  0.00  0.00    +0.000 C 
BRANCH   8   9
ATOM      9  N   UNL     1       3.793  -2.681   0.000  0.00  0.00    +0.000 N 
BRANCH   9  10
ATOM     10  C   UNL     1       4.206  -3.396   0.000  0.00  0.00    +0.000 C 
ATOM     11  C   UNL     1       5.031  -3.396   0.000  0.00  0.00    +0.000 C 
ENDBRANCH   9  10
BRANCH   9  12
ATOM     12  C   UNL     1       3.381  -1.967   0.000  0.00  0.00    +0.000 C 
ATOM     13  C   UNL     1       2.556  -1.967   0.000  0.00  0.00    +0.000 C 
ENDBRANCH   9  12
BRANCH   9  14
ATOM     14  C   UNL     1       3.079  -3.094   0.000  0.00  0.00    +0.000 C 
BRANCH  14  16
ATOM     15 CL   UNL     1       1.650  -3.919   0.000  0.00  0.00    +0.000 Cl
ATOM     16  C   UNL     1       3.079  -3.919   0.000  0.00  0.00    +0.000 A 
ATOM     17  C   UNL     1       2.365  -4.331   0.000  0.00  0.00    +0.000 A 
ATOM     18  C   UNL     1       3.793  -4.331   0.000  0.00  0.00    +0.000 A 
ATOM     19  C   UNL     1       2.365  -5.156   0.000  0.00  0.00    +0.000 A 
ATOM     20  C   UNL     1       3.793  -5.156   0.000  0.00  0.00    +0.000 A 
ATOM     21  C   UNL     1       3.079  -5.569   0.000  0.00  0.00    +0.000 A 
ENDBRANCH  14  16
ENDBRANCH   9  14
ENDBRANCH   8   9
ENDBRANCH   7   8
ENDBRANCH   5   7
ENDBRANCH   3   6
BRANCH   2  22
ATOM     22  C   UNL     1       6.652   1.444   0.000  0.00  0.00    +0.000 C 
BRANCH  22  23
ATOM     23  C   UNL     1       6.652   2.269   0.000  0.00  0.00    +0.000 C 
BRANCH  23  24
ATOM     24  N   UNL     1       7.366   2.681   0.000  0.00  0.00    +0.000 N 
BRANCH  24  25
ATOM     25  C   UNL     1       7.778   1.967   0.000  0.00  0.00    +0.000 C 
ATOM     26  C   UNL     1       8.604   1.967   0.000  0.00  0.00    +0.000 C 
ENDBRANCH  24  25
BRANCH  24  27
ATOM     27  C   UNL     1       6.953   3.396   0.000  0.00  0.00    +0.000 C 
ATOM     28  C   UNL     1       6.128   3.396   0.000  0.00  0.00    +0.000 C 
ENDBRANCH  24  27
BRANCH  24  29
ATOM     29  C   UNL     1       8.080   3.094   0.000  0.00  0.00    +0.000 C 
BRANCH  29  31
ATOM     30 CL   UNL     1       9.509   3.919   0.000  0.00  0.00    +0.000 Cl
ATOM     31  C   UNL     1       8.080   3.919   0.000  0.00  0.00    +0.000 A 
ATOM     32  C   UNL     1       8.795   4.331   0.000  0.00  0.00    +0.000 A 
ATOM     33  C   UNL     1       7.366   4.331   0.000  0.00  0.00    +0.000 A 
ATOM     34  C   UNL     1       8.795   5.156   0.000  0.00  0.00    +0.000 A 
ATOM     35  C   UNL     1       7.366   5.156   0.000  0.00  0.00    +0.000 A 
ATOM     36  C   UNL     1       8.080   5.569   0.000  0.00  0.00    +0.000 A 
ENDBRANCH  29  31
ENDBRANCH  24  29
ENDBRANCH  23  24
ENDBRANCH  22  23
ENDBRANCH   2  22
TORSDOF 15
