REMARK  Name = 1123
REMARK  0 active torsions:
REMARK  status: ('A' for Active; 'I' for Inactive)
REMARK                            x       y       z     vdW  Elec       q    Type
REMARK                         _______ _______ _______ _____ _____    ______ ____
ROOT
ATOM      1  N   UNL     1       4.807   0.551   0.000  0.00  0.00    +0.000 NA
ATOM      2  N   UNL     1       7.603   0.570   0.000  0.00  0.00    +0.000 NA
ATOM      3  N   UNL     1       2.010   0.570   0.000  0.00  0.00    +0.000 NA
ATOM      4  C   UNL     1       5.492  -0.637   0.000  0.00  0.00    +0.000 A 
ATOM      5  C   UNL     1       4.121  -0.637   0.000  0.00  0.00    +0.000 A 
ATOM      6  C   UNL     1       5.492   0.155   0.000  0.00  0.00    +0.000 A 
ATOM      7  C   UNL     1       4.121   0.155   0.000  0.00  0.00    +0.000 A 
ATOM      8  C   UNL     1       4.807  -1.033   0.000  0.00  0.00    +0.000 A 
ATOM      9  C   UNL     1       6.200  -1.061   0.000  0.00  0.00    +0.000 A 
ATOM     10  C   UNL     1       3.413  -1.061   0.000  0.00  0.00    +0.000 A 
ATOM     11  C   UNL     1       6.200   0.578   0.000  0.00  0.00    +0.000 A 
ATOM     12  C   UNL     1       3.413   0.578   0.000  0.00  0.00    +0.000 A 
ATOM     13  C   UNL     1       6.918   0.171   0.000  0.00  0.00    +0.000 A 
ATOM     14  C   UNL     1       2.695   0.171   0.000  0.00  0.00    +0.000 A 
ATOM     15  C   UNL     1       6.918  -0.654   0.000  0.00  0.00    +0.000 A 
ATOM     16  C   UNL     1       2.695  -0.654   0.000  0.00  0.00    +0.000 A 
ENDROOT
TORSDOF 0
