REMARK  Name = 1124
REMARK  5 active torsions:
REMARK  status: ('A' for Active; 'I' for Inactive)
REMARK    1  A    between atoms: S_1  and  N_6
REMARK    2  A    between atoms: S_1  and  C_10
REMARK    3  A    between atoms: N_5  and  C_8
REMARK    4  A    between atoms: C_7  and  C_8
REMARK    5  A    between atoms: C_7  and  C_9
REMARK                            x       y       z     vdW  Elec       q    Type
REMARK                         _______ _______ _______ _____ _____    ______ ____
ROOT
ATOM      1  S   UNL     1       2.475  -0.619   0.000  0.00  0.00    +0.000 S 
ATOM      2  O   UNL     1       1.650  -0.619   0.000  0.00  0.00    +0.000 OA
ATOM      3  O   UNL     1       3.300  -0.619   0.000  0.00  0.00    +0.000 OA
ENDROOT
BRANCH   1   4
ATOM      4  C   UNL     1       2.475  -1.444   0.000  0.00  0.00    +0.000 A 
ATOM      5  C   UNL     1       1.761  -1.856   0.000  0.00  0.00    +0.000 A 
ATOM      6  C   UNL     1       3.189  -1.856   0.000  0.00  0.00    +0.000 A 
ATOM      7  C   UNL     1       2.475  -3.094   0.000  0.00  0.00    +0.000 A 
ATOM      8  C   UNL     1       1.761  -2.681   0.000  0.00  0.00    +0.000 A 
ATOM      9  C   UNL     1       3.189  -2.681   0.000  0.00  0.00    +0.000 A 
ATOM     10  C   UNL     1       2.475  -3.919   0.000  0.00  0.00    +0.000 C 
ENDBRANCH   1   4
BRANCH   1  13
ATOM     11  O   UNL     1       3.904   0.206   0.000  0.00  0.00    +0.000 OA
ATOM     12  N   UNL     1       3.189   1.444   0.000  0.00  0.00    +0.000 NA
ATOM     13  N   UNL     1       2.475   0.206   0.000  0.00  0.00    +0.000 NA
ATOM     14  C   UNL     1       3.189   0.619   0.000  0.00  0.00    +0.000 C 
BRANCH  12  15
ATOM     15  C   UNL     1       3.904   1.856   0.000  0.00  0.00    +0.000 C 
BRANCH  15  16
ATOM     16  C   UNL     1       3.904   2.681   0.000  0.00  0.00    +0.000 C 
BRANCH  16  17
ATOM     17  C   UNL     1       4.619   3.094   0.000  0.00  0.00    +0.000 C 
ATOM     18  C   UNL     1       4.619   3.919   0.000  0.00  0.00    +0.000 C 
ENDBRANCH  16  17
ENDBRANCH  15  16
ENDBRANCH  12  15
ENDBRANCH   1  13
TORSDOF 5
