REMARK  Name = 1125
REMARK  2 active torsions:
REMARK  status: ('A' for Active; 'I' for Inactive)
REMARK    1  A    between atoms: O_3  and  C_18
REMARK    2  A    between atoms: C_4  and  C_9
REMARK                            x       y       z     vdW  Elec       q    Type
REMARK                         _______ _______ _______ _____ _____    ______ ____
ROOT
ATOM      1  O   UNL     1       4.116   1.448   0.000  0.00  0.00    +0.000 OA
ATOM      2  O   UNL     1       4.116  -1.448   0.000  0.00  0.00    +0.000 OA
ATOM      3  C   UNL     1       4.341   0.000   0.000  0.00  0.00    +0.000 C 
ATOM      4  C   UNL     1       3.860   0.664   0.000  0.00  0.00    +0.000 C 
ATOM      5  C   UNL     1       3.860  -0.664   0.000  0.00  0.00    +0.000 C 
ATOM      6  C   UNL     1       3.079   0.412   0.000  0.00  0.00    +0.000 A 
ATOM      7  C   UNL     1       3.079  -0.412   0.000  0.00  0.00    +0.000 A 
ATOM      8  C   UNL     1       2.365   0.825   0.000  0.00  0.00    +0.000 A 
ATOM      9  C   UNL     1       2.365  -0.825   0.000  0.00  0.00    +0.000 A 
ATOM     10  C   UNL     1       1.650   0.412   0.000  0.00  0.00    +0.000 A 
ATOM     11  C   UNL     1       1.650  -0.412   0.000  0.00  0.00    +0.000 A 
ENDROOT
BRANCH   3  12
ATOM     12  C   UNL     1       5.166   0.000   0.000  0.00  0.00    +0.000 A 
ATOM     13  C   UNL     1       5.579   0.715   0.000  0.00  0.00    +0.000 A 
ATOM     14  C   UNL     1       5.579  -0.715   0.000  0.00  0.00    +0.000 A 
ATOM     15  C   UNL     1       6.404   0.715   0.000  0.00  0.00    +0.000 A 
ATOM     16  C   UNL     1       6.404  -0.715   0.000  0.00  0.00    +0.000 A 
ATOM     17  C   UNL     1       6.816   0.000   0.000  0.00  0.00    +0.000 A 
BRANCH  17  18
ATOM     18  O   UNL     1       7.641   0.000   0.000  0.00  0.00    +0.000 OA
ATOM     19  C   UNL     1       8.054  -0.715   0.000  0.00  0.00    +0.000 C 
ENDBRANCH  17  18
ENDBRANCH   3  12
TORSDOF 2
