REMARK  Name = 1127
REMARK  6 active torsions:
REMARK  status: ('A' for Active; 'I' for Inactive)
REMARK    1  A    between atoms: O_4  and  C_7
REMARK    2  A    between atoms: O_4  and  C_10
REMARK    3  A    between atoms: N_5  and  C_8
REMARK    4  A    between atoms: C_7  and  C_8
REMARK    5  A    between atoms: C_7  and  C_9
REMARK    6  A    between atoms: C_10  and  C_13
REMARK                            x       y       z     vdW  Elec       q    Type
REMARK                         _______ _______ _______ _____ _____    ______ ____
ROOT
ATOM      1  C   UNL     1       5.222   0.206   0.000  0.00  0.00    +0.000 C 
ENDROOT
BRANCH   1   4
ATOM      2 CL   UNL     1       3.793  -0.619   0.000  0.00  0.00    +0.000 Cl
ATOM      3 CL   UNL     1       5.222  -3.094   0.000  0.00  0.00    +0.000 Cl
ATOM      4  C   UNL     1       5.222  -0.619   0.000  0.00  0.00    +0.000 A 
ATOM      5  C   UNL     1       4.508  -1.031   0.000  0.00  0.00    +0.000 A 
ATOM      6  C   UNL     1       5.937  -1.031   0.000  0.00  0.00    +0.000 A 
ATOM      7  C   UNL     1       4.508  -1.856   0.000  0.00  0.00    +0.000 A 
ATOM      8  C   UNL     1       5.937  -1.856   0.000  0.00  0.00    +0.000 A 
ATOM      9  C   UNL     1       5.222  -2.269   0.000  0.00  0.00    +0.000 A 
ENDBRANCH   1   4
BRANCH   1  10
ATOM     10  O   UNL     1       4.508   0.619   0.000  0.00  0.00    +0.000 OA
BRANCH  10  11
ATOM     11  C   UNL     1       4.508   1.444   0.000  0.00  0.00    +0.000 C 
BRANCH  11  13
ATOM     12 CL   UNL     1       1.650   3.094   0.000  0.00  0.00    +0.000 Cl
ATOM     13  C   UNL     1       3.793   1.856   0.000  0.00  0.00    +0.000 A 
ATOM     14  C   UNL     1       3.079   1.444   0.000  0.00  0.00    +0.000 A 
ATOM     15  C   UNL     1       3.793   2.681   0.000  0.00  0.00    +0.000 A 
ATOM     16  C   UNL     1       2.364   1.856   0.000  0.00  0.00    +0.000 A 
ATOM     17  C   UNL     1       3.079   3.094   0.000  0.00  0.00    +0.000 A 
ATOM     18  C   UNL     1       2.364   2.681   0.000  0.00  0.00    +0.000 A 
ENDBRANCH  11  13
ENDBRANCH  10  11
ENDBRANCH   1  10
BRANCH   1  19
ATOM     19  C   UNL     1       5.937   0.619   0.000  0.00  0.00    +0.000 C 
BRANCH  19  20
ATOM     20  N   UNL     1       5.937   1.444   0.000  0.00  0.00    +0.000 N 
ATOM     21  N   UNL     1       6.349   2.713   0.000  0.00  0.00    +0.000 NA
ATOM     22  C   UNL     1       5.269   1.929   0.000  0.00  0.00    +0.000 A 
ATOM     23  C   UNL     1       6.604   1.929   0.000  0.00  0.00    +0.000 A 
ATOM     24  C   UNL     1       5.524   2.713   0.000  0.00  0.00    +0.000 A 
ENDBRANCH  19  20
ENDBRANCH   1  19
TORSDOF 6
