REMARK  Name = 1129
REMARK  8 active torsions:
REMARK  status: ('A' for Active; 'I' for Inactive)
REMARK    1  A    between atoms: S_1  and  C_8
REMARK    2  A    between atoms: S_1  and  C_12
REMARK    3  A    between atoms: O_2  and  C_11
REMARK    4  A    between atoms: O_2  and  C_14
REMARK    5  A    between atoms: O_3  and  C_19
REMARK    6  A    between atoms: C_8  and  C_9
REMARK    7  A    between atoms: C_14  and  C_15
REMARK    8  A    between atoms: C_15  and  C_19
REMARK                            x       y       z     vdW  Elec       q    Type
REMARK                         _______ _______ _______ _____ _____    ______ ____
ROOT
ATOM      1  N   UNL     1       6.816   1.211   0.000  0.00  0.00    +0.000 NA
ATOM      2  C   UNL     1       6.404   0.497   0.000  0.00  0.00    +0.000 A 
ATOM      3  C   UNL     1       6.816  -0.218   0.000  0.00  0.00    +0.000 A 
ATOM      4  C   UNL     1       7.641  -0.218   0.000  0.00  0.00    +0.000 A 
ATOM      5  C   UNL     1       6.404  -0.932   0.000  0.00  0.00    +0.000 C 
ATOM      6  C   UNL     1       8.054   0.497   0.000  0.00  0.00    +0.000 A 
ATOM      7  C   UNL     1       7.641   1.211   0.000  0.00  0.00    +0.000 A 
ENDROOT
BRANCH   4   8
ATOM      8  O   UNL     1       8.054  -0.932   0.000  0.00  0.00    +0.000 OA
BRANCH   8   9
ATOM      9  C   UNL     1       8.879  -0.932   0.000  0.00  0.00    +0.000 C 
BRANCH   9  10
ATOM     10  C   UNL     1       9.291  -1.647   0.000  0.00  0.00    +0.000 C 
BRANCH  10  11
ATOM     11  C   UNL     1      10.116  -1.647   0.000  0.00  0.00    +0.000 C 
BRANCH  11  12
ATOM     12  O   UNL     1      10.529  -2.361   0.000  0.00  0.00    +0.000 OA
ATOM     13  C   UNL     1      11.354  -2.361   0.000  0.00  0.00    +0.000 C 
ENDBRANCH  11  12
ENDBRANCH  10  11
ENDBRANCH   9  10
ENDBRANCH   8   9
ENDBRANCH   4   8
BRANCH   2  14
ATOM     14  C   UNL     1       5.579   0.497   0.000  0.00  0.00    +0.000 C 
BRANCH  14  15
ATOM     15  S   UNL     1       5.166   1.211   0.000  0.00  0.00    +0.000 S 
ATOM     16  O   UNL     1       5.579   1.926   0.000  0.00  0.00    +0.000 OA
BRANCH  15  19
ATOM     17  N   UNL     1       3.860   1.875   0.000  0.00  0.00    +0.000 NA
ATOM     18  N   UNL     1       3.860   0.547   0.000  0.00  0.00    +0.000 NA
ATOM     19  C   UNL     1       4.341   1.211   0.000  0.00  0.00    +0.000 A 
ATOM     20  C   UNL     1       3.079   1.624   0.000  0.00  0.00    +0.000 A 
ATOM     21  C   UNL     1       3.079   0.799   0.000  0.00  0.00    +0.000 A 
ATOM     22  C   UNL     1       2.365   2.036   0.000  0.00  0.00    +0.000 A 
ATOM     23  C   UNL     1       2.365   0.386   0.000  0.00  0.00    +0.000 A 
ATOM     24  C   UNL     1       1.650   1.624   0.000  0.00  0.00    +0.000 A 
ATOM     25  C   UNL     1       1.650   0.799   0.000  0.00  0.00    +0.000 A 
ENDBRANCH  15  19
ENDBRANCH  14  15
ENDBRANCH   2  14
TORSDOF 8
