REMARK  Name = 1132
REMARK  7 active torsions:
REMARK  status: ('A' for Active; 'I' for Inactive)
REMARK    1  A    between atoms: O_2  and  C_14
REMARK    2  A    between atoms: O_2  and  C_15
REMARK    3  A    between atoms: C_7  and  C_8
REMARK    4  A    between atoms: C_8  and  C_9
REMARK    5  A    between atoms: C_13  and  C_15
REMARK    6  A    between atoms: C_13  and  C_18
REMARK    7  A    between atoms: C_20  and  C_22
REMARK                            x       y       z     vdW  Elec       q    Type
REMARK                         _______ _______ _______ _____ _____    ______ ____
ROOT
ATOM      1  C   UNL     1       5.222   1.745   0.000  0.00  0.00    +0.000 A 
ATOM      2  C   UNL     1       5.937   1.333   0.000  0.00  0.00    +0.000 A 
ATOM      3  C   UNL     1       4.508   1.333   0.000  0.00  0.00    +0.000 A 
ATOM      4  C   UNL     1       5.222   0.095   0.000  0.00  0.00    +0.000 A 
ATOM      5  C   UNL     1       5.937   0.508   0.000  0.00  0.00    +0.000 A 
ATOM      6  C   UNL     1       4.508   0.508   0.000  0.00  0.00    +0.000 A 
ENDROOT
BRANCH   1   7
ATOM      7  C   UNL     1       5.222   2.570   0.000  0.00  0.00    +0.000 C 
BRANCH   7  12
ATOM      8  S   UNL     1       6.691   2.647   0.000  0.00  0.00    +0.000 S 
ATOM      9  O   UNL     1       5.410   4.355   0.000  0.00  0.00    +0.000 OA
ATOM     10  O   UNL     1       8.063   3.174   0.000  0.00  0.00    +0.000 OA
ATOM     11  N   UNL     1       6.830   3.975   0.000  0.00  0.00    +0.000 NA
ATOM     12  C   UNL     1       5.937   2.983   0.000  0.00  0.00    +0.000 C 
ATOM     13  C   UNL     1       6.023   3.803   0.000  0.00  0.00    +0.000 C 
ATOM     14  C   UNL     1       7.243   3.260   0.000  0.00  0.00    +0.000 C 
ENDBRANCH   7  12
ENDBRANCH   1   7
BRANCH   4  15
ATOM     15  O   UNL     1       5.222  -0.730   0.000  0.00  0.00    +0.000 OA
BRANCH  15  16
ATOM     16  C   UNL     1       4.508  -1.142   0.000  0.00  0.00    +0.000 C 
BRANCH  16  17
ATOM     17  C   UNL     1       4.508  -1.967   0.000  0.00  0.00    +0.000 C 
BRANCH  17  19
ATOM     18  N   UNL     1       3.793  -3.205   0.000  0.00  0.00    +0.000 NA
ATOM     19  C   UNL     1       3.793  -2.380   0.000  0.00  0.00    +0.000 A 
ATOM     20  C   UNL     1       2.365  -3.205   0.000  0.00  0.00    +0.000 A 
ATOM     21  C   UNL     1       3.079  -1.967   0.000  0.00  0.00    +0.000 A 
ATOM     22  C   UNL     1       2.365  -2.380   0.000  0.00  0.00    +0.000 A 
ATOM     23  C   UNL     1       3.079  -3.617   0.000  0.00  0.00    +0.000 A 
BRANCH  20  24
ATOM     24  C   UNL     1       1.650  -3.617   0.000  0.00  0.00    +0.000 C 
ATOM     25  C   UNL     1       1.650  -4.442   0.000  0.00  0.00    +0.000 C 
ENDBRANCH  20  24
ENDBRANCH  17  19
ENDBRANCH  16  17
ENDBRANCH  15  16
ENDBRANCH   4  15
TORSDOF 7
