REMARK  Name = 1133
REMARK  4 active torsions:
REMARK  status: ('A' for Active; 'I' for Inactive)
REMARK    1  A    between atoms: S_2  and  C_11
REMARK    2  A    between atoms: S_2  and  C_12
REMARK    3  A    between atoms: P_3  and  C_11
REMARK    4  A    between atoms: P_4  and  C_11
REMARK                            x       y       z     vdW  Elec       q    Type
REMARK                         _______ _______ _______ _____ _____    ______ ____
ROOT
ATOM      1  C   UNL     1       3.079   0.903   0.000  0.00  0.00    +0.000 C 
ENDROOT
BRANCH   1   2
ATOM      2  P   UNL     1       3.079   1.728   0.000  0.00  0.00    +0.000 P 
ATOM      3  O   UNL     1       3.079   2.553   0.000  0.00  0.00    +0.000 OA
ATOM      4  O   UNL     1       3.904   1.728   0.000  0.00  0.00    +0.000 OA
ATOM      5  O   UNL     1       2.254   1.728   0.000  0.00  0.00    +0.000 OA
ENDBRANCH   1   2
BRANCH   1   6
ATOM      6  P   UNL     1       3.793   0.491   0.000  0.00  0.00    +0.000 P 
ATOM      7  O   UNL     1       4.508   0.078   0.000  0.00  0.00    +0.000 OA
ATOM      8  O   UNL     1       4.206   1.205   0.000  0.00  0.00    +0.000 OA
ATOM      9  O   UNL     1       3.381  -0.224   0.000  0.00  0.00    +0.000 OA
ENDBRANCH   1   6
BRANCH   1  10
ATOM     10  S   UNL     1       2.364   0.491   0.000  0.00  0.00    +0.000 S 
BRANCH  10  12
ATOM     11 CL   UNL     1       2.364  -2.809   0.000  0.00  0.00    +0.000 Cl
ATOM     12  C   UNL     1       2.364  -0.334   0.000  0.00  0.00    +0.000 A 
ATOM     13  C   UNL     1       3.079  -0.747   0.000  0.00  0.00    +0.000 A 
ATOM     14  C   UNL     1       1.650  -0.747   0.000  0.00  0.00    +0.000 A 
ATOM     15  C   UNL     1       3.079  -1.572   0.000  0.00  0.00    +0.000 A 
ATOM     16  C   UNL     1       1.650  -1.572   0.000  0.00  0.00    +0.000 A 
ATOM     17  C   UNL     1       2.364  -1.984   0.000  0.00  0.00    +0.000 A 
ENDBRANCH  10  12
ENDBRANCH   1  10
TORSDOF 4
