REMARK  Name = 1137
REMARK  2 active torsions:
REMARK  status: ('A' for Active; 'I' for Inactive)
REMARK    1  A    between atoms: N_6  and  C_12
REMARK    2  A    between atoms: C_25  and  C_26
REMARK                            x       y       z     vdW  Elec       q    Type
REMARK                         _______ _______ _______ _____ _____    ______ ____
ROOT
ATOM      1  F   UNL     1       5.222   2.173   0.000  0.00  0.00    +0.000 F 
ATOM      2  O   UNL     1       3.757  -0.307   0.000  0.00  0.00    +0.000 OA
ATOM      3  O   UNL     1       7.357   0.120   0.000  0.00  0.00    +0.000 OA
ATOM      4  N   UNL     1       5.236  -1.161   0.000  0.00  0.00    +0.000 N 
ATOM      5  C   UNL     1       4.495  -1.597   0.000  0.00  0.00    +0.000 C 
ATOM      6  C   UNL     1       4.508   0.936   0.000  0.00  0.00    +0.000 A 
ATOM      7  C   UNL     1       5.222  -0.302   0.000  0.00  0.00    +0.000 A 
ATOM      8  C   UNL     1       4.508   0.111   0.000  0.00  0.00    +0.000 A 
ATOM      9  C   UNL     1       3.751  -1.167   0.000  0.00  0.00    +0.000 C 
ATOM     10  C   UNL     1       5.937   0.111   0.000  0.00  0.00    +0.000 A 
ATOM     11  C   UNL     1       5.222   1.348   0.000  0.00  0.00    +0.000 A 
ATOM     12  C   UNL     1       5.959  -1.543   0.000  0.00  0.00    +0.000 A 
ATOM     13  C   UNL     1       5.937   0.936   0.000  0.00  0.00    +0.000 A 
ATOM     14  C   UNL     1       4.498  -2.421   0.000  0.00  0.00    +0.000 C 
ATOM     15  C   UNL     1       6.646  -0.297   0.000  0.00  0.00    +0.000 A 
ATOM     16  C   UNL     1       6.657  -1.116   0.000  0.00  0.00    +0.000 A 
ENDROOT
BRANCH   6  17
ATOM     17  N   UNL     1       3.793   1.348   0.000  0.00  0.00    +0.000 N 
ATOM     18  N   UNL     1       2.365   2.173   0.000  0.00  0.00    +0.000 NA
ATOM     19  C   UNL     1       3.793   2.173   0.000  0.00  0.00    +0.000 C 
ATOM     20  C   UNL     1       3.079   0.936   0.000  0.00  0.00    +0.000 C 
ATOM     21  C   UNL     1       3.079   2.586   0.000  0.00  0.00    +0.000 C 
ATOM     22  C   UNL     1       2.365   1.348   0.000  0.00  0.00    +0.000 C 
ATOM     23  C   UNL     1       1.650   2.586   0.000  0.00  0.00    +0.000 C 
ENDBRANCH   6  17
BRANCH  16  26
ATOM     24  O   UNL     1       7.396  -2.339   0.000  0.00  0.00    +0.000 OA
ATOM     25  O   UNL     1       8.086  -1.087   0.000  0.00  0.00    +0.000 OA
ATOM     26  C   UNL     1       7.380  -1.514   0.000  0.00  0.00    +0.000 C 
ENDBRANCH  16  26
TORSDOF 2
