REMARK  Name = 1138
REMARK  6 active torsions:
REMARK  status: ('A' for Active; 'I' for Inactive)
REMARK    1  A    between atoms: S_1  and  C_11
REMARK    2  A    between atoms: S_1  and  C_18
REMARK    3  A    between atoms: N_5  and  C_12
REMARK    4  A    between atoms: N_6  and  C_13
REMARK    5  A    between atoms: C_7  and  C_8
REMARK    6  A    between atoms: C_8  and  C_11
REMARK                            x       y       z     vdW  Elec       q    Type
REMARK                         _______ _______ _______ _____ _____    ______ ____
ROOT
ATOM      1  O   UNL     1       4.415   0.365   0.000  0.00  0.00    +0.000 OA
ATOM      2  O   UNL     1       2.065  -1.342   0.000  0.00  0.00    +0.000 OA
ATOM      3  N   UNL     1       4.185  -1.087   0.000  0.00  0.00    +0.000 N 
ATOM      4  N   UNL     1       3.517  -1.572   0.000  0.00  0.00    +0.000 N 
ATOM      5  C   UNL     1       3.105  -0.302   0.000  0.00  0.00    +0.000 C 
ATOM      6  C   UNL     1       3.930  -0.302   0.000  0.00  0.00    +0.000 C 
ATOM      7  C   UNL     1       2.850  -1.087   0.000  0.00  0.00    +0.000 C 
ENDROOT
BRANCH   4   8
ATOM      8  C   UNL     1       3.517  -2.397   0.000  0.00  0.00    +0.000 A 
ATOM      9  C   UNL     1       4.232  -2.810   0.000  0.00  0.00    +0.000 A 
ATOM     10  C   UNL     1       2.803  -2.810   0.000  0.00  0.00    +0.000 A 
ATOM     11  C   UNL     1       4.232  -3.635   0.000  0.00  0.00    +0.000 A 
ATOM     12  C   UNL     1       2.803  -3.635   0.000  0.00  0.00    +0.000 A 
ATOM     13  C   UNL     1       3.517  -4.047   0.000  0.00  0.00    +0.000 A 
ENDBRANCH   4   8
BRANCH   3  14
ATOM     14  C   UNL     1       4.969  -1.342   0.000  0.00  0.00    +0.000 A 
ATOM     15  C   UNL     1       5.583  -0.790   0.000  0.00  0.00    +0.000 A 
ATOM     16  C   UNL     1       5.141  -2.149   0.000  0.00  0.00    +0.000 A 
ATOM     17  C   UNL     1       6.367  -1.045   0.000  0.00  0.00    +0.000 A 
ATOM     18  C   UNL     1       5.926  -2.404   0.000  0.00  0.00    +0.000 A 
ATOM     19  C   UNL     1       6.539  -1.852   0.000  0.00  0.00    +0.000 A 
ENDBRANCH   3  14
BRANCH   5  20
ATOM     20  C   UNL     1       2.620   0.365   0.000  0.00  0.00    +0.000 C 
BRANCH  20  21
ATOM     21  C   UNL     1       2.955   1.119   0.000  0.00  0.00    +0.000 C 
BRANCH  21  22
ATOM     22  S   UNL     1       2.470   1.786   0.000  0.00  0.00    +0.000 S 
ATOM     23  O   UNL     1       1.650   1.700   0.000  0.00  0.00    +0.000 OA
BRANCH  22  24
ATOM     24  C   UNL     1       2.806   2.540   0.000  0.00  0.00    +0.000 A 
ATOM     25  C   UNL     1       3.627   2.626   0.000  0.00  0.00    +0.000 A 
ATOM     26  C   UNL     1       2.321   3.207   0.000  0.00  0.00    +0.000 A 
ATOM     27  C   UNL     1       3.962   3.380   0.000  0.00  0.00    +0.000 A 
ATOM     28  C   UNL     1       2.657   3.961   0.000  0.00  0.00    +0.000 A 
ATOM     29  C   UNL     1       3.477   4.047   0.000  0.00  0.00    +0.000 A 
ENDBRANCH  22  24
ENDBRANCH  21  22
ENDBRANCH  20  21
ENDBRANCH   5  20
TORSDOF 6
