REMARK  Name = 114
REMARK  4 active torsions:
REMARK  status: ('A' for Active; 'I' for Inactive)
REMARK    1  A    between atoms: P_1  and  O_2
REMARK    2  A    between atoms: O_2  and  C_11
REMARK    3  A    between atoms: C_9  and  C_11
REMARK    4  A    between atoms: C_10  and  C_16
REMARK                            x       y       z     vdW  Elec       q    Type
REMARK                         _______ _______ _______ _____ _____    ______ ____
ROOT
ATOM      1  O   UNL     1       2.093   0.206   0.000  0.00  0.00    +0.000 OA
ATOM      2  N   UNL     1       3.522  -1.444   0.000  0.00  0.00    +0.000 NA
ATOM      3  C   UNL     1       4.237  -0.206   0.000  0.00  0.00    +0.000 A 
ATOM      4  C   UNL     1       3.522   0.206   0.000  0.00  0.00    +0.000 A 
ATOM      5  C   UNL     1       2.808  -0.206   0.000  0.00  0.00    +0.000 A 
ATOM      6  C   UNL     1       2.808  -1.031   0.000  0.00  0.00    +0.000 A 
ATOM      7  C   UNL     1       4.237  -1.031   0.000  0.00  0.00    +0.000 A 
ATOM      8  C   UNL     1       2.093  -1.444   0.000  0.00  0.00    +0.000 C 
ENDROOT
BRANCH   4  10
ATOM      9  O   UNL     1       2.808   1.444   0.000  0.00  0.00    +0.000 OA
ATOM     10  C   UNL     1       3.522   1.031   0.000  0.00  0.00    +0.000 C 
ENDBRANCH   4  10
BRANCH   3  11
ATOM     11  C   UNL     1       4.951   0.206   0.000  0.00  0.00    +0.000 C 
BRANCH  11  12
ATOM     12  O   UNL     1       5.665  -0.206   0.000  0.00  0.00    +0.000 OA
BRANCH  12  13
ATOM     13  P   UNL     1       6.380   0.206   0.000  0.00  0.00    +0.000 P 
ATOM     14  O   UNL     1       6.793  -0.508   0.000  0.00  0.00    +0.000 OA
ATOM     15  O   UNL     1       7.094   0.619   0.000  0.00  0.00    +0.000 OA
ATOM     16  O   UNL     1       5.967   0.921   0.000  0.00  0.00    +0.000 OA
ENDBRANCH  12  13
ENDBRANCH  11  12
ENDBRANCH   3  11
TORSDOF 4
