REMARK  Name = 1144
REMARK  2 active torsions:
REMARK  status: ('A' for Active; 'I' for Inactive)
REMARK    1  A    between atoms: S_3  and  C_11
REMARK    2  A    between atoms: S_4  and  C_12
REMARK                            x       y       z     vdW  Elec       q    Type
REMARK                         _______ _______ _______ _____ _____    ______ ____
ROOT
ATOM      1 CL   UNL     1       1.650   0.334   0.000  0.00  0.00    +0.000 Cl
ATOM      2 CL   UNL     1       1.650  -1.316   0.000  0.00  0.00    +0.000 Cl
ATOM      3  C   UNL     1       3.079   0.334   0.000  0.00  0.00    +0.000 A 
ATOM      4  C   UNL     1       3.793  -0.903   0.000  0.00  0.00    +0.000 A 
ATOM      5  C   UNL     1       3.793  -0.078   0.000  0.00  0.00    +0.000 A 
ATOM      6  C   UNL     1       2.365  -0.078   0.000  0.00  0.00    +0.000 A 
ATOM      7  C   UNL     1       3.079  -1.316   0.000  0.00  0.00    +0.000 A 
ATOM      8  C   UNL     1       2.365  -0.903   0.000  0.00  0.00    +0.000 A 
ENDROOT
BRANCH   3   9
ATOM      9  S   UNL     1       3.079   1.159   0.000  0.00  0.00    +0.000 S 
ATOM     10  O   UNL     1       3.904   1.159   0.000  0.00  0.00    +0.000 OA
ATOM     11  O   UNL     1       2.254   1.159   0.000  0.00  0.00    +0.000 OA
ATOM     12  N   UNL     1       3.079   1.984   0.000  0.00  0.00    +0.000 NA
ENDBRANCH   3   9
BRANCH   4  13
ATOM     13  S   UNL     1       4.508  -1.316   0.000  0.00  0.00    +0.000 S 
ATOM     14  O   UNL     1       4.095  -2.030   0.000  0.00  0.00    +0.000 OA
ATOM     15  O   UNL     1       4.920  -0.601   0.000  0.00  0.00    +0.000 OA
ATOM     16  N   UNL     1       5.222  -1.728   0.000  0.00  0.00    +0.000 NA
ENDBRANCH   4  13
TORSDOF 2
