REMARK  Name = 1145
REMARK  8 active torsions:
REMARK  status: ('A' for Active; 'I' for Inactive)
REMARK    1  A    between atoms: S_1  and  C_12
REMARK    2  A    between atoms: S_1  and  C_13
REMARK    3  A    between atoms: S_2  and  C_24
REMARK    4  A    between atoms: S_3  and  C_25
REMARK    5  A    between atoms: N_10  and  C_18
REMARK    6  A    between atoms: N_10  and  C_24
REMARK    7  A    between atoms: N_11  and  C_19
REMARK    8  A    between atoms: N_11  and  C_25
REMARK                            x       y       z     vdW  Elec       q    Type
REMARK                         _______ _______ _______ _____ _____    ______ ____
ROOT
ATOM      1  S   UNL     1       3.079   0.000   0.000  0.00  0.00    +0.000 S 
ATOM      2  O   UNL     1       3.904   0.000   0.000  0.00  0.00    +0.000 OA
ATOM      3  O   UNL     1       2.254   0.000   0.000  0.00  0.00    +0.000 OA
ENDROOT
BRANCH   1   4
ATOM      4  C   UNL     1       3.079   0.825   0.000  0.00  0.00    +0.000 A 
ATOM      5  C   UNL     1       3.793   1.238   0.000  0.00  0.00    +0.000 A 
ATOM      6  C   UNL     1       2.364   1.238   0.000  0.00  0.00    +0.000 A 
ATOM      7  C   UNL     1       3.079   2.475   0.000  0.00  0.00    +0.000 A 
ATOM      8  C   UNL     1       3.793   2.062   0.000  0.00  0.00    +0.000 A 
ATOM      9  C   UNL     1       2.364   2.062   0.000  0.00  0.00    +0.000 A 
BRANCH   7  10
ATOM     10  N   UNL     1       3.079   3.300   0.000  0.00  0.00    +0.000 NA
BRANCH  10  11
ATOM     11  C   UNL     1       3.793   3.712   0.000  0.00  0.00    +0.000 C 
BRANCH  11  12
ATOM     12  S   UNL     1       3.793   4.537   0.000  0.00  0.00    +0.000 S 
ATOM     13  O   UNL     1       4.508   4.950   0.000  0.00  0.00    +0.000 OA
ATOM     14  O   UNL     1       3.079   4.950   0.000  0.00  0.00    +0.000 OA
ENDBRANCH  11  12
ENDBRANCH  10  11
ENDBRANCH   7  10
ENDBRANCH   1   4
BRANCH   1  15
ATOM     15  C   UNL     1       3.079  -0.825   0.000  0.00  0.00    +0.000 A 
ATOM     16  C   UNL     1       2.364  -1.238   0.000  0.00  0.00    +0.000 A 
ATOM     17  C   UNL     1       3.793  -1.238   0.000  0.00  0.00    +0.000 A 
ATOM     18  C   UNL     1       3.079  -2.475   0.000  0.00  0.00    +0.000 A 
ATOM     19  C   UNL     1       2.364  -2.062   0.000  0.00  0.00    +0.000 A 
ATOM     20  C   UNL     1       3.793  -2.062   0.000  0.00  0.00    +0.000 A 
BRANCH  18  21
ATOM     21  N   UNL     1       3.079  -3.300   0.000  0.00  0.00    +0.000 NA
BRANCH  21  22
ATOM     22  C   UNL     1       2.364  -3.712   0.000  0.00  0.00    +0.000 C 
BRANCH  22  23
ATOM     23  S   UNL     1       2.364  -4.537   0.000  0.00  0.00    +0.000 S 
ATOM     24  O   UNL     1       1.650  -4.950   0.000  0.00  0.00    +0.000 OA
ATOM     25  O   UNL     1       3.079  -4.950   0.000  0.00  0.00    +0.000 OA
ENDBRANCH  22  23
ENDBRANCH  21  22
ENDBRANCH  18  21
ENDBRANCH   1  15
TORSDOF 8
