REMARK  Name = 1146
REMARK  4 active torsions:
REMARK  status: ('A' for Active; 'I' for Inactive)
REMARK    1  A    between atoms: O_1  and  C_3
REMARK    2  A    between atoms: O_1  and  C_8
REMARK    3  A    between atoms: C_8  and  C_10
REMARK    4  A    between atoms: C_8  and  C_11
REMARK                            x       y       z     vdW  Elec       q    Type
REMARK                         _______ _______ _______ _____ _____    ______ ____
ROOT
ATOM      1  C   UNL     1       3.079   0.619   0.000  0.00  0.00    +0.000 C 
ENDROOT
BRANCH   1   2
ATOM      2  C   UNL     1       3.079   1.444   0.000  0.00  0.00    +0.000 A 
ATOM      3  C   UNL     1       2.365   1.856   0.000  0.00  0.00    +0.000 A 
ATOM      4  C   UNL     1       3.793   1.856   0.000  0.00  0.00    +0.000 A 
ATOM      5  C   UNL     1       2.365   2.681   0.000  0.00  0.00    +0.000 A 
ATOM      6  C   UNL     1       3.793   2.681   0.000  0.00  0.00    +0.000 A 
ATOM      7  C   UNL     1       3.079   3.094   0.000  0.00  0.00    +0.000 A 
ENDBRANCH   1   2
BRANCH   1   8
ATOM      8  C   UNL     1       3.793   0.206   0.000  0.00  0.00    +0.000 A 
ATOM      9  C   UNL     1       3.793  -0.619   0.000  0.00  0.00    +0.000 A 
ATOM     10  C   UNL     1       4.508   0.619   0.000  0.00  0.00    +0.000 A 
ATOM     11  C   UNL     1       4.508  -1.031   0.000  0.00  0.00    +0.000 A 
ATOM     12  C   UNL     1       5.222   0.206   0.000  0.00  0.00    +0.000 A 
ATOM     13  C   UNL     1       5.222  -0.619   0.000  0.00  0.00    +0.000 A 
ENDBRANCH   1   8
BRANCH   1  14
ATOM     14  O   UNL     1       2.365   0.206   0.000  0.00  0.00    +0.000 OA
BRANCH  14  16
ATOM     15  N   UNL     1       2.365  -2.269   0.000  0.00  0.00    +0.000 NA
ATOM     16  C   UNL     1       2.365  -0.619   0.000  0.00  0.00    +0.000 C 
ATOM     17  C   UNL     1       1.650  -1.031   0.000  0.00  0.00    +0.000 C 
ATOM     18  C   UNL     1       3.079  -1.031   0.000  0.00  0.00    +0.000 C 
ATOM     19  C   UNL     1       1.650  -1.856   0.000  0.00  0.00    +0.000 C 
ATOM     20  C   UNL     1       3.079  -1.856   0.000  0.00  0.00    +0.000 C 
ATOM     21  C   UNL     1       2.365  -3.094   0.000  0.00  0.00    +0.000 C 
ENDBRANCH  14  16
ENDBRANCH   1  14
TORSDOF 4
