REMARK  Name = 1147
REMARK  4 active torsions:
REMARK  status: ('A' for Active; 'I' for Inactive)
REMARK    1  A    between atoms: N_9  and  CA_14
REMARK    2  A    between atoms: CA_13  and  C_18
REMARK    3  A    between atoms: C_19  and  C_20
REMARK    4  A    between atoms: C_21  and  C_23
REMARK                            x       y       z     vdW  Elec       q    Type
REMARK                         _______ _______ _______ _____ _____    ______ ____
ROOT
ATOM      1  O   UNL     1       3.208  -0.650   0.000  0.00  0.00    +0.000 OA
ATOM      2  N   UNL     1       4.221   0.359   0.000  0.00  0.00    +0.000 NA
ATOM      3  C   UNL     1       3.423   0.147   0.000  0.00  0.00    +0.000 C 
ENDROOT
BRANCH   2  10
ATOM      4  S   UNL     1       6.419   0.026   0.000  0.00  0.00    +0.000 S 
ATOM      5  O   UNL     1       4.221  -1.642   0.000  0.00  0.00    +0.000 OA
ATOM      6  N   UNL     1       5.635  -1.054   0.000  0.00  0.00    +0.000 N 
ATOM      7  C   UNL     1       5.635  -0.229   0.000  0.00  0.00    +0.000 C 
ATOM      8  C   UNL     1       6.904  -0.642   0.000  0.00  0.00    +0.000 C 
ATOM      9  CA  UNL     1       6.419  -1.309   0.000  0.00  0.00    +0.000 C 
ATOM     10  CA  UNL     1       4.803  -0.226   0.000  0.00  0.00    +0.000 C 
ATOM     11  C   UNL     1       4.803  -1.058   0.000  0.00  0.00    +0.000 C 
ATOM     12  C   UNL     1       7.572  -0.157   0.000  0.00  0.00    +0.000 C 
ATOM     13  C   UNL     1       7.572  -1.127   0.000  0.00  0.00    +0.000 C 
BRANCH   9  16
ATOM     14  O   UNL     1       6.122  -2.707   0.000  0.00  0.00    +0.000 OA
ATOM     15  OXT UNL     1       7.481  -2.265   0.000  0.00  0.00    +0.000 OA
ATOM     16  C   UNL     1       6.674  -2.094   0.000  0.00  0.00    +0.000 C 
ENDBRANCH   9  16
ENDBRANCH   2  10
BRANCH   3  19
ATOM     17  O   UNL     1       1.653   1.340   0.000  0.00  0.00    +0.000 OA
ATOM     18  N   UNL     1       2.238   1.922   0.000  0.00  0.00    +0.000 NA
ATOM     19  C   UNL     1       2.841   0.731   0.000  0.00  0.00    +0.000 A 
ATOM     20  C   UNL     1       2.972   1.546   0.000  0.00  0.00    +0.000 A 
ATOM     21  C   UNL     1       2.026   0.604   0.000  0.00  0.00    +0.000 A 
ATOM     22  C   UNL     1       1.650  -0.130   0.000  0.00  0.00    +0.000 C 
BRANCH  20  24
ATOM     23 CL   UNL     1       3.062   3.193   0.000  0.00  0.00    +0.000 Cl
ATOM     24  C   UNL     1       3.708   1.919   0.000  0.00  0.00    +0.000 A 
ATOM     25  C   UNL     1       3.753   2.743   0.000  0.00  0.00    +0.000 A 
ATOM     26  C   UNL     1       4.399   1.468   0.000  0.00  0.00    +0.000 A 
ATOM     27  C   UNL     1       4.489   3.116   0.000  0.00  0.00    +0.000 A 
ATOM     28  C   UNL     1       5.135   1.841   0.000  0.00  0.00    +0.000 A 
ATOM     29  C   UNL     1       5.179   2.665   0.000  0.00  0.00    +0.000 A 
ENDBRANCH  20  24
ENDBRANCH   3  19
TORSDOF 4
