REMARK  Name = 1148
REMARK  6 active torsions:
REMARK  status: ('A' for Active; 'I' for Inactive)
REMARK    1  A    between atoms: O_1  and  C_12
REMARK    2  A    between atoms: O_1  and  C_14
REMARK    3  A    between atoms: N_5  and  C_11
REMARK    4  A    between atoms: C_11  and  C_12
REMARK    5  A    between atoms: C_13  and  C_14
REMARK    6  A    between atoms: C_18  and  C_22
REMARK                            x       y       z     vdW  Elec       q    Type
REMARK                         _______ _______ _______ _____ _____    ______ ____
ROOT
ATOM      1  O   UNL     1       4.508   1.260   0.000  0.00  0.00    +0.000 OA
ATOM      2  O   UNL     1       4.508   3.735   0.000  0.00  0.00    +0.000 OA
ATOM      3  C   UNL     1       5.960   1.231   0.000  0.00  0.00    +0.000 A 
ATOM      4  C   UNL     1       5.222   1.672   0.000  0.00  0.00    +0.000 A 
ATOM      5  C   UNL     1       5.222   2.497   0.000  0.00  0.00    +0.000 A 
ATOM      6  C   UNL     1       3.793   2.497   0.000  0.00  0.00    +0.000 A 
ATOM      7  C   UNL     1       3.793   1.672   0.000  0.00  0.00    +0.000 A 
ATOM      8  C   UNL     1       4.508   2.910   0.000  0.00  0.00    +0.000 A 
ATOM      9  C   UNL     1       6.707   1.655   0.000  0.00  0.00    +0.000 A 
ATOM     10  C   UNL     1       5.960   2.938   0.000  0.00  0.00    +0.000 A 
ATOM     11  C   UNL     1       6.707   2.515   0.000  0.00  0.00    +0.000 A 
ATOM     12  C   UNL     1       3.079   2.910   0.000  0.00  0.00    +0.000 C 
ENDROOT
BRANCH   7  13
ATOM     13  C   UNL     1       3.079   1.260   0.000  0.00  0.00    +0.000 A 
ATOM     14  C   UNL     1       3.079   0.435   0.000  0.00  0.00    +0.000 A 
ATOM     15  C   UNL     1       2.365   1.672   0.000  0.00  0.00    +0.000 A 
ATOM     16  C   UNL     1       2.365   0.022   0.000  0.00  0.00    +0.000 A 
ATOM     17  C   UNL     1       1.650   1.260   0.000  0.00  0.00    +0.000 A 
ATOM     18  C   UNL     1       1.650   0.435   0.000  0.00  0.00    +0.000 A 
ENDBRANCH   7  13
BRANCH   3  20
ATOM     19  O   UNL     1       5.231   0.002   0.000  0.00  0.00    +0.000 OA
ATOM     20  C   UNL     1       5.950   0.406   0.000  0.00  0.00    +0.000 C 
BRANCH  20  21
ATOM     21  O   UNL     1       6.660  -0.014   0.000  0.00  0.00    +0.000 OA
BRANCH  21  22
ATOM     22  C   UNL     1       6.651  -0.839   0.000  0.00  0.00    +0.000 C 
BRANCH  22  23
ATOM     23  C   UNL     1       7.360  -1.260   0.000  0.00  0.00    +0.000 C 
BRANCH  23  24
ATOM     24  N   UNL     1       7.351  -2.085   0.000  0.00  0.00    +0.000 NA
ATOM     25  C   UNL     1       8.060  -2.506   0.000  0.00  0.00    +0.000 C 
ATOM     26  C   UNL     1       6.631  -2.489   0.000  0.00  0.00    +0.000 C 
ATOM     27  C   UNL     1       8.051  -3.331   0.000  0.00  0.00    +0.000 C 
ATOM     28  C   UNL     1       6.622  -3.314   0.000  0.00  0.00    +0.000 C 
ATOM     29  C   UNL     1       7.332  -3.735   0.000  0.00  0.00    +0.000 C 
ENDBRANCH  23  24
ENDBRANCH  22  23
ENDBRANCH  21  22
ENDBRANCH  20  21
ENDBRANCH   3  20
TORSDOF 6
