REMARK  Name = 1149
REMARK  10 active torsions:
REMARK  status: ('A' for Active; 'I' for Inactive)
REMARK    1  A    between atoms: O_3  and  C_25
REMARK    2  A    between atoms: O_3  and  C_28
REMARK    3  A    between atoms: N_4  and  C_13
REMARK    4  A    between atoms: N_5  and  C_16
REMARK    5  A    between atoms: N_6  and  C_15
REMARK    6  A    between atoms: N_7  and  C_21
REMARK    7  A    between atoms: C_13  and  C_14
REMARK    8  A    between atoms: C_14  and  C_15
REMARK    9  A    between atoms: C_18  and  C_22
REMARK   10  A    between atoms: C_21  and  C_25
REMARK                            x       y       z     vdW  Elec       q    Type
REMARK                         _______ _______ _______ _____ _____    ______ ____
ROOT
ATOM      1  O   UNL     1       3.981   2.917   0.000  0.00  0.00    +0.000 OA
ATOM      2  N   UNL     1       4.508   1.544   0.000  0.00  0.00    +0.000 N 
ATOM      3  N   UNL     1       5.401   2.536   0.000  0.00  0.00    +0.000 N 
ATOM      4  N   UNL     1       5.262   1.209   0.000  0.00  0.00    +0.000 NA
ATOM      5  C   UNL     1       4.594   2.365   0.000  0.00  0.00    +0.000 A 
ATOM      6  C   UNL     1       5.814   1.822   0.000  0.00  0.00    +0.000 A 
ENDROOT
BRANCH   6   7
ATOM      7  C   UNL     1       6.634   1.736   0.000  0.00  0.00    +0.000 C 
ATOM      8  C   UNL     1       6.970   0.982   0.000  0.00  0.00    +0.000 C 
ENDBRANCH   6   7
BRANCH   2   9
ATOM      9  C   UNL     1       3.793   1.132   0.000  0.00  0.00    +0.000 C 
BRANCH   9  10
ATOM     10  C   UNL     1       3.793   0.307   0.000  0.00  0.00    +0.000 C 
BRANCH  10  11
ATOM     11  C   UNL     1       3.079  -0.106   0.000  0.00  0.00    +0.000 C 
BRANCH  11  12
ATOM     12  N   UNL     1       3.079  -0.931   0.000  0.00  0.00    +0.000 NA
ATOM     13  N   UNL     1       3.079  -2.581   0.000  0.00  0.00    +0.000 N 
ATOM     14  C   UNL     1       2.365  -1.343   0.000  0.00  0.00    +0.000 C 
ATOM     15  C   UNL     1       3.793  -1.343   0.000  0.00  0.00    +0.000 C 
ATOM     16  C   UNL     1       2.365  -2.168   0.000  0.00  0.00    +0.000 C 
ATOM     17  C   UNL     1       3.793  -2.168   0.000  0.00  0.00    +0.000 C 
BRANCH  13  19
ATOM     18 CL   UNL     1       1.650  -5.056   0.000  0.00  0.00    +0.000 Cl
ATOM     19  C   UNL     1       3.079  -3.406   0.000  0.00  0.00    +0.000 A 
ATOM     20  C   UNL     1       2.365  -3.818   0.000  0.00  0.00    +0.000 A 
ATOM     21  C   UNL     1       3.793  -3.818   0.000  0.00  0.00    +0.000 A 
ATOM     22  C   UNL     1       2.365  -4.643   0.000  0.00  0.00    +0.000 A 
ATOM     23  C   UNL     1       3.793  -4.643   0.000  0.00  0.00    +0.000 A 
ATOM     24  C   UNL     1       3.079  -5.056   0.000  0.00  0.00    +0.000 A 
ENDBRANCH  13  19
ENDBRANCH  11  12
ENDBRANCH  10  11
ENDBRANCH   9  10
ENDBRANCH   2   9
BRANCH   3  25
ATOM     25  C   UNL     1       5.737   3.290   0.000  0.00  0.00    +0.000 C 
BRANCH  25  26
ATOM     26  C   UNL     1       6.557   3.376   0.000  0.00  0.00    +0.000 C 
BRANCH  26  27
ATOM     27  O   UNL     1       6.893   4.130   0.000  0.00  0.00    +0.000 OA
BRANCH  27  28
ATOM     28  C   UNL     1       7.713   4.216   0.000  0.00  0.00    +0.000 A 
ATOM     29  C   UNL     1       8.049   4.970   0.000  0.00  0.00    +0.000 A 
ATOM     30  C   UNL     1       8.198   3.549   0.000  0.00  0.00    +0.000 A 
ATOM     31  C   UNL     1       8.869   5.056   0.000  0.00  0.00    +0.000 A 
ATOM     32  C   UNL     1       9.019   3.635   0.000  0.00  0.00    +0.000 A 
ATOM     33  C   UNL     1       9.354   4.388   0.000  0.00  0.00    +0.000 A 
ENDBRANCH  27  28
ENDBRANCH  26  27
ENDBRANCH  25  26
ENDBRANCH   3  25
TORSDOF 10
