REMARK  Name = 1153
REMARK  6 active torsions:
REMARK  status: ('A' for Active; 'I' for Inactive)
REMARK    1  A    between atoms: O_5  and  C_8
REMARK    2  A    between atoms: O_5  and  C_11
REMARK    3  A    between atoms: N_6  and  C_9
REMARK    4  A    between atoms: C_8  and  C_9
REMARK    5  A    between atoms: C_8  and  C_10
REMARK    6  A    between atoms: C_11  and  C_12
REMARK                            x       y       z     vdW  Elec       q    Type
REMARK                         _______ _______ _______ _____ _____    ______ ____
ROOT
ATOM      1  C   UNL     1       5.179   0.660   0.000  0.00  0.00    +0.000 C 
ENDROOT
BRANCH   1   4
ATOM      2 CL   UNL     1       6.282  -0.568   0.000  0.00  0.00    +0.000 Cl
ATOM      3 CL   UNL     1       8.409   1.340   0.000  0.00  0.00    +0.000 Cl
ATOM      4  C   UNL     1       5.987   0.830   0.000  0.00  0.00    +0.000 A 
ATOM      5  C   UNL     1       6.538   0.216   0.000  0.00  0.00    +0.000 A 
ATOM      6  C   UNL     1       6.243   1.614   0.000  0.00  0.00    +0.000 A 
ATOM      7  C   UNL     1       7.345   0.386   0.000  0.00  0.00    +0.000 A 
ATOM      8  C   UNL     1       7.050   1.784   0.000  0.00  0.00    +0.000 A 
ATOM      9  C   UNL     1       7.601   1.170   0.000  0.00  0.00    +0.000 A 
ENDBRANCH   1   4
BRANCH   1  10
ATOM     10  O   UNL     1       4.923  -0.125   0.000  0.00  0.00    +0.000 OA
BRANCH  10  11
ATOM     11  C   UNL     1       4.116  -0.295   0.000  0.00  0.00    +0.000 C 
BRANCH  11  14
ATOM     12 CL   UNL     1       2.365  -3.393   0.000  0.00  0.00    +0.000 Cl
ATOM     13  S   UNL     1       3.860  -2.407   0.000  0.00  0.00    +0.000 S 
ATOM     14  C   UNL     1       3.860  -1.079   0.000  0.00  0.00    +0.000 A 
ATOM     15  C   UNL     1       3.079  -1.330   0.000  0.00  0.00    +0.000 A 
ATOM     16  C   UNL     1       3.079  -2.155   0.000  0.00  0.00    +0.000 A 
ATOM     17  C   UNL     1       4.341  -1.743   0.000  0.00  0.00    +0.000 A 
ATOM     18  C   UNL     1       2.365  -0.918   0.000  0.00  0.00    +0.000 A 
ATOM     19  C   UNL     1       2.365  -2.568   0.000  0.00  0.00    +0.000 A 
ATOM     20  C   UNL     1       1.650  -1.330   0.000  0.00  0.00    +0.000 A 
ATOM     21  C   UNL     1       1.650  -2.155   0.000  0.00  0.00    +0.000 A 
ENDBRANCH  11  14
ENDBRANCH  10  11
ENDBRANCH   1  10
BRANCH   1  22
ATOM     22  C   UNL     1       4.629   1.274   0.000  0.00  0.00    +0.000 C 
BRANCH  22  23
ATOM     23  N   UNL     1       4.885   2.058   0.000  0.00  0.00    +0.000 N 
ATOM     24  N   UNL     1       5.671   3.137   0.000  0.00  0.00    +0.000 NA
ATOM     25  C   UNL     1       4.401   2.726   0.000  0.00  0.00    +0.000 A 
ATOM     26  C   UNL     1       5.670   2.312   0.000  0.00  0.00    +0.000 A 
ATOM     27  C   UNL     1       4.887   3.393   0.000  0.00  0.00    +0.000 A 
ENDBRANCH  22  23
ENDBRANCH   1  22
TORSDOF 6
