REMARK  Name = 1156
REMARK  1 active torsions:
REMARK  status: ('A' for Active; 'I' for Inactive)
REMARK    1  A    between atoms: C_4  and  C_8
REMARK                            x       y       z     vdW  Elec       q    Type
REMARK                         _______ _______ _______ _____ _____    ______ ____
ROOT
ATOM      1  C   UNL     1       6.188  -1.282   0.000  0.00  0.00    +0.000 C 
ATOM      2  C   UNL     1       6.903  -1.694   0.000  0.00  0.00    +0.000 C 
ATOM      3  N   UNL     1       7.617  -1.282   0.000  0.00  0.00    +0.000 NA
ATOM      4  C   UNL     1       7.617  -0.457   0.000  0.00  0.00    +0.000 C 
ATOM      5  C   UNL     1       6.903  -0.044   0.000  0.00  0.00    +0.000 C 
ATOM      6  O   UNL     1       6.188  -0.457   0.000  0.00  0.00    +0.000 OA
ATOM      7  C   UNL     1       8.332  -0.044   0.000  0.00  0.00    +0.000 C 
ATOM      8  C   UNL     1       7.647   0.396   0.000  0.00  0.00    +0.000 C 
ATOM      9  C   UNL     1       6.903  -2.519   0.000  0.00  0.00    +0.000 C 
ATOM     10  O   UNL     1       5.489  -0.944   0.000  0.00  0.00    +0.000 OA
ENDROOT
BRANCH   1  14
ATOM     11  C   UNL     1       4.045  -1.694   0.000  0.00  0.00    +0.000 A 
ATOM     12  C   UNL     1       4.759  -1.282   0.000  0.00  0.00    +0.000 A 
ATOM     13  C   UNL     1       4.045  -2.519   0.000  0.00  0.00    +0.000 A 
ATOM     14  C   UNL     1       5.474  -1.694   0.000  0.00  0.00    +0.000 A 
ATOM     15  C   UNL     1       4.759  -2.932   0.000  0.00  0.00    +0.000 A 
ATOM     16  C   UNL     1       5.474  -2.519   0.000  0.00  0.00    +0.000 A 
ATOM     17 CL   UNL     1       3.330  -1.282   0.000  0.00  0.00    +0.000 Cl
ENDBRANCH   1  14
TORSDOF 1
