REMARK  Name = 1156
REMARK  4 active torsions:
REMARK  status: ('A' for Active; 'I' for Inactive)
REMARK    1  A    between atoms: N_3  and  C_4
REMARK    2  A    between atoms: N_3  and  C_5
REMARK    3  A    between atoms: C_5  and  C_10
REMARK    4  A    between atoms: C_10  and  C_11
REMARK                            x       y       z     vdW  Elec       q    Type
REMARK                         _______ _______ _______ _____ _____    ______ ____
ROOT
ATOM      1  O   UNL     1       2.365   0.468   0.000  0.00  0.00    +0.000 OA
ATOM      2  C   UNL     1       3.079   0.055   0.000  0.00  0.00    +0.000 C 
ENDROOT
BRANCH   2   4
ATOM      3 CL   UNL     1       1.650  -2.420   0.000  0.00  0.00    +0.000 Cl
ATOM      4  C   UNL     1       3.079  -0.770   0.000  0.00  0.00    +0.000 A 
ATOM      5  C   UNL     1       2.365  -1.182   0.000  0.00  0.00    +0.000 A 
ATOM      6  C   UNL     1       3.793  -1.182   0.000  0.00  0.00    +0.000 A 
ATOM      7  C   UNL     1       2.365  -2.007   0.000  0.00  0.00    +0.000 A 
ATOM      8  C   UNL     1       3.793  -2.007   0.000  0.00  0.00    +0.000 A 
ATOM      9  C   UNL     1       3.079  -2.420   0.000  0.00  0.00    +0.000 A 
ENDBRANCH   2   4
BRANCH   2  10
ATOM     10  C   UNL     1       3.793   0.468   0.000  0.00  0.00    +0.000 C 
ATOM     11  C   UNL     1       4.508   0.055   0.000  0.00  0.00    +0.000 C 
BRANCH  10  12
ATOM     12  N   UNL     1       3.793   1.293   0.000  0.00  0.00    +0.000 NA
BRANCH  12  13
ATOM     13  C   UNL     1       4.508   1.705   0.000  0.00  0.00    +0.000 C 
ATOM     14  C   UNL     1       5.222   2.118   0.000  0.00  0.00    +0.000 C 
ATOM     15  C   UNL     1       4.096   2.420   0.000  0.00  0.00    +0.000 C 
ATOM     16  C   UNL     1       4.920   0.991   0.000  0.00  0.00    +0.000 C 
ENDBRANCH  12  13
ENDBRANCH  10  12
ENDBRANCH   2  10
TORSDOF 4
