REMARK  Name = 1157
REMARK  6 active torsions:
REMARK  status: ('A' for Active; 'I' for Inactive)
REMARK    1  A    between atoms: O_1  and  C_21
REMARK    2  A    between atoms: O_2  and  C_22
REMARK    3  A    between atoms: O_3  and  C_23
REMARK    4  A    between atoms: N_4  and  C_11
REMARK    5  A    between atoms: N_4  and  C_17
REMARK    6  A    between atoms: C_9  and  C_11
REMARK                            x       y       z     vdW  Elec       q    Type
REMARK                         _______ _______ _______ _____ _____    ______ ____
ROOT
ATOM      1  C   UNL     1       6.434   0.150   0.000  0.00  0.00    +0.000 C 
ENDROOT
BRANCH   1   6
ATOM      2  N   UNL     1       3.522   1.819   0.000  0.00  0.00    +0.000 NA
ATOM      3  N   UNL     1       2.808   0.582   0.000  0.00  0.00    +0.000 NA
ATOM      4  N   UNL     1       3.522  -0.656   0.000  0.00  0.00    +0.000 NA
ATOM      5  N   UNL     1       2.093   1.819   0.000  0.00  0.00    +0.000 NA
ATOM      6  C   UNL     1       5.721   0.565   0.000  0.00  0.00    +0.000 A 
ATOM      7  C   UNL     1       4.974   0.141   0.000  0.00  0.00    +0.000 A 
ATOM      8  C   UNL     1       4.236   0.582   0.000  0.00  0.00    +0.000 A 
ATOM      9  C   UNL     1       4.236   1.407   0.000  0.00  0.00    +0.000 A 
ATOM     10  C   UNL     1       5.721   1.424   0.000  0.00  0.00    +0.000 A 
ATOM     11  C   UNL     1       4.974   1.848   0.000  0.00  0.00    +0.000 A 
ATOM     12  C   UNL     1       4.964  -0.684   0.000  0.00  0.00    +0.000 C 
ATOM     13  C   UNL     1       3.522   0.170   0.000  0.00  0.00    +0.000 A 
ATOM     14  C   UNL     1       2.808   1.407   0.000  0.00  0.00    +0.000 A 
ENDBRANCH   1   6
BRANCH   1  15
ATOM     15  N   UNL     1       7.150   0.559   0.000  0.00  0.00    +0.000 NA
BRANCH  15  16
ATOM     16  C   UNL     1       7.863   0.144   0.000  0.00  0.00    +0.000 A 
ATOM     17  C   UNL     1       8.579   0.554   0.000  0.00  0.00    +0.000 A 
ATOM     18  C   UNL     1       7.860  -0.681   0.000  0.00  0.00    +0.000 A 
ATOM     19  C   UNL     1       8.573  -1.096   0.000  0.00  0.00    +0.000 A 
ATOM     20  C   UNL     1       9.292   0.139   0.000  0.00  0.00    +0.000 A 
ATOM     21  C   UNL     1       9.289  -0.686   0.000  0.00  0.00    +0.000 A 
BRANCH  21  22
ATOM     22  O   UNL     1      10.002  -1.102   0.000  0.00  0.00    +0.000 OA
ATOM     23  C   UNL     1      10.718  -0.692   0.000  0.00  0.00    +0.000 C 
ENDBRANCH  21  22
BRANCH  19  24
ATOM     24  O   UNL     1       8.570  -1.921   0.000  0.00  0.00    +0.000 OA
ATOM     25  C   UNL     1       7.854  -2.331   0.000  0.00  0.00    +0.000 C 
ENDBRANCH  19  24
BRANCH  20  26
ATOM     26  O   UNL     1      10.008   0.548   0.000  0.00  0.00    +0.000 OA
ATOM     27  C   UNL     1      10.011   1.373   0.000  0.00  0.00    +0.000 C 
ENDBRANCH  20  26
ENDBRANCH  15  16
ENDBRANCH   1  15
TORSDOF 6
