REMARK  Name = 1158
REMARK  3 active torsions:
REMARK  status: ('A' for Active; 'I' for Inactive)
REMARK    1  A    between atoms: N_2  and  C_3
REMARK    2  A    between atoms: N_2  and  C_4
REMARK    3  A    between atoms: C_3  and  C_7
REMARK                            x       y       z     vdW  Elec       q    Type
REMARK                         _______ _______ _______ _____ _____    ______ ____
ROOT
ATOM      1 BR   UNL     1       1.650  -0.412   0.000  0.00  0.00    +0.000 Br
ATOM      2  C   UNL     1       3.079  -0.412   0.000  0.00  0.00    +0.000 A 
ATOM      3  C   UNL     1       2.365  -0.825   0.000  0.00  0.00    +0.000 A 
ATOM      4  C   UNL     1       3.793  -0.825   0.000  0.00  0.00    +0.000 A 
ATOM      5  C   UNL     1       2.365  -1.650   0.000  0.00  0.00    +0.000 A 
ATOM      6  C   UNL     1       3.793  -1.650   0.000  0.00  0.00    +0.000 A 
ATOM      7  C   UNL     1       3.079  -2.062   0.000  0.00  0.00    +0.000 A 
ENDROOT
BRANCH   2   8
ATOM      8  C   UNL     1       3.079   0.412   0.000  0.00  0.00    +0.000 C 
BRANCH   8   9
ATOM      9  N   UNL     1       3.793   0.825   0.000  0.00  0.00    +0.000 N 
ATOM     10  C   UNL     1       3.381   1.540   0.000  0.00  0.00    +0.000 C 
ATOM     11  C   UNL     1       4.206   0.111   0.000  0.00  0.00    +0.000 C 
BRANCH   9  12
ATOM     12  C   UNL     1       4.508   1.238   0.000  0.00  0.00    +0.000 C 
ATOM     13  C   UNL     1       4.508   2.062   0.000  0.00  0.00    +0.000 C 
ENDBRANCH   9  12
ENDBRANCH   8   9
ENDBRANCH   2   8
TORSDOF 3
