REMARK  Name = 116
REMARK  9 active torsions:
REMARK  status: ('A' for Active; 'I' for Inactive)
REMARK    1  A    between atoms: N_9  and  C_16
REMARK    2  A    between atoms: N_9  and  C_19
REMARK    3  A    between atoms: N_12  and  CA_22
REMARK    4  A    between atoms: C_14  and  C_16
REMARK    5  A    between atoms: CA_22  and  CB_23
REMARK    6  A    between atoms: CA_22  and  C_31
REMARK    7  A    between atoms: CB_23  and  CG_29
REMARK    8  A    between atoms: C_26  and  C_30
REMARK    9  A    between atoms: CG_29  and  CD_32
REMARK                            x       y       z     vdW  Elec       q    Type
REMARK                         _______ _______ _______ _____ _____    ______ ____
ROOT
ATOM      1  C   UNL     1       7.863  -1.014   0.000  0.00  0.00    +0.000 A 
ATOM      2  C   UNL     1       8.579  -1.424   0.000  0.00  0.00    +0.000 A 
ATOM      3  C   UNL     1       7.860  -0.189   0.000  0.00  0.00    +0.000 A 
ATOM      4  C   UNL     1       9.289  -0.183   0.000  0.00  0.00    +0.000 A 
ATOM      5  C   UNL     1       9.292  -1.008   0.000  0.00  0.00    +0.000 A 
ATOM      6  C   UNL     1       8.573   0.226   0.000  0.00  0.00    +0.000 A 
ENDROOT
BRANCH   4   9
ATOM      7  O   UNL     1       9.999   1.057   0.000  0.00  0.00    +0.000 OA
ATOM      8  N   UNL     1      10.718  -0.178   0.000  0.00  0.00    +0.000 NA
ATOM      9  C   ACE A   0      10.002   0.232   0.000  0.00  0.00    +0.000 C 
BRANCH   8  10
ATOM     10  CA  UNL     1      11.431   0.237   0.000  0.00  0.00    +0.000 C 
BRANCH  10  13
ATOM     11  O   UNL     1      12.860   0.243   0.000  0.00  0.00    +0.000 OA
ATOM     12  OXT UNL     1      12.150  -0.997   0.000  0.00  0.00    +0.000 OA
ATOM     13  C   UNL     1      12.147  -0.172   0.000  0.00  0.00    +0.000 C 
ENDBRANCH  10  13
BRANCH  10  14
ATOM     14  CB  UNL     1      11.428   1.062   0.000  0.00  0.00    +0.000 C 
BRANCH  14  15
ATOM     15  CG  UNL     1      12.141   1.478   0.000  0.00  0.00    +0.000 C 
BRANCH  15  18
ATOM     16  OE1 UNL     1      12.850   2.718   0.000  0.00  0.00    +0.000 OA
ATOM     17  OE2 UNL     1      11.421   2.712   0.000  0.00  0.00    +0.000 OA
ATOM     18  CD  UNL     1      12.137   2.303   0.000  0.00  0.00    +0.000 C 
ENDBRANCH  15  18
ENDBRANCH  14  15
ENDBRANCH  10  14
ENDBRANCH   8  10
ENDBRANCH   4   9
BRANCH   1  19
ATOM     19  N   UNL     1       7.150  -1.429   0.000  0.00  0.00    +0.000 NA
BRANCH  19  20
ATOM     20  C   UNL     1       6.434  -1.019   0.000  0.00  0.00    +0.000 C 
BRANCH  20  27
ATOM     21  O   UNL     1       3.522  -0.214   0.000  0.00  0.00    +0.000 OA
ATOM     22  N   UNL     1       4.974  -1.011   0.000  0.00  0.00    +0.000 NA
ATOM     23  N   UNL     1       4.974  -2.718   0.000  0.00  0.00    +0.000 NA
ATOM     24  N   UNL     1       3.522  -2.689   0.000  0.00  0.00    +0.000 NA
ATOM     25  N   UNL     1       2.808  -1.452   0.000  0.00  0.00    +0.000 NA
ATOM     26  N   UNL     1       2.093  -2.689   0.000  0.00  0.00    +0.000 NA
ATOM     27  C   UNL     1       5.721  -1.435   0.000  0.00  0.00    +0.000 C 
ATOM     28  C   UNL     1       5.721  -2.294   0.000  0.00  0.00    +0.000 C 
ATOM     29  C   UNL     1       4.236  -1.452   0.000  0.00  0.00    +0.000 A 
ATOM     30  C   UNL     1       4.236  -2.277   0.000  0.00  0.00    +0.000 A 
ATOM     31  C   UNL     1       3.522  -1.039   0.000  0.00  0.00    +0.000 A 
ATOM     32  C   UNL     1       2.808  -2.277   0.000  0.00  0.00    +0.000 A 
ENDBRANCH  20  27
ENDBRANCH  19  20
ENDBRANCH   1  19
TORSDOF 9
