REMARK  Name = 1162
REMARK  3 active torsions:
REMARK  status: ('A' for Active; 'I' for Inactive)
REMARK    1  A    between atoms: O_3  and  C_25
REMARK    2  A    between atoms: O_4  and  C_26
REMARK    3  A    between atoms: C_10  and  C_16
REMARK                            x       y       z     vdW  Elec       q    Type
REMARK                         _______ _______ _______ _____ _____    ______ ____
ROOT
ATOM      1  O   UNL     1       3.670   2.397   0.000  0.00  0.00    +0.000 OA
ATOM      2  N   UNL     1       4.385   1.159   0.000  0.00  0.00    +0.000 N 
ATOM      3  N   UNL     1       5.814   0.334   0.000  0.00  0.00    +0.000 N 
ATOM      4  N   UNL     1       7.243   0.334   0.000  0.00  0.00    +0.000 NA
ATOM      5  N   UNL     1       6.528  -0.903   0.000  0.00  0.00    +0.000 NA
ATOM      6  N   UNL     1       7.243  -2.141   0.000  0.00  0.00    +0.000 NA
ATOM      7  C   UNL     1       5.099   1.572   0.000  0.00  0.00    +0.000 C 
ATOM      8  C   UNL     1       4.385   0.334   0.000  0.00  0.00    +0.000 C 
ATOM      9  C   UNL     1       5.814   1.159   0.000  0.00  0.00    +0.000 C 
ATOM     10  C   UNL     1       5.099  -0.078   0.000  0.00  0.00    +0.000 C 
ATOM     11  C   UNL     1       3.670   1.572   0.000  0.00  0.00    +0.000 C 
ATOM     12  C   UNL     1       6.528  -0.078   0.000  0.00  0.00    +0.000 A 
ATOM     13  C   UNL     1       7.957  -0.078   0.000  0.00  0.00    +0.000 A 
ATOM     14  C   UNL     1       7.957  -0.903   0.000  0.00  0.00    +0.000 A 
ATOM     15  C   UNL     1       7.243  -1.316   0.000  0.00  0.00    +0.000 A 
ATOM     16  C   UNL     1       8.695   0.363   0.000  0.00  0.00    +0.000 A 
ATOM     17  C   UNL     1       8.695  -1.345   0.000  0.00  0.00    +0.000 A 
ATOM     18  C   UNL     1       9.442  -0.061   0.000  0.00  0.00    +0.000 A 
ATOM     19  C   UNL     1       9.442  -0.921   0.000  0.00  0.00    +0.000 A 
ENDROOT
BRANCH  11  21
ATOM     20  O   UNL     1       2.869   0.339   0.000  0.00  0.00    +0.000 OA
ATOM     21  C   UNL     1       2.956   1.159   0.000  0.00  0.00    +0.000 C 
ATOM     22  C   UNL     1       2.202   1.495   0.000  0.00  0.00    +0.000 C 
ATOM     23  C   UNL     1       1.650   0.882   0.000  0.00  0.00    +0.000 C 
ATOM     24  C   UNL     1       2.062   0.167   0.000  0.00  0.00    +0.000 C 
ENDBRANCH  11  21
BRANCH  18  25
ATOM     25  O   UNL     1      10.155   0.354   0.000  0.00  0.00    +0.000 OA
ATOM     26  C   UNL     1      10.152   1.179   0.000  0.00  0.00    +0.000 C 
ENDBRANCH  18  25
BRANCH  19  27
ATOM     27  O   UNL     1      10.155  -1.336   0.000  0.00  0.00    +0.000 OA
ATOM     28  C   UNL     1      10.871  -0.926   0.000  0.00  0.00    +0.000 C 
ENDBRANCH  19  27
TORSDOF 3
