REMARK  Name = 1166
REMARK  7 active torsions:
REMARK  status: ('A' for Active; 'I' for Inactive)
REMARK    1  A    between atoms: O_1  and  C_18
REMARK    2  A    between atoms: O_1  and  C_23
REMARK    3  A    between atoms: N_3  and  C_8
REMARK    4  A    between atoms: C_14  and  C_15
REMARK    5  A    between atoms: C_15  and  C_16
REMARK    6  A    between atoms: C_16  and  C_17
REMARK    7  A    between atoms: C_17  and  C_18
REMARK                            x       y       z     vdW  Elec       q    Type
REMARK                         _______ _______ _______ _____ _____    ______ ____
ROOT
ATOM      1  C   UNL     1       7.420  -0.085   0.000  0.00  0.00    +0.000 C 
ENDROOT
BRANCH   1   2
ATOM      2  C   UNL     1       8.136  -0.495   0.000  0.00  0.00    +0.000 C 
BRANCH   2   3
ATOM      3  C   UNL     1       8.849  -0.080   0.000  0.00  0.00    +0.000 C 
BRANCH   3   8
ATOM      4  N   UNL     1      10.318  -0.151   0.000  0.00  0.00    +0.000 N 
ATOM      5  N   UNL     1      10.872  -0.762   0.000  0.00  0.00    +0.000 NA
ATOM      6  N   UNL     1       9.655  -1.309   0.000  0.00  0.00    +0.000 NA
ATOM      7  N   UNL     1      10.462  -1.478   0.000  0.00  0.00    +0.000 NA
ATOM      8  C   UNL     1       9.565  -0.489   0.000  0.00  0.00    +0.000 A 
BRANCH   4   9
ATOM      9  C   UNL     1      10.486   0.657   0.000  0.00  0.00    +0.000 C 
ATOM     10  C   UNL     1       9.871   1.206   0.000  0.00  0.00    +0.000 C 
ATOM     11  C   UNL     1      11.270   0.915   0.000  0.00  0.00    +0.000 C 
ATOM     12  C   UNL     1      10.039   2.014   0.000  0.00  0.00    +0.000 C 
ATOM     13  C   UNL     1      11.438   1.722   0.000  0.00  0.00    +0.000 C 
ATOM     14  C   UNL     1      10.823   2.272   0.000  0.00  0.00    +0.000 C 
ENDBRANCH   4   9
ENDBRANCH   3   8
ENDBRANCH   2   3
ENDBRANCH   1   2
BRANCH   1  15
ATOM     15  C   UNL     1       6.707  -0.500   0.000  0.00  0.00    +0.000 C 
BRANCH  15  16
ATOM     16  O   UNL     1       5.991  -0.091   0.000  0.00  0.00    +0.000 OA
BRANCH  16  23
ATOM     17  O   UNL     1       1.650  -1.761   0.000  0.00  0.00    +0.000 OA
ATOM     18  N   UNL     1       3.079  -1.761   0.000  0.00  0.00    +0.000 NA
ATOM     19  C   UNL     1       3.793  -0.523   0.000  0.00  0.00    +0.000 A 
ATOM     20  C   UNL     1       3.079  -0.111   0.000  0.00  0.00    +0.000 C 
ATOM     21  C   UNL     1       3.793  -1.348   0.000  0.00  0.00    +0.000 A 
ATOM     22  C   UNL     1       2.365  -0.523   0.000  0.00  0.00    +0.000 C 
ATOM     23  C   UNL     1       5.278  -0.506   0.000  0.00  0.00    +0.000 A 
ATOM     24  C   UNL     1       4.531  -0.082   0.000  0.00  0.00    +0.000 A 
ATOM     25  C   UNL     1       2.365  -1.348   0.000  0.00  0.00    +0.000 C 
ATOM     26  C   UNL     1       4.531  -1.789   0.000  0.00  0.00    +0.000 A 
ATOM     27  C   UNL     1       5.278  -1.365   0.000  0.00  0.00    +0.000 A 
ENDBRANCH  16  23
ENDBRANCH  15  16
ENDBRANCH   1  15
TORSDOF 7
