REMARK  Name = 1168
REMARK  5 active torsions:
REMARK  status: ('A' for Active; 'I' for Inactive)
REMARK    1  A    between atoms: N_2  and  C_5
REMARK    2  A    between atoms: N_3  and  N_4
REMARK    3  A    between atoms: N_3  and  C_9
REMARK    4  A    between atoms: C_6  and  C_9
REMARK    5  A    between atoms: C_7  and  C_8
REMARK                            x       y       z     vdW  Elec       q    Type
REMARK                         _______ _______ _______ _____ _____    ______ ____
ROOT
ATOM      1  C   UNL     1       3.079  -0.825   0.000  0.00  0.00    +0.000 A 
ATOM      2  C   UNL     1       3.079   0.825   0.000  0.00  0.00    +0.000 A 
ATOM      3  C   UNL     1       2.365  -0.412   0.000  0.00  0.00    +0.000 A 
ATOM      4  C   UNL     1       3.793  -0.412   0.000  0.00  0.00    +0.000 A 
ATOM      5  C   UNL     1       2.365   0.412   0.000  0.00  0.00    +0.000 A 
ATOM      6  C   UNL     1       3.793   0.412   0.000  0.00  0.00    +0.000 A 
ENDROOT
BRANCH   2   9
ATOM      7  O   UNL     1       2.365   2.062   0.000  0.00  0.00    +0.000 OA
ATOM      8  N   UNL     1       3.793   2.062   0.000  0.00  0.00    +0.000 NA
ATOM      9  C   UNL     1       3.079   1.650   0.000  0.00  0.00    +0.000 C 
BRANCH   8  10
ATOM     10  C   UNL     1       3.793   2.888   0.000  0.00  0.00    +0.000 C 
ATOM     11  C   UNL     1       4.508   3.300   0.000  0.00  0.00    +0.000 C 
ATOM     12  C   UNL     1       3.079   3.300   0.000  0.00  0.00    +0.000 C 
ENDBRANCH   8  10
ENDBRANCH   2   9
BRANCH   1  13
ATOM     13  C   UNL     1       3.079  -1.650   0.000  0.00  0.00    +0.000 C 
BRANCH  13  14
ATOM     14  N   UNL     1       2.365  -2.062   0.000  0.00  0.00    +0.000 NA
BRANCH  14  15
ATOM     15  N   UNL     1       2.365  -2.888   0.000  0.00  0.00    +0.000 NA
ATOM     16  C   UNL     1       1.650  -3.300   0.000  0.00  0.00    +0.000 C 
ENDBRANCH  14  15
ENDBRANCH  13  14
ENDBRANCH   1  13
TORSDOF 5
