REMARK  Name = 1170
REMARK  3 active torsions:
REMARK  status: ('A' for Active; 'I' for Inactive)
REMARK    1  A    between atoms: N_1  and  C_12
REMARK    2  A    between atoms: N_2  and  C_13
REMARK    3  A    between atoms: C_12  and  C_13
REMARK                            x       y       z     vdW  Elec       q    Type
REMARK                         _______ _______ _______ _____ _____    ______ ____
ROOT
ATOM      1  N   UNL     1       3.152   1.005   0.000  0.00  0.00    +0.000 NA
ATOM      2  C   UNL     1       2.327   1.005   0.000  0.00  0.00    +0.000 C 
ATOM      3  C   UNL     1       3.736   1.588   0.000  0.00  0.00    +0.000 C 
ATOM      4  C   UNL     1       1.744   1.588   0.000  0.00  0.00    +0.000 C 
ATOM      5  C   UNL     1       3.736   2.413   0.000  0.00  0.00    +0.000 C 
ATOM      6  C   UNL     1       1.744   2.413   0.000  0.00  0.00    +0.000 C 
ATOM      7  C   UNL     1       3.152   2.997   0.000  0.00  0.00    +0.000 C 
ATOM      8  C   UNL     1       2.327   2.997   0.000  0.00  0.00    +0.000 C 
ENDROOT
BRANCH   1   9
ATOM      9  C   UNL     1       3.468   0.243   0.000  0.00  0.00    +0.000 C 
BRANCH   9  10
ATOM     10  C   UNL     1       2.966  -0.412   0.000  0.00  0.00    +0.000 C 
BRANCH  10  11
ATOM     11  N   UNL     1       3.282  -1.174   0.000  0.00  0.00    +0.000 NA
ATOM     12  N   UNL     1       3.095  -2.591   0.000  0.00  0.00    +0.000 NA
ATOM     13  N   UNL     1       1.961  -1.721   0.000  0.00  0.00    +0.000 NA
ATOM     14  C   UNL     1       2.779  -1.829   0.000  0.00  0.00    +0.000 C 
ENDBRANCH  10  11
ENDBRANCH   9  10
ENDBRANCH   1   9
TORSDOF 3
