REMARK  Name = 1171
REMARK  4 active torsions:
REMARK  status: ('A' for Active; 'I' for Inactive)
REMARK    1  A    between atoms: N_4  and  C_8
REMARK    2  A    between atoms: N_5  and  C_11
REMARK    3  A    between atoms: C_8  and  C_11
REMARK    4  A    between atoms: C_12  and  C_13
REMARK                            x       y       z     vdW  Elec       q    Type
REMARK                         _______ _______ _______ _____ _____    ______ ____
ROOT
ATOM      1  O   UNL     1       1.650   0.000   0.000  0.00  0.00    +0.000 OA
ATOM      2  N   UNL     1       3.079   0.000   0.000  0.00  0.00    +0.000 NA
ATOM      3  C   UNL     1       2.365  -0.412   0.000  0.00  0.00    +0.000 C 
ENDROOT
BRANCH   3   5
ATOM      4 CL   UNL     1       2.365  -3.713   0.000  0.00  0.00    +0.000 Cl
ATOM      5  C   UNL     1       2.365  -1.237   0.000  0.00  0.00    +0.000 A 
ATOM      6  C   UNL     1       3.079  -1.650   0.000  0.00  0.00    +0.000 A 
ATOM      7  C   UNL     1       1.650  -1.650   0.000  0.00  0.00    +0.000 A 
ATOM      8  C   UNL     1       3.079  -2.475   0.000  0.00  0.00    +0.000 A 
ATOM      9  C   UNL     1       1.650  -2.475   0.000  0.00  0.00    +0.000 A 
ATOM     10  C   UNL     1       2.365  -2.888   0.000  0.00  0.00    +0.000 A 
ENDBRANCH   3   5
BRANCH   2  11
ATOM     11  C   UNL     1       3.079   0.825   0.000  0.00  0.00    +0.000 C 
BRANCH  11  12
ATOM     12  C   UNL     1       3.793   1.237   0.000  0.00  0.00    +0.000 C 
BRANCH  12  14
ATOM     13  O   UNL     1       3.793   3.713   0.000  0.00  0.00    +0.000 OA
ATOM     14  N   UNL     1       3.793   2.062   0.000  0.00  0.00    +0.000 NA
ATOM     15  C   UNL     1       4.508   2.475   0.000  0.00  0.00    +0.000 C 
ATOM     16  C   UNL     1       3.079   2.475   0.000  0.00  0.00    +0.000 C 
ATOM     17  C   UNL     1       4.508   3.300   0.000  0.00  0.00    +0.000 C 
ATOM     18  C   UNL     1       3.079   3.300   0.000  0.00  0.00    +0.000 C 
ENDBRANCH  12  14
ENDBRANCH  11  12
ENDBRANCH   2  11
TORSDOF 4
