REMARK  Name = 1177
REMARK  3 active torsions:
REMARK  status: ('A' for Active; 'I' for Inactive)
REMARK    1  A    between atoms: O_1  and  C_11
REMARK    2  A    between atoms: O_1  and  C_17
REMARK    3  A    between atoms: C_12  and  C_23
REMARK                            x       y       z     vdW  Elec       q    Type
REMARK                         _______ _______ _______ _____ _____    ______ ____
ROOT
ATOM      1  O   UNL     1       3.767  -2.408   0.000  0.00  0.00    +0.000 OA
ATOM      2  O   UNL     1       6.376   0.388   0.000  0.00  0.00    +0.000 OA
ATOM      3  O   UNL     1       6.376  -2.912   0.000  0.00  0.00    +0.000 OA
ATOM      4  O   UNL     1       7.819   0.416   0.000  0.00  0.00    +0.000 OA
ATOM      5  O   UNL     1       7.819  -2.941   0.000  0.00  0.00    +0.000 OA
ATOM      6  C   UNL     1       4.925  -0.409   0.000  0.00  0.00    +0.000 C 
ATOM      7  C   UNL     1       4.177  -1.692   0.000  0.00  0.00    +0.000 C 
ATOM      8  C   UNL     1       4.177  -0.833   0.000  0.00  0.00    +0.000 C 
ATOM      9  C   UNL     1       4.925  -2.116   0.000  0.00  0.00    +0.000 C 
ATOM     10  C   UNL     1       5.662  -0.850   0.000  0.00  0.00    +0.000 A 
ATOM     11  C   UNL     1       5.662  -1.675   0.000  0.00  0.00    +0.000 A 
ATOM     12  C   UNL     1       6.376  -0.438   0.000  0.00  0.00    +0.000 A 
ATOM     13  C   UNL     1       6.376  -2.087   0.000  0.00  0.00    +0.000 A 
ATOM     14  C   UNL     1       7.091  -0.850   0.000  0.00  0.00    +0.000 A 
ATOM     15  C   UNL     1       7.091  -1.675   0.000  0.00  0.00    +0.000 A 
ATOM     16  C   UNL     1       7.828  -0.409   0.000  0.00  0.00    +0.000 C 
ATOM     17  C   UNL     1       7.828  -2.116   0.000  0.00  0.00    +0.000 C 
ATOM     18  C   UNL     1       8.576  -0.833   0.000  0.00  0.00    +0.000 A 
ATOM     19  C   UNL     1       8.576  -1.692   0.000  0.00  0.00    +0.000 A 
ATOM     20  C   UNL     1       9.344  -0.373   0.000  0.00  0.00    +0.000 A 
ATOM     21  C   UNL     1       9.344  -2.151   0.000  0.00  0.00    +0.000 A 
ATOM     22  C   UNL     1      10.122  -0.815   0.000  0.00  0.00    +0.000 A 
ATOM     23  C   UNL     1      10.122  -1.710   0.000  0.00  0.00    +0.000 A 
ENDROOT
BRANCH   7  25
ATOM     24  O   UNL     1       2.937  -0.982   0.000  0.00  0.00    +0.000 OA
ATOM     25  C   UNL     1       3.352  -1.695   0.000  0.00  0.00    +0.000 C 
ATOM     26  C   UNL     1       2.942  -2.411   0.000  0.00  0.00    +0.000 C 
ENDBRANCH   7  25
BRANCH   6  27
ATOM     27  O   UNL     1       4.934   0.416   0.000  0.00  0.00    +0.000 OA
BRANCH  27  31
ATOM     28  O   UNL     1       3.505   0.432   0.000  0.00  0.00    +0.000 OA
ATOM     29  O   UNL     1       2.096   2.099   0.000  0.00  0.00    +0.000 OA
ATOM     30  N   UNL     1       3.534   2.907   0.000  0.00  0.00    +0.000 NA
ATOM     31  C   UNL     1       4.224   0.837   0.000  0.00  0.00    +0.000 C 
ATOM     32  C   UNL     1       4.234   1.662   0.000  0.00  0.00    +0.000 C 
ATOM     33  C   UNL     1       3.524   2.082   0.000  0.00  0.00    +0.000 C 
ATOM     34  C   UNL     1       2.805   1.678   0.000  0.00  0.00    +0.000 C 
ATOM     35  C   UNL     1       2.796   0.853   0.000  0.00  0.00    +0.000 C 
ATOM     36  C   UNL     1       2.077   0.449   0.000  0.00  0.00    +0.000 C 
ENDBRANCH  27  31
ENDBRANCH   6  27
TORSDOF 3
