REMARK  Name = 1178
REMARK  1 active torsions:
REMARK  status: ('A' for Active; 'I' for Inactive)
REMARK    1  A    between atoms: C_7  and  C_10
REMARK                            x       y       z     vdW  Elec       q    Type
REMARK                         _______ _______ _______ _____ _____    ______ ____
ROOT
ATOM      1  S   UNL     1       5.222  -0.619   0.000  0.00  0.00    +0.000 S 
ATOM      2  O   UNL     1       4.810  -1.333   0.000  0.00  0.00    +0.000 OA
ATOM      3  O   UNL     1       5.635  -1.333   0.000  0.00  0.00    +0.000 OA
ATOM      4  O   UNL     1       5.222   1.856   0.000  0.00  0.00    +0.000 OA
ATOM      5  N   UNL     1       4.508   0.619   0.000  0.00  0.00    +0.000 N 
ATOM      6  C   UNL     1       4.508  -0.206   0.000  0.00  0.00    +0.000 C 
ATOM      7  C   UNL     1       5.937  -0.206   0.000  0.00  0.00    +0.000 C 
ATOM      8  C   UNL     1       5.937   0.619   0.000  0.00  0.00    +0.000 C 
ATOM      9  C   UNL     1       5.222   1.031   0.000  0.00  0.00    +0.000 C 
ATOM     10  C   UNL     1       3.793   1.031   0.000  0.00  0.00    +0.000 C 
ENDROOT
BRANCH   6  12
ATOM     11 CL   UNL     1       1.650  -1.856   0.000  0.00  0.00    +0.000 Cl
ATOM     12  C   UNL     1       3.793  -0.619   0.000  0.00  0.00    +0.000 A 
ATOM     13  C   UNL     1       3.793  -1.444   0.000  0.00  0.00    +0.000 A 
ATOM     14  C   UNL     1       3.079  -0.206   0.000  0.00  0.00    +0.000 A 
ATOM     15  C   UNL     1       3.079  -1.856   0.000  0.00  0.00    +0.000 A 
ATOM     16  C   UNL     1       2.365  -0.619   0.000  0.00  0.00    +0.000 A 
ATOM     17  C   UNL     1       2.365  -1.444   0.000  0.00  0.00    +0.000 A 
ENDBRANCH   6  12
TORSDOF 1
