REMARK  Name = 1179
REMARK  4 active torsions:
REMARK  status: ('A' for Active; 'I' for Inactive)
REMARK    1  A    between atoms: O_6  and  C_24
REMARK    2  A    between atoms: O_7  and  C_25
REMARK    3  A    between atoms: O_8  and  C_26
REMARK    4  A    between atoms: C_11  and  C_17
REMARK                            x       y       z     vdW  Elec       q    Type
REMARK                         _______ _______ _______ _____ _____    ______ ____
ROOT
ATOM      1  O   UNL     1       4.744   2.506   0.000  0.00  0.00    +0.000 OA
ATOM      2  O   UNL     1       2.326   1.619   0.000  0.00  0.00    +0.000 OA
ATOM      3  O   UNL     1       5.885   1.587   0.000  0.00  0.00    +0.000 OA
ATOM      4  O   UNL     1       2.848  -2.161   0.000  0.00  0.00    +0.000 OA
ATOM      5  O   UNL     1       1.650  -1.469   0.000  0.00  0.00    +0.000 OA
ATOM      6  C   UNL     1       3.755   1.619   0.000  0.00  0.00    +0.000 C 
ATOM      7  C   UNL     1       4.470   1.207   0.000  0.00  0.00    +0.000 C 
ATOM      8  C   UNL     1       4.470   0.382   0.000  0.00  0.00    +0.000 C 
ATOM      9  C   UNL     1       3.041   1.207   0.000  0.00  0.00    +0.000 C 
ATOM     10  C   UNL     1       3.755  -0.031   0.000  0.00  0.00    +0.000 A 
ATOM     11  C   UNL     1       3.928   2.421   0.000  0.00  0.00    +0.000 C 
ATOM     12  C   UNL     1       3.041   0.382   0.000  0.00  0.00    +0.000 A 
ATOM     13  C   UNL     1       5.078   1.757   0.000  0.00  0.00    +0.000 C 
ATOM     14  C   UNL     1       3.768  -0.890   0.000  0.00  0.00    +0.000 A 
ATOM     15  C   UNL     1       2.290  -0.036   0.000  0.00  0.00    +0.000 A 
ATOM     16  C   UNL     1       3.028  -1.325   0.000  0.00  0.00    +0.000 A 
ATOM     17  C   UNL     1       2.283  -0.896   0.000  0.00  0.00    +0.000 A 
ATOM     18  C   UNL     1       1.998  -2.249   0.000  0.00  0.00    +0.000 C 
ENDROOT
BRANCH   8  19
ATOM     19  C   UNL     1       5.184  -0.031   0.000  0.00  0.00    +0.000 A 
ATOM     20  C   UNL     1       5.899   0.382   0.000  0.00  0.00    +0.000 A 
ATOM     21  C   UNL     1       5.184  -0.856   0.000  0.00  0.00    +0.000 A 
ATOM     22  C   UNL     1       5.899  -1.268   0.000  0.00  0.00    +0.000 A 
ATOM     23  C   UNL     1       6.613  -0.031   0.000  0.00  0.00    +0.000 A 
ATOM     24  C   UNL     1       6.613  -0.856   0.000  0.00  0.00    +0.000 A 
BRANCH  22  25
ATOM     25  O   UNL     1       5.899  -2.093   0.000  0.00  0.00    +0.000 OA
ATOM     26  C   UNL     1       6.613  -2.506   0.000  0.00  0.00    +0.000 C 
ENDBRANCH  22  25
BRANCH  23  27
ATOM     27  O   UNL     1       7.328   0.382   0.000  0.00  0.00    +0.000 OA
ATOM     28  C   UNL     1       7.328   1.207   0.000  0.00  0.00    +0.000 C 
ENDBRANCH  23  27
BRANCH  24  29
ATOM     29  O   UNL     1       7.328  -1.268   0.000  0.00  0.00    +0.000 OA
ATOM     30  C   UNL     1       8.042  -0.856   0.000  0.00  0.00    +0.000 C 
ENDBRANCH  24  29
ENDBRANCH   8  19
TORSDOF 4
