REMARK  Name = 1180
REMARK  11 active torsions:
REMARK  status: ('A' for Active; 'I' for Inactive)
REMARK    1  A    between atoms: O_1  and  C_19
REMARK    2  A    between atoms: O_2  and  C_20
REMARK    3  A    between atoms: O_2  and  C_30
REMARK    4  A    between atoms: O_3  and  C_25
REMARK    5  A    between atoms: O_6  and  C_33
REMARK    6  A    between atoms: O_7  and  C_41
REMARK    7  A    between atoms: O_8  and  C_42
REMARK    8  A    between atoms: O_9  and  C_43
REMARK    9  A    between atoms: C_15  and  C_25
REMARK   10  A    between atoms: C_30  and  C_35
REMARK   11  A    between atoms: C_36  and  C_38
REMARK                            x       y       z     vdW  Elec       q    Type
REMARK                         _______ _______ _______ _____ _____    ______ ____
ROOT
ATOM      1  N   UNL     1       7.107   1.746   0.000  0.00  0.00    +0.000 NA
ATOM      2  N   UNL     1       5.083   0.824   0.000  0.00  0.00    +0.000 NA
ATOM      3  C   UNL     1       7.647   0.126   0.000  0.00  0.00    +0.000 C 
ATOM      4  C   UNL     1       8.222   0.765   0.000  0.00  0.00    +0.000 C 
ATOM      5  C   UNL     1       6.808   0.311   0.000  0.00  0.00    +0.000 C 
ATOM      6  C   UNL     1       7.910  -0.729   0.000  0.00  0.00    +0.000 C 
ATOM      7  C   UNL     1       6.555   1.133   0.000  0.00  0.00    +0.000 C 
ATOM      8  C   UNL     1       7.950   1.580   0.000  0.00  0.00    +0.000 C 
ATOM      9  C   UNL     1       9.100   0.592   0.000  0.00  0.00    +0.000 C 
ATOM     10  C   UNL     1       8.784  -0.922   0.000  0.00  0.00    +0.000 C 
ATOM     11  C   UNL     1       9.383  -0.257   0.000  0.00  0.00    +0.000 C 
ATOM     12  C   UNL     1       5.748   1.304   0.000  0.00  0.00    +0.000 A 
ATOM     13  C   UNL     1       6.852   2.530   0.000  0.00  0.00    +0.000 C 
ATOM     14  C   UNL     1       5.493   2.089   0.000  0.00  0.00    +0.000 A 
ATOM     15  C   UNL     1       6.045   2.702   0.000  0.00  0.00    +0.000 C 
ATOM     16  C   UNL     1       4.673   2.087   0.000  0.00  0.00    +0.000 A 
ATOM     17  C   UNL     1       4.420   1.306   0.000  0.00  0.00    +0.000 A 
ATOM     18  C   UNL     1       4.111   2.730   0.000  0.00  0.00    +0.000 A 
ATOM     19  C   UNL     1       3.588   1.115   0.000  0.00  0.00    +0.000 A 
ATOM     20  C   UNL     1       3.274   2.558   0.000  0.00  0.00    +0.000 A 
ATOM     21  C   UNL     1       3.011   1.745   0.000  0.00  0.00    +0.000 A 
ENDROOT
BRANCH   6  23
ATOM     22  O   UNL     1       6.546  -1.155   0.000  0.00  0.00    +0.000 OA
ATOM     23  C   UNL     1       7.351  -1.336   0.000  0.00  0.00    +0.000 C 
BRANCH  23  24
ATOM     24  O   UNL     1       7.597  -2.123   0.000  0.00  0.00    +0.000 OA
ATOM     25  C   UNL     1       7.038  -2.730   0.000  0.00  0.00    +0.000 C 
ENDBRANCH  23  24
ENDBRANCH   6  23
BRANCH  21  26
ATOM     26  O   UNL     1       2.205   1.570   0.000  0.00  0.00    +0.000 OA
ATOM     27  C   UNL     1       1.650   2.180   0.000  0.00  0.00    +0.000 C 
ENDBRANCH  21  26
BRANCH  10  28
ATOM     28  O   UNL     1       9.036  -1.707   0.000  0.00  0.00    +0.000 OA
ATOM     29  C   UNL     1       9.842  -1.882   0.000  0.00  0.00    +0.000 C 
ENDBRANCH  10  28
BRANCH  11  30
ATOM     30  O   UNL     1      10.191  -0.425   0.000  0.00  0.00    +0.000 OA
BRANCH  30  32
ATOM     31  O   UNL     1      10.482   0.974   0.000  0.00  0.00    +0.000 OA
ATOM     32  C   UNL     1      10.740   0.190   0.000  0.00  0.00    +0.000 C 
BRANCH  32  33
ATOM     33  C   UNL     1      11.548   0.022   0.000  0.00  0.00    +0.000 C 
ATOM     34  C   UNL     1      12.098   0.637   0.000  0.00  0.00    +0.000 C 
BRANCH  34  35
ATOM     35  C   UNL     1      12.905   0.468   0.000  0.00  0.00    +0.000 A 
ATOM     36  C   UNL     1      13.455   1.084   0.000  0.00  0.00    +0.000 A 
ATOM     37  C   UNL     1      13.163  -0.315   0.000  0.00  0.00    +0.000 A 
ATOM     38  C   UNL     1      13.971  -0.484   0.000  0.00  0.00    +0.000 A 
ATOM     39  C   UNL     1      14.262   0.915   0.000  0.00  0.00    +0.000 A 
ATOM     40  C   UNL     1      14.520   0.132   0.000  0.00  0.00    +0.000 A 
BRANCH  39  41
ATOM     41  O   UNL     1      14.812   1.530   0.000  0.00  0.00    +0.000 OA
ATOM     42  C   UNL     1      14.554   2.314   0.000  0.00  0.00    +0.000 C 
ENDBRANCH  39  41
BRANCH  40  43
ATOM     43  O   UNL     1      15.328  -0.037   0.000  0.00  0.00    +0.000 OA
ATOM     44  C   UNL     1      15.877   0.578   0.000  0.00  0.00    +0.000 C 
ENDBRANCH  40  43
BRANCH  38  45
ATOM     45  O   UNL     1      14.229  -1.267   0.000  0.00  0.00    +0.000 OA
ATOM     46  C   UNL     1      13.679  -1.882   0.000  0.00  0.00    +0.000 C 
ENDBRANCH  38  45
ENDBRANCH  34  35
ENDBRANCH  32  33
ENDBRANCH  30  32
ENDBRANCH  11  30
TORSDOF 11
