REMARK  Name = 1181
REMARK  5 active torsions:
REMARK  status: ('A' for Active; 'I' for Inactive)
REMARK    1  A    between atoms: P_3  and  N_7
REMARK    2  A    between atoms: N_6  and  C_11
REMARK    3  A    between atoms: N_7  and  C_12
REMARK    4  A    between atoms: C_11  and  C_13
REMARK    5  A    between atoms: C_12  and  C_14
REMARK                            x       y       z     vdW  Elec       q    Type
REMARK                         _______ _______ _______ _____ _____    ______ ____
ROOT
ATOM      1  P   UNL     1       4.508   0.604   0.000  0.00  0.00    +0.000 P 
ATOM      2  O   UNL     1       5.222   1.016   0.000  0.00  0.00    +0.000 OA
ATOM      3  O   UNL     1       4.920  -0.111   0.000  0.00  0.00    +0.000 OA
ATOM      4  N   UNL     1       3.793   1.016   0.000  0.00  0.00    +0.000 NA
ATOM      5  C   UNL     1       3.793   1.841   0.000  0.00  0.00    +0.000 C 
ATOM      6  C   UNL     1       4.508   2.254   0.000  0.00  0.00    +0.000 C 
ATOM      7  C   UNL     1       5.222   1.841   0.000  0.00  0.00    +0.000 C 
ENDROOT
BRANCH   1   8
ATOM      8  N   UNL     1       4.096  -0.111   0.000  0.00  0.00    +0.000 NA
BRANCH   8   9
ATOM      9  C   UNL     1       4.508  -0.825   0.000  0.00  0.00    +0.000 C 
BRANCH   9  11
ATOM     10 CL   UNL     1       4.508  -2.254   0.000  0.00  0.00    +0.000 Cl
ATOM     11  C   UNL     1       4.096  -1.540   0.000  0.00  0.00    +0.000 C 
ENDBRANCH   9  11
ENDBRANCH   8   9
ENDBRANCH   1   8
BRANCH   4  12
ATOM     12  C   UNL     1       3.079   0.604   0.000  0.00  0.00    +0.000 C 
BRANCH  12  14
ATOM     13 CL   UNL     1       1.650   0.604   0.000  0.00  0.00    +0.000 Cl
ATOM     14  C   UNL     1       2.365   1.016   0.000  0.00  0.00    +0.000 C 
ENDBRANCH  12  14
ENDBRANCH   4  12
TORSDOF 5
