REMARK  Name = 1184
REMARK  5 active torsions:
REMARK  status: ('A' for Active; 'I' for Inactive)
REMARK    1  A    between atoms: N_4  and  C_14
REMARK    2  A    between atoms: N_5  and  C_9
REMARK    3  A    between atoms: N_7  and  C_18
REMARK    4  A    between atoms: C_14  and  C_15
REMARK    5  A    between atoms: C_15  and  C_18
REMARK                            x       y       z     vdW  Elec       q    Type
REMARK                         _______ _______ _______ _____ _____    ______ ____
ROOT
ATOM      1  N   UNL     1       5.343   0.044   0.000  0.00  0.00    +0.000 NA
ATOM      2  C   UNL     1       4.830  -1.524   0.000  0.00  0.00    +0.000 C 
ATOM      3  C   UNL     1       4.279  -0.910   0.000  0.00  0.00    +0.000 C 
ATOM      4  C   UNL     1       5.638  -1.354   0.000  0.00  0.00    +0.000 C 
ATOM      5  C   UNL     1       4.536  -0.126   0.000  0.00  0.00    +0.000 C 
ATOM      6  C   UNL     1       5.894  -0.570   0.000  0.00  0.00    +0.000 C 
ENDROOT
BRANCH   2   9
ATOM      7 CL   UNL     1       1.650  -3.797   0.000  0.00  0.00    +0.000 Cl
ATOM      8  O   UNL     1       5.881  -2.972   0.000  0.00  0.00    +0.000 OA
ATOM      9  N   UNL     1       4.574  -2.308   0.000  0.00  0.00    +0.000 N 
ATOM     10  N   UNL     1       4.574  -3.636   0.000  0.00  0.00    +0.000 NA
ATOM     11  C   UNL     1       3.793  -2.560   0.000  0.00  0.00    +0.000 A 
ATOM     12  C   UNL     1       5.056  -2.972   0.000  0.00  0.00    +0.000 A 
ATOM     13  C   UNL     1       3.793  -3.385   0.000  0.00  0.00    +0.000 A 
ATOM     14  C   UNL     1       3.079  -2.147   0.000  0.00  0.00    +0.000 A 
ATOM     15  C   UNL     1       3.079  -3.797   0.000  0.00  0.00    +0.000 A 
ATOM     16  C   UNL     1       2.365  -2.560   0.000  0.00  0.00    +0.000 A 
ATOM     17  C   UNL     1       2.365  -3.385   0.000  0.00  0.00    +0.000 A 
ENDBRANCH   2   9
BRANCH   1  18
ATOM     18  C   UNL     1       5.599   0.828   0.000  0.00  0.00    +0.000 C 
BRANCH  18  19
ATOM     19  C   UNL     1       6.407   0.999   0.000  0.00  0.00    +0.000 C 
BRANCH  19  20
ATOM     20  C   UNL     1       6.663   1.783   0.000  0.00  0.00    +0.000 C 
BRANCH  20  22
ATOM     21  O   UNL     1       7.989   0.582   0.000  0.00  0.00    +0.000 OA
ATOM     22  N   UNL     1       7.470   1.953   0.000  0.00  0.00    +0.000 N 
ATOM     23  N   UNL     1       8.790   1.810   0.000  0.00  0.00    +0.000 NA
ATOM     24  C   UNL     1       7.804   2.702   0.000  0.00  0.00    +0.000 A 
ATOM     25  C   UNL     1       8.078   1.403   0.000  0.00  0.00    +0.000 A 
ATOM     26  C   UNL     1       8.625   2.613   0.000  0.00  0.00    +0.000 A 
ATOM     27  C   UNL     1       7.471   3.457   0.000  0.00  0.00    +0.000 A 
ATOM     28  C   UNL     1       9.112   3.279   0.000  0.00  0.00    +0.000 A 
ATOM     29  C   UNL     1       7.959   4.122   0.000  0.00  0.00    +0.000 A 
ATOM     30  C   UNL     1       8.779   4.033   0.000  0.00  0.00    +0.000 A 
ENDBRANCH  20  22
ENDBRANCH  19  20
ENDBRANCH  18  19
ENDBRANCH   1  18
TORSDOF 5
