REMARK  Name = 1186
REMARK  4 active torsions:
REMARK  status: ('A' for Active; 'I' for Inactive)
REMARK    1  A    between atoms: S_1  and  C_14
REMARK    2  A    between atoms: N_2  and  C_13
REMARK    3  A    between atoms: C_7  and  C_14
REMARK    4  A    between atoms: C_13  and  C_18
REMARK                            x       y       z     vdW  Elec       q    Type
REMARK                         _______ _______ _______ _____ _____    ______ ____
ROOT
ATOM      1  N   UNL     1       4.571   1.094   0.000  0.00  0.00    +0.000 NA
ATOM      2  N   UNL     1       5.545  -2.302   0.000  0.00  0.00    +0.000 NA
ATOM      3  C   UNL     1       3.843  -0.177   0.000  0.00  0.00    +0.000 C 
ATOM      4  C   UNL     1       4.557   0.235   0.000  0.00  0.00    +0.000 C 
ATOM      5  C   UNL     1       3.092   0.241   0.000  0.00  0.00    +0.000 C 
ATOM      6  C   UNL     1       3.085   1.100   0.000  0.00  0.00    +0.000 C 
ATOM      7  C   UNL     1       3.830   1.530   0.000  0.00  0.00    +0.000 C 
ATOM      8  C   UNL     1       5.272  -0.177   0.000  0.00  0.00    +0.000 C 
ATOM      9  C   UNL     1       3.843  -1.002   0.000  0.00  0.00    +0.000 A 
ATOM     10  C   UNL     1       5.272  -1.002   0.000  0.00  0.00    +0.000 A 
ATOM     11  C   UNL     1       4.557  -1.415   0.000  0.00  0.00    +0.000 A 
ATOM     12  C   UNL     1       4.571  -2.274   0.000  0.00  0.00    +0.000 A 
ATOM     13  C   UNL     1       3.092  -1.421   0.000  0.00  0.00    +0.000 A 
ATOM     14  C   UNL     1       5.880  -1.553   0.000  0.00  0.00    +0.000 A 
ATOM     15  C   UNL     1       3.830  -2.709   0.000  0.00  0.00    +0.000 A 
ATOM     16  C   UNL     1       3.085  -2.280   0.000  0.00  0.00    +0.000 A 
ENDROOT
BRANCH   1  17
ATOM     17  C   UNL     1       5.290   1.499   0.000  0.00  0.00    +0.000 C 
BRANCH  17  18
ATOM     18  C   UNL     1       5.299   2.324   0.000  0.00  0.00    +0.000 C 
ATOM     19  C   UNL     1       6.018   2.728   0.000  0.00  0.00    +0.000 C 
ENDBRANCH  17  18
ENDBRANCH   1  17
BRANCH   6  20
ATOM     20  C   UNL     1       2.369   1.510   0.000  0.00  0.00    +0.000 C 
BRANCH  20  21
ATOM     21  S   UNL     1       2.366   2.335   0.000  0.00  0.00    +0.000 S 
ATOM     22  C   UNL     1       1.650   2.745   0.000  0.00  0.00    +0.000 C 
ENDBRANCH  20  21
ENDBRANCH   6  20
TORSDOF 4
