REMARK  Name = 1187
REMARK  12 active torsions:
REMARK  status: ('A' for Active; 'I' for Inactive)
REMARK    1  A    between atoms: O_2  and  C_19
REMARK    2  A    between atoms: O_2  and  C_21
REMARK    3  A    between atoms: C_4  and  C_5
REMARK    4  A    between atoms: C_4  and  C_6
REMARK    5  A    between atoms: C_5  and  C_7
REMARK    6  A    between atoms: C_6  and  C_8
REMARK    7  A    between atoms: C_7  and  C_11
REMARK    8  A    between atoms: C_8  and  C_9
REMARK    9  A    between atoms: C_9  and  C_10
REMARK   10  A    between atoms: C_10  and  C_12
REMARK   11  A    between atoms: C_12  and  C_14
REMARK   12  A    between atoms: C_14  and  C_19
REMARK                            x       y       z     vdW  Elec       q    Type
REMARK                         _______ _______ _______ _____ _____    ______ ____
ROOT
ATOM      1  C   UNL     1       3.793  -1.238   0.000  0.00  0.00    +0.000 C 
ENDROOT
BRANCH   1   2
ATOM      2  C   UNL     1       3.793  -2.062   0.000  0.00  0.00    +0.000 C 
BRANCH   2   3
ATOM      3  C   UNL     1       3.079  -2.475   0.000  0.00  0.00    +0.000 C 
ATOM      4  C   UNL     1       2.365  -2.062   0.000  0.00  0.00    +0.000 C 
BRANCH   3   6
ATOM      5  I   UNL     1       1.650  -3.300   0.000  0.00  0.00    +0.000 I 
ATOM      6  C   UNL     1       3.079  -3.300   0.000  0.00  0.00    +0.000 A 
ATOM      7  C   UNL     1       2.365  -3.713   0.000  0.00  0.00    +0.000 A 
ATOM      8  C   UNL     1       3.793  -3.713   0.000  0.00  0.00    +0.000 A 
ATOM      9  C   UNL     1       2.365  -4.538   0.000  0.00  0.00    +0.000 A 
ATOM     10  C   UNL     1       3.793  -4.538   0.000  0.00  0.00    +0.000 A 
ATOM     11  C   UNL     1       3.079  -4.950   0.000  0.00  0.00    +0.000 A 
ENDBRANCH   3   6
ENDBRANCH   2   3
ENDBRANCH   1   2
BRANCH   1  12
ATOM     12  C   UNL     1       4.508  -0.825   0.000  0.00  0.00    +0.000 C 
BRANCH  12  13
ATOM     13  C   UNL     1       4.508   0.000   0.000  0.00  0.00    +0.000 C 
BRANCH  13  14
ATOM     14  C   UNL     1       5.222   0.412   0.000  0.00  0.00    +0.000 C 
BRANCH  14  15
ATOM     15  C   UNL     1       5.222   1.238   0.000  0.00  0.00    +0.000 C 
BRANCH  15  16
ATOM     16  C   UNL     1       5.937   1.650   0.000  0.00  0.00    +0.000 C 
BRANCH  16  17
ATOM     17  C   UNL     1       5.937   2.475   0.000  0.00  0.00    +0.000 C 
BRANCH  17  19
ATOM     18  O   UNL     1       7.366   2.475   0.000  0.00  0.00    +0.000 OA
ATOM     19  C   UNL     1       6.652   2.888   0.000  0.00  0.00    +0.000 C 
BRANCH  19  20
ATOM     20  O   UNL     1       6.652   3.713   0.000  0.00  0.00    +0.000 OA
BRANCH  20  21
ATOM     21  C   UNL     1       7.366   4.125   0.000  0.00  0.00    +0.000 C 
ATOM     22  C   UNL     1       7.366   4.950   0.000  0.00  0.00    +0.000 C 
ENDBRANCH  20  21
ENDBRANCH  19  20
ENDBRANCH  17  19
ENDBRANCH  16  17
ENDBRANCH  15  16
ENDBRANCH  14  15
ENDBRANCH  13  14
ENDBRANCH  12  13
ENDBRANCH   1  12
TORSDOF 12
