REMARK  Name = 1188
REMARK  1 active torsions:
REMARK  status: ('A' for Active; 'I' for Inactive)
REMARK    1  A    between atoms: C_4  and  C_10
REMARK                            x       y       z     vdW  Elec       q    Type
REMARK                         _______ _______ _______ _____ _____    ______ ____
ROOT
ATOM      1  O   UNL     1       4.508  -1.444   0.000  0.00  0.00    +0.000 OA
ATOM      2  O   UNL     1       5.937  -0.619   0.000  0.00  0.00    +0.000 OA
ATOM      3  N   UNL     1       4.508  -0.619   0.000  0.00  0.00    +0.000 N 
ATOM      4  C   UNL     1       3.793  -0.206   0.000  0.00  0.00    +0.000 A 
ATOM      5  C   UNL     1       3.793   0.619   0.000  0.00  0.00    +0.000 A 
ATOM      6  C   UNL     1       4.508   1.031   0.000  0.00  0.00    +0.000 A 
ATOM      7  C   UNL     1       5.222  -0.206   0.000  0.00  0.00    +0.000 A 
ATOM      8  C   UNL     1       5.222   0.619   0.000  0.00  0.00    +0.000 A 
ATOM      9  C   UNL     1       4.508   1.856   0.000  0.00  0.00    +0.000 C 
ENDROOT
BRANCH   4  10
ATOM     10  C   UNL     1       3.079  -0.619   0.000  0.00  0.00    +0.000 C 
ATOM     11  C   UNL     1       3.079  -1.444   0.000  0.00  0.00    +0.000 C 
ATOM     12  C   UNL     1       2.365  -0.206   0.000  0.00  0.00    +0.000 C 
ATOM     13  C   UNL     1       2.365  -1.856   0.000  0.00  0.00    +0.000 C 
ATOM     14  C   UNL     1       1.650  -0.619   0.000  0.00  0.00    +0.000 C 
ATOM     15  C   UNL     1       1.650  -1.444   0.000  0.00  0.00    +0.000 C 
ENDBRANCH   4  10
TORSDOF 1
