REMARK  Name = 1192
REMARK  0 active torsions:
REMARK  status: ('A' for Active; 'I' for Inactive)
REMARK                            x       y       z     vdW  Elec       q    Type
REMARK                         _______ _______ _______ _____ _____    ______ ____
ROOT
ATOM      1  O   UNL     1       1.936  -0.223   0.000  0.00  0.00    +0.000 OA
ATOM      2  O   UNL     1       4.473  -1.758   0.000  0.00  0.00    +0.000 OA
ATOM      3  O   UNL     1       1.735  -2.353   0.000  0.00  0.00    +0.000 OA
ATOM      4  O   UNL     1       1.735   1.815   0.000  0.00  0.00    +0.000 OA
ATOM      5  N   UNL     1       5.344  -1.094   0.000  0.00  0.00    +0.000 NA
ATOM      6  C   UNL     1       3.201  -0.681   0.000  0.00  0.00    +0.000 C 
ATOM      7  C   UNL     1       3.915  -1.094   0.000  0.00  0.00    +0.000 C 
ATOM      8  C   UNL     1       4.630  -0.681   0.000  0.00  0.00    +0.000 C 
ATOM      9  C   UNL     1       2.486  -1.094   0.000  0.00  0.00    +0.000 C 
ATOM     10  C   UNL     1       3.677  -0.076   0.000  0.00  0.00    +0.000 C 
ATOM     11  C   UNL     1       3.201   0.144   0.000  0.00  0.00    +0.000 A 
ATOM     12  C   UNL     1       3.915  -1.919   0.000  0.00  0.00    +0.000 C 
ATOM     13  C   UNL     1       4.630   0.144   0.000  0.00  0.00    +0.000 C 
ATOM     14  C   UNL     1       4.851  -0.076   0.000  0.00  0.00    +0.000 C 
ATOM     15  C   UNL     1       3.915   0.556   0.000  0.00  0.00    +0.000 A 
ATOM     16  C   UNL     1       3.201  -2.332   0.000  0.00  0.00    +0.000 C 
ATOM     17  C   UNL     1       2.486  -1.919   0.000  0.00  0.00    +0.000 C 
ATOM     18  C   UNL     1       2.486   0.556   0.000  0.00  0.00    +0.000 A 
ATOM     19  C   UNL     1       5.935  -1.729   0.000  0.00  0.00    +0.000 C 
ATOM     20  C   UNL     1       3.915   1.381   0.000  0.00  0.00    +0.000 A 
ATOM     21  C   UNL     1       2.486   1.381   0.000  0.00  0.00    +0.000 A 
ATOM     22  C   UNL     1       3.201   1.794   0.000  0.00  0.00    +0.000 A 
ENDROOT
TORSDOF 0
