REMARK  Name = 1194
REMARK  7 active torsions:
REMARK  status: ('A' for Active; 'I' for Inactive)
REMARK    1  A    between atoms: S_3  and  C_19
REMARK    2  A    between atoms: O_6  and  C_21
REMARK    3  A    between atoms: N_9  and  C_16
REMARK    4  A    between atoms: N_10  and  C_12
REMARK    5  A    between atoms: N_10  and  C_20
REMARK    6  A    between atoms: C_16  and  C_18
REMARK    7  A    between atoms: C_18  and  C_21
REMARK                            x       y       z     vdW  Elec       q    Type
REMARK                         _______ _______ _______ _____ _____    ______ ____
ROOT
ATOM      1  S   UNL     1       5.937   1.499   0.000  0.00  0.00    +0.000 S 
ATOM      2  S   UNL     1       7.432   1.338   0.000  0.00  0.00    +0.000 S 
ATOM      3  O   UNL     1       6.349   2.213   0.000  0.00  0.00    +0.000 OA
ATOM      4  O   UNL     1       5.524   2.213   0.000  0.00  0.00    +0.000 OA
ATOM      5  N   UNL     1       5.222   1.087   0.000  0.00  0.00    +0.000 NA
ATOM      6  C   UNL     1       5.937  -0.151   0.000  0.00  0.00    +0.000 C 
ATOM      7  C   UNL     1       5.222   0.262   0.000  0.00  0.00    +0.000 C 
ATOM      8  C   UNL     1       6.652   0.262   0.000  0.00  0.00    +0.000 A 
ATOM      9  C   UNL     1       6.652   1.087   0.000  0.00  0.00    +0.000 A 
ATOM     10  C   UNL     1       7.432   0.010   0.000  0.00  0.00    +0.000 A 
ATOM     11  C   UNL     1       7.914   0.674   0.000  0.00  0.00    +0.000 A 
ENDROOT
BRANCH  11  12
ATOM     12  S   UNL     1       8.739   0.674   0.000  0.00  0.00    +0.000 S 
ATOM     13  O   UNL     1       8.739   1.499   0.000  0.00  0.00    +0.000 OA
ATOM     14  O   UNL     1       8.739  -0.151   0.000  0.00  0.00    +0.000 OA
ATOM     15  N   UNL     1       9.564   0.674   0.000  0.00  0.00    +0.000 NA
ENDBRANCH  11  12
BRANCH   5  16
ATOM     16  C   UNL     1       4.508   1.499   0.000  0.00  0.00    +0.000 C 
BRANCH  16  17
ATOM     17  C   UNL     1       3.793   1.087   0.000  0.00  0.00    +0.000 C 
BRANCH  17  18
ATOM     18  C   UNL     1       3.079   1.499   0.000  0.00  0.00    +0.000 C 
BRANCH  18  19
ATOM     19  O   UNL     1       2.365   1.087   0.000  0.00  0.00    +0.000 OA
ATOM     20  C   UNL     1       1.650   1.499   0.000  0.00  0.00    +0.000 C 
ENDBRANCH  18  19
ENDBRANCH  17  18
ENDBRANCH  16  17
ENDBRANCH   5  16
BRANCH   6  21
ATOM     21  N   UNL     1       5.937  -0.976   0.000  0.00  0.00    +0.000 NA
BRANCH  21  22
ATOM     22  C   UNL     1       5.222  -1.389   0.000  0.00  0.00    +0.000 C 
ATOM     23  C   UNL     1       5.222  -2.213   0.000  0.00  0.00    +0.000 C 
ENDBRANCH  21  22
ENDBRANCH   6  21
TORSDOF 7
