REMARK  Name = 1195
REMARK  9 active torsions:
REMARK  status: ('A' for Active; 'I' for Inactive)
REMARK    1  A    between atoms: O_8  and  C_20
REMARK    2  A    between atoms: O_8  and  C_25
REMARK    3  A    between atoms: O_9  and  C_22
REMARK    4  A    between atoms: O_9  and  C_26
REMARK    5  A    between atoms: N_11  and  C_17
REMARK    6  A    between atoms: C_12  and  C_17
REMARK    7  A    between atoms: C_18  and  C_19
REMARK    8  A    between atoms: C_25  and  C_27
REMARK    9  A    between atoms: C_26  and  C_28
REMARK                            x       y       z     vdW  Elec       q    Type
REMARK                         _______ _______ _______ _____ _____    ______ ____
ROOT
ATOM      1  C   UNL     1       5.222  -0.055   0.000  0.00  0.00    +0.000 A 
ATOM      2  C   UNL     1       4.508  -0.468   0.000  0.00  0.00    +0.000 A 
ATOM      3  C   UNL     1       5.937  -0.468   0.000  0.00  0.00    +0.000 A 
ATOM      4  C   UNL     1       5.937  -1.293   0.000  0.00  0.00    +0.000 A 
ATOM      5  C   UNL     1       4.508  -1.293   0.000  0.00  0.00    +0.000 A 
ATOM      6  C   UNL     1       5.222  -1.705   0.000  0.00  0.00    +0.000 A 
ENDROOT
BRANCH   1   9
ATOM      7  O   UNL     1       4.508   1.182   0.000  0.00  0.00    +0.000 OA
ATOM      8  N   UNL     1       5.937   1.182   0.000  0.00  0.00    +0.000 NA
ATOM      9  C   UNL     1       5.222   0.770   0.000  0.00  0.00    +0.000 C 
BRANCH   8  10
ATOM     10  C   UNL     1       5.937   2.007   0.000  0.00  0.00    +0.000 C 
BRANCH  10  12
ATOM     11  N   UNL     1       6.652   3.245   0.000  0.00  0.00    +0.000 NA
ATOM     12  C   UNL     1       6.652   2.420   0.000  0.00  0.00    +0.000 C 
ATOM     13  C   UNL     1       7.366   2.007   0.000  0.00  0.00    +0.000 C 
ATOM     14  C   UNL     1       8.080   2.420   0.000  0.00  0.00    +0.000 C 
ATOM     15  C   UNL     1       8.080   3.245   0.000  0.00  0.00    +0.000 C 
ATOM     16  C   UNL     1       7.366   3.657   0.000  0.00  0.00    +0.000 C 
ENDBRANCH  10  12
ENDBRANCH   8  10
ENDBRANCH   1   9
BRANCH   4  17
ATOM     17  O   UNL     1       6.652  -1.705   0.000  0.00  0.00    +0.000 OA
BRANCH  17  18
ATOM     18  C   UNL     1       6.652  -2.530   0.000  0.00  0.00    +0.000 C 
BRANCH  18  22
ATOM     19  F   UNL     1       8.080  -3.355   0.000  0.00  0.00    +0.000 F 
ATOM     20  F   UNL     1       6.953  -3.657   0.000  0.00  0.00    +0.000 F 
ATOM     21  F   UNL     1       7.778  -2.228   0.000  0.00  0.00    +0.000 F 
ATOM     22  C   UNL     1       7.366  -2.943   0.000  0.00  0.00    +0.000 C 
ENDBRANCH  18  22
ENDBRANCH  17  18
ENDBRANCH   4  17
BRANCH   2  23
ATOM     23  O   UNL     1       3.793  -0.055   0.000  0.00  0.00    +0.000 OA
BRANCH  23  24
ATOM     24  C   UNL     1       3.079  -0.468   0.000  0.00  0.00    +0.000 C 
BRANCH  24  28
ATOM     25  F   UNL     1       1.952  -0.770   0.000  0.00  0.00    +0.000 F 
ATOM     26  F   UNL     1       1.650   0.357   0.000  0.00  0.00    +0.000 F 
ATOM     27  F   UNL     1       2.777   0.659   0.000  0.00  0.00    +0.000 F 
ATOM     28  C   UNL     1       2.365  -0.055   0.000  0.00  0.00    +0.000 C 
ENDBRANCH  24  28
ENDBRANCH  23  24
ENDBRANCH   2  23
TORSDOF 9
