REMARK  Name = 1197
REMARK  3 active torsions:
REMARK  status: ('A' for Active; 'I' for Inactive)
REMARK    1  A    between atoms: C_6  and  C_12
REMARK    2  A    between atoms: C_10  and  C_11
REMARK    3  A    between atoms: C_11  and  C_13
REMARK                            x       y       z     vdW  Elec       q    Type
REMARK                         _______ _______ _______ _____ _____    ______ ____
ROOT
ATOM      1  O   UNL     1       3.793  -0.379   0.000  0.00  0.00    +0.000 OA
ATOM      2  N   UNL     1       3.079   0.859   0.000  0.00  0.00    +0.000 N 
ATOM      3  C   UNL     1       3.747   1.343   0.000  0.00  0.00    +0.000 C 
ATOM      4  C   UNL     1       3.492   2.128   0.000  0.00  0.00    +0.000 C 
ATOM      5  C   UNL     1       2.667   2.128   0.000  0.00  0.00    +0.000 C 
ATOM      6  C   UNL     1       2.412   1.343   0.000  0.00  0.00    +0.000 C 
ATOM      7  C   UNL     1       3.079   0.034   0.000  0.00  0.00    +0.000 C 
ENDROOT
BRANCH   3  10
ATOM      8  O   UNL     1       5.144   1.641   0.000  0.00  0.00    +0.000 OA
ATOM      9  O   UNL     1       4.703   0.281   0.000  0.00  0.00    +0.000 OA
ATOM     10  C   UNL     1       4.531   1.089   0.000  0.00  0.00    +0.000 C 
ENDBRANCH   3  10
BRANCH   7  11
ATOM     11  C   UNL     1       2.365  -0.379   0.000  0.00  0.00    +0.000 C 
ATOM     12  C   UNL     1       1.650   0.034   0.000  0.00  0.00    +0.000 C 
BRANCH  11  14
ATOM     13  S   UNL     1       1.650  -1.617   0.000  0.00  0.00    +0.000 S 
ATOM     14  C   UNL     1       2.365  -1.204   0.000  0.00  0.00    +0.000 C 
ENDBRANCH  11  14
ENDBRANCH   7  11
TORSDOF 3
