REMARK  Name = 11979494
REMARK  20 active torsions:
REMARK  status: ('A' for Active; 'I' for Inactive)
REMARK    1  A    between atoms: O_11  and  C_72
REMARK    2  A    between atoms: O_12  and  C_71
REMARK    3  A    between atoms: O_13  and  C_74
REMARK    4  A    between atoms: O_14  and  C_73
REMARK    5  A    between atoms: O_17  and  C_84
REMARK    6  A    between atoms: O_18  and  C_83
REMARK    7  A    between atoms: O_29  and  C_108
REMARK    8  A    between atoms: O_30  and  C_107
REMARK    9  A    between atoms: O_31  and  C_110
REMARK   10  A    between atoms: O_32  and  C_109
REMARK   11  A    between atoms: O_33  and  C_114
REMARK   12  A    between atoms: O_34  and  C_113
REMARK   13  A    between atoms: C_39  and  C_51
REMARK   14  A    between atoms: C_40  and  C_52
REMARK   15  A    between atoms: C_65  and  C_85
REMARK   16  A    between atoms: C_66  and  C_86
REMARK   17  A    between atoms: C_67  and  C_90
REMARK   18  A    between atoms: C_68  and  C_89
REMARK   19  A    between atoms: C_69  and  C_87
REMARK   20  A    between atoms: C_70  and  C_88
REMARK                            x       y       z     vdW  Elec       q    Type
REMARK                         _______ _______ _______ _____ _____    ______ ____
ROOT
ATOM      1  O   UNL     1       4.775  15.640   0.000  0.00  0.00    +0.000 OA
ATOM      2  O   UNL     1       2.358  14.754   0.000  0.00  0.00    +0.000 OA
ATOM      3  O   UNL     1       5.916  14.721   0.000  0.00  0.00    +0.000 OA
ATOM      4  O   UNL     1       2.879  10.974   0.000  0.00  0.00    +0.000 OA
ATOM      5  O   UNL     1       1.681  11.665   0.000  0.00  0.00    +0.000 OA
ATOM      6  C   UNL     1       3.787  14.754   0.000  0.00  0.00    +0.000 C 
ATOM      7  C   UNL     1       4.501  14.341   0.000  0.00  0.00    +0.000 C 
ATOM      8  C   UNL     1       4.501  13.516   0.000  0.00  0.00    +0.000 C 
ATOM      9  C   UNL     1       3.072  14.341   0.000  0.00  0.00    +0.000 C 
ATOM     10  C   UNL     1       3.787  13.104   0.000  0.00  0.00    +0.000 A 
ATOM     11  C   UNL     1       3.959  15.555   0.000  0.00  0.00    +0.000 C 
ATOM     12  C   UNL     1       3.072  13.516   0.000  0.00  0.00    +0.000 A 
ATOM     13  C   UNL     1       5.109  14.891   0.000  0.00  0.00    +0.000 C 
ATOM     14  C   UNL     1       3.800  12.244   0.000  0.00  0.00    +0.000 A 
ATOM     15  C   UNL     1       2.321  13.098   0.000  0.00  0.00    +0.000 A 
ATOM     16  C   UNL     1       3.059  11.809   0.000  0.00  0.00    +0.000 A 
ATOM     17  C   UNL     1       2.315  12.239   0.000  0.00  0.00    +0.000 A 
ATOM     18  C   UNL     1       2.030  10.885   0.000  0.00  0.00    +0.000 C 
ENDROOT
BRANCH   8  19
ATOM     19  C   UNL     1       5.215  13.104   0.000  0.00  0.00    +0.000 A 
ATOM     20  C   UNL     1       5.930  13.516   0.000  0.00  0.00    +0.000 A 
ATOM     21  C   UNL     1       5.215  12.279   0.000  0.00  0.00    +0.000 A 
ATOM     22  C   UNL     1       5.930  11.866   0.000  0.00  0.00    +0.000 A 
ATOM     23  C   UNL     1       6.644  13.104   0.000  0.00  0.00    +0.000 A 
ATOM     24  C   UNL     1       6.644  12.279   0.000  0.00  0.00    +0.000 A 
BRANCH  22  25
ATOM     25  O   UNL     1       5.930  11.041   0.000  0.00  0.00    +0.000 OA
ATOM     26  C   UNL     1       6.644  10.629   0.000  0.00  0.00    +0.000 C 
ENDBRANCH  22  25
BRANCH  23  27
ATOM     27  O   UNL     1       7.359  13.516   0.000  0.00  0.00    +0.000 OA
ATOM     28  C   UNL     1       7.359  14.341   0.000  0.00  0.00    +0.000 C 
ENDBRANCH  23  27
BRANCH  24  29
ATOM     29  O   UNL     1       7.359  11.866   0.000  0.00  0.00    +0.000 OA
ATOM     30  C   UNL     1       8.073  12.279   0.000  0.00  0.00    +0.000 C 
ENDBRANCH  24  29
ENDBRANCH   8  19
TORSDOF 4
REMARK  Name = 11979494
REMARK  20 active torsions:
REMARK  status: ('A' for Active; 'I' for Inactive)
REMARK    1  A    between atoms: O_11  and  C_72
REMARK    2  A    between atoms: O_12  and  C_71
REMARK    3  A    between atoms: O_13  and  C_74
REMARK    4  A    between atoms: O_14  and  C_73
REMARK    5  A    between atoms: O_17  and  C_84
REMARK    6  A    between atoms: O_18  and  C_83
REMARK    7  A    between atoms: O_29  and  C_108
REMARK    8  A    between atoms: O_30  and  C_107
REMARK    9  A    between atoms: O_31  and  C_110
REMARK   10  A    between atoms: O_32  and  C_109
REMARK   11  A    between atoms: O_33  and  C_114
REMARK   12  A    between atoms: O_34  and  C_113
REMARK   13  A    between atoms: C_39  and  C_51
REMARK   14  A    between atoms: C_40  and  C_52
REMARK   15  A    between atoms: C_65  and  C_85
REMARK   16  A    between atoms: C_66  and  C_86
REMARK   17  A    between atoms: C_67  and  C_90
REMARK   18  A    between atoms: C_68  and  C_89
REMARK   19  A    between atoms: C_69  and  C_87
REMARK   20  A    between atoms: C_70  and  C_88
REMARK                            x       y       z     vdW  Elec       q    Type
REMARK                         _______ _______ _______ _____ _____    ______ ____
ROOT
ATOM      1  O   UNL     1       4.775   8.097   0.000  0.00  0.00    +0.000 OA
ATOM      2  O   UNL     1       2.358   7.210   0.000  0.00  0.00    +0.000 OA
ATOM      3  O   UNL     1       5.916   7.178   0.000  0.00  0.00    +0.000 OA
ATOM      4  O   UNL     1       2.879   3.430   0.000  0.00  0.00    +0.000 OA
ATOM      5  O   UNL     1       1.681   4.122   0.000  0.00  0.00    +0.000 OA
ATOM      6  C   UNL     1       3.787   7.210   0.000  0.00  0.00    +0.000 C 
ATOM      7  C   UNL     1       4.501   6.798   0.000  0.00  0.00    +0.000 C 
ATOM      8  C   UNL     1       4.501   5.973   0.000  0.00  0.00    +0.000 C 
ATOM      9  C   UNL     1       3.072   6.798   0.000  0.00  0.00    +0.000 C 
ATOM     10  C   UNL     1       3.787   5.560   0.000  0.00  0.00    +0.000 A 
ATOM     11  C   UNL     1       3.959   8.012   0.000  0.00  0.00    +0.000 C 
ATOM     12  C   UNL     1       3.072   5.973   0.000  0.00  0.00    +0.000 A 
ATOM     13  C   UNL     1       5.109   7.348   0.000  0.00  0.00    +0.000 C 
ATOM     14  C   UNL     1       3.800   4.701   0.000  0.00  0.00    +0.000 A 
ATOM     15  C   UNL     1       2.321   5.554   0.000  0.00  0.00    +0.000 A 
ATOM     16  C   UNL     1       3.059   4.266   0.000  0.00  0.00    +0.000 A 
ATOM     17  C   UNL     1       2.315   4.695   0.000  0.00  0.00    +0.000 A 
ATOM     18  C   UNL     1       2.030   3.342   0.000  0.00  0.00    +0.000 C 
ENDROOT
BRANCH   8  19
ATOM     19  C   UNL     1       5.215   5.560   0.000  0.00  0.00    +0.000 A 
ATOM     20  C   UNL     1       5.215   4.735   0.000  0.00  0.00    +0.000 A 
ATOM     21  C   UNL     1       5.930   5.973   0.000  0.00  0.00    +0.000 A 
ATOM     22  C   UNL     1       6.644   5.560   0.000  0.00  0.00    +0.000 A 
ATOM     23  C   UNL     1       5.930   4.323   0.000  0.00  0.00    +0.000 A 
ATOM     24  C   UNL     1       6.644   4.735   0.000  0.00  0.00    +0.000 A 
BRANCH  22  25
ATOM     25  O   UNL     1       7.359   5.973   0.000  0.00  0.00    +0.000 OA
ATOM     26  C   UNL     1       7.359   6.798   0.000  0.00  0.00    +0.000 C 
ENDBRANCH  22  25
BRANCH  23  27
ATOM     27  O   UNL     1       5.930   3.498   0.000  0.00  0.00    +0.000 OA
ATOM     28  C   UNL     1       6.644   3.085   0.000  0.00  0.00    +0.000 C 
ENDBRANCH  23  27
BRANCH  24  29
ATOM     29  O   UNL     1       7.359   4.323   0.000  0.00  0.00    +0.000 OA
ATOM     30  C   UNL     1       8.073   4.735   0.000  0.00  0.00    +0.000 C 
ENDBRANCH  24  29
ENDBRANCH   8  19
TORSDOF 4
REMARK  Name = 11979494
REMARK  20 active torsions:
REMARK  status: ('A' for Active; 'I' for Inactive)
REMARK    1  A    between atoms: O_11  and  C_72
REMARK    2  A    between atoms: O_12  and  C_71
REMARK    3  A    between atoms: O_13  and  C_74
REMARK    4  A    between atoms: O_14  and  C_73
REMARK    5  A    between atoms: O_17  and  C_84
REMARK    6  A    between atoms: O_18  and  C_83
REMARK    7  A    between atoms: O_29  and  C_108
REMARK    8  A    between atoms: O_30  and  C_107
REMARK    9  A    between atoms: O_31  and  C_110
REMARK   10  A    between atoms: O_32  and  C_109
REMARK   11  A    between atoms: O_33  and  C_114
REMARK   12  A    between atoms: O_34  and  C_113
REMARK   13  A    between atoms: C_39  and  C_51
REMARK   14  A    between atoms: C_40  and  C_52
REMARK   15  A    between atoms: C_65  and  C_85
REMARK   16  A    between atoms: C_66  and  C_86
REMARK   17  A    between atoms: C_67  and  C_90
REMARK   18  A    between atoms: C_68  and  C_89
REMARK   19  A    between atoms: C_69  and  C_87
REMARK   20  A    between atoms: C_70  and  C_88
REMARK                            x       y       z     vdW  Elec       q    Type
REMARK                         _______ _______ _______ _____ _____    ______ ____
ROOT
ATOM      1  O   UNL     1      12.807  10.436   0.000  0.00  0.00    +0.000 OA
ATOM      2  O   UNL     1      15.744  12.779   0.000  0.00  0.00    +0.000 OA
ATOM      3  O   UNL     1      15.744  11.451   0.000  0.00  0.00    +0.000 OA
ATOM      4  C   UNL     1      12.050  11.685   0.000  0.00  0.00    +0.000 C 
ATOM      5  C   UNL     1      12.050  12.544   0.000  0.00  0.00    +0.000 C 
ATOM      6  C   UNL     1      12.797  12.968   0.000  0.00  0.00    +0.000 C 
ATOM      7  C   UNL     1      12.797  11.261   0.000  0.00  0.00    +0.000 C 
ATOM      8  C   UNL     1      13.534  12.527   0.000  0.00  0.00    +0.000 A 
ATOM      9  C   UNL     1      13.534  11.702   0.000  0.00  0.00    +0.000 A 
ATOM     10  C   UNL     1      14.249  12.940   0.000  0.00  0.00    +0.000 A 
ATOM     11  C   UNL     1      14.249  11.290   0.000  0.00  0.00    +0.000 A 
ATOM     12  C   UNL     1      14.963  12.527   0.000  0.00  0.00    +0.000 A 
ATOM     13  C   UNL     1      14.963  11.702   0.000  0.00  0.00    +0.000 A 
ATOM     14  C   UNL     1      16.225  12.115   0.000  0.00  0.00    +0.000 C 
ENDROOT
BRANCH   6  15
ATOM     15  C   UNL     1      12.807  13.793   0.000  0.00  0.00    +0.000 A 
ATOM     16  C   UNL     1      13.526  14.197   0.000  0.00  0.00    +0.000 A 
ATOM     17  C   UNL     1      12.097  14.214   0.000  0.00  0.00    +0.000 A 
ATOM     18  C   UNL     1      12.107  15.039   0.000  0.00  0.00    +0.000 A 
ATOM     19  C   UNL     1      13.535  15.023   0.000  0.00  0.00    +0.000 A 
ATOM     20  C   UNL     1      12.826  15.443   0.000  0.00  0.00    +0.000 A 
BRANCH  19  21
ATOM     21  O   UNL     1      14.255  15.427   0.000  0.00  0.00    +0.000 OA
ATOM     22  C   UNL     1      14.964  15.006   0.000  0.00  0.00    +0.000 C 
ENDBRANCH  19  21
BRANCH  20  23
ATOM     23  O   UNL     1      12.835  16.268   0.000  0.00  0.00    +0.000 OA
ATOM     24  C   UNL     1      13.554  16.672   0.000  0.00  0.00    +0.000 C 
ENDBRANCH  20  23
BRANCH  18  25
ATOM     25  O   UNL     1      11.397  15.460   0.000  0.00  0.00    +0.000 OA
ATOM     26  C   UNL     1      11.406  16.285   0.000  0.00  0.00    +0.000 C 
ENDBRANCH  18  25
ENDBRANCH   6  15
BRANCH   5  29
ATOM     27  O   UNL     1      10.621  12.550   0.000  0.00  0.00    +0.000 OA
ATOM     28  O   UNL     1      11.340  13.785   0.000  0.00  0.00    +0.000 OA
ATOM     29  C   UNL     1      11.337  12.960   0.000  0.00  0.00    +0.000 C 
ENDBRANCH   5  29
BRANCH   4  31
ATOM     30  O   UNL     1      11.340  10.445   0.000  0.00  0.00    +0.000 OA
ATOM     31  C   UNL     1      11.337  11.270   0.000  0.00  0.00    +0.000 C 
ENDBRANCH   4  31
TORSDOF 6
REMARK  Name = 11979494
REMARK  20 active torsions:
REMARK  status: ('A' for Active; 'I' for Inactive)
REMARK    1  A    between atoms: O_11  and  C_72
REMARK    2  A    between atoms: O_12  and  C_71
REMARK    3  A    between atoms: O_13  and  C_74
REMARK    4  A    between atoms: O_14  and  C_73
REMARK    5  A    between atoms: O_17  and  C_84
REMARK    6  A    between atoms: O_18  and  C_83
REMARK    7  A    between atoms: O_29  and  C_108
REMARK    8  A    between atoms: O_30  and  C_107
REMARK    9  A    between atoms: O_31  and  C_110
REMARK   10  A    between atoms: O_32  and  C_109
REMARK   11  A    between atoms: O_33  and  C_114
REMARK   12  A    between atoms: O_34  and  C_113
REMARK   13  A    between atoms: C_39  and  C_51
REMARK   14  A    between atoms: C_40  and  C_52
REMARK   15  A    between atoms: C_65  and  C_85
REMARK   16  A    between atoms: C_66  and  C_86
REMARK   17  A    between atoms: C_67  and  C_90
REMARK   18  A    between atoms: C_68  and  C_89
REMARK   19  A    between atoms: C_69  and  C_87
REMARK   20  A    between atoms: C_70  and  C_88
REMARK                            x       y       z     vdW  Elec       q    Type
REMARK                         _______ _______ _______ _____ _____    ______ ____
ROOT
ATOM      1  O   UNL     1      12.807   1.841   0.000  0.00  0.00    +0.000 OA
ATOM      2  O   UNL     1      15.744   4.184   0.000  0.00  0.00    +0.000 OA
ATOM      3  O   UNL     1      15.744   2.856   0.000  0.00  0.00    +0.000 OA
ATOM      4  C   UNL     1      12.050   3.090   0.000  0.00  0.00    +0.000 C 
ATOM      5  C   UNL     1      12.050   3.950   0.000  0.00  0.00    +0.000 C 
ATOM      6  C   UNL     1      12.797   4.373   0.000  0.00  0.00    +0.000 C 
ATOM      7  C   UNL     1      12.797   2.666   0.000  0.00  0.00    +0.000 C 
ATOM      8  C   UNL     1      13.534   3.933   0.000  0.00  0.00    +0.000 A 
ATOM      9  C   UNL     1      13.534   3.107   0.000  0.00  0.00    +0.000 A 
ATOM     10  C   UNL     1      14.249   4.345   0.000  0.00  0.00    +0.000 A 
ATOM     11  C   UNL     1      14.249   2.695   0.000  0.00  0.00    +0.000 A 
ATOM     12  C   UNL     1      14.963   3.933   0.000  0.00  0.00    +0.000 A 
ATOM     13  C   UNL     1      14.963   3.107   0.000  0.00  0.00    +0.000 A 
ATOM     14  C   UNL     1      16.225   3.520   0.000  0.00  0.00    +0.000 C 
ENDROOT
BRANCH   6  15
ATOM     15  C   UNL     1      12.807   5.199   0.000  0.00  0.00    +0.000 A 
ATOM     16  C   UNL     1      13.526   5.603   0.000  0.00  0.00    +0.000 A 
ATOM     17  C   UNL     1      12.097   5.619   0.000  0.00  0.00    +0.000 A 
ATOM     18  C   UNL     1      12.107   6.444   0.000  0.00  0.00    +0.000 A 
ATOM     19  C   UNL     1      13.535   6.428   0.000  0.00  0.00    +0.000 A 
ATOM     20  C   UNL     1      12.826   6.848   0.000  0.00  0.00    +0.000 A 
BRANCH  19  21
ATOM     21  O   UNL     1      14.255   6.832   0.000  0.00  0.00    +0.000 OA
ATOM     22  C   UNL     1      14.964   6.411   0.000  0.00  0.00    +0.000 C 
ENDBRANCH  19  21
BRANCH  20  23
ATOM     23  O   UNL     1      12.835   7.673   0.000  0.00  0.00    +0.000 OA
ATOM     24  C   UNL     1      13.554   8.077   0.000  0.00  0.00    +0.000 C 
ENDBRANCH  20  23
BRANCH  18  25
ATOM     25  O   UNL     1      11.397   6.865   0.000  0.00  0.00    +0.000 OA
ATOM     26  C   UNL     1      11.406   7.690   0.000  0.00  0.00    +0.000 C 
ENDBRANCH  18  25
ENDBRANCH   6  15
BRANCH   5  29
ATOM     27  O   UNL     1      10.621   3.955   0.000  0.00  0.00    +0.000 OA
ATOM     28  O   UNL     1      11.340   5.190   0.000  0.00  0.00    +0.000 OA
ATOM     29  C   UNL     1      11.337   4.365   0.000  0.00  0.00    +0.000 C 
ENDBRANCH   5  29
BRANCH   4  31
ATOM     30  O   UNL     1      11.340   1.850   0.000  0.00  0.00    +0.000 OA
ATOM     31  C   UNL     1      11.337   2.675   0.000  0.00  0.00    +0.000 C 
ENDBRANCH   4  31
TORSDOF 6
