REMARK  Name = 1198
REMARK  2 active torsions:
REMARK  status: ('A' for Active; 'I' for Inactive)
REMARK    1  A    between atoms: O_2  and  C_15
REMARK    2  A    between atoms: O_2  and  C_16
REMARK                            x       y       z     vdW  Elec       q    Type
REMARK                         _______ _______ _______ _____ _____    ______ ____
ROOT
ATOM      1 CL   UNL     1       7.641  -1.875   0.000  0.00  0.00    +0.000 Cl
ATOM      2  O   UNL     1       4.116  -3.324   0.000  0.00  0.00    +0.000 OA
ATOM      3  N   UNL     1       4.341  -1.875   0.000  0.00  0.00    +0.000 N 
ATOM      4  N   UNL     1       2.365  -1.050   0.000  0.00  0.00    +0.000 NA
ATOM      5  N   UNL     1       2.365  -2.700   0.000  0.00  0.00    +0.000 NA
ATOM      6  N   UNL     1       5.579  -2.590   0.000  0.00  0.00    +0.000 NA
ATOM      7  C   UNL     1       3.860  -1.212   0.000  0.00  0.00    +0.000 C 
ATOM      8  C   UNL     1       3.079  -1.463   0.000  0.00  0.00    +0.000 A 
ATOM      9  C   UNL     1       3.079  -2.288   0.000  0.00  0.00    +0.000 A 
ATOM     10  C   UNL     1       3.860  -2.539   0.000  0.00  0.00    +0.000 C 
ATOM     11  C   UNL     1       5.166  -1.875   0.000  0.00  0.00    +0.000 A 
ATOM     12  C   UNL     1       5.579  -1.161   0.000  0.00  0.00    +0.000 A 
ATOM     13  C   UNL     1       1.650  -1.463   0.000  0.00  0.00    +0.000 A 
ATOM     14  C   UNL     1       1.650  -2.288   0.000  0.00  0.00    +0.000 A 
ATOM     15  C   UNL     1       6.404  -1.161   0.000  0.00  0.00    +0.000 A 
ATOM     16  C   UNL     1       6.404  -2.590   0.000  0.00  0.00    +0.000 A 
ATOM     17  C   UNL     1       6.816  -1.875   0.000  0.00  0.00    +0.000 A 
ENDROOT
BRANCH   7  18
ATOM     18  O   UNL     1       4.116  -0.427   0.000  0.00  0.00    +0.000 OA
BRANCH  18  26
ATOM     19  O   UNL     1       2.758   0.017   0.000  0.00  0.00    +0.000 OA
ATOM     20  N   UNL     1       3.821   0.971   0.000  0.00  0.00    +0.000 N 
ATOM     21  N   UNL     1       4.334   2.539   0.000  0.00  0.00    +0.000 NA
ATOM     22  C   UNL     1       3.270   1.585   0.000  0.00  0.00    +0.000 C 
ATOM     23  C   UNL     1       4.629   1.141   0.000  0.00  0.00    +0.000 C 
ATOM     24  C   UNL     1       3.527   2.369   0.000  0.00  0.00    +0.000 C 
ATOM     25  C   UNL     1       4.885   1.925   0.000  0.00  0.00    +0.000 C 
ATOM     26  C   UNL     1       3.565   0.187   0.000  0.00  0.00    +0.000 C 
ATOM     27  C   UNL     1       4.590   3.324   0.000  0.00  0.00    +0.000 C 
ENDBRANCH  18  26
ENDBRANCH   7  18
TORSDOF 2
