REMARK  Name = 1199
REMARK  2 active torsions:
REMARK  status: ('A' for Active; 'I' for Inactive)
REMARK    1  A    between atoms: O_2  and  C_21
REMARK    2  A    between atoms: O_6  and  C_41
REMARK                            x       y       z     vdW  Elec       q    Type
REMARK                         _______ _______ _______ _____ _____    ______ ____
ROOT
ATOM      1  O   UNL     1       4.591   1.172   0.000  0.00  0.00    +0.000 OA
ATOM      2  O   UNL     1       2.944   1.966   0.000  0.00  0.00    +0.000 OA
ATOM      3  O   UNL     1       6.009  -1.845   0.000  0.00  0.00    +0.000 OA
ATOM      4  O   UNL     1       7.246  -1.691   0.000  0.00  0.00    +0.000 OA
ATOM      5  N   UNL     1       6.521   2.381   0.000  0.00  0.00    +0.000 N 
ATOM      6  N   UNL     1       2.441  -3.022   0.000  0.00  0.00    +0.000 NA
ATOM      7  C   UNL     1       5.806   1.969   0.000  0.00  0.00    +0.000 C 
ATOM      8  C   UNL     1       6.521   3.207   0.000  0.00  0.00    +0.000 C 
ATOM      9  C   UNL     1       5.092   2.381   0.000  0.00  0.00    +0.000 A 
ATOM     10  C   UNL     1       5.806   3.619   0.000  0.00  0.00    +0.000 C 
ATOM     11  C   UNL     1       5.593   1.172   0.000  0.00  0.00    +0.000 C 
ATOM     12  C   UNL     1       5.092   3.207   0.000  0.00  0.00    +0.000 A 
ATOM     13  C   UNL     1       7.352   2.381   0.000  0.00  0.00    +0.000 C 
ATOM     14  C   UNL     1       6.936   1.662   0.000  0.00  0.00    +0.000 C 
ATOM     15  C   UNL     1       4.377   1.969   0.000  0.00  0.00    +0.000 A 
ATOM     16  C   UNL     1       6.005   0.458   0.000  0.00  0.00    +0.000 A 
ATOM     17  C   UNL     1       4.377   3.619   0.000  0.00  0.00    +0.000 A 
ATOM     18  C   UNL     1       3.663   2.381   0.000  0.00  0.00    +0.000 A 
ATOM     19  C   UNL     1       3.663   3.207   0.000  0.00  0.00    +0.000 A 
ATOM     20  C   UNL     1       5.593  -0.257   0.000  0.00  0.00    +0.000 A 
ATOM     21  C   UNL     1       6.830   0.458   0.000  0.00  0.00    +0.000 A 
ATOM     22  C   UNL     1       3.075  -2.493   0.000  0.00  0.00    +0.000 C 
ATOM     23  C   UNL     1       3.849  -2.778   0.000  0.00  0.00    +0.000 A 
ATOM     24  C   UNL     1       2.941  -1.686   0.000  0.00  0.00    +0.000 C 
ATOM     25  C   UNL     1       2.582  -3.835   0.000  0.00  0.00    +0.000 C 
ATOM     26  C   UNL     1       6.005  -0.972   0.000  0.00  0.00    +0.000 A 
ATOM     27  C   UNL     1       3.990  -3.591   0.000  0.00  0.00    +0.000 A 
ATOM     28  C   UNL     1       3.356  -4.119   0.000  0.00  0.00    +0.000 C 
ATOM     29  C   UNL     1       4.178   0.458   0.000  0.00  0.00    +0.000 A 
ATOM     30  C   UNL     1       7.243  -0.257   0.000  0.00  0.00    +0.000 A 
ATOM     31  C   UNL     1       3.353  -0.972   0.000  0.00  0.00    +0.000 A 
ATOM     32  C   UNL     1       6.830  -0.972   0.000  0.00  0.00    +0.000 A 
ATOM     33  C   UNL     1       4.483  -2.250   0.000  0.00  0.00    +0.000 A 
ATOM     34  C   UNL     1       5.257  -2.534   0.000  0.00  0.00    +0.000 A 
ATOM     35  C   UNL     1       4.764  -3.876   0.000  0.00  0.00    +0.000 A 
ATOM     36  C   UNL     1       1.661  -2.735   0.000  0.00  0.00    +0.000 C 
ATOM     37  C   UNL     1       4.591  -0.257   0.000  0.00  0.00    +0.000 A 
ATOM     38  C   UNL     1       3.353   0.458   0.000  0.00  0.00    +0.000 A 
ATOM     39  C   UNL     1       5.398  -3.347   0.000  0.00  0.00    +0.000 A 
ATOM     40  C   UNL     1       4.178  -0.972   0.000  0.00  0.00    +0.000 A 
ATOM     41  C   UNL     1       2.941  -0.257   0.000  0.00  0.00    +0.000 A 
ENDROOT
BRANCH  19  42
ATOM     42  O   UNL     1       2.944   3.622   0.000  0.00  0.00    +0.000 OA
ATOM     43  C   UNL     1       2.944   4.452   0.000  0.00  0.00    +0.000 C 
ENDBRANCH  19  42
BRANCH  39  44
ATOM     44  O   UNL     1       6.178  -3.634   0.000  0.00  0.00    +0.000 OA
ATOM     45  C   UNL     1       6.319  -4.452   0.000  0.00  0.00    +0.000 C 
ENDBRANCH  39  44
TORSDOF 2
