REMARK  Name = 11F
REMARK  5 active torsions:
REMARK  status: ('A' for Active; 'I' for Inactive)
REMARK    1  A    between atoms: C_6  and  C_7
REMARK    2  A    between atoms: C_8  and  O_10
REMARK    3  A    between atoms: C_14  and  C_15
REMARK    4  A    between atoms: C_15  and  C_17
REMARK    5  A    between atoms: C_18  and  C_19
REMARK                            x       y       z     vdW  Elec       q    Type
REMARK                         _______ _______ _______ _____ _____    ______ ____
ROOT
ATOM      1  C   UNL     1       0.801  -1.852   0.000  0.00  0.00    +0.000 A 
ATOM      2  C   UNL     1       0.801  -1.027   0.000  0.00  0.00    +0.000 A 
ATOM      3  C   UNL     1       0.086  -0.614   0.000  0.00  0.00    +0.000 A 
ATOM      4  C   UNL     1       0.086  -2.264   0.000  0.00  0.00    +0.000 A 
ATOM      5  C   UNL     1      -0.628  -1.852   0.000  0.00  0.00    +0.000 A 
ATOM      6  C   UNL     1      -0.628  -1.027   0.000  0.00  0.00    +0.000 A 
ENDROOT
BRANCH   1  12
ATOM      7  C   UNL     1       2.230  -1.852   0.000  0.00  0.00    +0.000 A 
ATOM      8  C   UNL     1       2.944  -2.264   0.000  0.00  0.00    +0.000 A 
ATOM      9  C   UNL     1       2.944  -3.089   0.000  0.00  0.00    +0.000 A 
ATOM     10  C   UNL     1       2.230  -3.502   0.000  0.00  0.00    +0.000 A 
ATOM     11  C   UNL     1       1.515  -3.089   0.000  0.00  0.00    +0.000 A 
ATOM     12  C   UNL     1       1.515  -2.264   0.000  0.00  0.00    +0.000 A 
ENDBRANCH   1  12
BRANCH   2  13
ATOM     13  O   UNL     1       1.515  -0.614   0.000  0.00  0.00    +0.000 OA
ATOM     14  C   UNL     1       1.515   0.211   0.000  0.00  0.00    +0.000 C 
ENDBRANCH   2  13
BRANCH   6  15
ATOM     15  C   UNL     1      -1.343  -0.614   0.000  0.00  0.00    +0.000 C 
ATOM     16  C   UNL     1      -2.057  -1.027   0.000  0.00  0.00    +0.000 C 
BRANCH  15  17
ATOM     17  C   UNL     1      -1.343   0.211   0.000  0.00  0.00    +0.000 C 
ATOM     18  C   UNL     1      -1.343   1.036   0.000  0.00  0.00    +0.000 C 
BRANCH  18  19
ATOM     19  C   UNL     1      -1.343   1.861   0.000  0.00  0.00    +0.000 A 
ATOM     20  C   UNL     1      -2.057   2.273   0.000  0.00  0.00    +0.000 A 
ATOM     21  C   UNL     1      -2.771   1.861   0.000  0.00  0.00    +0.000 C 
ATOM     22  N   UNL     1      -2.057   3.098   0.000  0.00  0.00    +0.000 NA
ATOM     23  C   UNL     1      -1.343   3.511   0.000  0.00  0.00    +0.000 A 
ATOM     24  N   UNL     1      -1.343   4.336   0.000  0.00  0.00    +0.000 NA
ATOM     25  N   UNL     1      -0.628   3.098   0.000  0.00  0.00    +0.000 NA
ATOM     26  C   UNL     1      -0.628   2.273   0.000  0.00  0.00    +0.000 A 
ATOM     27  N   UNL     1       0.086   1.861   0.000  0.00  0.00    +0.000 NA
ENDBRANCH  18  19
ENDBRANCH  15  17
ENDBRANCH   6  15
TORSDOF 5
