REMARK  Name = 11M
REMARK  3 active torsions:
REMARK  status: ('A' for Active; 'I' for Inactive)
REMARK    1  A    between atoms: C_3  and  C_20
REMARK    2  A    between atoms: C_8  and  C_22
REMARK    3  A    between atoms: C_9  and  S_28
REMARK                            x       y       z     vdW  Elec       q    Type
REMARK                         _______ _______ _______ _____ _____    ______ ____
ROOT
ATOM      1  C   UNL     1      -3.218   1.703   0.000  0.00  0.00    +0.000 A 
ATOM      2  C   UNL     1      -2.882   2.457   0.000  0.00  0.00    +0.000 A 
ATOM      3  C   UNL     1      -2.062   2.543   0.000  0.00  0.00    +0.000 A 
ATOM      4  C   UNL     1      -2.190  -0.184   0.000  0.00  0.00    +0.000 C 
ATOM      5  C   UNL     1      -1.322  -0.416   0.000  0.00  0.00    +0.000 C 
ATOM      6  C   UNL     1      -0.218   0.810   0.000  0.00  0.00    +0.000 C 
ATOM      7  C   UNL     1      -1.577   0.368   0.000  0.00  0.00    +0.000 C 
ATOM      8  C   UNL     1       0.844  -0.146   0.000  0.00  0.00    +0.000 C 
ATOM      9  C   UNL     1      -1.577   1.876   0.000  0.00  0.00    +0.000 A 
ATOM     10  C   UNL     1      -1.913   1.122   0.000  0.00  0.00    +0.000 A 
ATOM     11  C   UNL     1      -2.733   1.036   0.000  0.00  0.00    +0.000 A 
ATOM     12  O   UNL     1      -2.905   0.229   0.000  0.00  0.00    +0.000 OA
ATOM     13  C   UNL     1      -0.515  -0.588   0.000  0.00  0.00    +0.000 C 
ATOM     14  N   UNL     1       0.037   0.025   0.000  0.00  0.00    +0.000 N 
ATOM     15  C   UNL     1      -1.025   0.981   0.000  0.00  0.00    +0.000 C 
ATOM     16  O   UNL     1       1.396   0.467   0.000  0.00  0.00    +0.000 OA
ENDROOT
BRANCH   8  20
ATOM     17  C   UNL     1       1.099  -2.266   0.000  0.00  0.00    +0.000 A 
ATOM     18  C   UNL     1       2.598  -2.423   0.000  0.00  0.00    +0.000 A 
ATOM     19  C   UNL     1       3.312  -1.186   0.000  0.00  0.00    +0.000 A 
ATOM     20  C   UNL     1       1.099  -0.931   0.000  0.00  0.00    +0.000 A 
ATOM     21  C   UNL     1       1.883  -1.186   0.000  0.00  0.00    +0.000 A 
ATOM     22  C   UNL     1       1.883  -2.011   0.000  0.00  0.00    +0.000 A 
ATOM     23  S   UNL     1       0.614  -1.598   0.000  0.00  0.00    +0.000 S 
ATOM     24  C   UNL     1       3.312  -2.011   0.000  0.00  0.00    +0.000 A 
ATOM     25  C   UNL     1       2.598  -0.773   0.000  0.00  0.00    +0.000 A 
BRANCH  17  26
ATOM     26  S   UNL     1       0.844  -3.050   0.000  0.00  0.00    +0.000 S 
ATOM     27  C   UNL     1       0.037  -3.222   0.000  0.00  0.00    +0.000 C 
ENDBRANCH  17  26
ENDBRANCH   8  20
BRANCH   3  28
ATOM     28  C   UNL     1      -1.726   3.297   0.000  0.00  0.00    +0.000 C 
ATOM     29  N   UNL     1      -2.211   3.964   0.000  0.00  0.00    +0.000 NA
ENDBRANCH   3  28
TORSDOF 3
