REMARK  Name = 11N
REMARK  3 active torsions:
REMARK  status: ('A' for Active; 'I' for Inactive)
REMARK    1  A    between atoms: C_2  and  C_8
REMARK    2  A    between atoms: C_9  and  C_23
REMARK    3  A    between atoms: C_10  and  C_24
REMARK                            x       y       z     vdW  Elec       q    Type
REMARK                         _______ _______ _______ _____ _____    ______ ____
ROOT
ATOM      1  C   UNL     1      -1.254   0.585   0.000  0.00  0.00    +0.000 A 
ATOM      2  C   UNL     1      -2.068   0.447   0.000  0.00  0.00    +0.000 A 
ATOM      3  C   UNL     1      -2.594   1.082   0.000  0.00  0.00    +0.000 A 
ATOM      4  C   UNL     1      -0.200   1.662   0.000  0.00  0.00    +0.000 C 
ATOM      5  C   UNL     1      -0.252   2.486   0.000  0.00  0.00    +0.000 C 
ATOM      6  C   UNL     1       0.531   2.045   0.000  0.00  0.00    +0.000 C 
ATOM      7  C   UNL     1       0.462   0.396   0.000  0.00  0.00    +0.000 C 
ATOM      8  C   UNL     1       1.890   0.337   0.000  0.00  0.00    +0.000 C 
ATOM      9  C   UNL     1      -2.307   1.856   0.000  0.00  0.00    +0.000 A 
ATOM     10  C   UNL     1      -1.493   1.994   0.000  0.00  0.00    +0.000 A 
ATOM     11  C   UNL     1      -0.967   1.358   0.000  0.00  0.00    +0.000 A 
ATOM     12  O   UNL     1      -1.051   2.690   0.000  0.00  0.00    +0.000 OA
ATOM     13  C   UNL     1       1.228   1.603   0.000  0.00  0.00    +0.000 C 
ATOM     14  N   UNL     1       1.193   0.778   0.000  0.00  0.00    +0.000 N 
ATOM     15  C   UNL     1      -0.234   0.838   0.000  0.00  0.00    +0.000 C 
ATOM     16  O   UNL     1       2.621   0.719   0.000  0.00  0.00    +0.000 OA
ENDROOT
BRANCH   2  17
ATOM     17  C   UNL     1      -2.355  -0.326   0.000  0.00  0.00    +0.000 C 
ATOM     18  N   UNL     1      -1.829  -0.962   0.000  0.00  0.00    +0.000 NA
ENDBRANCH   2  17
BRANCH   8  20
ATOM     19  C   UNL     1       1.125  -0.870   0.000  0.00  0.00    +0.000 C 
ATOM     20  C   UNL     1       1.856  -0.488   0.000  0.00  0.00    +0.000 C 
BRANCH  19  24
ATOM     21  C   UNL     1       0.360  -2.077   0.000  0.00  0.00    +0.000 A 
ATOM     22  C   UNL     1       1.022  -3.343   0.000  0.00  0.00    +0.000 A 
ATOM     23  C   UNL     1       1.787  -2.136   0.000  0.00  0.00    +0.000 A 
ATOM     24  C   UNL     1       1.091  -1.694   0.000  0.00  0.00    +0.000 A 
ATOM     25  C   UNL     1       0.325  -2.901   0.000  0.00  0.00    +0.000 A 
ATOM     26  C   UNL     1       1.753  -2.961   0.000  0.00  0.00    +0.000 A 
ENDBRANCH  19  24
ENDBRANCH   8  20
TORSDOF 3
