REMARK  Name = 11U
REMARK  7 active torsions:
REMARK  status: ('A' for Active; 'I' for Inactive)
REMARK    1  A    between atoms: C_2  and  C_4
REMARK    2  A    between atoms: C_4  and  N_22
REMARK    3  A    between atoms: C_8  and  C_9
REMARK    4  A    between atoms: N_10  and  C_11
REMARK    5  A    between atoms: C_11  and  C_12
REMARK    6  A    between atoms: C_15  and  C_16
REMARK    7  A    between atoms: N_22  and  C_23
REMARK                            x       y       z     vdW  Elec       q    Type
REMARK                         _______ _______ _______ _____ _____    ______ ____
ROOT
ATOM      1  N   UNL     1       0.437  -0.784   0.000  0.00  0.00    +0.000 N 
ATOM      2  C   UNL     1       1.222  -0.529   0.000  0.00  0.00    +0.000 C 
ATOM      3  O   UNL     1       1.393   0.278   0.000  0.00  0.00    +0.000 OA
ATOM      4  C   UNL     1       0.182  -1.569   0.000  0.00  0.00    +0.000 C 
ATOM      5  C   UNL     1      -0.643  -1.569   0.000  0.00  0.00    +0.000 C 
ATOM      6  C   UNL     1      -0.898  -0.784   0.000  0.00  0.00    +0.000 C 
ATOM      7  C   UNL     1      -0.230  -0.299   0.000  0.00  0.00    +0.000 C 
ENDROOT
BRANCH   7   8
ATOM      8  C   UNL     1      -0.230   0.526   0.000  0.00  0.00    +0.000 C 
ATOM      9  N   UNL     1      -0.945   0.939   0.000  0.00  0.00    +0.000 NA
ATOM     10  O   UNL     1       0.484   0.939   0.000  0.00  0.00    +0.000 OA
BRANCH   9  11
ATOM     11  C   UNL     1      -0.945   1.764   0.000  0.00  0.00    +0.000 C 
BRANCH  11  12
ATOM     12  C   UNL     1      -1.659   2.176   0.000  0.00  0.00    +0.000 A 
ATOM     13  C   UNL     1      -2.374   1.764   0.000  0.00  0.00    +0.000 A 
ATOM     14  C   UNL     1      -3.088   2.176   0.000  0.00  0.00    +0.000 A 
ATOM     15  C   UNL     1      -3.088   3.001   0.000  0.00  0.00    +0.000 A 
ATOM     16  C   UNL     1      -2.374   3.414   0.000  0.00  0.00    +0.000 A 
ATOM     17  C   UNL     1      -1.659   3.001   0.000  0.00  0.00    +0.000 A 
BRANCH  15  18
ATOM     18  C   UNL     1      -3.803   3.414   0.000  0.00  0.00    +0.000 C 
ATOM     19  N   UNL     1      -3.803   4.239   0.000  0.00  0.00    +0.000 NA
ATOM     20  N   UNL     1      -4.517   3.001   0.000  0.00  0.00    +0.000 NA
ENDBRANCH  15  18
ENDBRANCH  11  12
ENDBRANCH   9  11
ENDBRANCH   7   8
BRANCH   2  21
ATOM     21  C   UNL     1       1.835  -1.081   0.000  0.00  0.00    +0.000 C 
BRANCH  21  22
ATOM     22  N   UNL     1       2.619  -0.826   0.000  0.00  0.00    +0.000 NA
BRANCH  22  23
ATOM     23  C   UNL     1       3.232  -1.378   0.000  0.00  0.00    +0.000 C 
ATOM     24  C   UNL     1       4.017  -1.123   0.000  0.00  0.00    +0.000 C 
ATOM     25  C   UNL     1       4.630  -1.675   0.000  0.00  0.00    +0.000 C 
ATOM     26  C   UNL     1       4.459  -2.482   0.000  0.00  0.00    +0.000 C 
ATOM     27  C   UNL     1       3.674  -2.737   0.000  0.00  0.00    +0.000 C 
ATOM     28  C   UNL     1       3.061  -2.185   0.000  0.00  0.00    +0.000 C 
ENDBRANCH  22  23
ENDBRANCH  21  22
ENDBRANCH   2  21
TORSDOF 7
