REMARK  Name = 11X
REMARK  3 active torsions:
REMARK  status: ('A' for Active; 'I' for Inactive)
REMARK    1  A    between atoms: C_4  and  N_14
REMARK    2  A    between atoms: C_12  and  C_13
REMARK    3  A    between atoms: C_12  and  N_14
REMARK                            x       y       z     vdW  Elec       q    Type
REMARK                         _______ _______ _______ _____ _____    ______ ____
ROOT
ATOM      1  C   UNL     1      -0.161   0.511   0.000  0.00  0.00    +0.000 C 
ENDROOT
BRANCH   1   7
ATOM      2  N   UNL     1      -1.590   2.161   0.000  0.00  0.00    +0.000 NA
ATOM      3  C   UNL     1      -0.876   1.749   0.000  0.00  0.00    +0.000 A 
ATOM      4  C   UNL     1      -1.590   0.511   0.000  0.00  0.00    +0.000 A 
ATOM      5  C   UNL     1      -2.304   0.924   0.000  0.00  0.00    +0.000 A 
ATOM      6  C   UNL     1      -2.304   1.749   0.000  0.00  0.00    +0.000 A 
ATOM      7  C   UNL     1      -0.876   0.924   0.000  0.00  0.00    +0.000 A 
ENDBRANCH   1   7
BRANCH   1   8
ATOM      8  N   UNL     1      -0.161  -0.314   0.000  0.00  0.00    +0.000 NA
BRANCH   8  11
ATOM      9  C   UNL     1       1.268  -0.314   0.000  0.00  0.00    +0.000 A 
ATOM     10  C   UNL     1       1.982  -0.726   0.000  0.00  0.00    +0.000 A 
ATOM     11  C   UNL     1       0.553  -0.726   0.000  0.00  0.00    +0.000 A 
ATOM     12  C   UNL     1       0.553  -1.551   0.000  0.00  0.00    +0.000 A 
ATOM     13  C   UNL     1       1.982  -1.551   0.000  0.00  0.00    +0.000 A 
ATOM     14  C   UNL     1       1.268  -1.964   0.000  0.00  0.00    +0.000 A 
ENDBRANCH   8  11
ENDBRANCH   1   8
TORSDOF 3
