REMARK  Name = 1203
REMARK  6 active torsions:
REMARK  status: ('A' for Active; 'I' for Inactive)
REMARK    1  A    between atoms: O_3  and  C_12
REMARK    2  A    between atoms: O_3  and  C_17
REMARK    3  A    between atoms: N_5  and  C_13
REMARK    4  A    between atoms: N_5  and  C_16
REMARK    5  A    between atoms: C_15  and  C_16
REMARK    6  A    between atoms: C_15  and  C_17
REMARK                            x       y       z     vdW  Elec       q    Type
REMARK                         _______ _______ _______ _____ _____    ______ ____
ROOT
ATOM      1  O   UNL     1       1.650   1.157   0.000  0.00  0.00    +0.000 OA
ATOM      2  O   UNL     1       1.650   2.807   0.000  0.00  0.00    +0.000 OA
ATOM      3  C   UNL     1       2.365   1.569   0.000  0.00  0.00    +0.000 C 
ATOM      4  C   UNL     1       2.365   2.394   0.000  0.00  0.00    +0.000 C 
ATOM      5  C   UNL     1       3.079   1.157   0.000  0.00  0.00    +0.000 C 
ATOM      6  C   UNL     1       3.079   2.807   0.000  0.00  0.00    +0.000 C 
ATOM      7  C   UNL     1       3.793   1.569   0.000  0.00  0.00    +0.000 A 
ATOM      8  C   UNL     1       3.793   2.394   0.000  0.00  0.00    +0.000 A 
ATOM      9  C   UNL     1       4.531   1.128   0.000  0.00  0.00    +0.000 A 
ATOM     10  C   UNL     1       4.531   2.836   0.000  0.00  0.00    +0.000 A 
ATOM     11  C   UNL     1       5.278   1.552   0.000  0.00  0.00    +0.000 A 
ATOM     12  C   UNL     1       5.278   2.412   0.000  0.00  0.00    +0.000 A 
ENDROOT
BRANCH   9  13
ATOM     13  O   UNL     1       4.521   0.303   0.000  0.00  0.00    +0.000 OA
BRANCH  13  14
ATOM     14  C   UNL     1       5.231  -0.117   0.000  0.00  0.00    +0.000 C 
BRANCH  14  16
ATOM     15  O   UNL     1       4.502  -1.347   0.000  0.00  0.00    +0.000 OA
ATOM     16  C   UNL     1       5.221  -0.942   0.000  0.00  0.00    +0.000 C 
BRANCH  16  17
ATOM     17  C   UNL     1       5.931  -1.363   0.000  0.00  0.00    +0.000 C 
BRANCH  17  18
ATOM     18  N   UNL     1       5.922  -2.188   0.000  0.00  0.00    +0.000 NA
BRANCH  18  19
ATOM     19  C   UNL     1       6.631  -2.609   0.000  0.00  0.00    +0.000 C 
ATOM     20  C   UNL     1       7.341  -3.030   0.000  0.00  0.00    +0.000 C 
ATOM     21  C   UNL     1       6.210  -3.318   0.000  0.00  0.00    +0.000 C 
ATOM     22  C   UNL     1       7.052  -1.899   0.000  0.00  0.00    +0.000 C 
ENDBRANCH  18  19
ENDBRANCH  17  18
ENDBRANCH  16  17
ENDBRANCH  14  16
ENDBRANCH  13  14
ENDBRANCH   9  13
TORSDOF 6
