REMARK  Name = 1205
REMARK  3 active torsions:
REMARK  status: ('A' for Active; 'I' for Inactive)
REMARK    1  A    between atoms: O_3  and  C_19
REMARK    2  A    between atoms: O_3  and  C_21
REMARK    3  A    between atoms: C_12  and  C_19
REMARK                            x       y       z     vdW  Elec       q    Type
REMARK                         _______ _______ _______ _____ _____    ______ ____
ROOT
ATOM      1  F   UNL     1       1.650   0.482   0.000  0.00  0.00    +0.000 F 
ATOM      2  O   UNL     1       4.045   1.938   0.000  0.00  0.00    +0.000 OA
ATOM      3  N   UNL     1       4.816  -0.613   0.000  0.00  0.00    +0.000 N 
ATOM      4  N   UNL     1       5.228   1.194   0.000  0.00  0.00    +0.000 N 
ATOM      5  N   UNL     1       5.735  -1.571   0.000  0.00  0.00    +0.000 NA
ATOM      6  C   UNL     1       5.559  -0.255   0.000  0.00  0.00    +0.000 A 
ATOM      7  C   UNL     1       5.743   0.549   0.000  0.00  0.00    +0.000 C 
ATOM      8  C   UNL     1       4.073  -0.255   0.000  0.00  0.00    +0.000 A 
ATOM      9  C   UNL     1       3.889   0.549   0.000  0.00  0.00    +0.000 A 
ATOM     10  C   UNL     1       6.124  -0.849   0.000  0.00  0.00    +0.000 A 
ATOM     11  C   UNL     1       4.403   1.194   0.000  0.00  0.00    +0.000 C 
ATOM     12  C   UNL     1       4.928  -1.425   0.000  0.00  0.00    +0.000 A 
ATOM     13  C   UNL     1       3.452  -0.849   0.000  0.00  0.00    +0.000 A 
ATOM     14  C   UNL     1       5.586   1.938   0.000  0.00  0.00    +0.000 C 
ATOM     15  C   UNL     1       3.072   0.815   0.000  0.00  0.00    +0.000 A 
ATOM     16  C   UNL     1       2.629  -0.602   0.000  0.00  0.00    +0.000 A 
ATOM     17  C   UNL     1       2.437   0.236   0.000  0.00  0.00    +0.000 A 
ENDROOT
BRANCH  10  19
ATOM     18  O   UNL     1       7.256   0.023   0.000  0.00  0.00    +0.000 OA
ATOM     19  C   UNL     1       6.942  -0.740   0.000  0.00  0.00    +0.000 C 
BRANCH  19  20
ATOM     20  O   UNL     1       7.446  -1.393   0.000  0.00  0.00    +0.000 OA
BRANCH  20  21
ATOM     21  C   UNL     1       8.263  -1.284   0.000  0.00  0.00    +0.000 C 
ATOM     22  C   UNL     1       8.767  -1.938   0.000  0.00  0.00    +0.000 C 
ENDBRANCH  20  21
ENDBRANCH  19  20
ENDBRANCH  10  19
TORSDOF 3
