REMARK  Name = 1206
REMARK  4 active torsions:
REMARK  status: ('A' for Active; 'I' for Inactive)
REMARK    1  A    between atoms: N_4  and  C_7
REMARK    2  A    between atoms: N_5  and  N_6
REMARK    3  A    between atoms: N_5  and  C_14
REMARK    4  A    between atoms: C_14  and  C_15
REMARK                            x       y       z     vdW  Elec       q    Type
REMARK                         _______ _______ _______ _____ _____    ______ ____
ROOT
ATOM      1  O   UNL     1       3.793  -0.206   0.000  0.00  0.00    +0.000 OA
ATOM      2  N   UNL     1       2.365  -0.206   0.000  0.00  0.00    +0.000 NA
ATOM      3  N   UNL     1       3.079   1.031   0.000  0.00  0.00    +0.000 N 
ATOM      4  C   UNL     1       3.079   0.206   0.000  0.00  0.00    +0.000 C 
ENDROOT
BRANCH   2   5
ATOM      5  C   UNL     1       2.365  -1.031   0.000  0.00  0.00    +0.000 C 
ATOM      6  C   UNL     1       1.650  -1.444   0.000  0.00  0.00    +0.000 C 
ATOM      7  C   UNL     1       3.079  -1.444   0.000  0.00  0.00    +0.000 C 
ATOM      8  C   UNL     1       1.650  -2.269   0.000  0.00  0.00    +0.000 C 
ATOM      9  C   UNL     1       3.079  -2.269   0.000  0.00  0.00    +0.000 C 
ATOM     10  C   UNL     1       2.365  -2.681   0.000  0.00  0.00    +0.000 C 
ENDBRANCH   2   5
BRANCH   3  12
ATOM     11  O   UNL     1       2.365   2.269   0.000  0.00  0.00    +0.000 OA
ATOM     12  N   UNL     1       2.365   1.444   0.000  0.00  0.00    +0.000 NA
ENDBRANCH   3  12
BRANCH   3  13
ATOM     13  C   UNL     1       3.793   1.444   0.000  0.00  0.00    +0.000 C 
BRANCH  13  15
ATOM     14 CL   UNL     1       4.508   2.681   0.000  0.00  0.00    +0.000 Cl
ATOM     15  C   UNL     1       3.793   2.269   0.000  0.00  0.00    +0.000 C 
ENDBRANCH  13  15
ENDBRANCH   3  13
TORSDOF 4
