REMARK  Name = 1207
REMARK  9 active torsions:
REMARK  status: ('A' for Active; 'I' for Inactive)
REMARK    1  A    between atoms: O_4  and  N_7
REMARK    2  A    between atoms: O_4  and  C_11
REMARK    3  A    between atoms: C_9  and  C_10
REMARK    4  A    between atoms: C_9  and  C_11
REMARK    5  A    between atoms: C_10  and  C_12
REMARK    6  A    between atoms: C_12  and  C_19
REMARK    7  A    between atoms: C_13  and  C_14
REMARK    8  A    between atoms: C_14  and  C_17
REMARK    9  A    between atoms: C_16  and  C_22
REMARK                            x       y       z     vdW  Elec       q    Type
REMARK                         _______ _______ _______ _____ _____    ______ ____
ROOT
ATOM      1  N   UNL     1       7.094   1.182   0.000  0.00  0.00    +0.000 NA
ATOM      2  C   UNL     1       7.809   0.770   0.000  0.00  0.00    +0.000 C 
ENDROOT
BRANCH   2   3
ATOM      3  C   UNL     1       7.809  -0.055   0.000  0.00  0.00    +0.000 A 
ATOM      4  C   UNL     1       7.094  -0.468   0.000  0.00  0.00    +0.000 A 
ATOM      5  C   UNL     1       7.094  -1.293   0.000  0.00  0.00    +0.000 A 
ATOM      6  C   UNL     1       8.523  -0.468   0.000  0.00  0.00    +0.000 A 
ATOM      7  C   UNL     1       7.809  -1.705   0.000  0.00  0.00    +0.000 A 
ATOM      8  C   UNL     1       8.523  -1.293   0.000  0.00  0.00    +0.000 A 
BRANCH   5  12
ATOM      9  F   UNL     1       6.793  -2.420   0.000  0.00  0.00    +0.000 F 
ATOM     10  F   UNL     1       5.665  -2.118   0.000  0.00  0.00    +0.000 F 
ATOM     11  F   UNL     1       5.967  -0.991   0.000  0.00  0.00    +0.000 F 
ATOM     12  C   UNL     1       6.380  -1.705   0.000  0.00  0.00    +0.000 C 
ENDBRANCH   5  12
ENDBRANCH   2   3
BRANCH   2  14
ATOM     13  N   UNL     1       9.952   1.182   0.000  0.00  0.00    +0.000 NA
ATOM     14  C   UNL     1       8.523   1.182   0.000  0.00  0.00    +0.000 A 
ATOM     15  C   UNL     1       8.523   2.007   0.000  0.00  0.00    +0.000 A 
ATOM     16  C   UNL     1       9.238   0.770   0.000  0.00  0.00    +0.000 A 
ATOM     17  C   UNL     1       9.238   2.420   0.000  0.00  0.00    +0.000 A 
ATOM     18  C   UNL     1       9.952   2.007   0.000  0.00  0.00    +0.000 A 
ENDBRANCH   2  14
BRANCH   1  19
ATOM     19  O   UNL     1       6.380   0.770   0.000  0.00  0.00    +0.000 OA
BRANCH  19  20
ATOM     20  C   UNL     1       5.665   1.182   0.000  0.00  0.00    +0.000 C 
BRANCH  20  21
ATOM     21  C   UNL     1       4.951   0.770   0.000  0.00  0.00    +0.000 C 
BRANCH  21  22
ATOM     22  C   UNL     1       4.237   1.182   0.000  0.00  0.00    +0.000 C 
BRANCH  22  23
ATOM     23  C   UNL     1       3.522   0.770   0.000  0.00  0.00    +0.000 C 
BRANCH  23  26
ATOM     24  O   UNL     1       2.093   0.770   0.000  0.00  0.00    +0.000 OA
ATOM     25  O   UNL     1       2.808   2.007   0.000  0.00  0.00    +0.000 OA
ATOM     26  C   UNL     1       2.808   1.182   0.000  0.00  0.00    +0.000 C 
ENDBRANCH  23  26
ENDBRANCH  22  23
ENDBRANCH  21  22
ENDBRANCH  20  21
ENDBRANCH  19  20
ENDBRANCH   1  19
TORSDOF 9
