REMARK  Name = 1208
REMARK  3 active torsions:
REMARK  status: ('A' for Active; 'I' for Inactive)
REMARK    1  A    between atoms: N_6  and  C_10
REMARK    2  A    between atoms: N_7  and  C_18
REMARK    3  A    between atoms: C_23  and  C_28
REMARK                            x       y       z     vdW  Elec       q    Type
REMARK                         _______ _______ _______ _____ _____    ______ ____
ROOT
ATOM      1  F   UNL     1       5.222  -1.159   0.000  0.00  0.00    +0.000 F 
ATOM      2  F   UNL     1       3.793   1.316   0.000  0.00  0.00    +0.000 F 
ATOM      3  O   UNL     1       6.665   2.170   0.000  0.00  0.00    +0.000 OA
ATOM      4  N   UNL     1       6.675  -0.363   0.000  0.00  0.00    +0.000 N 
ATOM      5  N   UNL     1       5.222   2.141   0.000  0.00  0.00    +0.000 NA
ATOM      6  C   UNL     1       5.937   0.078   0.000  0.00  0.00    +0.000 A 
ATOM      7  C   UNL     1       4.508   0.078   0.000  0.00  0.00    +0.000 A 
ATOM      8  C   UNL     1       7.422   0.061   0.000  0.00  0.00    +0.000 A 
ATOM      9  C   UNL     1       5.937   0.903   0.000  0.00  0.00    +0.000 A 
ATOM     10  C   UNL     1       5.222  -0.334   0.000  0.00  0.00    +0.000 A 
ATOM     11  C   UNL     1       5.222   1.316   0.000  0.00  0.00    +0.000 A 
ATOM     12  C   UNL     1       7.422   0.921   0.000  0.00  0.00    +0.000 A 
ATOM     13  C   UNL     1       4.508   0.903   0.000  0.00  0.00    +0.000 A 
ATOM     14  C   UNL     1       6.675   1.345   0.000  0.00  0.00    +0.000 A 
ENDROOT
BRANCH   7  15
ATOM     15  N   UNL     1       3.793  -0.334   0.000  0.00  0.00    +0.000 N 
ATOM     16  N   UNL     1       2.365  -1.159   0.000  0.00  0.00    +0.000 NA
ATOM     17  C   UNL     1       3.079  -1.572   0.000  0.00  0.00    +0.000 C 
ATOM     18  C   UNL     1       2.365  -0.334   0.000  0.00  0.00    +0.000 C 
ATOM     19  C   UNL     1       3.793  -1.159   0.000  0.00  0.00    +0.000 C 
ATOM     20  C   UNL     1       3.079   0.078   0.000  0.00  0.00    +0.000 C 
ATOM     21  C   UNL     1       3.079  -2.397   0.000  0.00  0.00    +0.000 C 
ATOM     22  C   UNL     1       1.650   0.078   0.000  0.00  0.00    +0.000 C 
ENDBRANCH   7  15
BRANCH  12  25
ATOM     23  O   UNL     1       8.851   0.926   0.000  0.00  0.00    +0.000 OA
ATOM     24  O   UNL     1       8.132   2.161   0.000  0.00  0.00    +0.000 OA
ATOM     25  C   UNL     1       8.135   1.336   0.000  0.00  0.00    +0.000 C 
ENDBRANCH  12  25
BRANCH   4  26
ATOM     26  C   UNL     1       6.665  -1.188   0.000  0.00  0.00    +0.000 C 
ATOM     27  C   UNL     1       7.069  -1.907   0.000  0.00  0.00    +0.000 C 
ATOM     28  C   UNL     1       6.244  -1.897   0.000  0.00  0.00    +0.000 C 
ENDBRANCH   4  26
TORSDOF 3
