REMARK  Name = 121
REMARK  5 active torsions:
REMARK  status: ('A' for Active; 'I' for Inactive)
REMARK    1  A    between atoms: C_9  and  C_11
REMARK    2  A    between atoms: C_11  and  C_12
REMARK    3  A    between atoms: C_12  and  C_14
REMARK    4  A    between atoms: C_14  and  C_15
REMARK    5  A    between atoms: C_15  and  C_16
REMARK                            x       y       z     vdW  Elec       q    Type
REMARK                         _______ _______ _______ _____ _____    ______ ____
ROOT
ATOM      1  S   UNL     1       5.007  -1.430   0.000  0.00  0.00    +0.000 S 
ATOM      2  O   UNL     1       1.650  -1.430   0.000  0.00  0.00    +0.000 OA
ATOM      3  N   UNL     1       2.960  -0.762   0.000  0.00  0.00    +0.000 NA
ATOM      4  N   UNL     1       2.960  -2.097   0.000  0.00  0.00    +0.000 NA
ATOM      5  C   UNL     1       3.745  -1.017   0.000  0.00  0.00    +0.000 C 
ATOM      6  C   UNL     1       3.745  -1.842   0.000  0.00  0.00    +0.000 C 
ATOM      7  C   UNL     1       4.526  -0.766   0.000  0.00  0.00    +0.000 C 
ATOM      8  C   UNL     1       4.526  -2.094   0.000  0.00  0.00    +0.000 C 
ATOM      9  C   UNL     1       2.475  -1.430   0.000  0.00  0.00    +0.000 C 
ENDROOT
BRANCH   7  10
ATOM     10  C   UNL     1       4.782   0.019   0.000  0.00  0.00    +0.000 C 
BRANCH  10  11
ATOM     11  C   UNL     1       5.589   0.189   0.000  0.00  0.00    +0.000 C 
BRANCH  11  12
ATOM     12  C   UNL     1       5.846   0.973   0.000  0.00  0.00    +0.000 C 
BRANCH  12  13
ATOM     13  C   UNL     1       6.653   1.143   0.000  0.00  0.00    +0.000 C 
BRANCH  13  16
ATOM     14  O   UNL     1       7.717   2.098   0.000  0.00  0.00    +0.000 OA
ATOM     15  O   UNL     1       6.358   2.541   0.000  0.00  0.00    +0.000 OA
ATOM     16  C   UNL     1       6.909   1.927   0.000  0.00  0.00    +0.000 C 
ENDBRANCH  13  16
ENDBRANCH  12  13
ENDBRANCH  11  12
ENDBRANCH  10  11
ENDBRANCH   7  10
TORSDOF 5
