REMARK  Name = 1210
REMARK  6 active torsions:
REMARK  status: ('A' for Active; 'I' for Inactive)
REMARK    1  A    between atoms: O_1  and  C_16
REMARK    2  A    between atoms: O_1  and  C_17
REMARK    3  A    between atoms: N_4  and  C_5
REMARK    4  A    between atoms: N_4  and  C_8
REMARK    5  A    between atoms: C_8  and  C_10
REMARK    6  A    between atoms: C_10  and  C_17
REMARK                            x       y       z     vdW  Elec       q    Type
REMARK                         _______ _______ _______ _____ _____    ______ ____
ROOT
ATOM      1  O   UNL     1       5.950   3.465   0.000  0.00  0.00    +0.000 OA
ATOM      2  C   UNL     1       5.960   0.933   0.000  0.00  0.00    +0.000 C 
ATOM      3  C   UNL     1       5.222   1.374   0.000  0.00  0.00    +0.000 A 
ATOM      4  C   UNL     1       6.707   1.357   0.000  0.00  0.00    +0.000 C 
ATOM      5  C   UNL     1       6.707   2.216   0.000  0.00  0.00    +0.000 C 
ATOM      6  C   UNL     1       5.222   2.199   0.000  0.00  0.00    +0.000 A 
ATOM      7  C   UNL     1       4.508   0.962   0.000  0.00  0.00    +0.000 A 
ATOM      8  C   UNL     1       5.960   2.640   0.000  0.00  0.00    +0.000 C 
ATOM      9  C   UNL     1       4.508   2.612   0.000  0.00  0.00    +0.000 A 
ATOM     10  C   UNL     1       3.793   1.374   0.000  0.00  0.00    +0.000 A 
ATOM     11  C   UNL     1       3.793   2.199   0.000  0.00  0.00    +0.000 A 
ENDROOT
BRANCH   7  12
ATOM     12  O   UNL     1       4.508   0.137   0.000  0.00  0.00    +0.000 OA
BRANCH  12  13
ATOM     13  C   UNL     1       3.793  -0.276   0.000  0.00  0.00    +0.000 C 
BRANCH  13  15
ATOM     14  O   UNL     1       4.508  -1.513   0.000  0.00  0.00    +0.000 OA
ATOM     15  C   UNL     1       3.793  -1.101   0.000  0.00  0.00    +0.000 C 
BRANCH  15  16
ATOM     16  C   UNL     1       3.079  -1.513   0.000  0.00  0.00    +0.000 C 
BRANCH  16  17
ATOM     17  N   UNL     1       3.079  -2.338   0.000  0.00  0.00    +0.000 NA
BRANCH  17  18
ATOM     18  C   UNL     1       2.365  -2.751   0.000  0.00  0.00    +0.000 C 
ATOM     19  C   UNL     1       1.952  -2.036   0.000  0.00  0.00    +0.000 C 
ATOM     20  C   UNL     1       2.777  -3.465   0.000  0.00  0.00    +0.000 C 
ATOM     21  C   UNL     1       1.650  -3.163   0.000  0.00  0.00    +0.000 C 
ENDBRANCH  17  18
ENDBRANCH  16  17
ENDBRANCH  15  16
ENDBRANCH  13  15
ENDBRANCH  12  13
ENDBRANCH   7  12
TORSDOF 6
