REMARK  Name = 1213
REMARK  0 active torsions:
REMARK  status: ('A' for Active; 'I' for Inactive)
REMARK                            x       y       z     vdW  Elec       q    Type
REMARK                         _______ _______ _______ _____ _____    ______ ____
ROOT
ATOM      1  N   UNL     1       2.318  -0.713   0.000  0.00  0.00    +0.000 NA
ATOM      2  N   UNL     1       1.650  -0.228   0.000  0.00  0.00    +0.000 NA
ATOM      3  C   UNL     1       2.730   0.557   0.000  0.00  0.00    +0.000 A 
ATOM      4  C   UNL     1       2.985  -0.228   0.000  0.00  0.00    +0.000 A 
ATOM      5  C   UNL     1       3.215   1.224   0.000  0.00  0.00    +0.000 C 
ATOM      6  C   UNL     1       1.905   0.557   0.000  0.00  0.00    +0.000 A 
ENDROOT
TORSDOF 0
