REMARK  Name = 1214
REMARK  8 active torsions:
REMARK  status: ('A' for Active; 'I' for Inactive)
REMARK    1  A    between atoms: O_1  and  C_9
REMARK    2  A    between atoms: O_1  and  C_10
REMARK    3  A    between atoms: O_3  and  C_14
REMARK    4  A    between atoms: O_3  and  C_21
REMARK    5  A    between atoms: N_5  and  C_7
REMARK    6  A    between atoms: N_5  and  C_8
REMARK    7  A    between atoms: C_6  and  C_7
REMARK    8  A    between atoms: C_6  and  C_9
REMARK                            x       y       z     vdW  Elec       q    Type
REMARK                         _______ _______ _______ _____ _____    ______ ____
ROOT
ATOM      1  C   UNL     1       3.079   0.412   0.000  0.00  0.00    +0.000 A 
ATOM      2  C   UNL     1       2.365   0.825   0.000  0.00  0.00    +0.000 A 
ATOM      3  C   UNL     1       2.365   1.650   0.000  0.00  0.00    +0.000 A 
ATOM      4  C   UNL     1       3.793   1.650   0.000  0.00  0.00    +0.000 A 
ATOM      5  C   UNL     1       3.079   2.062   0.000  0.00  0.00    +0.000 A 
ATOM      6  C   UNL     1       3.793   0.825   0.000  0.00  0.00    +0.000 A 
ATOM      7  C   UNL     1       1.650   0.412   0.000  0.00  0.00    +0.000 C 
ATOM      8  C   UNL     1       1.650   2.062   0.000  0.00  0.00    +0.000 C 
ATOM      9  C   UNL     1       4.508   2.062   0.000  0.00  0.00    +0.000 C 
ENDROOT
BRANCH   1  10
ATOM     10  O   UNL     1       3.079  -0.412   0.000  0.00  0.00    +0.000 OA
BRANCH  10  11
ATOM     11  C   UNL     1       3.793  -0.825   0.000  0.00  0.00    +0.000 C 
BRANCH  11  13
ATOM     12  O   UNL     1       3.079  -2.062   0.000  0.00  0.00    +0.000 OA
ATOM     13  C   UNL     1       3.793  -1.650   0.000  0.00  0.00    +0.000 C 
BRANCH  13  14
ATOM     14  C   UNL     1       4.508  -2.062   0.000  0.00  0.00    +0.000 C 
BRANCH  14  15
ATOM     15  N   UNL     1       4.508  -2.888   0.000  0.00  0.00    +0.000 NA
BRANCH  15  16
ATOM     16  C   UNL     1       5.222  -3.300   0.000  0.00  0.00    +0.000 C 
ATOM     17  C   UNL     1       5.937  -2.888   0.000  0.00  0.00    +0.000 C 
ATOM     18  C   UNL     1       5.222  -4.125   0.000  0.00  0.00    +0.000 C 
ENDBRANCH  15  16
ENDBRANCH  14  15
ENDBRANCH  13  14
ENDBRANCH  11  13
ENDBRANCH  10  11
ENDBRANCH   1  10
BRANCH   5  19
ATOM     19  O   UNL     1       3.079   2.888   0.000  0.00  0.00    +0.000 OA
BRANCH  19  21
ATOM     20  O   UNL     1       4.508   2.888   0.000  0.00  0.00    +0.000 OA
ATOM     21  C   UNL     1       3.793   3.300   0.000  0.00  0.00    +0.000 C 
ATOM     22  C   UNL     1       3.793   4.125   0.000  0.00  0.00    +0.000 C 
ENDBRANCH  19  21
ENDBRANCH   5  19
TORSDOF 8
