REMARK  Name = 1216
REMARK  2 active torsions:
REMARK  status: ('A' for Active; 'I' for Inactive)
REMARK    1  A    between atoms: N_4  and  C_24
REMARK    2  A    between atoms: C_10  and  C_21
REMARK                            x       y       z     vdW  Elec       q    Type
REMARK                         _______ _______ _______ _____ _____    ______ ____
ROOT
ATOM      1  O   UNL     1       1.650  -2.372   0.000  0.00  0.00    +0.000 OA
ATOM      2  N   UNL     1       3.141  -2.409   0.000  0.00  0.00    +0.000 NA
ATOM      3  C   UNL     1       6.099  -0.678   0.000  0.00  0.00    +0.000 C 
ATOM      4  C   UNL     1       6.099   0.147   0.000  0.00  0.00    +0.000 C 
ATOM      5  C   UNL     1       5.385  -1.091   0.000  0.00  0.00    +0.000 C 
ATOM      6  C   UNL     1       4.670  -0.678   0.000  0.00  0.00    +0.000 C 
ATOM      7  C   UNL     1       3.920  -1.096   0.000  0.00  0.00    +0.000 C 
ATOM      8  C   UNL     1       6.880   0.398   0.000  0.00  0.00    +0.000 C 
ATOM      9  C   UNL     1       5.385   0.559   0.000  0.00  0.00    +0.000 C 
ATOM     10  C   UNL     1       4.670   0.147   0.000  0.00  0.00    +0.000 C 
ATOM     11  C   UNL     1       6.880  -0.930   0.000  0.00  0.00    +0.000 C 
ATOM     12  C   UNL     1       5.398  -1.950   0.000  0.00  0.00    +0.000 C 
ATOM     13  C   UNL     1       7.361  -0.266   0.000  0.00  0.00    +0.000 C 
ATOM     14  C   UNL     1       3.913  -1.956   0.000  0.00  0.00    +0.000 C 
ATOM     15  C   UNL     1       4.657  -2.385   0.000  0.00  0.00    +0.000 C 
ATOM     16  C   UNL     1       6.099   0.972   0.000  0.00  0.00    +0.000 C 
ATOM     17  C   UNL     1       3.926  -0.271   0.000  0.00  0.00    +0.000 C 
ATOM     18  C   UNL     1       3.155  -0.631   0.000  0.00  0.00    +0.000 C 
ATOM     19  C   UNL     1       2.373  -1.067   0.000  0.00  0.00    +0.000 C 
ATOM     20  C   UNL     1       2.366  -1.962   0.000  0.00  0.00    +0.000 C 
ENDROOT
BRANCH   8  23
ATOM     21  O   UNL     1       6.585   1.796   0.000  0.00  0.00    +0.000 OA
ATOM     22  N   UNL     1       7.944   1.352   0.000  0.00  0.00    +0.000 NA
ATOM     23  C   UNL     1       7.136   1.182   0.000  0.00  0.00    +0.000 C 
BRANCH  22  24
ATOM     24  C   UNL     1       8.200   2.137   0.000  0.00  0.00    +0.000 C 
ATOM     25  C   UNL     1       8.456   2.921   0.000  0.00  0.00    +0.000 C 
ATOM     26  C   UNL     1       8.984   1.880   0.000  0.00  0.00    +0.000 C 
ATOM     27  C   UNL     1       7.416   2.393   0.000  0.00  0.00    +0.000 C 
ENDBRANCH  22  24
ENDBRANCH   8  23
TORSDOF 2
