REMARK  Name = 1218
REMARK  11 active torsions:
REMARK  status: ('A' for Active; 'I' for Inactive)
REMARK    1  A    between atoms: N_7  and  C_8
REMARK    2  A    between atoms: N_7  and  C_11
REMARK    3  A    between atoms: N_7  and  C_12
REMARK    4  A    between atoms: C_8  and  C_9
REMARK    5  A    between atoms: C_9  and  C_10
REMARK    6  A    between atoms: C_10  and  C_13
REMARK    7  A    between atoms: C_11  and  C_14
REMARK    8  A    between atoms: C_12  and  C_15
REMARK    9  A    between atoms: C_14  and  C_21
REMARK   10  A    between atoms: C_15  and  C_22
REMARK   11  A    between atoms: C_25  and  C_33
REMARK                            x       y       z     vdW  Elec       q    Type
REMARK                         _______ _______ _______ _____ _____    ______ ____
ROOT
ATOM      1 CL   UNL     1       7.450   1.825   0.000  0.00  0.00    +0.000 Cl
ATOM      2 CL   UNL     1       6.000   4.360   0.000  0.00  0.00    +0.000 Cl
ATOM      3  C   UNL     1       5.275   0.590   0.000  0.00  0.00    +0.000 A 
ATOM      4  C   UNL     1       4.561   1.003   0.000  0.00  0.00    +0.000 A 
ATOM      5  C   UNL     1       4.561   1.828   0.000  0.00  0.00    +0.000 A 
ATOM      6  C   UNL     1       5.990   1.003   0.000  0.00  0.00    +0.000 A 
ATOM      7  C   UNL     1       5.275   2.240   0.000  0.00  0.00    +0.000 A 
ATOM      8  C   UNL     1       5.990   1.828   0.000  0.00  0.00    +0.000 A 
ATOM      9  C   UNL     1       3.823   0.562   0.000  0.00  0.00    +0.000 A 
ATOM     10  C   UNL     1       3.823   2.269   0.000  0.00  0.00    +0.000 A 
ATOM     11  C   UNL     1       3.076   1.845   0.000  0.00  0.00    +0.000 A 
ATOM     12  C   UNL     1       5.262   3.099   0.000  0.00  0.00    +0.000 A 
ATOM     13  C   UNL     1       3.076   0.986   0.000  0.00  0.00    +0.000 A 
ATOM     14  C   UNL     1       6.740   2.246   0.000  0.00  0.00    +0.000 A 
ATOM     15  C   UNL     1       6.003   3.535   0.000  0.00  0.00    +0.000 A 
ATOM     16  C   UNL     1       6.747   3.105   0.000  0.00  0.00    +0.000 A 
ENDROOT
BRANCH  11  20
ATOM     17  F   UNL     1       2.778   2.973   0.000  0.00  0.00    +0.000 F 
ATOM     18  F   UNL     1       1.948   1.547   0.000  0.00  0.00    +0.000 F 
ATOM     19  F   UNL     1       1.650   2.675   0.000  0.00  0.00    +0.000 F 
ATOM     20  C   UNL     1       2.363   2.260   0.000  0.00  0.00    +0.000 C 
ENDBRANCH  11  20
BRANCH   3  22
ATOM     21  O   UNL     1       4.561  -0.647   0.000  0.00  0.00    +0.000 OA
ATOM     22  C   UNL     1       5.275  -0.235   0.000  0.00  0.00    +0.000 C 
BRANCH  22  23
ATOM     23  C   UNL     1       5.990  -0.647   0.000  0.00  0.00    +0.000 C 
BRANCH  23  24
ATOM     24  C   UNL     1       5.990  -1.472   0.000  0.00  0.00    +0.000 C 
BRANCH  24  25
ATOM     25  N   UNL     1       6.704  -1.885   0.000  0.00  0.00    +0.000 NA
BRANCH  25  26
ATOM     26  C   UNL     1       7.419  -1.472   0.000  0.00  0.00    +0.000 C 
BRANCH  26  27
ATOM     27  C   UNL     1       8.133  -1.885   0.000  0.00  0.00    +0.000 C 
BRANCH  27  28
ATOM     28  C   UNL     1       8.848  -1.472   0.000  0.00  0.00    +0.000 C 
ATOM     29  C   UNL     1       9.562  -1.885   0.000  0.00  0.00    +0.000 C 
ENDBRANCH  27  28
ENDBRANCH  26  27
ENDBRANCH  25  26
BRANCH  25  30
ATOM     30  C   UNL     1       6.704  -2.710   0.000  0.00  0.00    +0.000 C 
BRANCH  30  31
ATOM     31  C   UNL     1       7.419  -3.122   0.000  0.00  0.00    +0.000 C 
BRANCH  31  32
ATOM     32  C   UNL     1       7.419  -3.947   0.000  0.00  0.00    +0.000 C 
ATOM     33  C   UNL     1       8.133  -4.360   0.000  0.00  0.00    +0.000 C 
ENDBRANCH  31  32
ENDBRANCH  30  31
ENDBRANCH  25  30
ENDBRANCH  24  25
ENDBRANCH  23  24
ENDBRANCH  22  23
ENDBRANCH   3  22
TORSDOF 11
