REMARK  Name = 122
REMARK  2 active torsions:
REMARK  status: ('A' for Active; 'I' for Inactive)
REMARK    1  A    between atoms: C_1  and  C_7
REMARK    2  A    between atoms: C_12  and  C_13
REMARK                            x       y       z     vdW  Elec       q    Type
REMARK                         _______ _______ _______ _____ _____    ______ ____
ROOT
ATOM      1  C   UNL     1       1.959   0.041   0.000  0.00  0.00    +0.000 A 
ATOM      2  C   UNL     1       1.959  -0.784   0.000  0.00  0.00    +0.000 A 
ATOM      3  C   UNL     1       1.244  -1.196   0.000  0.00  0.00    +0.000 A 
ATOM      4  C   UNL     1       0.530  -0.784   0.000  0.00  0.00    +0.000 A 
ATOM      5  C   UNL     1       0.530   0.041   0.000  0.00  0.00    +0.000 A 
ATOM      6  C   UNL     1       1.244   0.454   0.000  0.00  0.00    +0.000 A 
ATOM      7  N   UNL     1      -0.255  -1.039   0.000  0.00  0.00    +0.000 NA
ATOM      8  N   UNL     1      -0.255   0.296   0.000  0.00  0.00    +0.000 NA
ATOM      9  C   UNL     1      -0.740  -0.371   0.000  0.00  0.00    +0.000 A 
ENDROOT
BRANCH   9  10
ATOM     10  C   UNL     1      -1.565  -0.371   0.000  0.00  0.00    +0.000 A 
ATOM     11  C   UNL     1      -1.977  -1.086   0.000  0.00  0.00    +0.000 A 
ATOM     12  C   UNL     1      -2.802  -1.086   0.000  0.00  0.00    +0.000 A 
ATOM     13  C   UNL     1      -3.215  -0.371   0.000  0.00  0.00    +0.000 A 
ATOM     14  C   UNL     1      -2.802   0.343   0.000  0.00  0.00    +0.000 A 
ATOM     15  C   UNL     1      -1.977   0.343   0.000  0.00  0.00    +0.000 A 
ATOM     16  O   UNL     1      -1.565   1.058   0.000  0.00  0.00    +0.000 OA
ENDBRANCH   9  10
BRANCH   1  17
ATOM     17  C   UNL     1       2.673   0.454   0.000  0.00  0.00    +0.000 C 
ATOM     18  N   UNL     1       3.388   0.041   0.000  0.00  0.00    +0.000 NA
ATOM     19  N   UNL     1       2.673   1.279   0.000  0.00  0.00    +0.000 NA
ENDBRANCH   1  17
TORSDOF 2
