REMARK  Name = 122
REMARK  2 active torsions:
REMARK  status: ('A' for Active; 'I' for Inactive)
REMARK    1  A    between atoms: N_2  and  C_3
REMARK    2  A    between atoms: C_3  and  C_7
REMARK                            x       y       z     vdW  Elec       q    Type
REMARK                         _______ _______ _______ _____ _____    ______ ____
ROOT
ATOM      1  N   UNL     1       2.365   0.000   0.000  0.00  0.00    +0.000 N 
ATOM      2  C   UNL     1       1.650  -0.412   0.000  0.00  0.00    +0.000 C 
ATOM      3  C   UNL     1       1.952   0.715   0.000  0.00  0.00    +0.000 C 
ATOM      4  C   UNL     1       2.777  -0.715   0.000  0.00  0.00    +0.000 C 
ENDROOT
BRANCH   1   5
ATOM      5  C   UNL     1       3.079   0.412   0.000  0.00  0.00    +0.000 C 
BRANCH   5   7
ATOM      6  O   UNL     1       4.508   0.412   0.000  0.00  0.00    +0.000 OA
ATOM      7  C   UNL     1       3.794   0.000   0.000  0.00  0.00    +0.000 C 
ENDBRANCH   5   7
ENDBRANCH   1   5
TORSDOF 2
