REMARK  Name = 1221
REMARK  2 active torsions:
REMARK  status: ('A' for Active; 'I' for Inactive)
REMARK    1  A    between atoms: N_3  and  C_4
REMARK    2  A    between atoms: C_4  and  C_10
REMARK                            x       y       z     vdW  Elec       q    Type
REMARK                         _______ _______ _______ _____ _____    ______ ____
ROOT
ATOM      1  O   UNL     1       1.650  -0.112   0.000  0.00  0.00    +0.000 OA
ATOM      2  C   UNL     1       3.079  -0.112   0.000  0.00  0.00    +0.000 C 
ATOM      3  C   UNL     1       3.793  -0.524   0.000  0.00  0.00    +0.000 C 
ATOM      4  C   UNL     1       3.793  -1.349   0.000  0.00  0.00    +0.000 C 
ATOM      5  C   UNL     1       3.079  -1.762   0.000  0.00  0.00    +0.000 C 
ATOM      6  C   UNL     1       2.365  -0.524   0.000  0.00  0.00    +0.000 C 
ATOM      7  C   UNL     1       2.365  -1.349   0.000  0.00  0.00    +0.000 C 
ENDROOT
BRANCH   2   9
ATOM      8 CL   UNL     1       4.630  -0.676   0.000  0.00  0.00    +0.000 Cl
ATOM      9  C   UNL     1       3.711   0.419   0.000  0.00  0.00    +0.000 A 
ATOM     10  C   UNL     1       4.486   0.137   0.000  0.00  0.00    +0.000 A 
ATOM     11  C   UNL     1       3.568   1.231   0.000  0.00  0.00    +0.000 A 
ATOM     12  C   UNL     1       5.118   0.667   0.000  0.00  0.00    +0.000 A 
ATOM     13  C   UNL     1       4.200   1.762   0.000  0.00  0.00    +0.000 A 
ATOM     14  C   UNL     1       4.975   1.479   0.000  0.00  0.00    +0.000 A 
ENDBRANCH   2   9
BRANCH   2  15
ATOM     15  N   UNL     1       2.667   0.603   0.000  0.00  0.00    +0.000 NA
ATOM     16  C   UNL     1       1.841   0.603   0.000  0.00  0.00    +0.000 C 
ENDBRANCH   2  15
TORSDOF 2
