REMARK  Name = 1223
REMARK  1 active torsions:
REMARK  status: ('A' for Active; 'I' for Inactive)
REMARK    1  A    between atoms: C_29  and  C_30
REMARK                            x       y       z     vdW  Elec       q    Type
REMARK                         _______ _______ _______ _____ _____    ______ ____
ROOT
ATOM      1  O   UNL     1       6.549   9.271   0.000  0.00  0.00    +0.000 OA
ATOM      2  O   UNL     1       5.120   6.796   0.000  0.00  0.00    +0.000 OA
ATOM      3  N   UNL     1       6.549   6.796   0.000  0.00  0.00    +0.000 N 
ATOM      4  N   UNL     1       5.834   8.033   0.000  0.00  0.00    +0.000 N 
ATOM      5  N   UNL     1       8.044   8.285   0.000  0.00  0.00    +0.000 NA
ATOM      6  N   UNL     1       8.044   6.957   0.000  0.00  0.00    +0.000 NA
ATOM      7  C   UNL     1       7.263   7.208   0.000  0.00  0.00    +0.000 A 
ATOM      8  C   UNL     1       7.263   8.033   0.000  0.00  0.00    +0.000 A 
ATOM      9  C   UNL     1       6.549   8.446   0.000  0.00  0.00    +0.000 A 
ATOM     10  C   UNL     1       5.834   7.208   0.000  0.00  0.00    +0.000 A 
ATOM     11  C   UNL     1       6.549   5.971   0.000  0.00  0.00    +0.000 C 
ATOM     12  C   UNL     1       5.120   8.446   0.000  0.00  0.00    +0.000 C 
ATOM     13  C   UNL     1       8.525   7.621   0.000  0.00  0.00    +0.000 A 
ENDROOT
TORSDOF 0
REMARK  Name = 1223
REMARK  1 active torsions:
REMARK  status: ('A' for Active; 'I' for Inactive)
REMARK    1  A    between atoms: C_29  and  C_30
REMARK                            x       y       z     vdW  Elec       q    Type
REMARK                         _______ _______ _______ _____ _____    ______ ____
ROOT
ATOM      1  O   UNL     1       6.549   3.812   0.000  0.00  0.00    +0.000 OA
ATOM      2  O   UNL     1       5.120   1.337   0.000  0.00  0.00    +0.000 OA
ATOM      3  N   UNL     1       6.549   1.337   0.000  0.00  0.00    +0.000 N 
ATOM      4  N   UNL     1       5.834   2.574   0.000  0.00  0.00    +0.000 N 
ATOM      5  N   UNL     1       8.044   2.825   0.000  0.00  0.00    +0.000 NA
ATOM      6  N   UNL     1       8.044   1.498   0.000  0.00  0.00    +0.000 NA
ATOM      7  C   UNL     1       7.263   1.749   0.000  0.00  0.00    +0.000 A 
ATOM      8  C   UNL     1       7.263   2.574   0.000  0.00  0.00    +0.000 A 
ATOM      9  C   UNL     1       6.549   2.987   0.000  0.00  0.00    +0.000 A 
ATOM     10  C   UNL     1       5.834   1.749   0.000  0.00  0.00    +0.000 A 
ATOM     11  C   UNL     1       6.549   0.511   0.000  0.00  0.00    +0.000 C 
ATOM     12  C   UNL     1       5.120   2.987   0.000  0.00  0.00    +0.000 C 
ATOM     13  C   UNL     1       8.525   2.162   0.000  0.00  0.00    +0.000 A 
ENDROOT
TORSDOF 0
REMARK  Name = 1223
REMARK  1 active torsions:
REMARK  status: ('A' for Active; 'I' for Inactive)
REMARK    1  A    between atoms: C_29  and  C_30
REMARK                            x       y       z     vdW  Elec       q    Type
REMARK                         _______ _______ _______ _____ _____    ______ ____
ROOT
ATOM      1  N   UNL     1       2.586   4.842   0.000  0.00  0.00    +0.000 NA
ATOM      2  C   UNL     1       1.872   4.429   0.000  0.00  0.00    +0.000 C 
ENDROOT
BRANCH   2   4
ATOM      3  N   UNL     1       0.443   4.429   0.000  0.00  0.00    +0.000 NA
ATOM      4  C   UNL     1       1.157   4.842   0.000  0.00  0.00    +0.000 C 
ENDBRANCH   2   4
TORSDOF 1
