REMARK  Name = 1224
REMARK  5 active torsions:
REMARK  status: ('A' for Active; 'I' for Inactive)
REMARK    1  A    between atoms: O_2  and  C_13
REMARK    2  A    between atoms: O_2  and  C_20
REMARK    3  A    between atoms: N_4  and  C_11
REMARK    4  A    between atoms: C_11  and  C_13
REMARK    5  A    between atoms: C_20  and  C_25
REMARK                            x       y       z     vdW  Elec       q    Type
REMARK                         _______ _______ _______ _____ _____    ______ ____
ROOT
ATOM      1  S   UNL     1       4.028  -4.268   0.000  0.00  0.00    +0.000 S 
ATOM      2  N   UNL     1       2.542  -0.231   0.000  0.00  0.00    +0.000 NA
ATOM      3  N   UNL     1       3.258  -1.718   0.000  0.00  0.00    +0.000 N 
ATOM      4  N   UNL     1       4.440  -2.461   0.000  0.00  0.00    +0.000 NA
ATOM      5  C   UNL     1       2.077  -0.913   0.000  0.00  0.00    +0.000 C 
ATOM      6  C   UNL     1       3.364  -0.293   0.000  0.00  0.00    +0.000 C 
ATOM      7  C   UNL     1       2.435  -1.656   0.000  0.00  0.00    +0.000 C 
ATOM      8  C   UNL     1       3.722  -1.036   0.000  0.00  0.00    +0.000 C 
ATOM      9  C   UNL     1       3.615  -2.461   0.000  0.00  0.00    +0.000 C 
ATOM     10  C   UNL     1       3.101  -3.106   0.000  0.00  0.00    +0.000 A 
ATOM     11  C   UNL     1       3.285  -3.910   0.000  0.00  0.00    +0.000 A 
ATOM     12  C   UNL     1       2.284  -2.840   0.000  0.00  0.00    +0.000 A 
ATOM     13  C   UNL     1       4.955  -3.106   0.000  0.00  0.00    +0.000 A 
ATOM     14  C   UNL     1       4.771  -3.910   0.000  0.00  0.00    +0.000 A 
ATOM     15  C   UNL     1       2.664  -4.504   0.000  0.00  0.00    +0.000 A 
ATOM     16  C   UNL     1       1.650  -3.419   0.000  0.00  0.00    +0.000 A 
ATOM     17  C   UNL     1       1.841  -4.257   0.000  0.00  0.00    +0.000 A 
ATOM     18  C   UNL     1       5.772  -2.840   0.000  0.00  0.00    +0.000 A 
ATOM     19  C   UNL     1       5.392  -4.504   0.000  0.00  0.00    +0.000 A 
ATOM     20  C   UNL     1       6.406  -3.419   0.000  0.00  0.00    +0.000 A 
ATOM     21  C   UNL     1       6.215  -4.257   0.000  0.00  0.00    +0.000 A 
ENDROOT
BRANCH   2  22
ATOM     22  C   UNL     1       2.184   0.512   0.000  0.00  0.00    +0.000 C 
BRANCH  22  23
ATOM     23  C   UNL     1       2.648   1.194   0.000  0.00  0.00    +0.000 C 
BRANCH  23  24
ATOM     24  O   UNL     1       2.291   1.937   0.000  0.00  0.00    +0.000 OA
BRANCH  24  25
ATOM     25  C   UNL     1       2.755   2.618   0.000  0.00  0.00    +0.000 C 
BRANCH  25  27
ATOM     26  O   UNL     1       2.862   4.043   0.000  0.00  0.00    +0.000 OA
ATOM     27  C   UNL     1       2.397   3.361   0.000  0.00  0.00    +0.000 C 
ENDBRANCH  25  27
ENDBRANCH  24  25
ENDBRANCH  23  24
ENDBRANCH  22  23
ENDBRANCH   2  22
TORSDOF 5
