REMARK  Name = 1226
REMARK  30 active torsions:
REMARK  status: ('A' for Active; 'I' for Inactive)
REMARK    1  A    between atoms: O_1  and  C_41
REMARK    2  A    between atoms: O_1  and  C_57
REMARK    3  A    between atoms: O_2  and  C_42
REMARK    4  A    between atoms: O_2  and  C_58
REMARK    5  A    between atoms: O_3  and  C_43
REMARK    6  A    between atoms: O_4  and  C_44
REMARK    7  A    between atoms: O_5  and  C_45
REMARK    8  A    between atoms: O_6  and  C_46
REMARK    9  A    between atoms: O_7  and  C_51
REMARK   10  A    between atoms: O_8  and  C_52
REMARK   11  A    between atoms: O_9  and  C_53
REMARK   12  A    between atoms: O_10  and  C_54
REMARK   13  A    between atoms: O_11  and  C_55
REMARK   14  A    between atoms: O_12  and  C_56
REMARK   15  A    between atoms: N_15  and  C_21
REMARK   16  A    between atoms: N_16  and  C_22
REMARK   17  A    between atoms: C_17  and  C_29
REMARK   18  A    between atoms: C_18  and  C_30
REMARK   19  A    between atoms: C_21  and  C_33
REMARK   20  A    between atoms: C_22  and  C_34
REMARK   21  A    between atoms: C_29  and  C_37
REMARK   22  A    between atoms: C_30  and  C_38
REMARK   23  A    between atoms: C_33  and  C_41
REMARK   24  A    between atoms: C_34  and  C_42
REMARK   25  A    between atoms: C_57  and  C_63
REMARK   26  A    between atoms: C_58  and  C_64
REMARK   27  A    between atoms: C_63  and  C_65
REMARK   28  A    between atoms: C_64  and  C_66
REMARK   29  A    between atoms: C_65  and  C_73
REMARK   30  A    between atoms: C_66  and  C_74
REMARK                            x       y       z     vdW  Elec       q    Type
REMARK                         _______ _______ _______ _____ _____    ______ ____
ROOT
ATOM      1  C   UNL     1      10.943   0.000   0.000  0.00  0.00    +0.000 C 
ATOM      2  C   UNL     1      11.768   0.000   0.000  0.00  0.00    +0.000 C 
ENDROOT
BRANCH   1   3
ATOM      3  C   UNL     1      10.531   0.715   0.000  0.00  0.00    +0.000 C 
BRANCH   3   4
ATOM      4  C   UNL     1       9.706   0.715   0.000  0.00  0.00    +0.000 C 
BRANCH   4   6
ATOM      5  O   UNL     1       9.706   2.143   0.000  0.00  0.00    +0.000 OA
ATOM      6  C   UNL     1       9.293   1.429   0.000  0.00  0.00    +0.000 C 
BRANCH   6   7
ATOM      7  O   UNL     1       8.468   1.429   0.000  0.00  0.00    +0.000 OA
BRANCH   7   8
ATOM      8  C   UNL     1       8.056   2.143   0.000  0.00  0.00    +0.000 C 
BRANCH   8   9
ATOM      9  C   UNL     1       7.231   2.143   0.000  0.00  0.00    +0.000 C 
BRANCH   9  10
ATOM     10  C   UNL     1       6.818   2.858   0.000  0.00  0.00    +0.000 C 
BRANCH  10  11
ATOM     11  N   UNL     1       5.993   2.858   0.000  0.00  0.00    +0.000 N 
ATOM     12  C   UNL     1       5.279   3.271   0.000  0.00  0.00    +0.000 C 
ATOM     13  C   UNL     1       5.993   2.033   0.000  0.00  0.00    +0.000 C 
ATOM     14  C   UNL     1       4.564   2.858   0.000  0.00  0.00    +0.000 A 
ATOM     15  C   UNL     1       5.279   1.620   0.000  0.00  0.00    +0.000 C 
ATOM     16  C   UNL     1       6.405   3.572   0.000  0.00  0.00    +0.000 C 
ATOM     17  C   UNL     1       4.564   2.033   0.000  0.00  0.00    +0.000 A 
ATOM     18  C   UNL     1       3.826   3.299   0.000  0.00  0.00    +0.000 A 
ATOM     19  C   UNL     1       3.826   1.592   0.000  0.00  0.00    +0.000 A 
ATOM     20  C   UNL     1       3.079   2.875   0.000  0.00  0.00    +0.000 A 
ATOM     21  C   UNL     1       3.079   2.016   0.000  0.00  0.00    +0.000 A 
BRANCH  21  22
ATOM     22  O   UNL     1       2.366   1.601   0.000  0.00  0.00    +0.000 OA
ATOM     23  C   UNL     1       2.369   0.775   0.000  0.00  0.00    +0.000 C 
ENDBRANCH  21  22
BRANCH  20  24
ATOM     24  O   UNL     1       2.366   3.290   0.000  0.00  0.00    +0.000 OA
ATOM     25  C   UNL     1       1.650   2.881   0.000  0.00  0.00    +0.000 C 
ENDBRANCH  20  24
BRANCH  12  26
ATOM     26  C   UNL     1       5.279   4.096   0.000  0.00  0.00    +0.000 C 
BRANCH  26  27
ATOM     27  C   UNL     1       4.564   4.508   0.000  0.00  0.00    +0.000 A 
ATOM     28  C   UNL     1       3.849   4.096   0.000  0.00  0.00    +0.000 A 
ATOM     29  C   UNL     1       4.564   5.333   0.000  0.00  0.00    +0.000 A 
ATOM     30  C   UNL     1       3.849   5.745   0.000  0.00  0.00    +0.000 A 
ATOM     31  C   UNL     1       3.135   4.508   0.000  0.00  0.00    +0.000 A 
ATOM     32  C   UNL     1       3.135   5.333   0.000  0.00  0.00    +0.000 A 
BRANCH  30  33
ATOM     33  O   UNL     1       3.849   6.571   0.000  0.00  0.00    +0.000 OA
ATOM     34  C   UNL     1       4.564   6.983   0.000  0.00  0.00    +0.000 C 
ENDBRANCH  30  33
BRANCH  31  35
ATOM     35  O   UNL     1       2.421   4.096   0.000  0.00  0.00    +0.000 OA
ATOM     36  C   UNL     1       1.706   4.508   0.000  0.00  0.00    +0.000 C 
ENDBRANCH  31  35
BRANCH  32  37
ATOM     37  O   UNL     1       2.421   5.745   0.000  0.00  0.00    +0.000 OA
ATOM     38  C   UNL     1       2.421   6.571   0.000  0.00  0.00    +0.000 C 
ENDBRANCH  32  37
ENDBRANCH  26  27
ENDBRANCH  12  26
ENDBRANCH  10  11
ENDBRANCH   9  10
ENDBRANCH   8   9
ENDBRANCH   7   8
ENDBRANCH   6   7
ENDBRANCH   4   6
ENDBRANCH   3   4
ENDBRANCH   1   3
BRANCH   2  39
ATOM     39  C   UNL     1      12.181  -0.715   0.000  0.00  0.00    +0.000 C 
BRANCH  39  40
ATOM     40  C   UNL     1      13.006  -0.715   0.000  0.00  0.00    +0.000 C 
BRANCH  40  42
ATOM     41  O   UNL     1      13.006  -2.143   0.000  0.00  0.00    +0.000 OA
ATOM     42  C   UNL     1      13.418  -1.429   0.000  0.00  0.00    +0.000 C 
BRANCH  42  43
ATOM     43  O   UNL     1      14.243  -1.429   0.000  0.00  0.00    +0.000 OA
BRANCH  43  44
ATOM     44  C   UNL     1      14.656  -2.143   0.000  0.00  0.00    +0.000 C 
BRANCH  44  45
ATOM     45  C   UNL     1      15.481  -2.143   0.000  0.00  0.00    +0.000 C 
BRANCH  45  46
ATOM     46  C   UNL     1      15.893  -2.858   0.000  0.00  0.00    +0.000 C 
BRANCH  46  47
ATOM     47  N   UNL     1      16.718  -2.858   0.000  0.00  0.00    +0.000 N 
ATOM     48  C   UNL     1      17.433  -3.271   0.000  0.00  0.00    +0.000 C 
ATOM     49  C   UNL     1      16.718  -2.033   0.000  0.00  0.00    +0.000 C 
ATOM     50  C   UNL     1      18.147  -2.858   0.000  0.00  0.00    +0.000 A 
ATOM     51  C   UNL     1      17.433  -1.620   0.000  0.00  0.00    +0.000 C 
ATOM     52  C   UNL     1      16.306  -3.572   0.000  0.00  0.00    +0.000 C 
ATOM     53  C   UNL     1      18.147  -2.033   0.000  0.00  0.00    +0.000 A 
ATOM     54  C   UNL     1      18.885  -3.299   0.000  0.00  0.00    +0.000 A 
ATOM     55  C   UNL     1      18.885  -1.592   0.000  0.00  0.00    +0.000 A 
ATOM     56  C   UNL     1      19.632  -2.875   0.000  0.00  0.00    +0.000 A 
ATOM     57  C   UNL     1      19.632  -2.016   0.000  0.00  0.00    +0.000 A 
BRANCH  57  58
ATOM     58  O   UNL     1      20.345  -1.601   0.000  0.00  0.00    +0.000 OA
ATOM     59  C   UNL     1      20.342  -0.775   0.000  0.00  0.00    +0.000 C 
ENDBRANCH  57  58
BRANCH  56  60
ATOM     60  O   UNL     1      20.345  -3.290   0.000  0.00  0.00    +0.000 OA
ATOM     61  C   UNL     1      21.061  -2.881   0.000  0.00  0.00    +0.000 C 
ENDBRANCH  56  60
BRANCH  48  62
ATOM     62  C   UNL     1      17.433  -4.096   0.000  0.00  0.00    +0.000 C 
BRANCH  62  63
ATOM     63  C   UNL     1      18.147  -4.508   0.000  0.00  0.00    +0.000 A 
ATOM     64  C   UNL     1      18.862  -4.096   0.000  0.00  0.00    +0.000 A 
ATOM     65  C   UNL     1      18.147  -5.333   0.000  0.00  0.00    +0.000 A 
ATOM     66  C   UNL     1      18.862  -5.745   0.000  0.00  0.00    +0.000 A 
ATOM     67  C   UNL     1      19.576  -4.508   0.000  0.00  0.00    +0.000 A 
ATOM     68  C   UNL     1      19.576  -5.333   0.000  0.00  0.00    +0.000 A 
BRANCH  66  69
ATOM     69  O   UNL     1      18.862  -6.571   0.000  0.00  0.00    +0.000 OA
ATOM     70  C   UNL     1      18.147  -6.983   0.000  0.00  0.00    +0.000 C 
ENDBRANCH  66  69
BRANCH  67  71
ATOM     71  O   UNL     1      20.291  -4.096   0.000  0.00  0.00    +0.000 OA
ATOM     72  C   UNL     1      21.005  -4.508   0.000  0.00  0.00    +0.000 C 
ENDBRANCH  67  71
BRANCH  68  73
ATOM     73  O   UNL     1      20.291  -5.745   0.000  0.00  0.00    +0.000 OA
ATOM     74  C   UNL     1      20.291  -6.571   0.000  0.00  0.00    +0.000 C 
ENDBRANCH  68  73
ENDBRANCH  62  63
ENDBRANCH  48  62
ENDBRANCH  46  47
ENDBRANCH  45  46
ENDBRANCH  44  45
ENDBRANCH  43  44
ENDBRANCH  42  43
ENDBRANCH  40  42
ENDBRANCH  39  40
ENDBRANCH   2  39
TORSDOF 30
