REMARK  Name = 123
REMARK  3 active torsions:
REMARK  status: ('A' for Active; 'I' for Inactive)
REMARK    1  A    between atoms: C_1  and  C_7
REMARK    2  A    between atoms: C_12  and  C_13
REMARK    3  A    between atoms: C_15  and  O_16
REMARK                            x       y       z     vdW  Elec       q    Type
REMARK                         _______ _______ _______ _____ _____    ______ ____
ROOT
ATOM      1  C   UNL     1       2.160   0.448   0.000  0.00  0.00    +0.000 A 
ATOM      2  C   UNL     1       2.160  -0.377   0.000  0.00  0.00    +0.000 A 
ATOM      3  C   UNL     1       1.446  -0.789   0.000  0.00  0.00    +0.000 A 
ATOM      4  C   UNL     1       0.731  -0.377   0.000  0.00  0.00    +0.000 A 
ATOM      5  C   UNL     1       0.731   0.448   0.000  0.00  0.00    +0.000 A 
ATOM      6  C   UNL     1       1.446   0.861   0.000  0.00  0.00    +0.000 A 
ATOM      7  N   UNL     1      -0.053  -0.632   0.000  0.00  0.00    +0.000 NA
ATOM      8  N   UNL     1      -0.053   0.703   0.000  0.00  0.00    +0.000 NA
ATOM      9  C   UNL     1      -0.538   0.036   0.000  0.00  0.00    +0.000 A 
ENDROOT
BRANCH   9  10
ATOM     10  C   UNL     1      -1.363   0.036   0.000  0.00  0.00    +0.000 A 
ATOM     11  C   UNL     1      -1.776  -0.679   0.000  0.00  0.00    +0.000 A 
ATOM     12  C   UNL     1      -2.601  -0.679   0.000  0.00  0.00    +0.000 A 
ATOM     13  C   UNL     1      -3.013   0.036   0.000  0.00  0.00    +0.000 A 
ATOM     14  C   UNL     1      -2.601   0.750   0.000  0.00  0.00    +0.000 A 
ATOM     15  C   UNL     1      -1.776   0.750   0.000  0.00  0.00    +0.000 A 
ATOM     16  O   UNL     1      -1.363   1.465   0.000  0.00  0.00    +0.000 OA
BRANCH  12  17
ATOM     17  O   UNL     1      -3.013  -1.393   0.000  0.00  0.00    +0.000 OA
ATOM     18  C   UNL     1      -2.601  -2.108   0.000  0.00  0.00    +0.000 C 
ENDBRANCH  12  17
ENDBRANCH   9  10
BRANCH   1  19
ATOM     19  C   UNL     1       2.875   0.861   0.000  0.00  0.00    +0.000 C 
ATOM     20  N   UNL     1       3.589   0.448   0.000  0.00  0.00    +0.000 NA
ATOM     21  N   UNL     1       2.875   1.686   0.000  0.00  0.00    +0.000 NA
ENDBRANCH   1  19
TORSDOF 3
