REMARK  Name = 1235
REMARK  3 active torsions:
REMARK  status: ('A' for Active; 'I' for Inactive)
REMARK    1  A    between atoms: C_6  and  CA_7
REMARK    2  A    between atoms: C_6  and  C_8
REMARK    3  A    between atoms: CA_7  and  C_12
REMARK                            x       y       z     vdW  Elec       q    Type
REMARK                         _______ _______ _______ _____ _____    ______ ____
ROOT
ATOM      1  O   UNL     1       2.093  -1.778   0.000  0.00  0.00    +0.000 OA
ATOM      2  O   UNL     1       3.522  -2.603   0.000  0.00  0.00    +0.000 OA
ATOM      3  C   UNL     1       3.522  -0.128   0.000  0.00  0.00    +0.000 A 
ATOM      4  C   UNL     1       2.808  -0.540   0.000  0.00  0.00    +0.000 A 
ATOM      5  C   UNL     1       4.237  -0.540   0.000  0.00  0.00    +0.000 A 
ATOM      6  C   UNL     1       2.808  -1.365   0.000  0.00  0.00    +0.000 A 
ATOM      7  C   UNL     1       4.237  -1.365   0.000  0.00  0.00    +0.000 A 
ATOM      8  C   UNL     1       3.522  -1.778   0.000  0.00  0.00    +0.000 A 
ENDROOT
BRANCH   3   9
ATOM      9  C   UNL     1       3.522   0.697   0.000  0.00  0.00    +0.000 C 
BRANCH   9  11
ATOM     10  N   UNL     1       4.951   0.697   0.000  0.00  0.00    +0.000 NA
ATOM     11  CA  UNL     1       4.237   1.110   0.000  0.00  0.00    +0.000 C 
BRANCH  11  14
ATOM     12  O   UNL     1       4.951   2.347   0.000  0.00  0.00    +0.000 OA
ATOM     13  OXT UNL     1       3.522   2.347   0.000  0.00  0.00    +0.000 OA
ATOM     14  C   UNL     1       4.237   1.935   0.000  0.00  0.00    +0.000 C 
ENDBRANCH  11  14
ENDBRANCH   9  11
ENDBRANCH   3   9
TORSDOF 3
