REMARK  Name = 1236
REMARK  4 active torsions:
REMARK  status: ('A' for Active; 'I' for Inactive)
REMARK    1  A    between atoms: O_8  and  C_9
REMARK    2  A    between atoms: O_8  and  C_12
REMARK    3  A    between atoms: C_9  and  C_10
REMARK    4  A    between atoms: C_9  and  C_11
REMARK                            x       y       z     vdW  Elec       q    Type
REMARK                         _______ _______ _______ _____ _____    ______ ____
ROOT
ATOM      1  C   UNL     1       3.079   0.468   0.000  0.00  0.00    +0.000 C 
ENDROOT
BRANCH   1   5
ATOM      2  F   UNL     1       1.650   1.293   0.000  0.00  0.00    +0.000 F 
ATOM      3  F   UNL     1       1.952   0.166   0.000  0.00  0.00    +0.000 F 
ATOM      4  F   UNL     1       2.777   1.595   0.000  0.00  0.00    +0.000 F 
ATOM      5  C   UNL     1       2.365   0.880   0.000  0.00  0.00    +0.000 C 
ENDBRANCH   1   5
BRANCH   1   9
ATOM      6  F   UNL     1       4.508   1.293   0.000  0.00  0.00    +0.000 F 
ATOM      7  F   UNL     1       4.206   0.166   0.000  0.00  0.00    +0.000 F 
ATOM      8  F   UNL     1       3.381   1.595   0.000  0.00  0.00    +0.000 F 
ATOM      9  C   UNL     1       3.793   0.880   0.000  0.00  0.00    +0.000 C 
ENDBRANCH   1   9
BRANCH   1  10
ATOM     10  O   UNL     1       3.079  -0.357   0.000  0.00  0.00    +0.000 OA
BRANCH  10  12
ATOM     11  F   UNL     1       2.365  -1.595   0.000  0.00  0.00    +0.000 F 
ATOM     12  C   UNL     1       2.365  -0.770   0.000  0.00  0.00    +0.000 C 
ENDBRANCH  10  12
ENDBRANCH   1  10
TORSDOF 4
