REMARK  Name = 1238
REMARK  7 active torsions:
REMARK  status: ('A' for Active; 'I' for Inactive)
REMARK    1  A    between atoms: O_3  and  C_16
REMARK    2  A    between atoms: O_3  and  C_22
REMARK    3  A    between atoms: N_5  and  C_12
REMARK    4  A    between atoms: N_6  and  C_14
REMARK    5  A    between atoms: C_12  and  C_13
REMARK    6  A    between atoms: C_13  and  C_15
REMARK    7  A    between atoms: C_15  and  C_16
REMARK                            x       y       z     vdW  Elec       q    Type
REMARK                         _______ _______ _______ _____ _____    ______ ____
ROOT
ATOM      1  C   UNL     1       8.849  -1.197   0.000  0.00  0.00    +0.000 C 
ENDROOT
BRANCH   1   2
ATOM      2  N   UNL     1       9.565  -0.787   0.000  0.00  0.00    +0.000 NA
ATOM      3  N   UNL     1      10.997   0.033   0.000  0.00  0.00    +0.000 N 
ATOM      4  C   UNL     1      10.278  -1.202   0.000  0.00  0.00    +0.000 C 
ATOM      5  C   UNL     1       9.569   0.038   0.000  0.00  0.00    +0.000 C 
ATOM      6  C   UNL     1      10.994  -0.792   0.000  0.00  0.00    +0.000 C 
ATOM      7  C   UNL     1      10.285   0.448   0.000  0.00  0.00    +0.000 C 
BRANCH   3  10
ATOM      8 CL   UNL     1      12.423  -0.798   0.000  0.00  0.00    +0.000 Cl
ATOM      9 CL   UNL     1      13.855   0.022   0.000  0.00  0.00    +0.000 Cl
ATOM     10  C   UNL     1      11.713   0.442   0.000  0.00  0.00    +0.000 A 
ATOM     11  C   UNL     1      12.426   0.027   0.000  0.00  0.00    +0.000 A 
ATOM     12  C   UNL     1      11.717   1.267   0.000  0.00  0.00    +0.000 A 
ATOM     13  C   UNL     1      13.143   0.437   0.000  0.00  0.00    +0.000 A 
ATOM     14  C   UNL     1      12.433   1.677   0.000  0.00  0.00    +0.000 A 
ATOM     15  C   UNL     1      13.146   1.262   0.000  0.00  0.00    +0.000 A 
ENDBRANCH   3  10
ENDBRANCH   1   2
BRANCH   1  16
ATOM     16  C   UNL     1       8.136  -0.781   0.000  0.00  0.00    +0.000 C 
BRANCH  16  17
ATOM     17  C   UNL     1       7.420  -1.191   0.000  0.00  0.00    +0.000 C 
BRANCH  17  18
ATOM     18  C   UNL     1       6.707  -0.776   0.000  0.00  0.00    +0.000 C 
BRANCH  18  19
ATOM     19  O   UNL     1       5.991  -1.185   0.000  0.00  0.00    +0.000 OA
BRANCH  19  25
ATOM     20  O   UNL     1       1.650  -1.166   0.000  0.00  0.00    +0.000 OA
ATOM     21  N   UNL     1       3.079  -1.166   0.000  0.00  0.00    +0.000 NA
ATOM     22  C   UNL     1       3.793   0.072   0.000  0.00  0.00    +0.000 A 
ATOM     23  C   UNL     1       3.079   0.484   0.000  0.00  0.00    +0.000 C 
ATOM     24  C   UNL     1       3.793  -0.753   0.000  0.00  0.00    +0.000 A 
ATOM     25  C   UNL     1       5.279  -0.770   0.000  0.00  0.00    +0.000 A 
ATOM     26  C   UNL     1       2.365   0.072   0.000  0.00  0.00    +0.000 C 
ATOM     27  C   UNL     1       4.531  -1.194   0.000  0.00  0.00    +0.000 A 
ATOM     28  C   UNL     1       4.531   0.513   0.000  0.00  0.00    +0.000 A 
ATOM     29  C   UNL     1       5.279   0.089   0.000  0.00  0.00    +0.000 A 
ATOM     30  C   UNL     1       2.365  -0.753   0.000  0.00  0.00    +0.000 C 
ENDBRANCH  19  25
ENDBRANCH  18  19
ENDBRANCH  17  18
ENDBRANCH  16  17
ENDBRANCH   1  16
TORSDOF 7
