REMARK  Name = 124
REMARK  2 active torsions:
REMARK  status: ('A' for Active; 'I' for Inactive)
REMARK    1  A    between atoms: C_1  and  C_7
REMARK    2  A    between atoms: C_12  and  C_13
REMARK                            x       y       z     vdW  Elec       q    Type
REMARK                         _______ _______ _______ _____ _____    ______ ____
ROOT
ATOM      1  C   UNL     1       1.956   0.108   0.000  0.00  0.00    +0.000 A 
ATOM      2  C   UNL     1       1.956  -0.717   0.000  0.00  0.00    +0.000 A 
ATOM      3  C   UNL     1       1.242  -1.129   0.000  0.00  0.00    +0.000 A 
ATOM      4  C   UNL     1       0.527  -0.717   0.000  0.00  0.00    +0.000 A 
ATOM      5  C   UNL     1       0.527   0.108   0.000  0.00  0.00    +0.000 A 
ATOM      6  C   UNL     1       1.242   0.521   0.000  0.00  0.00    +0.000 A 
ATOM      7  N   UNL     1      -0.258  -0.972   0.000  0.00  0.00    +0.000 NA
ATOM      8  C   UNL     1      -0.258   0.363   0.000  0.00  0.00    +0.000 A 
ATOM      9  C   UNL     1      -0.742  -0.304   0.000  0.00  0.00    +0.000 A 
ENDROOT
BRANCH   9  10
ATOM     10  C   UNL     1      -1.567  -0.304   0.000  0.00  0.00    +0.000 A 
ATOM     11  C   UNL     1      -1.980  -1.019   0.000  0.00  0.00    +0.000 A 
ATOM     12  C   UNL     1      -2.805  -1.019   0.000  0.00  0.00    +0.000 A 
ATOM     13  C   UNL     1      -3.217  -0.304   0.000  0.00  0.00    +0.000 A 
ATOM     14  C   UNL     1      -2.805   0.410   0.000  0.00  0.00    +0.000 A 
ATOM     15  C   UNL     1      -1.980   0.410   0.000  0.00  0.00    +0.000 A 
ATOM     16  O   UNL     1      -1.567   1.125   0.000  0.00  0.00    +0.000 OA
ENDBRANCH   9  10
BRANCH   1  17
ATOM     17  C   UNL     1       2.671   0.521   0.000  0.00  0.00    +0.000 C 
ATOM     18  N   UNL     1       3.385   0.108   0.000  0.00  0.00    +0.000 NA
ATOM     19  N   UNL     1       2.671   1.346   0.000  0.00  0.00    +0.000 NA
ENDBRANCH   1  17
TORSDOF 2
