REMARK  Name = 1241
REMARK  6 active torsions:
REMARK  status: ('A' for Active; 'I' for Inactive)
REMARK    1  A    between atoms: O_1  and  C_9
REMARK    2  A    between atoms: O_1  and  C_11
REMARK    3  A    between atoms: C_4  and  C_5
REMARK    4  A    between atoms: C_4  and  C_10
REMARK    5  A    between atoms: C_5  and  C_6
REMARK    6  A    between atoms: C_6  and  C_9
REMARK                            x       y       z     vdW  Elec       q    Type
REMARK                         _______ _______ _______ _____ _____    ______ ____
ROOT
ATOM      1  O   UNL     1       3.079  -0.875   0.000  0.00  0.00    +0.000 OA
ENDROOT
BRANCH   1   2
ATOM      2  C   UNL     1       3.079  -1.700   0.000  0.00  0.00    +0.000 A 
ATOM      3  C   UNL     1       2.365  -2.112   0.000  0.00  0.00    +0.000 A 
ATOM      4  C   UNL     1       3.793  -2.112   0.000  0.00  0.00    +0.000 A 
ATOM      5  C   UNL     1       3.793  -2.937   0.000  0.00  0.00    +0.000 A 
ATOM      6  C   UNL     1       2.365  -2.937   0.000  0.00  0.00    +0.000 A 
ATOM      7  C   UNL     1       3.079  -3.350   0.000  0.00  0.00    +0.000 A 
ATOM      8  C   UNL     1       1.650  -1.700   0.000  0.00  0.00    +0.000 C 
ATOM      9  C   UNL     1       4.508  -3.350   0.000  0.00  0.00    +0.000 C 
ENDBRANCH   1   2
BRANCH   1  10
ATOM     10  C   UNL     1       3.793  -0.462   0.000  0.00  0.00    +0.000 C 
BRANCH  10  11
ATOM     11  C   UNL     1       3.793   0.363   0.000  0.00  0.00    +0.000 C 
BRANCH  11  12
ATOM     12  C   UNL     1       4.508   0.775   0.000  0.00  0.00    +0.000 C 
BRANCH  12  13
ATOM     13  C   UNL     1       4.508   1.601   0.000  0.00  0.00    +0.000 C 
ATOM     14  C   UNL     1       5.333   1.601   0.000  0.00  0.00    +0.000 C 
ATOM     15  C   UNL     1       3.683   1.601   0.000  0.00  0.00    +0.000 C 
BRANCH  13  18
ATOM     16  O   UNL     1       5.222   2.838   0.000  0.00  0.00    +0.000 OA
ATOM     17  O   UNL     1       3.793   2.838   0.000  0.00  0.00    +0.000 OA
ATOM     18  C   UNL     1       4.508   2.426   0.000  0.00  0.00    +0.000 C 
ENDBRANCH  13  18
ENDBRANCH  12  13
ENDBRANCH  11  12
ENDBRANCH  10  11
ENDBRANCH   1  10
TORSDOF 6
