REMARK  Name = 1242
REMARK  4 active torsions:
REMARK  status: ('A' for Active; 'I' for Inactive)
REMARK    1  A    between atoms: N_2  and  C_4
REMARK    2  A    between atoms: N_3  and  C_12
REMARK    3  A    between atoms: C_4  and  C_11
REMARK    4  A    between atoms: C_11  and  C_12
REMARK                            x       y       z     vdW  Elec       q    Type
REMARK                         _______ _______ _______ _____ _____    ______ ____
ROOT
ATOM      1 CL   UNL     1       1.584   0.186   0.000  0.00  0.00    +0.000 Cl
ATOM      2  N   UNL     1       4.263   0.717   0.000  0.00  0.00    +0.000 N 
ATOM      3  C   UNL     1       3.549   1.060   0.000  0.00  0.00    +0.000 A 
ATOM      4  C   UNL     1       4.976   1.060   0.000  0.00  0.00    +0.000 A 
ATOM      5  C   UNL     1       3.867   2.452   0.000  0.00  0.00    +0.000 C 
ATOM      6  C   UNL     1       4.659   2.452   0.000  0.00  0.00    +0.000 C 
ATOM      7  C   UNL     1       3.373   1.833   0.000  0.00  0.00    +0.000 A 
ATOM      8  C   UNL     1       5.153   1.833   0.000  0.00  0.00    +0.000 A 
ATOM      9  C   UNL     1       2.953   0.490   0.000  0.00  0.00    +0.000 A 
ATOM     10  C   UNL     1       5.572   0.490   0.000  0.00  0.00    +0.000 A 
ATOM     11  C   UNL     1       2.588   2.088   0.000  0.00  0.00    +0.000 A 
ATOM     12  C   UNL     1       5.937   2.088   0.000  0.00  0.00    +0.000 A 
ATOM     13  C   UNL     1       2.163   0.727   0.000  0.00  0.00    +0.000 A 
ATOM     14  C   UNL     1       6.363   0.727   0.000  0.00  0.00    +0.000 A 
ATOM     15  C   UNL     1       1.979   1.531   0.000  0.00  0.00    +0.000 A 
ATOM     16  C   UNL     1       6.546   1.531   0.000  0.00  0.00    +0.000 A 
ENDROOT
BRANCH   2  17
ATOM     17  C   UNL     1       4.263  -0.075   0.000  0.00  0.00    +0.000 C 
BRANCH  17  18
ATOM     18  C   UNL     1       4.949  -0.471   0.000  0.00  0.00    +0.000 C 
BRANCH  18  19
ATOM     19  C   UNL     1       4.949  -1.264   0.000  0.00  0.00    +0.000 C 
BRANCH  19  20
ATOM     20  N   UNL     1       5.635  -1.660   0.000  0.00  0.00    +0.000 NA
ATOM     21  C   UNL     1       5.635  -2.452   0.000  0.00  0.00    +0.000 C 
ATOM     22  C   UNL     1       6.321  -1.264   0.000  0.00  0.00    +0.000 C 
ENDBRANCH  19  20
ENDBRANCH  18  19
ENDBRANCH  17  18
ENDBRANCH   2  17
TORSDOF 4
