REMARK  Name = 1243
REMARK  0 active torsions:
REMARK  status: ('A' for Active; 'I' for Inactive)
REMARK                            x       y       z     vdW  Elec       q    Type
REMARK                         _______ _______ _______ _____ _____    ______ ____
ROOT
ATOM      1 CL   UNL     1       3.079   1.778   0.000  0.00  0.00    +0.000 Cl
ATOM      2 CL   UNL     1       1.650  -0.697   0.000  0.00  0.00    +0.000 Cl
ATOM      3  O   UNL     1       3.079  -1.522   0.000  0.00  0.00    +0.000 OA
ATOM      4  N   UNL     1       4.530  -0.726   0.000  0.00  0.00    +0.000 NA
ATOM      5  C   UNL     1       3.793   0.540   0.000  0.00  0.00    +0.000 A 
ATOM      6  C   UNL     1       3.793  -0.285   0.000  0.00  0.00    +0.000 A 
ATOM      7  C   UNL     1       3.079  -0.697   0.000  0.00  0.00    +0.000 A 
ATOM      8  C   UNL     1       3.079   0.953   0.000  0.00  0.00    +0.000 A 
ATOM      9  C   UNL     1       4.530   0.981   0.000  0.00  0.00    +0.000 A 
ATOM     10  C   UNL     1       2.364  -0.285   0.000  0.00  0.00    +0.000 A 
ATOM     11  C   UNL     1       2.364   0.540   0.000  0.00  0.00    +0.000 A 
ATOM     12  C   UNL     1       5.278   0.557   0.000  0.00  0.00    +0.000 A 
ATOM     13  C   UNL     1       5.278  -0.302   0.000  0.00  0.00    +0.000 A 
ENDROOT
TORSDOF 0
