REMARK  Name = 1244
REMARK  10 active torsions:
REMARK  status: ('A' for Active; 'I' for Inactive)
REMARK    1  A    between atoms: O_1  and  C_10
REMARK    2  A    between atoms: O_1  and  C_13
REMARK    3  A    between atoms: N_2  and  C_4
REMARK    4  A    between atoms: N_3  and  C_9
REMARK    5  A    between atoms: N_3  and  C_11
REMARK    6  A    between atoms: N_3  and  C_12
REMARK    7  A    between atoms: C_4  and  C_9
REMARK    8  A    between atoms: C_4  and  C_10
REMARK    9  A    between atoms: C_11  and  C_15
REMARK   10  A    between atoms: C_13  and  C_14
REMARK                            x       y       z     vdW  Elec       q    Type
REMARK                         _______ _______ _______ _____ _____    ______ ____
ROOT
ATOM      1  N   UNL     1       3.079   0.206   0.000  0.00  0.00    +0.000 N 
ENDROOT
BRANCH   1   2
ATOM      2  C   UNL     1       3.079  -0.619   0.000  0.00  0.00    +0.000 A 
ATOM      3  C   UNL     1       3.793  -1.031   0.000  0.00  0.00    +0.000 A 
ATOM      4  C   UNL     1       2.365  -1.031   0.000  0.00  0.00    +0.000 A 
ATOM      5  C   UNL     1       3.793  -1.856   0.000  0.00  0.00    +0.000 A 
ATOM      6  C   UNL     1       2.365  -1.856   0.000  0.00  0.00    +0.000 A 
ATOM      7  C   UNL     1       3.079  -2.269   0.000  0.00  0.00    +0.000 A 
ENDBRANCH   1   2
BRANCH   1   8
ATOM      8  C   UNL     1       3.793   0.619   0.000  0.00  0.00    +0.000 C 
BRANCH   8   9
ATOM      9  C   UNL     1       4.508   0.206   0.000  0.00  0.00    +0.000 C 
BRANCH   9  10
ATOM     10  N   UNL     1       5.222   0.619   0.000  0.00  0.00    +0.000 NA
ATOM     11  C   UNL     1       5.309   1.439   0.000  0.00  0.00    +0.000 C 
ATOM     12  C   UNL     1       5.976   0.283   0.000  0.00  0.00    +0.000 C 
ATOM     13  C   UNL     1       6.116   1.611   0.000  0.00  0.00    +0.000 C 
ATOM     14  C   UNL     1       6.528   0.896   0.000  0.00  0.00    +0.000 C 
ENDBRANCH   9  10
BRANCH   9  15
ATOM     15  C   UNL     1       4.508  -0.619   0.000  0.00  0.00    +0.000 C 
BRANCH  15  16
ATOM     16  O   UNL     1       5.222  -1.031   0.000  0.00  0.00    +0.000 OA
BRANCH  16  17
ATOM     17  C   UNL     1       5.222  -1.856   0.000  0.00  0.00    +0.000 C 
BRANCH  17  18
ATOM     18  C   UNL     1       5.937  -2.269   0.000  0.00  0.00    +0.000 C 
ATOM     19  C   UNL     1       5.937  -3.094   0.000  0.00  0.00    +0.000 C 
ATOM     20  C   UNL     1       6.652  -1.856   0.000  0.00  0.00    +0.000 C 
ENDBRANCH  17  18
ENDBRANCH  16  17
ENDBRANCH  15  16
ENDBRANCH   9  15
ENDBRANCH   8   9
ENDBRANCH   1   8
BRANCH   1  21
ATOM     21  C   UNL     1       2.365   0.619   0.000  0.00  0.00    +0.000 C 
BRANCH  21  22
ATOM     22  C   UNL     1       2.365   1.444   0.000  0.00  0.00    +0.000 A 
ATOM     23  C   UNL     1       1.650   1.856   0.000  0.00  0.00    +0.000 A 
ATOM     24  C   UNL     1       3.079   1.856   0.000  0.00  0.00    +0.000 A 
ATOM     25  C   UNL     1       1.650   2.681   0.000  0.00  0.00    +0.000 A 
ATOM     26  C   UNL     1       3.079   2.681   0.000  0.00  0.00    +0.000 A 
ATOM     27  C   UNL     1       2.365   3.094   0.000  0.00  0.00    +0.000 A 
ENDBRANCH  21  22
ENDBRANCH   1  21
TORSDOF 10
