REMARK  Name = 1247
REMARK  4 active torsions:
REMARK  status: ('A' for Active; 'I' for Inactive)
REMARK    1  A    between atoms: N_3  and  N_4
REMARK    2  A    between atoms: N_3  and  C_6
REMARK    3  A    between atoms: C_6  and  C_7
REMARK    4  A    between atoms: C_10  and  C_11
REMARK                            x       y       z     vdW  Elec       q    Type
REMARK                         _______ _______ _______ _____ _____    ______ ____
ROOT
ATOM      1  O   UNL     1       4.508   0.269   0.000  0.00  0.00    +0.000 OA
ATOM      2  N   UNL     1       3.079   0.269   0.000  0.00  0.00    +0.000 NA
ATOM      3  C   UNL     1       3.793   0.681   0.000  0.00  0.00    +0.000 C 
ENDROOT
BRANCH   3   6
ATOM      4  O   UNL     1       3.381   2.776   0.000  0.00  0.00    +0.000 OA
ATOM      5  N   UNL     1       3.126   1.992   0.000  0.00  0.00    +0.000 NA
ATOM      6  C   UNL     1       3.793   1.506   0.000  0.00  0.00    +0.000 A 
ATOM      7  C   UNL     1       4.461   1.992   0.000  0.00  0.00    +0.000 A 
ATOM      8  C   UNL     1       4.206   2.776   0.000  0.00  0.00    +0.000 A 
ATOM      9  C   UNL     1       4.691   3.443   0.000  0.00  0.00    +0.000 C 
ENDBRANCH   3   6
BRANCH   2  10
ATOM     10  N   UNL     1       3.079  -0.556   0.000  0.00  0.00    +0.000 NA
BRANCH  10  11
ATOM     11  C   UNL     1       2.365  -0.969   0.000  0.00  0.00    +0.000 C 
BRANCH  11  12
ATOM     12  C   UNL     1       2.365  -1.794   0.000  0.00  0.00    +0.000 A 
ATOM     13  C   UNL     1       3.079  -2.206   0.000  0.00  0.00    +0.000 A 
ATOM     14  C   UNL     1       1.650  -2.206   0.000  0.00  0.00    +0.000 A 
ATOM     15  C   UNL     1       3.079  -3.031   0.000  0.00  0.00    +0.000 A 
ATOM     16  C   UNL     1       1.650  -3.031   0.000  0.00  0.00    +0.000 A 
ATOM     17  C   UNL     1       2.365  -3.443   0.000  0.00  0.00    +0.000 A 
ENDBRANCH  11  12
ENDBRANCH  10  11
ENDBRANCH   2  10
TORSDOF 4
