REMARK  Name = 1251
REMARK  7 active torsions:
REMARK  status: ('A' for Active; 'I' for Inactive)
REMARK    1  A    between atoms: S_1  and  N_10
REMARK    2  A    between atoms: S_1  and  C_32
REMARK    3  A    between atoms: O_5  and  C_31
REMARK    4  A    between atoms: N_8  and  C_11
REMARK    5  A    between atoms: N_9  and  C_23
REMARK    6  A    between atoms: C_23  and  C_27
REMARK    7  A    between atoms: C_27  and  C_29
REMARK                            x       y       z     vdW  Elec       q    Type
REMARK                         _______ _______ _______ _____ _____    ______ ____
ROOT
ATOM      1  C   UNL     1       5.937  -0.880   0.000  0.00  0.00    +0.000 A 
ATOM      2  C   UNL     1       4.508  -0.055   0.000  0.00  0.00    +0.000 A 
ATOM      3  C   UNL     1       5.222  -1.293   0.000  0.00  0.00    +0.000 A 
ATOM      4  C   UNL     1       5.937  -0.055   0.000  0.00  0.00    +0.000 A 
ATOM      5  C   UNL     1       4.508  -0.880   0.000  0.00  0.00    +0.000 A 
ATOM      6  C   UNL     1       5.222   0.357   0.000  0.00  0.00    +0.000 A 
ENDROOT
BRANCH   2   7
ATOM      7  S   UNL     1       3.793   0.357   0.000  0.00  0.00    +0.000 S 
ATOM      8  O   UNL     1       3.381  -0.357   0.000  0.00  0.00    +0.000 OA
ATOM      9  O   UNL     1       4.206   1.072   0.000  0.00  0.00    +0.000 OA
BRANCH   7  12
ATOM     10  O   UNL     1       3.793   2.007   0.000  0.00  0.00    +0.000 OA
ATOM     11  N   UNL     1       2.365   2.007   0.000  0.00  0.00    +0.000 NA
ATOM     12  N   UNL     1       3.079   0.770   0.000  0.00  0.00    +0.000 NA
ATOM     13  C   UNL     1       3.079   1.595   0.000  0.00  0.00    +0.000 C 
BRANCH  11  14
ATOM     14  C   UNL     1       2.365   2.832   0.000  0.00  0.00    +0.000 C 
ATOM     15  C   UNL     1       1.650   3.245   0.000  0.00  0.00    +0.000 C 
ATOM     16  C   UNL     1       3.079   3.245   0.000  0.00  0.00    +0.000 C 
ATOM     17  C   UNL     1       1.650   4.070   0.000  0.00  0.00    +0.000 C 
ATOM     18  C   UNL     1       3.079   4.070   0.000  0.00  0.00    +0.000 C 
ATOM     19  C   UNL     1       2.365   4.482   0.000  0.00  0.00    +0.000 C 
ENDBRANCH  11  14
ENDBRANCH   7  12
ENDBRANCH   2   7
BRANCH   1  20
ATOM     20  C   UNL     1       6.651  -1.293   0.000  0.00  0.00    +0.000 C 
BRANCH  20  21
ATOM     21  C   UNL     1       6.651  -2.118   0.000  0.00  0.00    +0.000 C 
BRANCH  21  24
ATOM     22  O   UNL     1       6.651  -3.768   0.000  0.00  0.00    +0.000 OA
ATOM     23  O   UNL     1       8.080  -1.293   0.000  0.00  0.00    +0.000 OA
ATOM     24  N   UNL     1       7.366  -2.530   0.000  0.00  0.00    +0.000 N 
ATOM     25  C   UNL     1       8.080  -3.768   0.000  0.00  0.00    +0.000 C 
ATOM     26  C   UNL     1       8.795  -3.355   0.000  0.00  0.00    +0.000 A 
ATOM     27  C   UNL     1       7.366  -3.355   0.000  0.00  0.00    +0.000 C 
ATOM     28  C   UNL     1       8.795  -2.530   0.000  0.00  0.00    +0.000 A 
ATOM     29  C   UNL     1       7.668  -4.482   0.000  0.00  0.00    +0.000 C 
ATOM     30  C   UNL     1       8.493  -4.482   0.000  0.00  0.00    +0.000 C 
ATOM     31  C   UNL     1       8.080  -2.118   0.000  0.00  0.00    +0.000 C 
ATOM     32  C   UNL     1       9.532  -3.796   0.000  0.00  0.00    +0.000 A 
ATOM     33  C   UNL     1       9.532  -2.089   0.000  0.00  0.00    +0.000 A 
ATOM     34  C   UNL     1      10.280  -3.373   0.000  0.00  0.00    +0.000 A 
ATOM     35  C   UNL     1      10.280  -2.513   0.000  0.00  0.00    +0.000 A 
BRANCH  35  36
ATOM     36  O   UNL     1      10.993  -2.098   0.000  0.00  0.00    +0.000 OA
ATOM     37  C   UNL     1      11.709  -2.508   0.000  0.00  0.00    +0.000 C 
ENDBRANCH  35  36
ENDBRANCH  21  24
ENDBRANCH  20  21
ENDBRANCH   1  20
TORSDOF 7
