REMARK  Name = 1253
REMARK  3 active torsions:
REMARK  status: ('A' for Active; 'I' for Inactive)
REMARK    1  A    between atoms: N_5  and  CA_22
REMARK    2  A    between atoms: C_9  and  C_18
REMARK    3  A    between atoms: CA_22  and  C_23
REMARK                            x       y       z     vdW  Elec       q    Type
REMARK                         _______ _______ _______ _____ _____    ______ ____
ROOT
ATOM      1  N   UNL     1       5.292   0.221   0.000  0.00  0.00    +0.000 NA
ATOM      2  N   UNL     1       6.267  -3.175   0.000  0.00  0.00    +0.000 NA
ATOM      3  C   UNL     1       5.278  -0.638   0.000  0.00  0.00    +0.000 C 
ATOM      4  C   UNL     1       4.564  -1.050   0.000  0.00  0.00    +0.000 C 
ATOM      5  C   UNL     1       5.993  -1.050   0.000  0.00  0.00    +0.000 C 
ATOM      6  C   UNL     1       3.807   0.227   0.000  0.00  0.00    +0.000 C 
ATOM      7  C   UNL     1       4.551   0.657   0.000  0.00  0.00    +0.000 C 
ATOM      8  C   UNL     1       5.993  -1.875   0.000  0.00  0.00    +0.000 A 
ATOM      9  C   UNL     1       4.564  -1.875   0.000  0.00  0.00    +0.000 A 
ATOM     10  C   UNL     1       5.278  -2.288   0.000  0.00  0.00    +0.000 A 
ATOM     11  C   UNL     1       3.813  -0.632   0.000  0.00  0.00    +0.000 C 
ATOM     12  C   UNL     1       5.292  -3.147   0.000  0.00  0.00    +0.000 A 
ATOM     13  C   UNL     1       6.011   0.625   0.000  0.00  0.00    +0.000 C 
ATOM     14  C   UNL     1       6.601  -2.426   0.000  0.00  0.00    +0.000 A 
ATOM     15  C   UNL     1       3.813  -2.294   0.000  0.00  0.00    +0.000 A 
ATOM     16  C   UNL     1       4.551  -3.583   0.000  0.00  0.00    +0.000 A 
ATOM     17  C   UNL     1       3.807  -3.153   0.000  0.00  0.00    +0.000 A 
ENDROOT
BRANCH   6  20
ATOM     18  O   UNL     1       2.378   0.222   0.000  0.00  0.00    +0.000 OA
ATOM     19  N   UNL     1       3.087   1.462   0.000  0.00  0.00    +0.000 NA
ATOM     20  C   ACE A   0       3.091   0.637   0.000  0.00  0.00    +0.000 C 
BRANCH  19  21
ATOM     21  CA  UNL     1       2.371   1.871   0.000  0.00  0.00    +0.000 C 
ATOM     22  CB  UNL     1       1.658   1.456   0.000  0.00  0.00    +0.000 C 
BRANCH  21  24
ATOM     23  O   UNL     1       1.652   3.106   0.000  0.00  0.00    +0.000 OA
ATOM     24  C   UNL     1       2.368   2.696   0.000  0.00  0.00    +0.000 C 
ENDBRANCH  21  24
ENDBRANCH  19  21
ENDBRANCH   6  20
TORSDOF 3
