REMARK  Name = 1254
REMARK  5 active torsions:
REMARK  status: ('A' for Active; 'I' for Inactive)
REMARK    1  A    between atoms: N_5  and  C_16
REMARK    2  A    between atoms: N_9  and  C_20
REMARK    3  A    between atoms: N_11  and  C_25
REMARK    4  A    between atoms: C_16  and  C_18
REMARK    5  A    between atoms: C_24  and  C_28
REMARK                            x       y       z     vdW  Elec       q    Type
REMARK                         _______ _______ _______ _____ _____    ______ ____
ROOT
ATOM      1  S   UNL     1       2.985  -1.730   0.000  0.00  0.00    +0.000 S 
ATOM      2  N   UNL     1       2.317  -0.419   0.000  0.00  0.00    +0.000 NA
ATOM      3  N   UNL     1       1.650  -1.730   0.000  0.00  0.00    +0.000 NA
ATOM      4  C   UNL     1       2.317  -1.244   0.000  0.00  0.00    +0.000 A 
ATOM      5  C   UNL     1       2.730  -2.514   0.000  0.00  0.00    +0.000 A 
ATOM      6  C   UNL     1       1.905  -2.514   0.000  0.00  0.00    +0.000 A 
ENDROOT
BRANCH   2  17
ATOM      7  N   UNL     1       3.747   3.706   0.000  0.00  0.00    +0.000 NA
ATOM      8  N   UNL     1       3.747   2.055   0.000  0.00  0.00    +0.000 N 
ATOM      9  N   UNL     1       4.461   0.818   0.000  0.00  0.00    +0.000 NA
ATOM     10  N   UNL     1       3.747  -0.419   0.000  0.00  0.00    +0.000 NA
ATOM     11  C   UNL     1       3.032   3.293   0.000  0.00  0.00    +0.000 C 
ATOM     12  C   UNL     1       4.461   3.293   0.000  0.00  0.00    +0.000 C 
ATOM     13  C   UNL     1       3.032   2.468   0.000  0.00  0.00    +0.000 C 
ATOM     14  C   UNL     1       4.461   2.468   0.000  0.00  0.00    +0.000 C 
ATOM     15  C   UNL     1       3.747   1.230   0.000  0.00  0.00    +0.000 A 
ATOM     16  C   UNL     1       3.032   0.818   0.000  0.00  0.00    +0.000 A 
ATOM     17  C   UNL     1       3.032  -0.007   0.000  0.00  0.00    +0.000 A 
ATOM     18  C   UNL     1       4.461  -0.007   0.000  0.00  0.00    +0.000 A 
ATOM     19  C   UNL     1       5.175  -0.419   0.000  0.00  0.00    +0.000 C 
BRANCH   7  20
ATOM     20  C   UNL     1       3.747   4.531   0.000  0.00  0.00    +0.000 C 
BRANCH  20  22
ATOM     21  O   UNL     1       4.461   5.768   0.000  0.00  0.00    +0.000 OA
ATOM     22  C   UNL     1       4.461   4.943   0.000  0.00  0.00    +0.000 C 
ENDBRANCH  20  22
ENDBRANCH   7  20
ENDBRANCH   2  17
BRANCH   5  25
ATOM     23  O   UNL     1       4.035  -3.095   0.000  0.00  0.00    +0.000 OA
ATOM     24  N   UNL     1       2.879  -3.935   0.000  0.00  0.00    +0.000 NA
ATOM     25  C   UNL     1       3.215  -3.182   0.000  0.00  0.00    +0.000 C 
BRANCH  24  27
ATOM     26 CL   UNL     1       2.208  -5.443   0.000  0.00  0.00    +0.000 Cl
ATOM     27  C   UNL     1       3.364  -4.603   0.000  0.00  0.00    +0.000 A 
ATOM     28  C   UNL     1       4.185  -4.516   0.000  0.00  0.00    +0.000 A 
ATOM     29  C   UNL     1       3.029  -5.356   0.000  0.00  0.00    +0.000 A 
ATOM     30  C   UNL     1       4.670  -5.184   0.000  0.00  0.00    +0.000 A 
ATOM     31  C   UNL     1       4.520  -3.763   0.000  0.00  0.00    +0.000 C 
ATOM     32  C   UNL     1       3.514  -6.024   0.000  0.00  0.00    +0.000 A 
ATOM     33  C   UNL     1       4.334  -5.938   0.000  0.00  0.00    +0.000 A 
ENDBRANCH  24  27
ENDBRANCH   5  25
TORSDOF 5
