REMARK  Name = 1255
REMARK  8 active torsions:
REMARK  status: ('A' for Active; 'I' for Inactive)
REMARK    1  A    between atoms: C_6  and  C_7
REMARK    2  A    between atoms: C_7  and  C_8
REMARK    3  A    between atoms: C_8  and  N_9
REMARK    4  A    between atoms: C_10  and  C_11
REMARK    5  A    between atoms: C_11  and  C_12
REMARK    6  A    between atoms: C_12  and  C_13
REMARK    7  A    between atoms: C_13  and  C_14
REMARK    8  A    between atoms: C_14  and  C_15
REMARK                            x       y       z     vdW  Elec       q    Type
REMARK                         _______ _______ _______ _____ _____    ______ ____
ROOT
ATOM      1  N   UNL     1       1.281   0.645   0.000  0.00  0.00    +0.000 NA
ATOM      2  C   UNL     1       1.996   0.234   0.000  0.00  0.00    +0.000 C 
ATOM      3  O   UNL     1       1.997  -0.591   0.000  0.00  0.00    +0.000 OA
ENDROOT
BRANCH   1   4
ATOM      4  C   UNL     1       0.567   0.232   0.000  0.00  0.00    +0.000 C 
ATOM      5  C   UNL     1       0.568  -0.593   0.000  0.00  0.00    +0.000 C 
BRANCH   4   6
ATOM      6  C   UNL     1      -0.148   0.644   0.000  0.00  0.00    +0.000 C 
BRANCH   6  12
ATOM      7  C   UNL     1      -0.861  -0.595   0.000  0.00  0.00    +0.000 A 
ATOM      8  C   UNL     1      -1.575  -1.008   0.000  0.00  0.00    +0.000 A 
ATOM      9  C   UNL     1      -2.290  -0.597   0.000  0.00  0.00    +0.000 A 
ATOM     10  C   UNL     1      -2.291   0.229   0.000  0.00  0.00    +0.000 A 
ATOM     11  C   UNL     1      -1.577   0.642   0.000  0.00  0.00    +0.000 A 
ATOM     12  C   UNL     1      -0.862   0.230   0.000  0.00  0.00    +0.000 A 
ENDBRANCH   6  12
ENDBRANCH   4   6
ENDBRANCH   1   4
BRANCH   2  13
ATOM     13  C   UNL     1       2.710   0.647   0.000  0.00  0.00    +0.000 C 
ATOM     14  N   UNL     1       2.709   1.472   0.000  0.00  0.00    +0.000 NA
BRANCH  13  15
ATOM     15  C   UNL     1       3.425   0.235   0.000  0.00  0.00    +0.000 C 
BRANCH  15  16
ATOM     16  C   UNL     1       4.139   0.649   0.000  0.00  0.00    +0.000 C 
BRANCH  16  17
ATOM     17  C   UNL     1       4.854   0.237   0.000  0.00  0.00    +0.000 C 
BRANCH  17  18
ATOM     18  C   UNL     1       5.568   0.650   0.000  0.00  0.00    +0.000 C 
ATOM     19  N   UNL     1       6.283   0.239   0.000  0.00  0.00    +0.000 NA
ENDBRANCH  17  18
ENDBRANCH  16  17
ENDBRANCH  15  16
ENDBRANCH  13  15
ENDBRANCH   2  13
TORSDOF 8
