REMARK  Name = 12560
REMARK  7 active torsions:
REMARK  status: ('A' for Active; 'I' for Inactive)
REMARK    1  A    between atoms: O_1  and  C_15
REMARK    2  A    between atoms: O_1  and  C_22
REMARK    3  A    between atoms: O_2  and  C_18
REMARK    4  A    between atoms: O_2  and  C_23
REMARK    5  A    between atoms: O_7  and  C_24
REMARK    6  A    between atoms: N_14  and  C_27
REMARK    7  A    between atoms: C_38  and  C_45
REMARK                            x       y       z     vdW  Elec       q    Type
REMARK                         _______ _______ _______ _____ _____    ______ ____
ROOT
ATOM      1  O   UNL     1       5.989  -2.487   0.000  0.00  0.00    +0.000 OA
ATOM      2  O   UNL     1       7.013   1.882   0.000  0.00  0.00    +0.000 OA
ATOM      3  O   UNL     1       9.047   1.381   0.000  0.00  0.00    +0.000 OA
ATOM      4  O   UNL     1       7.206   0.983   0.000  0.00  0.00    +0.000 OA
ATOM      5  O   UNL     1       8.250  -1.690   0.000  0.00  0.00    +0.000 OA
ATOM      6  O   UNL     1       7.013   0.453   0.000  0.00  0.00    +0.000 OA
ATOM      7  C   UNL     1       5.363  -0.976   0.000  0.00  0.00    +0.000 C 
ATOM      8  C   UNL     1       5.775  -0.262   0.000  0.00  0.00    +0.000 C 
ATOM      9  C   UNL     1       5.775  -1.690   0.000  0.00  0.00    +0.000 C 
ATOM     10  C   UNL     1       5.363   0.453   0.000  0.00  0.00    +0.000 C 
ATOM     11  C   UNL     1       6.600  -1.690   0.000  0.00  0.00    +0.000 C 
ATOM     12  C   UNL     1       5.775   1.167   0.000  0.00  0.00    +0.000 C 
ATOM     13  C   UNL     1       7.013  -0.976   0.000  0.00  0.00    +0.000 C 
ATOM     14  C   UNL     1       6.600  -0.262   0.000  0.00  0.00    +0.000 C 
ATOM     15  C   UNL     1       5.192  -2.274   0.000  0.00  0.00    +0.000 C 
ATOM     16  C   UNL     1       8.250  -0.262   0.000  0.00  0.00    +0.000 C 
ATOM     17  C   UNL     1       8.250   1.167   0.000  0.00  0.00    +0.000 C 
ATOM     18  C   UNL     1       7.838   0.453   0.000  0.00  0.00    +0.000 C 
ATOM     19  C   UNL     1       7.838  -0.976   0.000  0.00  0.00    +0.000 C 
ATOM     20  C   UNL     1       7.838   1.882   0.000  0.00  0.00    +0.000 C 
ATOM     21  C   UNL     1       6.600   1.167   0.000  0.00  0.00    +0.000 C 
ATOM     22  C   UNL     1       5.363   1.882   0.000  0.00  0.00    +0.000 C 
ATOM     23  C   UNL     1       6.188  -0.976   0.000  0.00  0.00    +0.000 C 
ATOM     24  C   UNL     1       9.075  -0.262   0.000  0.00  0.00    +0.000 C 
ATOM     25  C   UNL     1       8.926   0.694   0.000  0.00  0.00    +0.000 C 
ENDROOT
BRANCH  20  26
ATOM     26  C   UNL     1       8.250   2.596   0.000  0.00  0.00    +0.000 C 
ATOM     27  C   UNL     1       7.838   3.311   0.000  0.00  0.00    +0.000 C 
ENDBRANCH  20  26
BRANCH  10  28
ATOM     28  O   UNL     1       4.538   0.453   0.000  0.00  0.00    +0.000 OA
BRANCH  28  31
ATOM     29  O   UNL     1       3.300   1.167   0.000  0.00  0.00    +0.000 OA
ATOM     30  O   UNL     1       2.888   3.311   0.000  0.00  0.00    +0.000 OA
ATOM     31  C   UNL     1       4.125   1.167   0.000  0.00  0.00    +0.000 C 
ATOM     32  C   UNL     1       4.125   2.596   0.000  0.00  0.00    +0.000 C 
ATOM     33  C   UNL     1       4.538   1.882   0.000  0.00  0.00    +0.000 C 
ATOM     34  C   UNL     1       3.300   2.596   0.000  0.00  0.00    +0.000 C 
ATOM     35  C   UNL     1       2.888   1.882   0.000  0.00  0.00    +0.000 C 
ATOM     36  C   UNL     1       4.840   3.009   0.000  0.00  0.00    +0.000 C 
ATOM     37  C   UNL     1       2.062   1.882   0.000  0.00  0.00    +0.000 C 
BRANCH  32  38
ATOM     38  O   UNL     1       4.125   3.421   0.000  0.00  0.00    +0.000 OA
ATOM     39  C   UNL     1       4.840   3.834   0.000  0.00  0.00    +0.000 C 
ENDBRANCH  32  38
ENDBRANCH  28  31
ENDBRANCH  10  28
BRANCH   7  40
ATOM     40  O   UNL     1       4.538  -0.976   0.000  0.00  0.00    +0.000 OA
BRANCH  40  43
ATOM     41  O   UNL     1       4.538  -2.405   0.000  0.00  0.00    +0.000 OA
ATOM     42  O   UNL     1       2.888  -0.976   0.000  0.00  0.00    +0.000 OA
ATOM     43  C   UNL     1       4.125  -1.690   0.000  0.00  0.00    +0.000 C 
ATOM     44  C   UNL     1       3.300  -1.690   0.000  0.00  0.00    +0.000 C 
ATOM     45  C   UNL     1       2.888  -2.405   0.000  0.00  0.00    +0.000 C 
ATOM     46  C   UNL     1       3.300  -3.119   0.000  0.00  0.00    +0.000 C 
ATOM     47  C   UNL     1       4.125  -3.119   0.000  0.00  0.00    +0.000 C 
ATOM     48  C   UNL     1       4.538  -3.834   0.000  0.00  0.00    +0.000 C 
BRANCH  45  49
ATOM     49  N   UNL     1       2.062  -2.405   0.000  0.00  0.00    +0.000 NA
ATOM     50  C   UNL     1       1.650  -3.119   0.000  0.00  0.00    +0.000 C 
ATOM     51  C   UNL     1       1.650  -1.690   0.000  0.00  0.00    +0.000 C 
ENDBRANCH  45  49
ENDBRANCH  40  43
ENDBRANCH   7  40
TORSDOF 7
