REMARK  Name = 1259
REMARK  10 active torsions:
REMARK  status: ('A' for Active; 'I' for Inactive)
REMARK    1  A    between atoms: S_2  and  C_13
REMARK    2  A    between atoms: O_7  and  C_31
REMARK    3  A    between atoms: O_7  and  C_34
REMARK    4  A    between atoms: N_8  and  C_12
REMARK    5  A    between atoms: N_8  and  C_14
REMARK    6  A    between atoms: N_9  and  C_27
REMARK    7  A    between atoms: C_12  and  C_13
REMARK    8  A    between atoms: C_14  and  C_15
REMARK    9  A    between atoms: C_16  and  C_17
REMARK   10  A    between atoms: C_34  and  C_35
REMARK                            x       y       z     vdW  Elec       q    Type
REMARK                         _______ _______ _______ _____ _____    ______ ____
ROOT
ATOM      1  N   UNL     1       8.816   0.619   0.000  0.00  0.00    +0.000 NA
ATOM      2  N   UNL     1       8.826   3.151   0.000  0.00  0.00    +0.000 NA
ATOM      3  N   UNL     1       9.573   1.868   0.000  0.00  0.00    +0.000 NA
ATOM      4  C   UNL     1       6.659   1.885   0.000  0.00  0.00    +0.000 A 
ATOM      5  C   UNL     1       8.088   1.885   0.000  0.00  0.00    +0.000 A 
ATOM      6  C   UNL     1       7.374   1.473   0.000  0.00  0.00    +0.000 A 
ATOM      7  C   UNL     1       8.088   2.710   0.000  0.00  0.00    +0.000 A 
ATOM      8  C   UNL     1       6.659   2.710   0.000  0.00  0.00    +0.000 A 
ATOM      9  C   UNL     1       8.826   1.444   0.000  0.00  0.00    +0.000 A 
ATOM     10  C   UNL     1       7.374   3.123   0.000  0.00  0.00    +0.000 A 
ATOM     11  C   UNL     1       9.573   2.727   0.000  0.00  0.00    +0.000 A 
ENDROOT
BRANCH   1  13
ATOM     12 CL   UNL     1      10.216  -1.873   0.000  0.00  0.00    +0.000 Cl
ATOM     13  C   UNL     1       9.526   0.198   0.000  0.00  0.00    +0.000 A 
ATOM     14  C   UNL     1       9.516  -0.627   0.000  0.00  0.00    +0.000 A 
ATOM     15  C   UNL     1      10.245   0.602   0.000  0.00  0.00    +0.000 A 
ATOM     16  C   UNL     1      10.945  -0.643   0.000  0.00  0.00    +0.000 A 
ATOM     17  C   UNL     1      10.226  -1.047   0.000  0.00  0.00    +0.000 A 
ATOM     18  C   UNL     1      10.955   0.182   0.000  0.00  0.00    +0.000 A 
BRANCH  16  19
ATOM     19  O   UNL     1      11.655  -1.064   0.000  0.00  0.00    +0.000 OA
BRANCH  19  20
ATOM     20  C   UNL     1      12.374  -0.660   0.000  0.00  0.00    +0.000 C 
BRANCH  20  22
ATOM     21  F   UNL     1      13.774  -3.151   0.000  0.00  0.00    +0.000 F 
ATOM     22  C   UNL     1      13.084  -1.081   0.000  0.00  0.00    +0.000 A 
ATOM     23  C   UNL     1      13.074  -1.905   0.000  0.00  0.00    +0.000 A 
ATOM     24  C   UNL     1      13.803  -0.676   0.000  0.00  0.00    +0.000 A 
ATOM     25  C   UNL     1      13.784  -2.326   0.000  0.00  0.00    +0.000 A 
ATOM     26  C   UNL     1      14.512  -1.097   0.000  0.00  0.00    +0.000 A 
ATOM     27  C   UNL     1      14.503  -1.922   0.000  0.00  0.00    +0.000 A 
ENDBRANCH  20  22
ENDBRANCH  19  20
ENDBRANCH  16  19
ENDBRANCH   1  13
BRANCH   4  30
ATOM     28  O   UNL     1       5.858   0.652   0.000  0.00  0.00    +0.000 OA
ATOM     29  C   UNL     1       5.051   0.480   0.000  0.00  0.00    +0.000 A 
ATOM     30  C   UNL     1       5.945   1.473   0.000  0.00  0.00    +0.000 A 
ATOM     31  C   UNL     1       4.639   1.195   0.000  0.00  0.00    +0.000 A 
ATOM     32  C   UNL     1       5.191   1.808   0.000  0.00  0.00    +0.000 A 
BRANCH  29  33
ATOM     33  C   UNL     1       4.716  -0.273   0.000  0.00  0.00    +0.000 C 
BRANCH  33  34
ATOM     34  N   UNL     1       3.895  -0.359   0.000  0.00  0.00    +0.000 NA
BRANCH  34  35
ATOM     35  C   UNL     1       3.560  -1.113   0.000  0.00  0.00    +0.000 C 
BRANCH  35  36
ATOM     36  C   UNL     1       2.739  -1.199   0.000  0.00  0.00    +0.000 C 
BRANCH  36  37
ATOM     37  S   UNL     1       2.404  -1.953   0.000  0.00  0.00    +0.000 S 
ATOM     38  O   UNL     1       3.157  -2.289   0.000  0.00  0.00    +0.000 OA
ATOM     39  O   UNL     1       1.650  -1.617   0.000  0.00  0.00    +0.000 OA
ATOM     40  C   UNL     1       2.068  -2.707   0.000  0.00  0.00    +0.000 C 
ENDBRANCH  36  37
ENDBRANCH  35  36
ENDBRANCH  34  35
ENDBRANCH  33  34
ENDBRANCH  29  33
ENDBRANCH   4  30
TORSDOF 10
