REMARK  Name = 1261
REMARK  5 active torsions:
REMARK  status: ('A' for Active; 'I' for Inactive)
REMARK    1  A    between atoms: C_17  and  C_18
REMARK    2  A    between atoms: C_17  and  C_19
REMARK    3  A    between atoms: C_18  and  C_20
REMARK    4  A    between atoms: C_20  and  C_22
REMARK    5  A    between atoms: C_21  and  C_23
REMARK                            x       y       z     vdW  Elec       q    Type
REMARK                         _______ _______ _______ _____ _____    ______ ____
ROOT
ATOM      1  O   UNL     1       6.652  -1.322   0.000  0.00  0.00    +0.000 OA
ATOM      2  N   UNL     1       7.366  -0.085   0.000  0.00  0.00    +0.000 N 
ATOM      3  N   UNL     1       8.795   0.740   0.000  0.00  0.00    +0.000 N 
ATOM      4  N   UNL     1       9.576  -0.336   0.000  0.00  0.00    +0.000 NA
ATOM      5  N   UNL     1      10.057   0.328   0.000  0.00  0.00    +0.000 NA
ATOM      6  C   UNL     1       7.366   0.740   0.000  0.00  0.00    +0.000 C 
ATOM      7  C   UNL     1       8.080   1.153   0.000  0.00  0.00    +0.000 C 
ATOM      8  C   UNL     1       8.080  -0.497   0.000  0.00  0.00    +0.000 C 
ATOM      9  C   UNL     1       8.795  -0.085   0.000  0.00  0.00    +0.000 A 
ATOM     10  C   UNL     1       6.652  -0.497   0.000  0.00  0.00    +0.000 C 
ATOM     11  C   UNL     1       9.576   0.992   0.000  0.00  0.00    +0.000 A 
ENDROOT
BRANCH  11  15
ATOM     12  F   UNL     1      10.616   1.519   0.000  0.00  0.00    +0.000 F 
ATOM     13  F   UNL     1      10.088   2.560   0.000  0.00  0.00    +0.000 F 
ATOM     14  F   UNL     1       9.048   2.032   0.000  0.00  0.00    +0.000 F 
ATOM     15  C   UNL     1       9.832   1.776   0.000  0.00  0.00    +0.000 C 
ENDBRANCH  11  15
BRANCH  10  16
ATOM     16  C   UNL     1       5.937  -0.085   0.000  0.00  0.00    +0.000 C 
BRANCH  16  18
ATOM     17  N   UNL     1       5.222  -1.322   0.000  0.00  0.00    +0.000 NA
ATOM     18  C   UNL     1       5.222  -0.497   0.000  0.00  0.00    +0.000 C 
BRANCH  18  19
ATOM     19  C   UNL     1       4.508  -0.085   0.000  0.00  0.00    +0.000 C 
BRANCH  19  23
ATOM     20  F   UNL     1       3.079   0.740   0.000  0.00  0.00    +0.000 F 
ATOM     21  F   UNL     1       3.079  -2.560   0.000  0.00  0.00    +0.000 F 
ATOM     22  F   UNL     1       1.650  -1.735   0.000  0.00  0.00    +0.000 F 
ATOM     23  C   UNL     1       3.793  -0.497   0.000  0.00  0.00    +0.000 A 
ATOM     24  C   UNL     1       3.079  -0.085   0.000  0.00  0.00    +0.000 A 
ATOM     25  C   UNL     1       3.793  -1.322   0.000  0.00  0.00    +0.000 A 
ATOM     26  C   UNL     1       3.079  -1.735   0.000  0.00  0.00    +0.000 A 
ATOM     27  C   UNL     1       2.365  -0.497   0.000  0.00  0.00    +0.000 A 
ATOM     28  C   UNL     1       2.365  -1.322   0.000  0.00  0.00    +0.000 A 
ENDBRANCH  19  23
ENDBRANCH  18  19
ENDBRANCH  16  18
ENDBRANCH  10  16
TORSDOF 5
