REMARK  Name = 1262
REMARK  2 active torsions:
REMARK  status: ('A' for Active; 'I' for Inactive)
REMARK    1  A    between atoms: N_5  and  C1*_12
REMARK    2  A    between atoms: C4*_11  and  C5*_13
REMARK                            x       y       z     vdW  Elec       q    Type
REMARK                         _______ _______ _______ _____ _____    ______ ____
ROOT
ATOM      1  O   UNL     1       1.650   0.179   0.000  0.00  0.00    +0.000 OA
ATOM      2  N   UNL     1       3.079   0.179   0.000  0.00  0.00    +0.000 N 
ATOM      3  N   UNL     1       2.365   1.417   0.000  0.00  0.00    +0.000 NA
ATOM      4  N   UNL     1       3.793   1.417   0.000  0.00  0.00    +0.000 NA
ATOM      5  N   UNL     1       3.079   2.655   0.000  0.00  0.00    +0.000 NA
ATOM      6  C   UNL     1       2.365   0.592   0.000  0.00  0.00    +0.000 A 
ATOM      7  C   UNL     1       3.793   0.592   0.000  0.00  0.00    +0.000 A 
ATOM      8  C   UNL     1       3.079   1.829   0.000  0.00  0.00    +0.000 A 
ENDROOT
BRANCH   2  14
ATOM      9  O4* UNL     1       3.746  -1.131   0.000  0.00  0.00    +0.000 OA
ATOM     10  O3* UNL     1       2.182  -2.583   0.000  0.00  0.00    +0.000 OA
ATOM     11  C3* UNL     1       2.667  -1.915   0.000  0.00  0.00    +0.000 C 
ATOM     12  C2* UNL     1       2.412  -1.131   0.000  0.00  0.00    +0.000 C 
ATOM     13  C4* UNL     1       3.491  -1.915   0.000  0.00  0.00    +0.000 C 
ATOM     14  C1* UNL     1       3.079  -0.646   0.000  0.00  0.00    +0.000 C 
BRANCH  13  16
ATOM     15  O5* UNL     1       4.797  -2.496   0.000  0.00  0.00    +0.000 OA
ATOM     16  C5* UNL     1       3.976  -2.583   0.000  0.00  0.00    +0.000 C 
ENDBRANCH  13  16
ENDBRANCH   2  14
TORSDOF 2
