REMARK  Name = 1265
REMARK  2 active torsions:
REMARK  status: ('A' for Active; 'I' for Inactive)
REMARK    1  A    between atoms: N1_6  and  C1*_9
REMARK    2  A    between atoms: C4*_11  and  C5*_12
REMARK                            x       y       z     vdW  Elec       q    Type
REMARK                         _______ _______ _______ _____ _____    ______ ____
ROOT
ATOM      1  O2    T A   1       1.650   0.307   0.000  0.00  0.00    +0.000 OA
ATOM      2  O4    T A   1       3.079   2.782   0.000  0.00  0.00    +0.000 OA
ATOM      3  N1    T A   1       3.079   0.307   0.000  0.00  0.00    +0.000 N 
ATOM      4  N3    T A   1       2.364   1.545   0.000  0.00  0.00    +0.000 NA
ATOM      5  C6    T A   1       3.793   0.720   0.000  0.00  0.00    +0.000 A 
ATOM      6  C2    T A   1       2.364   0.720   0.000  0.00  0.00    +0.000 A 
ATOM      7  C5    T A   1       3.793   1.545   0.000  0.00  0.00    +0.000 A 
ATOM      8  C4    T A   1       3.079   1.957   0.000  0.00  0.00    +0.000 A 
ATOM      9  C5M   T A   1       4.508   1.957   0.000  0.00  0.00    +0.000 C 
ENDROOT
BRANCH   3  13
ATOM     10  O4*   T A   1       3.746  -1.002   0.000  0.00  0.00    +0.000 OA
ATOM     11  O3*   T A   1       2.181  -2.455   0.000  0.00  0.00    +0.000 OA
ATOM     12  C3*   T A   1       2.666  -1.787   0.000  0.00  0.00    +0.000 C 
ATOM     13  C1*   T A   1       3.079  -0.518   0.000  0.00  0.00    +0.000 C 
ATOM     14  C2*   T A   1       2.411  -1.002   0.000  0.00  0.00    +0.000 C 
ATOM     15  C4*   T A   1       3.491  -1.787   0.000  0.00  0.00    +0.000 C 
BRANCH  15  17
ATOM     16  O5*   T A   1       4.797  -2.368   0.000  0.00  0.00    +0.000 OA
ATOM     17  C5*   T A   1       3.976  -2.455   0.000  0.00  0.00    +0.000 C 
ENDBRANCH  15  17
ENDBRANCH   3  13
TORSDOF 2
