REMARK  Name = 1267
REMARK  4 active torsions:
REMARK  status: ('A' for Active; 'I' for Inactive)
REMARK    1  A    between atoms: N_5  and  C_14
REMARK    2  A    between atoms: C_9  and  C_15
REMARK    3  A    between atoms: C_14  and  C_16
REMARK    4  A    between atoms: C_16  and  C_17
REMARK                            x       y       z     vdW  Elec       q    Type
REMARK                         _______ _______ _______ _____ _____    ______ ____
ROOT
ATOM      1  N   UNL     1       6.964  -0.269   0.000  0.00  0.00    +0.000 NA
ATOM      2  C   UNL     1       5.535  -1.094   0.000  0.00  0.00    +0.000 C 
ATOM      3  C   UNL     1       6.250  -1.507   0.000  0.00  0.00    +0.000 C 
ATOM      4  C   UNL     1       5.535  -0.269   0.000  0.00  0.00    +0.000 C 
ATOM      5  C   UNL     1       6.964  -1.094   0.000  0.00  0.00    +0.000 C 
ATOM      6  C   UNL     1       6.250   0.143   0.000  0.00  0.00    +0.000 C 
ENDROOT
BRANCH   2  10
ATOM      7  F   UNL     1       1.650  -0.662   0.000  0.00  0.00    +0.000 F 
ATOM      8  O   UNL     1       3.934  -2.495   0.000  0.00  0.00    +0.000 OA
ATOM      9  N   UNL     1       4.736  -2.323   0.000  0.00  0.00    +0.000 NA
ATOM     10  C   UNL     1       4.821  -1.507   0.000  0.00  0.00    +0.000 A 
ATOM     11  C   UNL     1       4.072  -1.173   0.000  0.00  0.00    +0.000 A 
ATOM     12  C   UNL     1       3.521  -1.787   0.000  0.00  0.00    +0.000 A 
ATOM     13  C   UNL     1       3.816  -0.388   0.000  0.00  0.00    +0.000 A 
ATOM     14  C   UNL     1       2.714  -1.617   0.000  0.00  0.00    +0.000 A 
ATOM     15  C   UNL     1       3.008  -0.218   0.000  0.00  0.00    +0.000 A 
ATOM     16  C   UNL     1       2.457  -0.832   0.000  0.00  0.00    +0.000 A 
ENDBRANCH   2  10
BRANCH   1  17
ATOM     17  C   UNL     1       7.679   0.143   0.000  0.00  0.00    +0.000 C 
BRANCH  17  18
ATOM     18  C   UNL     1       8.393  -0.269   0.000  0.00  0.00    +0.000 C 
BRANCH  18  23
ATOM     19  O   UNL     1      11.265   2.234   0.000  0.00  0.00    +0.000 OA
ATOM     20  O   UNL     1       9.822  -1.094   0.000  0.00  0.00    +0.000 OA
ATOM     21  N   UNL     1      10.537   0.143   0.000  0.00  0.00    +0.000 N 
ATOM     22  N   UNL     1       9.822   1.381   0.000  0.00  0.00    +0.000 NA
ATOM     23  C   UNL     1       9.108   0.143   0.000  0.00  0.00    +0.000 A 
ATOM     24  C   UNL     1      11.274  -0.298   0.000  0.00  0.00    +0.000 C 
ATOM     25  C   UNL     1      11.274   1.409   0.000  0.00  0.00    +0.000 C 
ATOM     26  C   UNL     1      12.022   0.126   0.000  0.00  0.00    +0.000 C 
ATOM     27  C   UNL     1      12.022   0.985   0.000  0.00  0.00    +0.000 C 
ATOM     28  C   UNL     1      10.537   0.968   0.000  0.00  0.00    +0.000 A 
ATOM     29  C   UNL     1       9.822  -0.269   0.000  0.00  0.00    +0.000 A 
ATOM     30  C   UNL     1       9.108   0.968   0.000  0.00  0.00    +0.000 A 
ATOM     31  C   UNL     1       8.393   1.381   0.000  0.00  0.00    +0.000 C 
ENDBRANCH  18  23
ENDBRANCH  17  18
ENDBRANCH   1  17
TORSDOF 4
