REMARK  Name = 1268
REMARK  7 active torsions:
REMARK  status: ('A' for Active; 'I' for Inactive)
REMARK    1  A    between atoms: N_4  and  C_8
REMARK    2  A    between atoms: N_4  and  C_14
REMARK    3  A    between atoms: N_4  and  C_15
REMARK    4  A    between atoms: N_6  and  C_12
REMARK    5  A    between atoms: C_8  and  C_12
REMARK    6  A    between atoms: C_9  and  C_16
REMARK    7  A    between atoms: C_11  and  C_18
REMARK                            x       y       z     vdW  Elec       q    Type
REMARK                         _______ _______ _______ _____ _____    ______ ____
ROOT
ATOM      1  N   UNL     1       6.250  -0.946   0.000  0.00  0.00    +0.000 NA
ATOM      2  C   UNL     1       6.795   0.273   0.000  0.00  0.00    +0.000 A 
ATOM      3  C   UNL     1       5.975   0.361   0.000  0.00  0.00    +0.000 A 
ATOM      4  C   UNL     1       5.638  -0.393   0.000  0.00  0.00    +0.000 A 
ATOM      5  C   UNL     1       6.965  -0.534   0.000  0.00  0.00    +0.000 A 
ATOM      6  C   UNL     1       5.563   1.076   0.000  0.00  0.00    +0.000 C 
ATOM      7  C   UNL     1       7.718  -0.871   0.000  0.00  0.00    +0.000 C 
ENDROOT
BRANCH   4  12
ATOM      8  F   UNL     1       1.650  -1.186   0.000  0.00  0.00    +0.000 F 
ATOM      9  O   UNL     1       5.881  -2.011   0.000  0.00  0.00    +0.000 OA
ATOM     10  N   UNL     1       4.574  -2.675   0.000  0.00  0.00    +0.000 NA
ATOM     11  C   UNL     1       4.574  -1.347   0.000  0.00  0.00    +0.000 C 
ATOM     12  C   UNL     1       4.830  -0.563   0.000  0.00  0.00    +0.000 C 
ATOM     13  C   UNL     1       3.793  -1.598   0.000  0.00  0.00    +0.000 A 
ATOM     14  C   UNL     1       3.793  -2.423   0.000  0.00  0.00    +0.000 A 
ATOM     15  C   UNL     1       5.056  -2.011   0.000  0.00  0.00    +0.000 C 
ATOM     16  C   UNL     1       3.079  -1.186   0.000  0.00  0.00    +0.000 A 
ATOM     17  C   UNL     1       3.079  -2.836   0.000  0.00  0.00    +0.000 A 
ATOM     18  C   UNL     1       2.365  -1.598   0.000  0.00  0.00    +0.000 A 
ATOM     19  C   UNL     1       2.365  -2.423   0.000  0.00  0.00    +0.000 A 
ENDBRANCH   4  12
BRANCH   2  22
ATOM     20  O   UNL     1       7.094   1.670   0.000  0.00  0.00    +0.000 OA
ATOM     21  N   UNL     1       8.155   0.712   0.000  0.00  0.00    +0.000 NA
ATOM     22  C   UNL     1       7.348   0.885   0.000  0.00  0.00    +0.000 C 
BRANCH  21  23
ATOM     23  C   UNL     1       8.708   1.324   0.000  0.00  0.00    +0.000 C 
BRANCH  23  24
ATOM     24  C   UNL     1       9.514   1.151   0.000  0.00  0.00    +0.000 C 
BRANCH  24  25
ATOM     25  N   UNL     1      10.068   1.764   0.000  0.00  0.00    +0.000 NA
BRANCH  25  26
ATOM     26  C   UNL     1       9.814   2.549   0.000  0.00  0.00    +0.000 C 
ATOM     27  C   UNL     1      10.367   3.161   0.000  0.00  0.00    +0.000 C 
ENDBRANCH  25  26
BRANCH  25  28
ATOM     28  C   UNL     1      10.874   1.591   0.000  0.00  0.00    +0.000 C 
ATOM     29  C   UNL     1      11.427   2.203   0.000  0.00  0.00    +0.000 C 
ENDBRANCH  25  28
ENDBRANCH  24  25
ENDBRANCH  23  24
ENDBRANCH  21  23
ENDBRANCH   2  22
TORSDOF 7
