REMARK  Name = 1275
REMARK  0 active torsions:
REMARK  status: ('A' for Active; 'I' for Inactive)
REMARK                            x       y       z     vdW  Elec       q    Type
REMARK                         _______ _______ _______ _____ _____    ______ ____
ROOT
ATOM      1  N   UNL     1       2.695  -0.758   0.000  0.00  0.00    +0.000 NA
ATOM      2  N   UNL     1       2.009   0.430   0.000  0.00  0.00    +0.000 NA
ATOM      3  N   UNL     1       2.009   1.222   0.000  0.00  0.00    +0.000 NA
ATOM      4  N   UNL     1       2.009  -1.154   0.000  0.00  0.00    +0.000 NA
ATOM      5  C   UNL     1       3.381   0.430   0.000  0.00  0.00    +0.000 A 
ATOM      6  C   UNL     1       3.381   1.222   0.000  0.00  0.00    +0.000 A 
ATOM      7  C   UNL     1       2.695   0.034   0.000  0.00  0.00    +0.000 A 
ATOM      8  C   UNL     1       4.089   0.006   0.000  0.00  0.00    +0.000 A 
ATOM      9  C   UNL     1       4.089   1.645   0.000  0.00  0.00    +0.000 A 
ATOM     10  C   UNL     1       4.807   0.413   0.000  0.00  0.00    +0.000 A 
ATOM     11  C   UNL     1       2.695   1.618   0.000  0.00  0.00    +0.000 A 
ATOM     12  C   UNL     1       4.807   1.238   0.000  0.00  0.00    +0.000 A 
ENDROOT
TORSDOF 0
