REMARK  Name = 128
REMARK  3 active torsions:
REMARK  status: ('A' for Active; 'I' for Inactive)
REMARK    1  A    between atoms: CA_6  and  CB_7
REMARK    2  A    between atoms: CA_6  and  C_8
REMARK    3  A    between atoms: CB_7  and  CG_9
REMARK                            x       y       z     vdW  Elec       q    Type
REMARK                         _______ _______ _______ _____ _____    ______ ____
ROOT
ATOM      1  N   ASP A   1       4.237  -0.903   0.000  0.00  0.00    +0.000 NA
ATOM      2  CA  ASP A   1       4.237  -0.078   0.000  0.00  0.00    +0.000 C 
ENDROOT
BRANCH   2   5
ATOM      3  O   ASP A   1       5.665  -0.078   0.000  0.00  0.00    +0.000 OA
ATOM      4  OXT ASP A   1       4.951   1.159   0.000  0.00  0.00    +0.000 OA
ATOM      5  C   ASP A   1       4.951   0.334   0.000  0.00  0.00    +0.000 C 
ENDBRANCH   2   5
BRANCH   2   6
ATOM      6  CB  ASP A   1       3.522   0.334   0.000  0.00  0.00    +0.000 C 
BRANCH   6   9
ATOM      7  OD1 ASP A   1       2.093   0.334   0.000  0.00  0.00    +0.000 OA
ATOM      8  OD2 ASP A   1       2.808  -0.903   0.000  0.00  0.00    +0.000 OA
ATOM      9  CG  ASP A   1       2.808  -0.078   0.000  0.00  0.00    +0.000 C 
ENDBRANCH   6   9
ENDBRANCH   2   6
TORSDOF 3
