REMARK  Name = 1280
REMARK  3 active torsions:
REMARK  status: ('A' for Active; 'I' for Inactive)
REMARK    1  A    between atoms: O_5  and  C_19
REMARK    2  A    between atoms: N_6  and  C1*_12
REMARK    3  A    between atoms: C4*_14  and  C5*_15
REMARK                            x       y       z     vdW  Elec       q    Type
REMARK                         _______ _______ _______ _____ _____    ______ ____
ROOT
ATOM      1  N   UNL     1       5.017  -0.638   0.000  0.00  0.00    +0.000 N 
ATOM      2  N   UNL     1       5.017  -1.966   0.000  0.00  0.00    +0.000 NA
ATOM      3  N   UNL     1       3.522  -0.477   0.000  0.00  0.00    +0.000 NA
ATOM      4  N   UNL     1       2.808  -1.715   0.000  0.00  0.00    +0.000 NA
ATOM      5  N   UNL     1       2.093  -0.477   0.000  0.00  0.00    +0.000 NA
ATOM      6  C   UNL     1       4.237  -0.890   0.000  0.00  0.00    +0.000 A 
ATOM      7  C   UNL     1       5.499  -1.302   0.000  0.00  0.00    +0.000 A 
ATOM      8  C   UNL     1       4.237  -1.715   0.000  0.00  0.00    +0.000 A 
ATOM      9  C   UNL     1       3.522  -2.127   0.000  0.00  0.00    +0.000 A 
ATOM     10  C   UNL     1       2.808  -0.890   0.000  0.00  0.00    +0.000 A 
ENDROOT
BRANCH   1  15
ATOM     11  O4* UNL     1       4.790   0.814   0.000  0.00  0.00    +0.000 OA
ATOM     12  O2* UNL     1       6.725  -0.087   0.000  0.00  0.00    +0.000 OA
ATOM     13  O3* UNL     1       6.728   1.708   0.000  0.00  0.00    +0.000 OA
ATOM     14  C2* UNL     1       6.059   0.400   0.000  0.00  0.00    +0.000 C 
ATOM     15  C1* UNL     1       5.273   0.146   0.000  0.00  0.00    +0.000 C 
ATOM     16  C3* UNL     1       6.060   1.224   0.000  0.00  0.00    +0.000 C 
ATOM     17  C4* UNL     1       5.276   1.481   0.000  0.00  0.00    +0.000 C 
BRANCH  17  19
ATOM     18  O5* UNL     1       5.575   2.878   0.000  0.00  0.00    +0.000 OA
ATOM     19  C5* UNL     1       5.022   2.266   0.000  0.00  0.00    +0.000 C 
ENDBRANCH  17  19
ENDBRANCH   1  15
BRANCH   9  20
ATOM     20  O   UNL     1       3.522  -2.952   0.000  0.00  0.00    +0.000 OA
ATOM     21  C   UNL     1       2.808  -3.365   0.000  0.00  0.00    +0.000 C 
ENDBRANCH   9  20
TORSDOF 3
