REMARK  Name = 1288
REMARK  6 active torsions:
REMARK  status: ('A' for Active; 'I' for Inactive)
REMARK    1  A    between atoms: N_5  and  C_6
REMARK    2  A    between atoms: N_5  and  C_8
REMARK    3  A    between atoms: C_6  and  C_7
REMARK    4  A    between atoms: C_7  and  C_11
REMARK    5  A    between atoms: C_8  and  C_9
REMARK    6  A    between atoms: C_9  and  C_12
REMARK                            x       y       z     vdW  Elec       q    Type
REMARK                         _______ _______ _______ _____ _____    ______ ____
ROOT
ATOM      1  N   UNL     1       3.793   0.412   0.000  0.00  0.00    +0.000 NA
ENDROOT
BRANCH   1   2
ATOM      2  C   UNL     1       4.508   0.825   0.000  0.00  0.00    +0.000 C 
ATOM      3  C   UNL     1       5.222   0.412   0.000  0.00  0.00    +0.000 C 
BRANCH   2   4
ATOM      4  C   UNL     1       4.508   1.650   0.000  0.00  0.00    +0.000 C 
BRANCH   4   6
ATOM      5  O   UNL     1       7.366   3.300   0.000  0.00  0.00    +0.000 OA
ATOM      6  C   UNL     1       5.222   2.062   0.000  0.00  0.00    +0.000 A 
ATOM      7  C   UNL     1       5.937   1.650   0.000  0.00  0.00    +0.000 A 
ATOM      8  C   UNL     1       5.222   2.888   0.000  0.00  0.00    +0.000 A 
ATOM      9  C   UNL     1       6.652   2.062   0.000  0.00  0.00    +0.000 A 
ATOM     10  C   UNL     1       5.937   3.300   0.000  0.00  0.00    +0.000 A 
ATOM     11  C   UNL     1       6.652   2.888   0.000  0.00  0.00    +0.000 A 
ENDBRANCH   4   6
ENDBRANCH   2   4
ENDBRANCH   1   2
BRANCH   1  12
ATOM     12  C   UNL     1       3.793  -0.412   0.000  0.00  0.00    +0.000 C 
BRANCH  12  14
ATOM     13  O   UNL     1       2.365  -0.412   0.000  0.00  0.00    +0.000 OA
ATOM     14  C   UNL     1       3.079  -0.825   0.000  0.00  0.00    +0.000 C 
BRANCH  14  17
ATOM     15  O   UNL     1       1.650  -3.300   0.000  0.00  0.00    +0.000 OA
ATOM     16  O   UNL     1       4.508  -3.300   0.000  0.00  0.00    +0.000 OA
ATOM     17  C   UNL     1       3.079  -1.650   0.000  0.00  0.00    +0.000 A 
ATOM     18  C   UNL     1       3.793  -2.062   0.000  0.00  0.00    +0.000 A 
ATOM     19  C   UNL     1       2.365  -2.062   0.000  0.00  0.00    +0.000 A 
ATOM     20  C   UNL     1       2.365  -2.888   0.000  0.00  0.00    +0.000 A 
ATOM     21  C   UNL     1       3.793  -2.888   0.000  0.00  0.00    +0.000 A 
ATOM     22  C   UNL     1       3.079  -3.300   0.000  0.00  0.00    +0.000 A 
ENDBRANCH  14  17
ENDBRANCH  12  14
ENDBRANCH   1  12
TORSDOF 6
