REMARK  Name = 12894
REMARK  2 active torsions:
REMARK  status: ('A' for Active; 'I' for Inactive)
REMARK    1  A    between atoms: S_1  and  N_5
REMARK    2  A    between atoms: S_1  and  C_8
REMARK                            x       y       z     vdW  Elec       q    Type
REMARK                         _______ _______ _______ _____ _____    ______ ____
ROOT
ATOM      1  S   UNL     1       2.475   0.286   0.000  0.00  0.00    +0.000 S 
ATOM      2  O   UNL     1       3.300   0.286   0.000  0.00  0.00    +0.000 OA
ATOM      3  O   UNL     1       1.650   0.286   0.000  0.00  0.00    +0.000 OA
ENDROOT
BRANCH   1   5
ATOM      4  O   UNL     1       3.276   2.344   0.000  0.00  0.00    +0.000 OA
ATOM      5  N   UNL     1       2.475   1.111   0.000  0.00  0.00    +0.000 NA
ATOM      6  N   UNL     1       3.943   1.188   0.000  0.00  0.00    +0.000 NA
ATOM      7  C   UNL     1       3.189   1.524   0.000  0.00  0.00    +0.000 A 
ATOM      8  C   UNL     1       4.083   2.516   0.000  0.00  0.00    +0.000 A 
ATOM      9  C   UNL     1       4.495   1.801   0.000  0.00  0.00    +0.000 A 
ATOM     10  C   UNL     1       4.418   3.269   0.000  0.00  0.00    +0.000 C 
ATOM     11  C   UNL     1       5.316   1.715   0.000  0.00  0.00    +0.000 C 
ENDBRANCH   1   5
BRANCH   1  13
ATOM     12  N   UNL     1       2.475  -3.014   0.000  0.00  0.00    +0.000 NA
ATOM     13  C   UNL     1       2.475  -0.539   0.000  0.00  0.00    +0.000 A 
ATOM     14  C   UNL     1       1.761  -0.951   0.000  0.00  0.00    +0.000 A 
ATOM     15  C   UNL     1       3.189  -0.951   0.000  0.00  0.00    +0.000 A 
ATOM     16  C   UNL     1       1.761  -1.776   0.000  0.00  0.00    +0.000 A 
ATOM     17  C   UNL     1       3.189  -1.776   0.000  0.00  0.00    +0.000 A 
ATOM     18  C   UNL     1       2.475  -2.189   0.000  0.00  0.00    +0.000 A 
ENDBRANCH   1  13
TORSDOF 2
