REMARK  Name = 1289
REMARK  7 active torsions:
REMARK  status: ('A' for Active; 'I' for Inactive)
REMARK    1  A    between atoms: S_1  and  N_9
REMARK    2  A    between atoms: S_1  and  C_19
REMARK    3  A    between atoms: N_7  and  N_8
REMARK    4  A    between atoms: N_10  and  C_24
REMARK    5  A    between atoms: C_20  and  C_21
REMARK    6  A    between atoms: C_21  and  C_24
REMARK    7  A    between atoms: C_27  and  C_28
REMARK                            x       y       z     vdW  Elec       q    Type
REMARK                         _______ _______ _______ _____ _____    ______ ____
ROOT
ATOM      1  C   UNL     1       7.349   0.005   0.000  0.00  0.00    +0.000 A 
ATOM      2  C   UNL     1       5.920  -0.820   0.000  0.00  0.00    +0.000 A 
ATOM      3  C   UNL     1       6.634   0.417   0.000  0.00  0.00    +0.000 A 
ATOM      4  C   UNL     1       7.349  -0.820   0.000  0.00  0.00    +0.000 A 
ATOM      5  C   UNL     1       5.920   0.005   0.000  0.00  0.00    +0.000 A 
ATOM      6  C   UNL     1       6.634  -1.233   0.000  0.00  0.00    +0.000 A 
ENDROOT
BRANCH   1   7
ATOM      7  S   UNL     1       8.063   0.417   0.000  0.00  0.00    +0.000 S 
ATOM      8  O   UNL     1       7.651   1.132   0.000  0.00  0.00    +0.000 OA
ATOM      9  O   UNL     1       8.476  -0.297   0.000  0.00  0.00    +0.000 OA
BRANCH   7  12
ATOM     10  O   UNL     1       8.063   2.067   0.000  0.00  0.00    +0.000 OA
ATOM     11  N   UNL     1       9.492   2.067   0.000  0.00  0.00    +0.000 NA
ATOM     12  N   UNL     1       8.778   0.830   0.000  0.00  0.00    +0.000 NA
ATOM     13  C   UNL     1       8.778   1.655   0.000  0.00  0.00    +0.000 C 
BRANCH  11  14
ATOM     14  N   UNL     1       9.492   2.892   0.000  0.00  0.00    +0.000 NA
ATOM     15  C   UNL     1       9.905   4.700   0.000  0.00  0.00    +0.000 C 
ATOM     16  C   UNL     1       9.080   4.700   0.000  0.00  0.00    +0.000 C 
ATOM     17  C   UNL     1      10.419   4.055   0.000  0.00  0.00    +0.000 C 
ATOM     18  C   UNL     1       8.565   4.055   0.000  0.00  0.00    +0.000 C 
ATOM     19  C   UNL     1      10.236   3.250   0.000  0.00  0.00    +0.000 C 
ATOM     20  C   UNL     1       8.749   3.250   0.000  0.00  0.00    +0.000 C 
ENDBRANCH  11  14
ENDBRANCH   7  12
ENDBRANCH   1   7
BRANCH   2  21
ATOM     21  C   UNL     1       5.205  -1.233   0.000  0.00  0.00    +0.000 C 
BRANCH  21  22
ATOM     22  C   UNL     1       5.205  -2.058   0.000  0.00  0.00    +0.000 C 
BRANCH  22  24
ATOM     23  O   UNL     1       5.205  -3.708   0.000  0.00  0.00    +0.000 OA
ATOM     24  N   UNL     1       4.491  -2.470   0.000  0.00  0.00    +0.000 NA
ATOM     25  C   UNL     1       4.491  -3.295   0.000  0.00  0.00    +0.000 C 
BRANCH  25  28
ATOM     26  O   UNL     1       2.883  -4.700   0.000  0.00  0.00    +0.000 OA
ATOM     27  N   UNL     1       3.690  -4.528   0.000  0.00  0.00    +0.000 NA
ATOM     28  C   UNL     1       3.776  -3.708   0.000  0.00  0.00    +0.000 A 
ATOM     29  C   UNL     1       3.023  -3.372   0.000  0.00  0.00    +0.000 A 
ATOM     30  C   UNL     1       2.470  -3.985   0.000  0.00  0.00    +0.000 A 
ATOM     31  C   UNL     1       1.650  -3.899   0.000  0.00  0.00    +0.000 C 
ENDBRANCH  25  28
ENDBRANCH  22  24
ENDBRANCH  21  22
ENDBRANCH   2  21
TORSDOF 7
