REMARK  Name = 1291
REMARK  5 active torsions:
REMARK  status: ('A' for Active; 'I' for Inactive)
REMARK    1  A    between atoms: N_4  and  C_6
REMARK    2  A    between atoms: N_4  and  C_7
REMARK    3  A    between atoms: C_7  and  C_8
REMARK    4  A    between atoms: C_8  and  C_12
REMARK    5  A    between atoms: CA_14  and  C_17
REMARK                            x       y       z     vdW  Elec       q    Type
REMARK                         _______ _______ _______ _____ _____    ______ ____
ROOT
ATOM      1  O   UNL     1       7.366   1.110   0.000  0.00  0.00    +0.000 OA
ATOM      2  N   UNL     1       5.937  -0.540   0.000  0.00  0.00    +0.000 NA
ATOM      3  C   UNL     1       5.222  -0.128   0.000  0.00  0.00    +0.000 A 
ATOM      4  C   UNL     1       5.222   0.697   0.000  0.00  0.00    +0.000 A 
ATOM      5  CA  UNL     1       6.652  -0.128   0.000  0.00  0.00    +0.000 A 
ATOM      6  C   UNL     1       5.937   1.110   0.000  0.00  0.00    +0.000 A 
ATOM      7  C   UNL     1       6.652   0.697   0.000  0.00  0.00    +0.000 A 
ENDROOT
BRANCH   3   9
ATOM      8  O   UNL     1       4.508  -1.365   0.000  0.00  0.00    +0.000 OA
ATOM      9  C   UNL     1       4.508  -0.540   0.000  0.00  0.00    +0.000 C 
BRANCH   9  10
ATOM     10  C   UNL     1       3.793  -0.128   0.000  0.00  0.00    +0.000 C 
BRANCH  10  11
ATOM     11  N   UNL     1       3.079  -0.540   0.000  0.00  0.00    +0.000 NA
BRANCH  11  12
ATOM     12  C   UNL     1       2.365  -0.128   0.000  0.00  0.00    +0.000 C 
ATOM     13  C   UNL     1       1.650   0.285   0.000  0.00  0.00    +0.000 C 
ATOM     14  C   UNL     1       1.952  -0.842   0.000  0.00  0.00    +0.000 C 
ATOM     15  C   UNL     1       2.777   0.587   0.000  0.00  0.00    +0.000 C 
ENDBRANCH  11  12
ENDBRANCH  10  11
ENDBRANCH   9  10
ENDBRANCH   3   9
BRANCH   5  17
ATOM     16  O   UNL     1       7.366  -1.365   0.000  0.00  0.00    +0.000 OA
ATOM     17  C   UNL     1       7.366  -0.540   0.000  0.00  0.00    +0.000 C 
ENDBRANCH   5  17
TORSDOF 5
