REMARK  Name = 1295
REMARK  10 active torsions:
REMARK  status: ('A' for Active; 'I' for Inactive)
REMARK    1  A    between atoms: O_1  and  C_11
REMARK    2  A    between atoms: O_1  and  C_17
REMARK    3  A    between atoms: O_3  and  C_14
REMARK    4  A    between atoms: O_4  and  C_16
REMARK    5  A    between atoms: N_5  and  C_6
REMARK    6  A    between atoms: N_5  and  C_8
REMARK    7  A    between atoms: C_6  and  C_7
REMARK    8  A    between atoms: C_7  and  C_11
REMARK    9  A    between atoms: C_8  and  C_9
REMARK   10  A    between atoms: C_9  and  C_10
REMARK                            x       y       z     vdW  Elec       q    Type
REMARK                         _______ _______ _______ _____ _____    ______ ____
ROOT
ATOM      1  N   UNL     1       5.937   0.412   0.000  0.00  0.00    +0.000 NA
ENDROOT
BRANCH   1   2
ATOM      2  C   UNL     1       5.222   0.825   0.000  0.00  0.00    +0.000 C 
BRANCH   2   3
ATOM      3  C   UNL     1       5.222   1.650   0.000  0.00  0.00    +0.000 C 
BRANCH   3   4
ATOM      4  C   UNL     1       4.508   2.062   0.000  0.00  0.00    +0.000 A 
ATOM      5  C   UNL     1       4.508   2.888   0.000  0.00  0.00    +0.000 A 
ATOM      6  C   UNL     1       3.793   1.650   0.000  0.00  0.00    +0.000 A 
ATOM      7  C   UNL     1       3.793   3.300   0.000  0.00  0.00    +0.000 A 
ATOM      8  C   UNL     1       3.079   2.062   0.000  0.00  0.00    +0.000 A 
ATOM      9  C   UNL     1       3.079   2.888   0.000  0.00  0.00    +0.000 A 
BRANCH   7  10
ATOM     10  O   UNL     1       3.793   4.125   0.000  0.00  0.00    +0.000 OA
ATOM     11  C   UNL     1       4.508   4.538   0.000  0.00  0.00    +0.000 C 
ENDBRANCH   7  10
BRANCH   9  12
ATOM     12  O   UNL     1       2.365   3.300   0.000  0.00  0.00    +0.000 OA
ATOM     13  C   UNL     1       1.650   2.888   0.000  0.00  0.00    +0.000 C 
ENDBRANCH   9  12
ENDBRANCH   3   4
ENDBRANCH   2   3
ENDBRANCH   1   2
BRANCH   1  14
ATOM     14  C   UNL     1       5.937  -0.412   0.000  0.00  0.00    +0.000 C 
BRANCH  14  16
ATOM     15  O   UNL     1       7.366  -0.412   0.000  0.00  0.00    +0.000 OA
ATOM     16  C   UNL     1       6.652  -0.825   0.000  0.00  0.00    +0.000 C 
BRANCH  16  17
ATOM     17  C   UNL     1       6.652  -1.650   0.000  0.00  0.00    +0.000 C 
BRANCH  17  18
ATOM     18  O   UNL     1       7.366  -2.062   0.000  0.00  0.00    +0.000 OA
BRANCH  18  19
ATOM     19  C   UNL     1       7.366  -2.888   0.000  0.00  0.00    +0.000 A 
ATOM     20  C   UNL     1       8.080  -3.300   0.000  0.00  0.00    +0.000 A 
ATOM     21  C   UNL     1       8.080  -4.125   0.000  0.00  0.00    +0.000 A 
ATOM     22  C   UNL     1       6.652  -3.300   0.000  0.00  0.00    +0.000 A 
ATOM     23  C   UNL     1       7.366  -4.538   0.000  0.00  0.00    +0.000 A 
ATOM     24  C   UNL     1       6.652  -4.125   0.000  0.00  0.00    +0.000 A 
ATOM     25  C   UNL     1       8.795  -4.538   0.000  0.00  0.00    +0.000 C 
ENDBRANCH  18  19
ENDBRANCH  17  18
ENDBRANCH  16  17
ENDBRANCH  14  16
ENDBRANCH   1  14
TORSDOF 10
