REMARK  Name = 1296
REMARK  1 active torsions:
REMARK  status: ('A' for Active; 'I' for Inactive)
REMARK    1  A    between atoms: C_10  and  C_12
REMARK                            x       y       z     vdW  Elec       q    Type
REMARK                         _______ _______ _______ _____ _____    ______ ____
ROOT
ATOM      1  O   UNL     1       4.237  -0.078   0.000  0.00  0.00    +0.000 OA
ATOM      2  O   UNL     1       2.093   1.159   0.000  0.00  0.00    +0.000 OA
ATOM      3  O   UNL     1       2.093  -0.491   0.000  0.00  0.00    +0.000 OA
ATOM      4  O   UNL     1       4.951   1.159   0.000  0.00  0.00    +0.000 OA
ATOM      5  N   UNL     1       3.522   1.984   0.000  0.00  0.00    +0.000 NA
ATOM      6  C   UNL     1       2.808   0.747   0.000  0.00  0.00    +0.000 C 
ATOM      7  C   UNL     1       2.808  -0.078   0.000  0.00  0.00    +0.000 C 
ATOM      8  C   UNL     1       3.522   1.159   0.000  0.00  0.00    +0.000 C 
ATOM      9  C   UNL     1       3.522  -0.491   0.000  0.00  0.00    +0.000 C 
ATOM     10  C   UNL     1       4.237   0.747   0.000  0.00  0.00    +0.000 C 
ENDROOT
BRANCH   9  12
ATOM     11  O   UNL     1       4.237  -1.728   0.000  0.00  0.00    +0.000 OA
ATOM     12  C   UNL     1       3.522  -1.316   0.000  0.00  0.00    +0.000 C 
ENDBRANCH   9  12
TORSDOF 1
