REMARK  Name = 1298
REMARK  3 active torsions:
REMARK  status: ('A' for Active; 'I' for Inactive)
REMARK    1  A    between atoms: S_1  and  N_6
REMARK    2  A    between atoms: S_1  and  C_9
REMARK    3  A    between atoms: N_5  and  C_11
REMARK                            x       y       z     vdW  Elec       q    Type
REMARK                         _______ _______ _______ _____ _____    ______ ____
ROOT
ATOM      1  S   UNL     1       3.793   0.982   0.000  0.00  0.00    +0.000 S 
ATOM      2  O   UNL     1       4.206   0.267   0.000  0.00  0.00    +0.000 OA
ATOM      3  O   UNL     1       3.381   1.696   0.000  0.00  0.00    +0.000 OA
ENDROOT
BRANCH   1   6
ATOM      4  O   UNL     1       1.650  -1.906   0.000  0.00  0.00    +0.000 OA
ATOM      5  N   UNL     1       3.079  -1.906   0.000  0.00  0.00    +0.000 N 
ATOM      6  N   UNL     1       3.079   0.569   0.000  0.00  0.00    +0.000 NA
ATOM      7  N   UNL     1       2.365  -0.668   0.000  0.00  0.00    +0.000 NA
ATOM      8  C   UNL     1       3.079  -0.256   0.000  0.00  0.00    +0.000 A 
ATOM      9  C   UNL     1       3.793  -1.493   0.000  0.00  0.00    +0.000 A 
ATOM     10  C   UNL     1       3.793  -0.668   0.000  0.00  0.00    +0.000 A 
ATOM     11  C   UNL     1       2.365  -1.493   0.000  0.00  0.00    +0.000 A 
BRANCH   5  12
ATOM     12  C   UNL     1       3.079  -2.731   0.000  0.00  0.00    +0.000 C 
ATOM     13  C   UNL     1       3.793  -3.143   0.000  0.00  0.00    +0.000 C 
ENDBRANCH   5  12
ENDBRANCH   1   6
BRANCH   1  15
ATOM     14  N   UNL     1       6.652   2.632   0.000  0.00  0.00    +0.000 NA
ATOM     15  C   UNL     1       4.508   1.394   0.000  0.00  0.00    +0.000 A 
ATOM     16  C   UNL     1       5.222   0.982   0.000  0.00  0.00    +0.000 A 
ATOM     17  C   UNL     1       4.508   2.219   0.000  0.00  0.00    +0.000 A 
ATOM     18  C   UNL     1       5.937   1.394   0.000  0.00  0.00    +0.000 A 
ATOM     19  C   UNL     1       5.222   2.632   0.000  0.00  0.00    +0.000 A 
ATOM     20  C   UNL     1       5.937   2.219   0.000  0.00  0.00    +0.000 A 
ENDBRANCH   1  15
TORSDOF 3
