REMARK  Name = 1299
REMARK  5 active torsions:
REMARK  status: ('A' for Active; 'I' for Inactive)
REMARK    1  A    between atoms: S_1  and  N_6
REMARK    2  A    between atoms: S_1  and  C_10
REMARK    3  A    between atoms: O_4  and  C_14
REMARK    4  A    between atoms: O_5  and  C_18
REMARK    5  A    between atoms: N_6  and  C_11
REMARK                            x       y       z     vdW  Elec       q    Type
REMARK                         _______ _______ _______ _____ _____    ______ ____
ROOT
ATOM      1  N   UNL     1       3.793   0.363   0.000  0.00  0.00    +0.000 NA
ENDROOT
BRANCH   1   4
ATOM      2  N   UNL     1       4.508  -0.875   0.000  0.00  0.00    +0.000 NA
ATOM      3  N   UNL     1       3.793  -2.112   0.000  0.00  0.00    +0.000 NA
ATOM      4  C   UNL     1       3.793  -0.462   0.000  0.00  0.00    +0.000 A 
ATOM      5  C   UNL     1       3.079  -0.875   0.000  0.00  0.00    +0.000 A 
ATOM      6  C   UNL     1       3.079  -1.700   0.000  0.00  0.00    +0.000 A 
ATOM      7  C   UNL     1       4.508  -1.700   0.000  0.00  0.00    +0.000 A 
BRANCH   5   8
ATOM      8  O   UNL     1       2.365  -0.462   0.000  0.00  0.00    +0.000 OA
ATOM      9  C   UNL     1       1.650  -0.875   0.000  0.00  0.00    +0.000 C 
ENDBRANCH   5   8
BRANCH   6  10
ATOM     10  O   UNL     1       2.365  -2.112   0.000  0.00  0.00    +0.000 OA
ATOM     11  C   UNL     1       2.365  -2.937   0.000  0.00  0.00    +0.000 C 
ENDBRANCH   6  10
ENDBRANCH   1   4
BRANCH   1  12
ATOM     12  S   UNL     1       4.508   0.775   0.000  0.00  0.00    +0.000 S 
ATOM     13  O   UNL     1       4.920   0.061   0.000  0.00  0.00    +0.000 OA
ATOM     14  O   UNL     1       4.096   1.490   0.000  0.00  0.00    +0.000 OA
BRANCH  12  16
ATOM     15  N   UNL     1       7.366   2.426   0.000  0.00  0.00    +0.000 NA
ATOM     16  C   UNL     1       5.222   1.188   0.000  0.00  0.00    +0.000 A 
ATOM     17  C   UNL     1       5.937   0.775   0.000  0.00  0.00    +0.000 A 
ATOM     18  C   UNL     1       5.222   2.013   0.000  0.00  0.00    +0.000 A 
ATOM     19  C   UNL     1       6.652   1.188   0.000  0.00  0.00    +0.000 A 
ATOM     20  C   UNL     1       5.937   2.426   0.000  0.00  0.00    +0.000 A 
ATOM     21  C   UNL     1       6.652   2.013   0.000  0.00  0.00    +0.000 A 
ENDBRANCH  12  16
ENDBRANCH   1  12
TORSDOF 5
