REMARK  Name = 12U
REMARK  7 active torsions:
REMARK  status: ('A' for Active; 'I' for Inactive)
REMARK    1  A    between atoms: C_2  and  C_14
REMARK    2  A    between atoms: N_3  and  C_4
REMARK    3  A    between atoms: C_4  and  C_5
REMARK    4  A    between atoms: C_8  and  C_9
REMARK    5  A    between atoms: C_19  and  C_21
REMARK    6  A    between atoms: C_21  and  N_22
REMARK    7  A    between atoms: N_22  and  C_23
REMARK                            x       y       z     vdW  Elec       q    Type
REMARK                         _______ _______ _______ _____ _____    ______ ____
ROOT
ATOM      1  C   UNL     1       0.203  -0.779   0.000  0.00  0.00    +0.000 C 
ATOM      2  C   UNL     1       0.871  -1.264   0.000  0.00  0.00    +0.000 C 
ATOM      3  C   UNL     1       0.616  -2.049   0.000  0.00  0.00    +0.000 C 
ATOM      4  C   UNL     1      -0.209  -2.049   0.000  0.00  0.00    +0.000 C 
ATOM      5  N   UNL     1      -0.464  -1.264   0.000  0.00  0.00    +0.000 N 
ATOM      6  C   UNL     1      -1.249  -1.009   0.000  0.00  0.00    +0.000 C 
ATOM      7  O   UNL     1      -1.862  -1.561   0.000  0.00  0.00    +0.000 OA
ENDROOT
BRANCH   1   9
ATOM      8  O   UNL     1      -0.511   0.458   0.000  0.00  0.00    +0.000 OA
ATOM      9  C   UNL     1       0.203   0.046   0.000  0.00  0.00    +0.000 C 
ATOM     10  N   UNL     1       0.917   0.458   0.000  0.00  0.00    +0.000 NA
BRANCH  10  11
ATOM     11  C   UNL     1       0.917   1.283   0.000  0.00  0.00    +0.000 C 
BRANCH  11  12
ATOM     12  C   UNL     1       1.632   1.696   0.000  0.00  0.00    +0.000 A 
ATOM     13  C   UNL     1       1.632   2.521   0.000  0.00  0.00    +0.000 A 
ATOM     14  C   UNL     1       2.346   2.933   0.000  0.00  0.00    +0.000 A 
ATOM     15  C   UNL     1       3.061   2.521   0.000  0.00  0.00    +0.000 A 
ATOM     16  C   UNL     1       3.061   1.696   0.000  0.00  0.00    +0.000 A 
ATOM     17  C   UNL     1       2.346   1.283   0.000  0.00  0.00    +0.000 A 
BRANCH  15  18
ATOM     18  C   UNL     1       3.775   2.933   0.000  0.00  0.00    +0.000 C 
ATOM     19  N   UNL     1       4.490   2.521   0.000  0.00  0.00    +0.000 NA
ATOM     20  N   UNL     1       3.775   3.758   0.000  0.00  0.00    +0.000 NA
ENDBRANCH  15  18
ENDBRANCH  11  12
ENDBRANCH  10  11
ENDBRANCH   1   9
BRANCH   6  21
ATOM     21  C   UNL     1      -1.421  -0.202   0.000  0.00  0.00    +0.000 C 
BRANCH  21  22
ATOM     22  N   UNL     1      -2.205   0.053   0.000  0.00  0.00    +0.000 NA
BRANCH  22  23
ATOM     23  C   UNL     1      -2.818  -0.499   0.000  0.00  0.00    +0.000 C 
ATOM     24  C   UNL     1      -2.587  -1.291   0.000  0.00  0.00    +0.000 C 
ATOM     25  C   UNL     1      -3.062  -1.966   0.000  0.00  0.00    +0.000 C 
ATOM     26  C   UNL     1      -3.885  -2.015   0.000  0.00  0.00    +0.000 C 
ATOM     27  C   UNL     1      -4.437  -1.402   0.000  0.00  0.00    +0.000 C 
ATOM     28  C   UNL     1      -4.302  -0.588   0.000  0.00  0.00    +0.000 C 
ATOM     29  C   UNL     1      -3.582  -0.186   0.000  0.00  0.00    +0.000 C 
ENDBRANCH  22  23
ENDBRANCH  21  22
ENDBRANCH   6  21
TORSDOF 7
