REMARK  Name = 130
REMARK  3 active torsions:
REMARK  status: ('A' for Active; 'I' for Inactive)
REMARK    1  A    between atoms: C_1  and  C_7
REMARK    2  A    between atoms: C_12  and  C_13
REMARK    3  A    between atoms: C_17  and  C_20
REMARK                            x       y       z     vdW  Elec       q    Type
REMARK                         _______ _______ _______ _____ _____    ______ ____
ROOT
ATOM      1  C   UNL     1      -0.678  -0.707   0.000  0.00  0.00    +0.000 A 
ATOM      2  C   UNL     1      -1.091  -1.422   0.000  0.00  0.00    +0.000 A 
ATOM      3  C   UNL     1      -1.915  -1.422   0.000  0.00  0.00    +0.000 A 
ATOM      4  C   UNL     1      -2.328  -0.707   0.000  0.00  0.00    +0.000 A 
ATOM      5  C   UNL     1      -1.915   0.007   0.000  0.00  0.00    +0.000 A 
ATOM      6  C   UNL     1      -1.091   0.007   0.000  0.00  0.00    +0.000 A 
ATOM      7  O   UNL     1      -0.678   0.722   0.000  0.00  0.00    +0.000 OA
ENDROOT
BRANCH   1  16
ATOM      8  C   UNL     1       2.845  -0.295   0.000  0.00  0.00    +0.000 A 
ATOM      9  C   UNL     1       2.845  -1.120   0.000  0.00  0.00    +0.000 A 
ATOM     10  C   UNL     1       2.131  -1.532   0.000  0.00  0.00    +0.000 A 
ATOM     11  C   UNL     1       1.417  -1.120   0.000  0.00  0.00    +0.000 A 
ATOM     12  C   UNL     1       1.417  -0.295   0.000  0.00  0.00    +0.000 A 
ATOM     13  C   UNL     1       2.131   0.118   0.000  0.00  0.00    +0.000 A 
ATOM     14  N   UNL     1       0.632  -1.375   0.000  0.00  0.00    +0.000 NA
ATOM     15  N   UNL     1       0.632  -0.040   0.000  0.00  0.00    +0.000 NA
ATOM     16  C   UNL     1       0.147  -0.707   0.000  0.00  0.00    +0.000 A 
BRANCH   8  17
ATOM     17  C   UNL     1       3.560   0.118   0.000  0.00  0.00    +0.000 C 
ATOM     18  N   UNL     1       4.274  -0.295   0.000  0.00  0.00    +0.000 NA
ATOM     19  N   UNL     1       3.560   0.943   0.000  0.00  0.00    +0.000 NA
ENDBRANCH   8  17
ENDBRANCH   1  16
BRANCH   5  20
ATOM     20  C   UNL     1      -2.328   0.722   0.000  0.00  0.00    +0.000 A 
ATOM     21  C   UNL     1      -3.153   0.722   0.000  0.00  0.00    +0.000 A 
ATOM     22  C   UNL     1      -3.566   1.436   0.000  0.00  0.00    +0.000 A 
ATOM     23  C   UNL     1      -3.153   2.151   0.000  0.00  0.00    +0.000 A 
ATOM     24  C   UNL     1      -2.328   2.151   0.000  0.00  0.00    +0.000 A 
ATOM     25  C   UNL     1      -1.915   1.436   0.000  0.00  0.00    +0.000 A 
ENDBRANCH   5  20
TORSDOF 3
