REMARK  Name = 131
REMARK  4 active torsions:
REMARK  status: ('A' for Active; 'I' for Inactive)
REMARK    1  A    between atoms: P_1  and  O_5
REMARK    2  A    between atoms: O_5  and  C_18
REMARK    3  A    between atoms: N_9  and  C_16
REMARK    4  A    between atoms: C_17  and  C_18
REMARK                            x       y       z     vdW  Elec       q    Type
REMARK                         _______ _______ _______ _____ _____    ______ ____
ROOT
ATOM      1  O   UNL     1       4.901   0.681   0.000  0.00  0.00    +0.000 OA
ATOM      2  O   UNL     1       2.807   1.097   0.000  0.00  0.00    +0.000 OA
ATOM      3  O   UNL     1       3.865   2.547   0.000  0.00  0.00    +0.000 OA
ATOM      4  C   UNL     1       3.632   1.095   0.000  0.00  0.00    +0.000 C 
ATOM      5  C   UNL     1       4.118   1.762   0.000  0.00  0.00    +0.000 C 
ATOM      6  C   UNL     1       4.116   0.427   0.000  0.00  0.00    +0.000 C 
ATOM      7  C   UNL     1       4.902   1.506   0.000  0.00  0.00    +0.000 C 
ENDROOT
BRANCH   6   8
ATOM      8  N   UNL     1       3.860  -0.357   0.000  0.00  0.00    +0.000 N 
ATOM      9  N   UNL     1       3.860  -1.685   0.000  0.00  0.00    +0.000 NA
ATOM     10  N   UNL     1       2.365  -0.196   0.000  0.00  0.00    +0.000 NA
ATOM     11  N   UNL     1       1.650  -1.433   0.000  0.00  0.00    +0.000 NA
ATOM     12  N   UNL     1       2.365  -2.671   0.000  0.00  0.00    +0.000 NA
ATOM     13  C   UNL     1       3.079  -0.608   0.000  0.00  0.00    +0.000 A 
ATOM     14  C   UNL     1       4.341  -1.021   0.000  0.00  0.00    +0.000 A 
ATOM     15  C   UNL     1       3.079  -1.433   0.000  0.00  0.00    +0.000 A 
ATOM     16  C   UNL     1       2.365  -1.846   0.000  0.00  0.00    +0.000 A 
ATOM     17  C   UNL     1       1.650  -0.608   0.000  0.00  0.00    +0.000 A 
ENDBRANCH   6   8
BRANCH   7  18
ATOM     18  C   UNL     1       5.571   1.990   0.000  0.00  0.00    +0.000 C 
BRANCH  18  19
ATOM     19  O   UNL     1       6.324   1.653   0.000  0.00  0.00    +0.000 OA
BRANCH  19  20
ATOM     20  P   UNL     1       6.992   2.136   0.000  0.00  0.00    +0.000 P 
ATOM     21  O   UNL     1       7.476   1.468   0.000  0.00  0.00    +0.000 OA
ATOM     22  O   UNL     1       7.660   2.620   0.000  0.00  0.00    +0.000 OA
ATOM     23  O   UNL     1       6.508   2.805   0.000  0.00  0.00    +0.000 OA
ENDBRANCH  19  20
ENDBRANCH  18  19
ENDBRANCH   7  18
TORSDOF 4
