REMARK  Name = 1319
REMARK  14 active torsions:
REMARK  status: ('A' for Active; 'I' for Inactive)
REMARK    1  A    between atoms: S_1  and  N_12
REMARK    2  A    between atoms: S_1  and  C_23
REMARK    3  A    between atoms: P_2  and  O_3
REMARK    4  A    between atoms: O_3  and  C_15
REMARK    5  A    between atoms: O_4  and  C_22
REMARK    6  A    between atoms: O_4  and  C_27
REMARK    7  A    between atoms: N_12  and  C_17
REMARK    8  A    between atoms: N_12  and  C_18
REMARK    9  A    between atoms: N_13  and  C_16
REMARK   10  A    between atoms: C_15  and  C_16
REMARK   11  A    between atoms: C_15  and  C_17
REMARK   12  A    between atoms: C_16  and  C_19
REMARK   13  A    between atoms: C_18  and  C_20
REMARK   14  A    between atoms: C_19  and  C_21
REMARK                            x       y       z     vdW  Elec       q    Type
REMARK                         _______ _______ _______ _____ _____    ______ ____
ROOT
ATOM      1  C   UNL     1       4.508   0.869   0.000  0.00  0.00    +0.000 C 
ENDROOT
BRANCH   1   2
ATOM      2  O   UNL     1       3.793   1.282   0.000  0.00  0.00    +0.000 OA
BRANCH   2   3
ATOM      3  P   UNL     1       3.381   1.996   0.000  0.00  0.00    +0.000 P 
ATOM      4  O   UNL     1       2.969   2.711   0.000  0.00  0.00    +0.000 OA
ATOM      5  O   UNL     1       2.667   1.584   0.000  0.00  0.00    +0.000 OA
ATOM      6  O   UNL     1       4.096   2.409   0.000  0.00  0.00    +0.000 OA
ENDBRANCH   2   3
ENDBRANCH   1   2
BRANCH   1   7
ATOM      7  C   UNL     1       5.222   1.282   0.000  0.00  0.00    +0.000 C 
BRANCH   7   9
ATOM      8  O   UNL     1       6.652   2.107   0.000  0.00  0.00    +0.000 OA
ATOM      9  N   UNL     1       5.222   2.107   0.000  0.00  0.00    +0.000 NA
ATOM     10  C   UNL     1       5.937   2.519   0.000  0.00  0.00    +0.000 C 
BRANCH  10  11
ATOM     11  O   UNL     1       5.937   3.345   0.000  0.00  0.00    +0.000 OA
BRANCH  11  13
ATOM     12  O   UNL     1       7.545   4.749   0.000  0.00  0.00    +0.000 OA
ATOM     13  C   UNL     1       6.652   3.757   0.000  0.00  0.00    +0.000 C 
ATOM     14  C   UNL     1       7.405   3.421   0.000  0.00  0.00    +0.000 C 
ATOM     15  C   UNL     1       6.738   4.577   0.000  0.00  0.00    +0.000 C 
ATOM     16  C   UNL     1       7.957   4.035   0.000  0.00  0.00    +0.000 C 
ENDBRANCH  11  13
ENDBRANCH  10  11
ENDBRANCH   7   9
BRANCH   7  17
ATOM     17  C   UNL     1       5.937   0.869   0.000  0.00  0.00    +0.000 C 
BRANCH  17  18
ATOM     18  C   UNL     1       5.937   0.044   0.000  0.00  0.00    +0.000 A 
ATOM     19  C   UNL     1       5.222  -0.368   0.000  0.00  0.00    +0.000 A 
ATOM     20  C   UNL     1       6.652  -0.368   0.000  0.00  0.00    +0.000 A 
ATOM     21  C   UNL     1       5.222  -1.193   0.000  0.00  0.00    +0.000 A 
ATOM     22  C   UNL     1       6.652  -1.193   0.000  0.00  0.00    +0.000 A 
ATOM     23  C   UNL     1       5.937  -1.606   0.000  0.00  0.00    +0.000 A 
ENDBRANCH  17  18
ENDBRANCH   7  17
ENDBRANCH   1   7
BRANCH   1  24
ATOM     24  C   UNL     1       4.508   0.044   0.000  0.00  0.00    +0.000 C 
BRANCH  24  25
ATOM     25  N   UNL     1       3.793  -0.368   0.000  0.00  0.00    +0.000 NA
BRANCH  25  26
ATOM     26  S   UNL     1       3.793  -1.193   0.000  0.00  0.00    +0.000 S 
ATOM     27  O   UNL     1       4.619  -1.193   0.000  0.00  0.00    +0.000 OA
ATOM     28  O   UNL     1       2.969  -1.193   0.000  0.00  0.00    +0.000 OA
BRANCH  26  30
ATOM     29  N   UNL     1       3.793  -4.493   0.000  0.00  0.00    +0.000 NA
ATOM     30  C   UNL     1       3.793  -2.018   0.000  0.00  0.00    +0.000 A 
ATOM     31  C   UNL     1       3.079  -2.431   0.000  0.00  0.00    +0.000 A 
ATOM     32  C   UNL     1       4.508  -2.431   0.000  0.00  0.00    +0.000 A 
ATOM     33  C   UNL     1       3.079  -3.256   0.000  0.00  0.00    +0.000 A 
ATOM     34  C   UNL     1       4.508  -3.256   0.000  0.00  0.00    +0.000 A 
ATOM     35  C   UNL     1       3.793  -3.668   0.000  0.00  0.00    +0.000 A 
ENDBRANCH  26  30
ENDBRANCH  25  26
BRANCH  25  36
ATOM     36  C   UNL     1       3.079   0.044   0.000  0.00  0.00    +0.000 C 
BRANCH  36  37
ATOM     37  C   UNL     1       2.365  -0.368   0.000  0.00  0.00    +0.000 C 
ATOM     38  C   UNL     1       1.650   0.044   0.000  0.00  0.00    +0.000 C 
ATOM     39  C   UNL     1       2.365  -1.193   0.000  0.00  0.00    +0.000 C 
ENDBRANCH  36  37
ENDBRANCH  25  36
ENDBRANCH  24  25
ENDBRANCH   1  24
TORSDOF 14
