REMARK  Name = 132
REMARK  3 active torsions:
REMARK  status: ('A' for Active; 'I' for Inactive)
REMARK    1  A    between atoms: C_1  and  C_7
REMARK    2  A    between atoms: C_12  and  C_13
REMARK    3  A    between atoms: C_17  and  C_20
REMARK                            x       y       z     vdW  Elec       q    Type
REMARK                         _______ _______ _______ _____ _____    ______ ____
ROOT
ATOM      1  C   UNL     1       3.014  -0.213   0.000  0.00  0.00    +0.000 A 
ATOM      2  C   UNL     1       3.014  -1.038   0.000  0.00  0.00    +0.000 A 
ATOM      3  C   UNL     1       2.299  -1.451   0.000  0.00  0.00    +0.000 A 
ATOM      4  C   UNL     1       1.585  -1.038   0.000  0.00  0.00    +0.000 A 
ATOM      5  C   UNL     1       1.585  -0.213   0.000  0.00  0.00    +0.000 A 
ATOM      6  C   UNL     1       2.299   0.199   0.000  0.00  0.00    +0.000 A 
ATOM      7  N   UNL     1       0.800  -1.293   0.000  0.00  0.00    +0.000 NA
ATOM      8  C   UNL     1       0.800   0.042   0.000  0.00  0.00    +0.000 A 
ATOM      9  C   UNL     1       0.315  -0.626   0.000  0.00  0.00    +0.000 A 
ATOM     10 CL   UNL     1       3.728  -1.451   0.000  0.00  0.00    +0.000 Cl
ENDROOT
BRANCH   9  11
ATOM     11  C   UNL     1      -0.510  -0.626   0.000  0.00  0.00    +0.000 A 
ATOM     12  C   UNL     1      -0.922  -1.340   0.000  0.00  0.00    +0.000 A 
ATOM     13  C   UNL     1      -1.747  -1.340   0.000  0.00  0.00    +0.000 A 
ATOM     14  C   UNL     1      -2.160  -0.626   0.000  0.00  0.00    +0.000 A 
ATOM     15  C   UNL     1      -1.747   0.088   0.000  0.00  0.00    +0.000 A 
ATOM     16  C   UNL     1      -0.922   0.088   0.000  0.00  0.00    +0.000 A 
ATOM     17  O   UNL     1      -0.510   0.803   0.000  0.00  0.00    +0.000 OA
BRANCH  15  18
ATOM     18  C   UNL     1      -2.160   0.803   0.000  0.00  0.00    +0.000 A 
ATOM     19  C   UNL     1      -2.985   0.803   0.000  0.00  0.00    +0.000 A 
ATOM     20  C   UNL     1      -3.397   1.518   0.000  0.00  0.00    +0.000 A 
ATOM     21  C   UNL     1      -2.985   2.232   0.000  0.00  0.00    +0.000 A 
ATOM     22  C   UNL     1      -2.160   2.232   0.000  0.00  0.00    +0.000 A 
ATOM     23  C   UNL     1      -1.747   1.518   0.000  0.00  0.00    +0.000 A 
ENDBRANCH  15  18
ENDBRANCH   9  11
BRANCH   1  24
ATOM     24  C   UNL     1       3.728   0.199   0.000  0.00  0.00    +0.000 C 
ATOM     25  N   UNL     1       4.443  -0.213   0.000  0.00  0.00    +0.000 NA
ATOM     26  N   UNL     1       3.728   1.024   0.000  0.00  0.00    +0.000 NA
ENDBRANCH   1  24
TORSDOF 3
