REMARK  Name = 1320
REMARK  5 active torsions:
REMARK  status: ('A' for Active; 'I' for Inactive)
REMARK    1  A    between atoms: P_1  and  O_3
REMARK    2  A    between atoms: O_3  and  C_15
REMARK    3  A    between atoms: N_9  and  C_15
REMARK    4  A    between atoms: C_10  and  C_12
REMARK    5  A    between atoms: C_10  and  C_13
REMARK                            x       y       z     vdW  Elec       q    Type
REMARK                         _______ _______ _______ _____ _____    ______ ____
ROOT
ATOM      1  O   UNL     1       5.411  -0.926   0.000  0.00  0.00    +0.000 OA
ATOM      2  O   UNL     1       4.513   1.836   0.000  0.00  0.00    +0.000 OA
ATOM      3  N   UNL     1       3.846   0.526   0.000  0.00  0.00    +0.000 NA
ATOM      4  N   UNL     1       5.181   0.526   0.000  0.00  0.00    +0.000 N 
ATOM      5  C   UNL     1       4.101  -0.259   0.000  0.00  0.00    +0.000 C 
ATOM      6  C   UNL     1       4.926  -0.259   0.000  0.00  0.00    +0.000 C 
ATOM      7  C   UNL     1       4.513   1.011   0.000  0.00  0.00    +0.000 C 
ENDROOT
BRANCH   5   8
ATOM      8  C   UNL     1       4.101  -1.084   0.000  0.00  0.00    +0.000 A 
ATOM      9  C   UNL     1       4.816  -1.496   0.000  0.00  0.00    +0.000 A 
ATOM     10  C   UNL     1       3.386  -1.496   0.000  0.00  0.00    +0.000 A 
ATOM     11  C   UNL     1       4.816  -2.321   0.000  0.00  0.00    +0.000 A 
ATOM     12  C   UNL     1       3.386  -2.321   0.000  0.00  0.00    +0.000 A 
ATOM     13  C   UNL     1       4.101  -2.734   0.000  0.00  0.00    +0.000 A 
ENDBRANCH   5   8
BRANCH   5  14
ATOM     14  C   UNL     1       3.284  -0.373   0.000  0.00  0.00    +0.000 A 
ATOM     15  C   UNL     1       2.975  -1.139   0.000  0.00  0.00    +0.000 A 
ATOM     16  C   UNL     1       2.776   0.277   0.000  0.00  0.00    +0.000 A 
ATOM     17  C   UNL     1       2.158  -1.253   0.000  0.00  0.00    +0.000 A 
ATOM     18  C   UNL     1       1.959   0.162   0.000  0.00  0.00    +0.000 A 
ATOM     19  C   UNL     1       1.650  -0.603   0.000  0.00  0.00    +0.000 A 
ENDBRANCH   5  14
BRANCH   4  20
ATOM     20  C   UNL     1       5.966   0.781   0.000  0.00  0.00    +0.000 C 
BRANCH  20  21
ATOM     21  O   UNL     1       6.137   1.588   0.000  0.00  0.00    +0.000 OA
BRANCH  21  22
ATOM     22  P   UNL     1       6.922   1.843   0.000  0.00  0.00    +0.000 P 
ATOM     23  O   UNL     1       6.667   2.627   0.000  0.00  0.00    +0.000 OA
ATOM     24  O   UNL     1       7.706   2.098   0.000  0.00  0.00    +0.000 OA
ATOM     25  O   UNL     1       7.177   1.058   0.000  0.00  0.00    +0.000 OA
ENDBRANCH  21  22
ENDBRANCH  20  21
ENDBRANCH   4  20
TORSDOF 5
