REMARK  Name = 1325
REMARK  2 active torsions:
REMARK  status: ('A' for Active; 'I' for Inactive)
REMARK    1  A    between atoms: S_2  and  C_15
REMARK    2  A    between atoms: C_9  and  C_11
REMARK                            x       y       z     vdW  Elec       q    Type
REMARK                         _______ _______ _______ _____ _____    ______ ____
ROOT
ATOM      1 CL   UNL     1       6.705   1.062   0.000  0.00  0.00    +0.000 Cl
ATOM      2  O   UNL     1       3.793  -1.432   0.000  0.00  0.00    +0.000 OA
ATOM      3  N   UNL     1       3.793   1.042   0.000  0.00  0.00    +0.000 NA
ATOM      4  N   UNL     1       3.079  -0.195   0.000  0.00  0.00    +0.000 NA
ATOM      5  C   UNL     1       3.079   0.630   0.000  0.00  0.00    +0.000 C 
ATOM      6  C   UNL     1       4.507   0.630   0.000  0.00  0.00    +0.000 A 
ATOM      7  C   UNL     1       4.507  -0.195   0.000  0.00  0.00    +0.000 A 
ATOM      8  C   UNL     1       3.793  -0.607   0.000  0.00  0.00    +0.000 C 
ATOM      9  C   UNL     1       5.245  -0.636   0.000  0.00  0.00    +0.000 A 
ATOM     10  C   UNL     1       5.992  -0.212   0.000  0.00  0.00    +0.000 A 
ATOM     11  C   UNL     1       5.245   1.071   0.000  0.00  0.00    +0.000 A 
ATOM     12  C   UNL     1       5.992   0.647   0.000  0.00  0.00    +0.000 A 
ENDROOT
BRANCH  10  13
ATOM     13  S   UNL     1       6.705  -0.627   0.000  0.00  0.00    +0.000 S 
ATOM     14  O   UNL     1       7.120   0.086   0.000  0.00  0.00    +0.000 OA
ATOM     15  O   UNL     1       6.290  -1.340   0.000  0.00  0.00    +0.000 OA
ATOM     16  N   UNL     1       7.418  -1.042   0.000  0.00  0.00    +0.000 NA
ENDBRANCH  10  13
BRANCH   5  17
ATOM     17  C   UNL     1       2.364   1.042   0.000  0.00  0.00    +0.000 C 
ATOM     18  C   UNL     1       1.650   0.630   0.000  0.00  0.00    +0.000 C 
ENDBRANCH   5  17
TORSDOF 2
