REMARK  Name = 1326
REMARK  7 active torsions:
REMARK  status: ('A' for Active; 'I' for Inactive)
REMARK    1  A    between atoms: S_2  and  C_20
REMARK    2  A    between atoms: S_2  and  C_25
REMARK    3  A    between atoms: N_9  and  CA_15
REMARK    4  A    between atoms: CA_17  and  C_22
REMARK    5  A    between atoms: C_18  and  C_20
REMARK    6  A    between atoms: C_21  and  C_23
REMARK    7  A    between atoms: C_23  and  C_24
REMARK                            x       y       z     vdW  Elec       q    Type
REMARK                         _______ _______ _______ _____ _____    ______ ____
ROOT
ATOM      1  S   UNL     1       5.814  -0.846   0.000  0.00  0.00    +0.000 S 
ATOM      2  O   UNL     1       7.942   0.980   0.000  0.00  0.00    +0.000 OA
ATOM      3  N   UNL     1       6.528   0.392   0.000  0.00  0.00    +0.000 N 
ATOM      4  C   UNL     1       6.528  -0.433   0.000  0.00  0.00    +0.000 C 
ATOM      5  CA  UNL     1       7.360  -0.437   0.000  0.00  0.00    +0.000 C 
ATOM      6  C   UNL     1       7.360   0.395   0.000  0.00  0.00    +0.000 C 
ATOM      7  CA  UNL     1       5.814   0.804   0.000  0.00  0.00    +0.000 C 
ATOM      8  C   UNL     1       5.099   0.392   0.000  0.00  0.00    +0.000 C 
ATOM      9  C   UNL     1       5.099  -0.433   0.000  0.00  0.00    +0.000 C 
ENDROOT
BRANCH   7  12
ATOM     10  O   UNL     1       5.099   2.042   0.000  0.00  0.00    +0.000 OA
ATOM     11  OXT UNL     1       6.528   2.042   0.000  0.00  0.00    +0.000 OA
ATOM     12  C   UNL     1       5.814   1.629   0.000  0.00  0.00    +0.000 C 
ENDBRANCH   7  12
BRANCH   5  14
ATOM     13  O   UNL     1       8.955  -0.013   0.000  0.00  0.00    +0.000 OA
ATOM     14  N   UNL     1       7.942  -1.021   0.000  0.00  0.00    +0.000 NA
ATOM     15  C   UNL     1       8.739  -0.810   0.000  0.00  0.00    +0.000 C 
BRANCH  15  17
ATOM     16  O   UNL     1       9.106  -2.191   0.000  0.00  0.00    +0.000 OA
ATOM     17  C   UNL     1       9.322  -1.394   0.000  0.00  0.00    +0.000 C 
BRANCH  17  18
ATOM     18  C   UNL     1      10.119  -1.182   0.000  0.00  0.00    +0.000 A 
ATOM     19  C   UNL     1      10.334  -0.386   0.000  0.00  0.00    +0.000 A 
ATOM     20  C   UNL     1      10.701  -1.767   0.000  0.00  0.00    +0.000 A 
ATOM     21  C   UNL     1      11.131  -0.174   0.000  0.00  0.00    +0.000 A 
ATOM     22  C   UNL     1      11.498  -1.555   0.000  0.00  0.00    +0.000 A 
ATOM     23  C   UNL     1      11.714  -0.758   0.000  0.00  0.00    +0.000 A 
ENDBRANCH  17  18
ENDBRANCH  15  17
ENDBRANCH   5  14
BRANCH   8  24
ATOM     24  C   UNL     1       4.385   0.804   0.000  0.00  0.00    +0.000 C 
BRANCH  24  25
ATOM     25  S   UNL     1       3.670   0.392   0.000  0.00  0.00    +0.000 S 
BRANCH  25  30
ATOM     26  N   UNL     1       2.202   0.468   0.000  0.00  0.00    +0.000 N 
ATOM     27  N   UNL     1       2.869   1.625   0.000  0.00  0.00    +0.000 NA
ATOM     28  N   UNL     1       1.650   1.082   0.000  0.00  0.00    +0.000 NA
ATOM     29  N   UNL     1       2.062   1.796   0.000  0.00  0.00    +0.000 NA
ATOM     30  C   UNL     1       2.956   0.804   0.000  0.00  0.00    +0.000 A 
ATOM     31  C   UNL     1       2.030  -0.339   0.000  0.00  0.00    +0.000 C 
ENDBRANCH  25  30
ENDBRANCH  24  25
ENDBRANCH   8  24
TORSDOF 7
