REMARK  Name = 1332
REMARK  5 active torsions:
REMARK  status: ('A' for Active; 'I' for Inactive)
REMARK    1  A    between atoms: O_7  and  N_10
REMARK    2  A    between atoms: N_9  and  CA_14
REMARK    3  A    between atoms: CA_16  and  C_20
REMARK    4  A    between atoms: C_19  and  C_21
REMARK    5  A    between atoms: C_21  and  C_22
REMARK                            x       y       z     vdW  Elec       q    Type
REMARK                         _______ _______ _______ _____ _____    ______ ____
ROOT
ATOM      1  O   UNK A   0       5.505   0.310   0.000  0.00  0.00    +0.000 OA
ATOM      2  N   MET A   1       4.493  -0.699   0.000  0.00  0.00    +0.000 NA
ATOM      3  C   UNK A   0       5.290  -0.487   0.000  0.00  0.00    +0.000 C 
ENDROOT
BRANCH   2   8
ATOM      4  SD  MET A   1       2.364  -0.523   0.000  0.00  0.00    +0.000 S 
ATOM      5  O   MET A   1       4.493   1.302   0.000  0.00  0.00    +0.000 OA
ATOM      6  N   MET A   1       3.079   0.714   0.000  0.00  0.00    +0.000 N 
ATOM      7  CE  MET A   1       3.079  -0.111   0.000  0.00  0.00    +0.000 C 
ATOM      8  CA  MET A   1       3.911  -0.114   0.000  0.00  0.00    +0.000 C 
ATOM      9  C   MET A   1       3.911   0.718   0.000  0.00  0.00    +0.000 C 
ATOM     10  CA  MET A   1       2.364   1.127   0.000  0.00  0.00    +0.000 C 
ATOM     11  CG  MET A   1       1.650  -0.111   0.000  0.00  0.00    +0.000 C 
ATOM     12  CB  MET A   1       1.650   0.714   0.000  0.00  0.00    +0.000 C 
BRANCH  10  15
ATOM     13  O   MET A   1       1.650   2.364   0.000  0.00  0.00    +0.000 OA
ATOM     14  OXT MET A   1       3.079   2.364   0.000  0.00  0.00    +0.000 OA
ATOM     15  C   MET A   1       2.364   1.952   0.000  0.00  0.00    +0.000 C 
ENDBRANCH  10  15
ENDBRANCH   2   8
BRANCH   3  17
ATOM     16  N   UNK A   0       5.657  -1.868   0.000  0.00  0.00    +0.000 NA
ATOM     17  C   UNK A   0       5.872  -1.071   0.000  0.00  0.00    +0.000 C 
BRANCH  17  21
ATOM     18  S   UNK A   0       8.003  -0.932   0.000  0.00  0.00    +0.000 S 
ATOM     19  N   UNK A   0       6.967  -0.090   0.000  0.00  0.00    +0.000 NA
ATOM     20  N   UNK A   0       8.311   0.505   0.000  0.00  0.00    +0.000 NA
ATOM     21  C   UNK A   0       6.670  -0.859   0.000  0.00  0.00    +0.000 A 
ATOM     22  C   UNK A   0       7.310  -1.380   0.000  0.00  0.00    +0.000 A 
ATOM     23  C   UNK A   0       7.791  -0.135   0.000  0.00  0.00    +0.000 A 
ENDBRANCH  17  21
BRANCH  16  24
ATOM     24  O   UNK A   0       4.860  -2.079   0.000  0.00  0.00    +0.000 OA
ATOM     25  C   UNK A   0       4.645  -2.876   0.000  0.00  0.00    +0.000 C 
ENDBRANCH  16  24
ENDBRANCH   3  17
TORSDOF 5
