REMARK  Name = 1333
REMARK  4 active torsions:
REMARK  status: ('A' for Active; 'I' for Inactive)
REMARK    1  A    between atoms: N_7  and  CA_10
REMARK    2  A    between atoms: CA_12  and  C_18
REMARK    3  A    between atoms: C_15  and  CA_16
REMARK    4  A    between atoms: CA_16  and  C_19
REMARK                            x       y       z     vdW  Elec       q    Type
REMARK                         _______ _______ _______ _____ _____    ______ ____
ROOT
ATOM      1  S   UNL     1       3.079  -0.846   0.000  0.00  0.00    +0.000 S 
ATOM      2  O   UNL     1       5.207   0.980   0.000  0.00  0.00    +0.000 OA
ATOM      3  N   UNL     1       3.793   0.392   0.000  0.00  0.00    +0.000 N 
ATOM      4  C   UNL     1       3.793  -0.433   0.000  0.00  0.00    +0.000 C 
ATOM      5  CA  UNL     1       4.625  -0.437   0.000  0.00  0.00    +0.000 C 
ATOM      6  C   UNL     1       4.625   0.395   0.000  0.00  0.00    +0.000 C 
ATOM      7  CA  UNL     1       3.079   0.804   0.000  0.00  0.00    +0.000 C 
ATOM      8  C   UNL     1       2.365  -0.433   0.000  0.00  0.00    +0.000 C 
ATOM      9  C   UNL     1       2.365   0.392   0.000  0.00  0.00    +0.000 C 
ATOM     10  C   UNL     1       1.650   0.804   0.000  0.00  0.00    +0.000 C 
ENDROOT
BRANCH   5  12
ATOM     11  O   UNL     1       6.220  -0.013   0.000  0.00  0.00    +0.000 OA
ATOM     12  N   UNL     1       5.207  -1.021   0.000  0.00  0.00    +0.000 NA
ATOM     13  C   UNL     1       6.005  -0.810   0.000  0.00  0.00    +0.000 C 
BRANCH  13  15
ATOM     14  N   UNL     1       6.372  -2.191   0.000  0.00  0.00    +0.000 NA
ATOM     15  CA  UNL     1       6.587  -1.394   0.000  0.00  0.00    +0.000 C 
BRANCH  15  16
ATOM     16  C   UNL     1       7.384  -1.182   0.000  0.00  0.00    +0.000 C 
ATOM     17  C   UNL     1       7.599  -0.386   0.000  0.00  0.00    +0.000 C 
ATOM     18  C   UNL     1       7.966  -1.767   0.000  0.00  0.00    +0.000 C 
ATOM     19  C   UNL     1       8.764  -1.555   0.000  0.00  0.00    +0.000 C 
ATOM     20  C   UNL     1       8.397  -0.174   0.000  0.00  0.00    +0.000 C 
ATOM     21  C   UNL     1       8.979  -0.758   0.000  0.00  0.00    +0.000 C 
ENDBRANCH  15  16
ENDBRANCH  13  15
ENDBRANCH   5  12
BRANCH   7  24
ATOM     22  O   UNL     1       2.365   2.042   0.000  0.00  0.00    +0.000 OA
ATOM     23  OXT UNL     1       3.793   2.042   0.000  0.00  0.00    +0.000 OA
ATOM     24  C   UNL     1       3.079   1.629   0.000  0.00  0.00    +0.000 C 
ENDBRANCH   7  24
TORSDOF 4
