REMARK  Name = 1336
REMARK  4 active torsions:
REMARK  status: ('A' for Active; 'I' for Inactive)
REMARK    1  A    between atoms: O_3  and  C_31
REMARK    2  A    between atoms: O_4  and  C_33
REMARK    3  A    between atoms: O_5  and  C_34
REMARK    4  A    between atoms: O_6  and  C_44
REMARK                            x       y       z     vdW  Elec       q    Type
REMARK                         _______ _______ _______ _____ _____    ______ ____
ROOT
ATOM      1  O   UNL     1       4.630   1.172   0.000  0.00  0.00    +0.000 OA
ATOM      2  O   UNL     1       6.048  -1.845   0.000  0.00  0.00    +0.000 OA
ATOM      3  N   UNL     1       6.560   2.381   0.000  0.00  0.00    +0.000 N 
ATOM      4  N   UNL     1       2.480  -3.022   0.000  0.00  0.00    +0.000 N 
ATOM      5  C   UNL     1       5.845   1.969   0.000  0.00  0.00    +0.000 C 
ATOM      6  C   UNL     1       3.114  -2.493   0.000  0.00  0.00    +0.000 C 
ATOM      7  C   UNL     1       6.560   3.207   0.000  0.00  0.00    +0.000 C 
ATOM      8  C   UNL     1       2.620  -3.835   0.000  0.00  0.00    +0.000 C 
ATOM      9  C   UNL     1       5.131   2.381   0.000  0.00  0.00    +0.000 A 
ATOM     10  C   UNL     1       5.845   3.619   0.000  0.00  0.00    +0.000 C 
ATOM     11  C   UNL     1       3.888  -2.778   0.000  0.00  0.00    +0.000 A 
ATOM     12  C   UNL     1       5.632   1.172   0.000  0.00  0.00    +0.000 C 
ATOM     13  C   UNL     1       5.131   3.207   0.000  0.00  0.00    +0.000 A 
ATOM     14  C   UNL     1       3.395  -4.119   0.000  0.00  0.00    +0.000 C 
ATOM     15  C   UNL     1       6.975   1.662   0.000  0.00  0.00    +0.000 C 
ATOM     16  C   UNL     1       7.390   2.381   0.000  0.00  0.00    +0.000 C 
ATOM     17  C   UNL     1       2.980  -1.686   0.000  0.00  0.00    +0.000 C 
ATOM     18  C   UNL     1       4.029  -3.591   0.000  0.00  0.00    +0.000 A 
ATOM     19  C   UNL     1       1.661  -3.163   0.000  0.00  0.00    +0.000 C 
ATOM     20  C   UNL     1       1.948  -2.384   0.000  0.00  0.00    +0.000 C 
ATOM     21  C   UNL     1       4.416   1.969   0.000  0.00  0.00    +0.000 A 
ATOM     22  C   UNL     1       6.044   0.458   0.000  0.00  0.00    +0.000 A 
ATOM     23  C   UNL     1       4.522  -2.250   0.000  0.00  0.00    +0.000 A 
ATOM     24  C   UNL     1       4.416   3.619   0.000  0.00  0.00    +0.000 A 
ATOM     25  C   UNL     1       3.392  -0.972   0.000  0.00  0.00    +0.000 A 
ATOM     26  C   UNL     1       4.803  -3.876   0.000  0.00  0.00    +0.000 A 
ATOM     27  C   UNL     1       3.702   2.381   0.000  0.00  0.00    +0.000 A 
ATOM     28  C   UNL     1       5.296  -2.534   0.000  0.00  0.00    +0.000 A 
ATOM     29  C   UNL     1       3.702   3.207   0.000  0.00  0.00    +0.000 A 
ATOM     30  C   UNL     1       5.437  -3.347   0.000  0.00  0.00    +0.000 A 
ATOM     31  C   UNL     1       5.632  -0.257   0.000  0.00  0.00    +0.000 A 
ATOM     32  C   UNL     1       6.869   0.458   0.000  0.00  0.00    +0.000 A 
ATOM     33  C   UNL     1       4.217  -0.972   0.000  0.00  0.00    +0.000 A 
ATOM     34  C   UNL     1       2.980  -0.257   0.000  0.00  0.00    +0.000 A 
ATOM     35  C   UNL     1       4.217   0.458   0.000  0.00  0.00    +0.000 A 
ATOM     36  C   UNL     1       6.044  -0.972   0.000  0.00  0.00    +0.000 A 
ATOM     37  C   UNL     1       4.630  -0.257   0.000  0.00  0.00    +0.000 A 
ATOM     38  C   UNL     1       3.392   0.458   0.000  0.00  0.00    +0.000 A 
ATOM     39  C   UNL     1       7.282  -0.257   0.000  0.00  0.00    +0.000 A 
ATOM     40  C   UNL     1       6.869  -0.972   0.000  0.00  0.00    +0.000 A 
ENDROOT
BRANCH  27  41
ATOM     41  O   UNL     1       2.982   1.966   0.000  0.00  0.00    +0.000 OA
ATOM     42  C   UNL     1       2.263   2.381   0.000  0.00  0.00    +0.000 C 
ENDBRANCH  27  41
BRANCH  29  43
ATOM     43  O   UNL     1       2.982   3.622   0.000  0.00  0.00    +0.000 OA
ATOM     44  C   UNL     1       2.982   4.452   0.000  0.00  0.00    +0.000 C 
ENDBRANCH  29  43
BRANCH  30  45
ATOM     45  O   UNL     1       6.216  -3.634   0.000  0.00  0.00    +0.000 OA
ATOM     46  C   UNL     1       6.358  -4.452   0.000  0.00  0.00    +0.000 C 
ENDBRANCH  30  45
BRANCH  40  47
ATOM     47  O   UNL     1       7.285  -1.691   0.000  0.00  0.00    +0.000 OA
ATOM     48  C   UNL     1       8.115  -1.691   0.000  0.00  0.00    +0.000 C 
ENDBRANCH  40  47
TORSDOF 4
