REMARK  Name = 1338
REMARK  6 active torsions:
REMARK  status: ('A' for Active; 'I' for Inactive)
REMARK    1  A    between atoms: O_1  and  C_17
REMARK    2  A    between atoms: O_1  and  C_36
REMARK    3  A    between atoms: O_2  and  C_27
REMARK    4  A    between atoms: O_2  and  C_39
REMARK    5  A    between atoms: N_5  and  C_20
REMARK    6  A    between atoms: N_6  and  C_24
REMARK                            x       y       z     vdW  Elec       q    Type
REMARK                         _______ _______ _______ _____ _____    ______ ____
ROOT
ATOM      1  C   UNL     1       7.616  -0.575   0.000  0.00  0.00    +0.000 C 
ATOM      2  C   UNL     1       6.901  -0.163   0.000  0.00  0.00    +0.000 C 
ATOM      3  C   UNL     1       8.331  -0.163   0.000  0.00  0.00    +0.000 C 
ATOM      4  C   UNL     1       8.331   0.662   0.000  0.00  0.00    +0.000 C 
ATOM      5  C   UNL     1       6.151  -0.581   0.000  0.00  0.00    +0.000 C 
ATOM      6  C   UNL     1       6.144  -1.440   0.000  0.00  0.00    +0.000 C 
ATOM      7  C   UNL     1       6.901   0.662   0.000  0.00  0.00    +0.000 C 
ATOM      8  C   UNL     1       7.616   1.075   0.000  0.00  0.00    +0.000 C 
ATOM      9  C   UNL     1       9.111   0.914   0.000  0.00  0.00    +0.000 C 
ATOM     10  C   UNL     1       9.111  -0.414   0.000  0.00  0.00    +0.000 C 
ATOM     11  C   UNL     1       7.629  -1.435   0.000  0.00  0.00    +0.000 C 
ATOM     12  C   UNL     1       9.593   0.250   0.000  0.00  0.00    +0.000 C 
ATOM     13  C   UNL     1       6.888  -1.870   0.000  0.00  0.00    +0.000 C 
ATOM     14  C   UNL     1       5.386  -0.116   0.000  0.00  0.00    +0.000 C 
ATOM     15  C   UNL     1       5.372  -1.894   0.000  0.00  0.00    +0.000 C 
ATOM     16  C   UNL     1       4.604  -0.551   0.000  0.00  0.00    +0.000 C 
ATOM     17  C   UNL     1       8.331   1.487   0.000  0.00  0.00    +0.000 C 
ATOM     18  C   UNL     1       6.157   0.244   0.000  0.00  0.00    +0.000 C 
ATOM     19  C   UNL     1       4.597  -1.446   0.000  0.00  0.00    +0.000 C 
ENDROOT
BRANCH  16  20
ATOM     20  N   UNL     1       3.894  -0.130   0.000  0.00  0.00    +0.000 NA
ATOM     21  N   UNL     1       2.475   0.711   0.000  0.00  0.00    +0.000 N 
ATOM     22  C   UNL     1       3.175  -0.534   0.000  0.00  0.00    +0.000 C 
ATOM     23  C   UNL     1       3.904   0.695   0.000  0.00  0.00    +0.000 C 
ATOM     24  C   UNL     1       2.466  -0.114   0.000  0.00  0.00    +0.000 C 
ATOM     25  C   UNL     1       3.194   1.115   0.000  0.00  0.00    +0.000 C 
ATOM     26  C   UNL     1       2.071   1.430   0.000  0.00  0.00    +0.000 C 
ATOM     27  C   UNL     1       1.650   0.721   0.000  0.00  0.00    +0.000 C 
ENDBRANCH  16  20
BRANCH  12  28
ATOM     28  N   UNL     1      10.418   0.250   0.000  0.00  0.00    +0.000 NA
ATOM     29  N   UNL     1      12.068   0.250   0.000  0.00  0.00    +0.000 N 
ATOM     30  C   UNL     1      10.830  -0.465   0.000  0.00  0.00    +0.000 C 
ATOM     31  C   UNL     1      10.830   0.964   0.000  0.00  0.00    +0.000 C 
ATOM     32  C   UNL     1      11.655  -0.465   0.000  0.00  0.00    +0.000 C 
ATOM     33  C   UNL     1      11.655   0.964   0.000  0.00  0.00    +0.000 C 
ATOM     34  C   UNL     1      12.782  -0.163   0.000  0.00  0.00    +0.000 C 
ATOM     35  C   UNL     1      12.782   0.662   0.000  0.00  0.00    +0.000 C 
ENDBRANCH  12  28
BRANCH  19  36
ATOM     36  O   UNL     1       3.881  -1.856   0.000  0.00  0.00    +0.000 OA
BRANCH  36  38
ATOM     37  O   UNL     1       4.591  -3.096   0.000  0.00  0.00    +0.000 OA
ATOM     38  C   UNL     1       3.878  -2.681   0.000  0.00  0.00    +0.000 C 
ATOM     39  C   UNL     1       3.162  -3.091   0.000  0.00  0.00    +0.000 C 
ENDBRANCH  36  38
ENDBRANCH  19  36
BRANCH   9  40
ATOM     40  O   UNL     1       9.367   1.698   0.000  0.00  0.00    +0.000 OA
BRANCH  40  42
ATOM     41  O   UNL     1       8.009   2.142   0.000  0.00  0.00    +0.000 OA
ATOM     42  C   UNL     1       8.816   2.312   0.000  0.00  0.00    +0.000 C 
ATOM     43  C   UNL     1       9.073   3.096   0.000  0.00  0.00    +0.000 C 
ENDBRANCH  40  42
ENDBRANCH   9  40
TORSDOF 6
