REMARK  Name = 134
REMARK  4 active torsions:
REMARK  status: ('A' for Active; 'I' for Inactive)
REMARK    1  A    between atoms: C_1  and  C_8
REMARK    2  A    between atoms: C_13  and  C_14
REMARK    3  A    between atoms: C_18  and  O_21
REMARK    4  A    between atoms: O_21  and  C_27
REMARK                            x       y       z     vdW  Elec       q    Type
REMARK                         _______ _______ _______ _____ _____    ______ ____
ROOT
ATOM      1  C   UNL     1       0.012  -1.198   0.000  0.00  0.00    +0.000 A 
ATOM      2  C   UNL     1      -0.400  -1.913   0.000  0.00  0.00    +0.000 A 
ATOM      3  C   UNL     1      -1.225  -1.913   0.000  0.00  0.00    +0.000 A 
ATOM      4  C   UNL     1      -1.638  -1.198   0.000  0.00  0.00    +0.000 A 
ATOM      5  C   UNL     1      -1.225  -0.484   0.000  0.00  0.00    +0.000 A 
ATOM      6  C   UNL     1      -0.400  -0.484   0.000  0.00  0.00    +0.000 A 
ATOM      7  O   UNL     1       0.012   0.231   0.000  0.00  0.00    +0.000 OA
ENDROOT
BRANCH   1  17
ATOM      8  C   UNL     1       3.536  -0.786   0.000  0.00  0.00    +0.000 A 
ATOM      9  C   UNL     1       3.536  -1.611   0.000  0.00  0.00    +0.000 A 
ATOM     10  F   UNL     1       4.250  -2.023   0.000  0.00  0.00    +0.000 F 
ATOM     11  C   UNL     1       2.821  -2.023   0.000  0.00  0.00    +0.000 A 
ATOM     12  C   UNL     1       2.107  -1.611   0.000  0.00  0.00    +0.000 A 
ATOM     13  C   UNL     1       2.107  -0.786   0.000  0.00  0.00    +0.000 A 
ATOM     14  C   UNL     1       2.821  -0.373   0.000  0.00  0.00    +0.000 A 
ATOM     15  N   UNL     1       1.322  -1.866   0.000  0.00  0.00    +0.000 NA
ATOM     16  C   UNL     1       1.322  -0.531   0.000  0.00  0.00    +0.000 A 
ATOM     17  C   UNL     1       0.837  -1.198   0.000  0.00  0.00    +0.000 A 
BRANCH   8  18
ATOM     18  C   UNL     1       4.250  -0.373   0.000  0.00  0.00    +0.000 C 
ATOM     19  N   UNL     1       4.965  -0.786   0.000  0.00  0.00    +0.000 NA
ATOM     20  N   UNL     1       4.250   0.452   0.000  0.00  0.00    +0.000 NA
ENDBRANCH   8  18
ENDBRANCH   1  17
BRANCH   5  21
ATOM     21  O   UNL     1      -1.638   0.231   0.000  0.00  0.00    +0.000 OA
BRANCH  21  27
ATOM     22  C   UNL     1      -1.638   1.660   0.000  0.00  0.00    +0.000 C 
ATOM     23  C   UNL     1      -1.225   2.374   0.000  0.00  0.00    +0.000 C 
ATOM     24  C   UNL     1      -0.400   2.374   0.000  0.00  0.00    +0.000 C 
ATOM     25  C   UNL     1       0.012   1.660   0.000  0.00  0.00    +0.000 C 
ATOM     26  C   UNL     1      -0.400   0.945   0.000  0.00  0.00    +0.000 C 
ATOM     27  C   UNL     1      -1.225   0.945   0.000  0.00  0.00    +0.000 C 
ATOM     28  C   UNL     1      -2.463   1.660   0.000  0.00  0.00    +0.000 C 
ENDBRANCH  21  27
ENDBRANCH   5  21
TORSDOF 4
