REMARK  Name = 1340
REMARK  9 active torsions:
REMARK  status: ('A' for Active; 'I' for Inactive)
REMARK    1  A    between atoms: O_4  and  C_22
REMARK    2  A    between atoms: O_4  and  C_26
REMARK    3  A    between atoms: N_8  and  C_10
REMARK    4  A    between atoms: N_8  and  C_18
REMARK    5  A    between atoms: C_9  and  C_19
REMARK    6  A    between atoms: C_18  and  C_20
REMARK    7  A    between atoms: C_18  and  C_22
REMARK    8  A    between atoms: C_20  and  C_21
REMARK    9  A    between atoms: C_21  and  C_23
REMARK                            x       y       z     vdW  Elec       q    Type
REMARK                         _______ _______ _______ _____ _____    ______ ____
ROOT
ATOM      1  N   UNL     1       6.236   3.590   0.000  0.00  0.00    +0.000 NA
ENDROOT
BRANCH   1   6
ATOM      2  O   UNL     1       5.893   2.087   0.000  0.00  0.00    +0.000 OA
ATOM      3  N   UNL     1       3.761   2.602   0.000  0.00  0.00    +0.000 NA
ATOM      4  N   UNL     1       4.504   2.244   0.000  0.00  0.00    +0.000 N 
ATOM      5  C   UNL     1       4.582   1.388   0.000  0.00  0.00    +0.000 C 
ATOM      6  C   UNL     1       5.431   3.406   0.000  0.00  0.00    +0.000 C 
ATOM      7  C   UNL     1       3.044   2.129   0.000  0.00  0.00    +0.000 C 
ATOM      8  C   UNL     1       3.578   3.406   0.000  0.00  0.00    +0.000 C 
ATOM      9  C   UNL     1       3.876   0.898   0.000  0.00  0.00    +0.000 C 
ATOM     10  C   UNL     1       4.917   4.051   0.000  0.00  0.00    +0.000 C 
ATOM     11  C   UNL     1       3.101   1.271   0.000  0.00  0.00    +0.000 C 
ATOM     12  C   UNL     1       4.092   4.051   0.000  0.00  0.00    +0.000 C 
ATOM     13  C   UNL     1       5.248   2.602   0.000  0.00  0.00    +0.000 C 
BRANCH   5  16
ATOM     14  O   UNL     1       5.400   0.217   0.000  0.00  0.00    +0.000 OA
ATOM     15  O   UNL     1       6.005   1.511   0.000  0.00  0.00    +0.000 OA
ATOM     16  C   UNL     1       5.329   1.038   0.000  0.00  0.00    +0.000 C 
ENDBRANCH   5  16
ENDBRANCH   1   6
BRANCH   1  17
ATOM     17  C   UNL     1       6.479   4.378   0.000  0.00  0.00    +0.000 C 
BRANCH  17  19
ATOM     18  O   UNL     1       7.844   3.957   0.000  0.00  0.00    +0.000 OA
ATOM     19  C   UNL     1       7.283   4.562   0.000  0.00  0.00    +0.000 C 
BRANCH  19  20
ATOM     20  O   UNL     1       7.526   5.350   0.000  0.00  0.00    +0.000 OA
BRANCH  20  21
ATOM     21  C   UNL     1       8.331   5.534   0.000  0.00  0.00    +0.000 C 
ATOM     22  C   UNL     1       8.574   6.322   0.000  0.00  0.00    +0.000 C 
ENDBRANCH  20  21
ENDBRANCH  19  20
ENDBRANCH  17  19
BRANCH  17  23
ATOM     23  C   UNL     1       5.918   4.983   0.000  0.00  0.00    +0.000 C 
BRANCH  23  24
ATOM     24  C   UNL     1       6.161   5.771   0.000  0.00  0.00    +0.000 C 
BRANCH  24  25
ATOM     25  C   UNL     1       5.600   6.376   0.000  0.00  0.00    +0.000 A 
ATOM     26  C   UNL     1       4.795   6.192   0.000  0.00  0.00    +0.000 A 
ATOM     27  C   UNL     1       5.843   7.164   0.000  0.00  0.00    +0.000 A 
ATOM     28  C   UNL     1       4.234   6.797   0.000  0.00  0.00    +0.000 A 
ATOM     29  C   UNL     1       5.282   7.769   0.000  0.00  0.00    +0.000 A 
ATOM     30  C   UNL     1       4.477   7.585   0.000  0.00  0.00    +0.000 A 
ENDBRANCH  24  25
ENDBRANCH  23  24
ENDBRANCH  17  23
ENDBRANCH   1  17
TORSDOF 9
