REMARK  Name = 1342
REMARK  10 active torsions:
REMARK  status: ('A' for Active; 'I' for Inactive)
REMARK    1  A    between atoms: N_1  and  C_13
REMARK    2  A    between atoms: C_9  and  C_10
REMARK    3  A    between atoms: C_9  and  C_11
REMARK    4  A    between atoms: C_11  and  C_16
REMARK    5  A    between atoms: C_12  and  C_14
REMARK    6  A    between atoms: C_12  and  C_15
REMARK    7  A    between atoms: C_13  and  C_17
REMARK    8  A    between atoms: C_15  and  C_18
REMARK    9  A    between atoms: C_23  and  C_25
REMARK   10  A    between atoms: C_26  and  C_30
REMARK                            x       y       z     vdW  Elec       q    Type
REMARK                         _______ _______ _______ _____ _____    ______ ____
ROOT
ATOM      1  N   UNL     1       7.411  -0.459   0.000  0.00  0.00    +0.000 NA
ATOM      2  C   UNL     1       6.697   0.779   0.000  0.00  0.00    +0.000 A 
ATOM      3  C   UNL     1       7.411   1.192   0.000  0.00  0.00    +0.000 A 
ATOM      4  C   UNL     1       6.697  -0.046   0.000  0.00  0.00    +0.000 A 
ATOM      5  C   UNL     1       8.126  -0.046   0.000  0.00  0.00    +0.000 A 
ATOM      6  C   UNL     1       8.126   0.779   0.000  0.00  0.00    +0.000 A 
ENDROOT
BRANCH   5   7
ATOM      7  C   UNL     1       8.840  -0.459   0.000  0.00  0.00    +0.000 A 
ATOM      8  C   UNL     1       9.555  -0.046   0.000  0.00  0.00    +0.000 A 
ATOM      9  C   UNL     1       8.840  -1.284   0.000  0.00  0.00    +0.000 A 
ATOM     10  C   UNL     1      10.269  -0.459   0.000  0.00  0.00    +0.000 A 
ATOM     11  C   UNL     1       9.555  -1.696   0.000  0.00  0.00    +0.000 A 
ATOM     12  C   UNL     1      10.269  -1.284   0.000  0.00  0.00    +0.000 A 
BRANCH   8  17
ATOM     13  N   UNL     1       8.887   1.264   0.000  0.00  0.00    +0.000 NA
ATOM     14  N   UNL     1      10.222   1.264   0.000  0.00  0.00    +0.000 NA
ATOM     15  N   UNL     1       9.142   2.049   0.000  0.00  0.00    +0.000 NA
ATOM     16  N   UNL     1       9.967   2.049   0.000  0.00  0.00    +0.000 NA
ATOM     17  C   UNL     1       9.555   0.779   0.000  0.00  0.00    +0.000 A 
ENDBRANCH   8  17
ENDBRANCH   5   7
BRANCH   2  18
ATOM     18  C   UNL     1       5.982   1.192   0.000  0.00  0.00    +0.000 C 
BRANCH  18  19
ATOM     19  N   UNL     1       5.268   0.779   0.000  0.00  0.00    +0.000 N 
ATOM     20  N   UNL     1       4.375  -0.213   0.000  0.00  0.00    +0.000 NA
ATOM     21  N   UNL     1       4.514   1.115   0.000  0.00  0.00    +0.000 NA
ATOM     22  C   UNL     1       5.182  -0.042   0.000  0.00  0.00    +0.000 A 
ATOM     23  C   UNL     1       3.962   0.501   0.000  0.00  0.00    +0.000 A 
BRANCH  22  24
ATOM     24  C   UNL     1       5.795  -0.594   0.000  0.00  0.00    +0.000 C 
BRANCH  24  25
ATOM     25  C   UNL     1       5.623  -1.401   0.000  0.00  0.00    +0.000 C 
BRANCH  25  26
ATOM     26  C   UNL     1       4.839  -1.655   0.000  0.00  0.00    +0.000 C 
ATOM     27  C   UNL     1       4.667  -2.462   0.000  0.00  0.00    +0.000 C 
ENDBRANCH  25  26
ENDBRANCH  24  25
ENDBRANCH  22  24
BRANCH  23  28
ATOM     28  C   UNL     1       3.142   0.588   0.000  0.00  0.00    +0.000 C 
BRANCH  28  29
ATOM     29  C   UNL     1       2.806   1.341   0.000  0.00  0.00    +0.000 C 
BRANCH  29  30
ATOM     30  C   UNL     1       1.986   1.428   0.000  0.00  0.00    +0.000 C 
ATOM     31  C   UNL     1       1.650   2.181   0.000  0.00  0.00    +0.000 C 
ENDBRANCH  29  30
ENDBRANCH  28  29
ENDBRANCH  23  28
ENDBRANCH  18  19
ENDBRANCH   2  18
TORSDOF 10
