REMARK  Name = 1347
REMARK  9 active torsions:
REMARK  status: ('A' for Active; 'I' for Inactive)
REMARK    1  A    between atoms: S_2  and  N_13
REMARK    2  A    between atoms: S_2  and  C_38
REMARK    3  A    between atoms: N_10  and  C_20
REMARK    4  A    between atoms: N_13  and  C_33
REMARK    5  A    between atoms: C_14  and  C_17
REMARK    6  A    between atoms: C_18  and  C_22
REMARK    7  A    between atoms: C_19  and  C_21
REMARK    8  A    between atoms: C_20  and  C_23
REMARK    9  A    between atoms: C_31  and  C_32
REMARK                            x       y       z     vdW  Elec       q    Type
REMARK                         _______ _______ _______ _____ _____    ______ ____
ROOT
ATOM      1 BR   UNL     1       8.425   2.079   0.000  0.00  0.00    +0.000 Br
ATOM      2  O   UNL     1       8.169  -0.033   0.000  0.00  0.00    +0.000 OA
ATOM      3  C   UNL     1       5.959   1.044   0.000  0.00  0.00    +0.000 A 
ATOM      4  C   UNL     1       6.673   1.456   0.000  0.00  0.00    +0.000 A 
ATOM      5  C   UNL     1       5.959   0.218   0.000  0.00  0.00    +0.000 A 
ATOM      6  C   UNL     1       7.388   1.044   0.000  0.00  0.00    +0.000 A 
ATOM      7  C   UNL     1       7.388   0.218   0.000  0.00  0.00    +0.000 A 
ATOM      8  C   UNL     1       6.673  -0.194   0.000  0.00  0.00    +0.000 A 
ATOM      9  C   UNL     1       8.169   1.295   0.000  0.00  0.00    +0.000 A 
ATOM     10  C   UNL     1       8.650   0.631   0.000  0.00  0.00    +0.000 A 
ENDROOT
BRANCH  10  11
ATOM     11  C   UNL     1       9.475   0.631   0.000  0.00  0.00    +0.000 A 
ATOM     12  C   UNL     1       9.888  -0.083   0.000  0.00  0.00    +0.000 A 
ATOM     13  C   UNL     1       9.888   1.345   0.000  0.00  0.00    +0.000 A 
ATOM     14  C   UNL     1      10.713  -0.083   0.000  0.00  0.00    +0.000 A 
ATOM     15  C   UNL     1      10.713   1.345   0.000  0.00  0.00    +0.000 A 
ATOM     16  C   UNL     1      11.125   0.631   0.000  0.00  0.00    +0.000 A 
BRANCH  12  17
ATOM     17  N   UNL     1       9.475  -0.798   0.000  0.00  0.00    +0.000 NA
BRANCH  17  18
ATOM     18  S   UNL     1       9.888  -1.512   0.000  0.00  0.00    +0.000 S 
ATOM     19  O   UNL     1      10.602  -1.100   0.000  0.00  0.00    +0.000 OA
ATOM     20  O   UNL     1       9.173  -1.925   0.000  0.00  0.00    +0.000 OA
BRANCH  18  24
ATOM     21  F   UNL     1      11.015  -1.814   0.000  0.00  0.00    +0.000 F 
ATOM     22  F   UNL     1       9.586  -2.639   0.000  0.00  0.00    +0.000 F 
ATOM     23  F   UNL     1      10.713  -2.941   0.000  0.00  0.00    +0.000 F 
ATOM     24  C   UNL     1      10.300  -2.227   0.000  0.00  0.00    +0.000 C 
ENDBRANCH  18  24
ENDBRANCH  17  18
ENDBRANCH  12  17
ENDBRANCH  10  11
BRANCH   3  25
ATOM     25  C   UNL     1       5.245   1.456   0.000  0.00  0.00    +0.000 C 
BRANCH  25  26
ATOM     26  N   UNL     1       4.530   1.044   0.000  0.00  0.00    +0.000 N 
ATOM     27  N   UNL     1       3.637   0.052   0.000  0.00  0.00    +0.000 NA
ATOM     28  C   UNL     1       3.224   0.766   0.000  0.00  0.00    +0.000 A 
ATOM     29  C   UNL     1       3.776   1.379   0.000  0.00  0.00    +0.000 A 
ATOM     30  C   UNL     1       4.444   0.223   0.000  0.00  0.00    +0.000 A 
BRANCH  29  33
ATOM     31  O   UNL     1       4.218   2.738   0.000  0.00  0.00    +0.000 OA
ATOM     32  N   UNL     1       2.820   2.441   0.000  0.00  0.00    +0.000 NA
ATOM     33  C   UNL     1       3.605   2.186   0.000  0.00  0.00    +0.000 C 
ENDBRANCH  29  33
BRANCH  28  34
ATOM     34  C   UNL     1       2.404   0.852   0.000  0.00  0.00    +0.000 C 
ATOM     35  C   UNL     1       1.650   0.517   0.000  0.00  0.00    +0.000 C 
ATOM     36  C   UNL     1       1.736   1.337   0.000  0.00  0.00    +0.000 C 
ENDBRANCH  28  34
BRANCH  30  37
ATOM     37  C   UNL     1       5.057  -0.329   0.000  0.00  0.00    +0.000 C 
ATOM     38  C   UNL     1       4.885  -1.136   0.000  0.00  0.00    +0.000 C 
ENDBRANCH  30  37
ENDBRANCH  25  26
ENDBRANCH   3  25
TORSDOF 9
