REMARK  Name = 1348
REMARK  10 active torsions:
REMARK  status: ('A' for Active; 'I' for Inactive)
REMARK    1  A    between atoms: O_6  and  C_23
REMARK    2  A    between atoms: O_6  and  C_27
REMARK    3  A    between atoms: N_9  and  C_18
REMARK    4  A    between atoms: N_9  and  C_19
REMARK    5  A    between atoms: C_12  and  C_17
REMARK    6  A    between atoms: C_14  and  C_18
REMARK    7  A    between atoms: C_19  and  C_21
REMARK    8  A    between atoms: C_19  and  C_23
REMARK    9  A    between atoms: C_21  and  C_22
REMARK   10  A    between atoms: C_22  and  C_24
REMARK                            x       y       z     vdW  Elec       q    Type
REMARK                         _______ _______ _______ _____ _____    ______ ____
ROOT
ATOM      1  C   UNK A   1       5.603   0.559   0.000  0.00  0.00    +0.000 C 
ATOM      2  C   UNK A   1       5.268  -0.195   0.000  0.00  0.00    +0.000 C 
ENDROOT
BRANCH   1  11
ATOM      3  S   UNK A   1       6.654  -1.777   0.000  0.00  0.00    +0.000 S 
ATOM      4  S   UNK A   1       7.989  -1.777   0.000  0.00  0.00    +0.000 S 
ATOM      5  O   UNK A   1       6.759   1.399   0.000  0.00  0.00    +0.000 OA
ATOM      6  N   UNK A   1       6.909  -0.022   0.000  0.00  0.00    +0.000 N 
ATOM      7  C   UNK A   1       7.321  -1.292   0.000  0.00  0.00    +0.000 C 
ATOM      8  C   UNK A   1       7.989  -0.807   0.000  0.00  0.00    +0.000 C 
ATOM      9  C   UNK A   1       7.734  -0.022   0.000  0.00  0.00    +0.000 C 
ATOM     10  C   UNK A   1       6.654  -0.807   0.000  0.00  0.00    +0.000 C 
ATOM     11  C   UNK A   1       6.424   0.645   0.000  0.00  0.00    +0.000 C 
ATOM     12  C   UNK A   1       6.909  -2.561   0.000  0.00  0.00    +0.000 C 
ATOM     13  C   UNK A   1       7.734  -2.561   0.000  0.00  0.00    +0.000 C 
BRANCH   9  16
ATOM     14  O   UNK A   1       9.039   0.559   0.000  0.00  0.00    +0.000 OA
ATOM     15  O   UNK A   1       7.883   1.399   0.000  0.00  0.00    +0.000 OA
ATOM     16  C   UNK A   1       8.219   0.645   0.000  0.00  0.00    +0.000 C 
ENDBRANCH   9  16
ENDBRANCH   1  11
BRANCH   1  17
ATOM     17  N   UNK A   1       5.118   1.226   0.000  0.00  0.00    +0.000 NA
BRANCH  17  18
ATOM     18  C   UNK A   0       4.298   1.140   0.000  0.00  0.00    +0.000 C 
BRANCH  18  20
ATOM     19  O   UNK A   0       4.148   2.561   0.000  0.00  0.00    +0.000 OA
ATOM     20  C   UNK A   0       3.813   1.808   0.000  0.00  0.00    +0.000 C 
BRANCH  20  21
ATOM     21  O   UNK A   0       2.992   1.721   0.000  0.00  0.00    +0.000 OA
BRANCH  21  22
ATOM     22  C   UNK A   0       2.507   2.389   0.000  0.00  0.00    +0.000 C 
ATOM     23  C   UNK A   0       1.687   2.303   0.000  0.00  0.00    +0.000 C 
ENDBRANCH  21  22
ENDBRANCH  20  21
ENDBRANCH  18  20
BRANCH  18  24
ATOM     24  C   UNK A   0       3.962   0.387   0.000  0.00  0.00    +0.000 C 
BRANCH  24  25
ATOM     25  C   UNK A   0       3.142   0.300   0.000  0.00  0.00    +0.000 C 
BRANCH  25  26
ATOM     26  C   UNK A   0       2.806  -0.453   0.000  0.00  0.00    +0.000 A 
ATOM     27  C   UNK A   0       1.986  -0.540   0.000  0.00  0.00    +0.000 A 
ATOM     28  C   UNK A   0       3.291  -1.121   0.000  0.00  0.00    +0.000 A 
ATOM     29  C   UNK A   0       1.650  -1.293   0.000  0.00  0.00    +0.000 A 
ATOM     30  C   UNK A   0       2.955  -1.875   0.000  0.00  0.00    +0.000 A 
ATOM     31  C   UNK A   0       2.135  -1.961   0.000  0.00  0.00    +0.000 A 
ENDBRANCH  25  26
ENDBRANCH  24  25
ENDBRANCH  18  24
ENDBRANCH  17  18
ENDBRANCH   1  17
TORSDOF 10
