REMARK  Name = 1349
REMARK  4 active torsions:
REMARK  status: ('A' for Active; 'I' for Inactive)
REMARK    1  A    between atoms: N_2  and  C_13
REMARK    2  A    between atoms: C_13  and  C_16
REMARK    3  A    between atoms: C_21  and  C_24
REMARK    4  A    between atoms: C_26  and  C_30
REMARK                            x       y       z     vdW  Elec       q    Type
REMARK                         _______ _______ _______ _____ _____    ______ ____
ROOT
ATOM      1  C   UNL     1       5.222  -0.137   0.000  0.00  0.00    +0.000 A 
ATOM      2  C   UNL     1       5.222  -0.962   0.000  0.00  0.00    +0.000 A 
ATOM      3  C   UNL     1       4.508   0.276   0.000  0.00  0.00    +0.000 A 
ATOM      4  C   UNL     1       3.793  -0.962   0.000  0.00  0.00    +0.000 A 
ATOM      5  C   UNL     1       4.508  -1.375   0.000  0.00  0.00    +0.000 A 
ATOM      6  C   UNL     1       3.793  -0.137   0.000  0.00  0.00    +0.000 A 
ENDROOT
BRANCH   4   7
ATOM      7  C   UNL     1       3.079  -1.375   0.000  0.00  0.00    +0.000 A 
ATOM      8  C   UNL     1       3.079  -2.200   0.000  0.00  0.00    +0.000 A 
ATOM      9  C   UNL     1       2.365  -0.962   0.000  0.00  0.00    +0.000 A 
ATOM     10  C   UNL     1       2.365  -2.612   0.000  0.00  0.00    +0.000 A 
ATOM     11  C   UNL     1       1.650  -1.375   0.000  0.00  0.00    +0.000 A 
ATOM     12  C   UNL     1       1.650  -2.200   0.000  0.00  0.00    +0.000 A 
BRANCH   8  17
ATOM     13  N   UNL     1       4.547  -2.276   0.000  0.00  0.00    +0.000 NA
ATOM     14  N   UNL     1       3.880  -3.433   0.000  0.00  0.00    +0.000 NA
ATOM     15  N   UNL     1       5.099  -2.890   0.000  0.00  0.00    +0.000 NA
ATOM     16  N   UNL     1       4.687  -3.604   0.000  0.00  0.00    +0.000 NA
ATOM     17  C   UNL     1       3.793  -2.612   0.000  0.00  0.00    +0.000 A 
ENDBRANCH   8  17
ENDBRANCH   4   7
BRANCH   1  18
ATOM     18  C   UNL     1       5.937   0.276   0.000  0.00  0.00    +0.000 C 
BRANCH  18  20
ATOM     19  O   UNL     1       4.508   1.101   0.000  0.00  0.00    +0.000 OA
ATOM     20  N   UNL     1       5.937   1.101   0.000  0.00  0.00    +0.000 N 
ATOM     21  N   UNL     1       7.389   1.072   0.000  0.00  0.00    +0.000 NA
ATOM     22  N   UNL     1       8.136   2.355   0.000  0.00  0.00    +0.000 NA
ATOM     23  C   UNL     1       5.937   2.751   0.000  0.00  0.00    +0.000 C 
ATOM     24  C   UNL     1       6.652   2.338   0.000  0.00  0.00    +0.000 A 
ATOM     25  C   UNL     1       5.222   2.338   0.000  0.00  0.00    +0.000 C 
ATOM     26  C   UNL     1       6.652   1.513   0.000  0.00  0.00    +0.000 A 
ATOM     27  C   UNL     1       5.222   1.513   0.000  0.00  0.00    +0.000 C 
ATOM     28  C   UNL     1       7.389   2.779   0.000  0.00  0.00    +0.000 A 
ATOM     29  C   UNL     1       8.136   1.496   0.000  0.00  0.00    +0.000 A 
ATOM     30  C   UNL     1       7.380   3.604   0.000  0.00  0.00    +0.000 C 
ATOM     31  C   UNL     1       8.849   1.081   0.000  0.00  0.00    +0.000 C 
ENDBRANCH  18  20
ENDBRANCH   1  18
TORSDOF 4
