REMARK  Name = 1351
REMARK  4 active torsions:
REMARK  status: ('A' for Active; 'I' for Inactive)
REMARK    1  A    between atoms: C_6  and  C_7
REMARK    2  A    between atoms: C_6  and  C_9
REMARK    3  A    between atoms: C_7  and  C_8
REMARK    4  A    between atoms: C_8  and  C_10
REMARK                            x       y       z     vdW  Elec       q    Type
REMARK                         _______ _______ _______ _____ _____    ______ ____
ROOT
ATOM      1  O   UNL     1       4.508  -0.192   0.000  0.00  0.00    +0.000 OA
ATOM      2  O   UNL     1       1.650  -0.192   0.000  0.00  0.00    +0.000 OA
ATOM      3  O   UNL     1       3.079  -2.667   0.000  0.00  0.00    +0.000 OA
ATOM      4  N   UNL     1       3.793  -1.429   0.000  0.00  0.00    +0.000 NA
ATOM      5  N   UNL     1       2.365  -1.429   0.000  0.00  0.00    +0.000 NA
ATOM      6  C   UNL     1       3.079  -0.192   0.000  0.00  0.00    +0.000 C 
ATOM      7  C   UNL     1       3.793  -0.604   0.000  0.00  0.00    +0.000 C 
ATOM      8  C   UNL     1       2.365  -0.604   0.000  0.00  0.00    +0.000 C 
ATOM      9  C   UNL     1       3.079  -1.841   0.000  0.00  0.00    +0.000 C 
ENDROOT
BRANCH   6  10
ATOM     10  C   UNL     1       2.667   0.523   0.000  0.00  0.00    +0.000 C 
ATOM     11  C   UNL     1       1.841   0.523   0.000  0.00  0.00    +0.000 C 
ENDBRANCH   6  10
BRANCH   6  12
ATOM     12  C   UNL     1       3.492   0.523   0.000  0.00  0.00    +0.000 C 
BRANCH  12  13
ATOM     13  C   UNL     1       3.079   1.238   0.000  0.00  0.00    +0.000 C 
BRANCH  13  14
ATOM     14  C   UNL     1       3.492   1.952   0.000  0.00  0.00    +0.000 C 
ATOM     15  C   UNL     1       4.317   1.952   0.000  0.00  0.00    +0.000 C 
ATOM     16  C   UNL     1       3.079   2.667   0.000  0.00  0.00    +0.000 C 
ENDBRANCH  13  14
ENDBRANCH  12  13
ENDBRANCH   6  12
TORSDOF 4
