REMARK  Name = 1354
REMARK  2 active torsions:
REMARK  status: ('A' for Active; 'I' for Inactive)
REMARK    1  A    between atoms: C_6  and  C_7
REMARK    2  A    between atoms: C_6  and  C_10
REMARK                            x       y       z     vdW  Elec       q    Type
REMARK                         _______ _______ _______ _____ _____    ______ ____
ROOT
ATOM      1  O   UNL     1       3.568  -1.077   0.000  0.00  0.00    +0.000 OA
ATOM      2  O   UNL     1       4.997   1.398   0.000  0.00  0.00    +0.000 OA
ATOM      3  O   UNL     1       6.426  -1.077   0.000  0.00  0.00    +0.000 OA
ATOM      4  N   UNL     1       4.997  -1.077   0.000  0.00  0.00    +0.000 NA
ATOM      5  N   UNL     1       5.711   0.160   0.000  0.00  0.00    +0.000 NA
ATOM      6  C   UNL     1       4.282   0.160   0.000  0.00  0.00    +0.000 C 
ATOM      7  C   UNL     1       4.282  -0.665   0.000  0.00  0.00    +0.000 C 
ATOM      8  C   UNL     1       4.997   0.573   0.000  0.00  0.00    +0.000 C 
ATOM      9  C   UNL     1       5.711  -0.665   0.000  0.00  0.00    +0.000 C 
ENDROOT
BRANCH   6  10
ATOM     10  C   UNL     1       3.457   0.160   0.000  0.00  0.00    +0.000 C 
ATOM     11  C   UNL     1       3.099   0.903   0.000  0.00  0.00    +0.000 C 
ATOM     12  C   UNL     1       2.295   1.087   0.000  0.00  0.00    +0.000 C 
ATOM     13  C   UNL     1       1.650   0.573   0.000  0.00  0.00    +0.000 C 
ATOM     14  C   UNL     1       1.650  -0.253   0.000  0.00  0.00    +0.000 C 
ATOM     15  C   UNL     1       3.099  -0.583   0.000  0.00  0.00    +0.000 C 
ATOM     16  C   UNL     1       2.295  -0.767   0.000  0.00  0.00    +0.000 C 
ENDBRANCH   6  10
BRANCH   6  17
ATOM     17  C   UNL     1       3.870   0.875   0.000  0.00  0.00    +0.000 C 
ATOM     18  C   UNL     1       4.282   1.589   0.000  0.00  0.00    +0.000 C 
ENDBRANCH   6  17
TORSDOF 2
