REMARK  Name = 1359
REMARK  7 active torsions:
REMARK  status: ('A' for Active; 'I' for Inactive)
REMARK    1  A    between atoms: O_1  and  C_10
REMARK    2  A    between atoms: O_1  and  C_15
REMARK    3  A    between atoms: N_3  and  C_12
REMARK    4  A    between atoms: N_3  and  C_14
REMARK    5  A    between atoms: C_4  and  C_9
REMARK    6  A    between atoms: C_13  and  C_14
REMARK    7  A    between atoms: C_13  and  C_15
REMARK                            x       y       z     vdW  Elec       q    Type
REMARK                         _______ _______ _______ _____ _____    ______ ____
ROOT
ATOM      1  C   UNL     1       7.366  -0.222   0.000  0.00  0.00    +0.000 A 
ATOM      2  C   UNL     1       6.652  -0.635   0.000  0.00  0.00    +0.000 A 
ATOM      3  C   UNL     1       8.080  -0.635   0.000  0.00  0.00    +0.000 A 
ATOM      4  C   UNL     1       6.652  -1.460   0.000  0.00  0.00    +0.000 A 
ATOM      5  C   UNL     1       8.080  -1.460   0.000  0.00  0.00    +0.000 A 
ATOM      6  C   UNL     1       7.366  -1.872   0.000  0.00  0.00    +0.000 A 
ENDROOT
BRANCH   1   7
ATOM      7  C   UNL     1       7.366   0.603   0.000  0.00  0.00    +0.000 C 
ATOM      8  C   UNL     1       8.033   1.088   0.000  0.00  0.00    +0.000 C 
ATOM      9  C   UNL     1       6.699   1.088   0.000  0.00  0.00    +0.000 C 
ATOM     10  C   UNL     1       7.778   1.872   0.000  0.00  0.00    +0.000 C 
ATOM     11  C   UNL     1       6.953   1.872   0.000  0.00  0.00    +0.000 C 
ENDBRANCH   1   7
BRANCH   2  12
ATOM     12  O   UNL     1       5.937  -0.222   0.000  0.00  0.00    +0.000 OA
BRANCH  12  13
ATOM     13  C   UNL     1       5.222  -0.635   0.000  0.00  0.00    +0.000 C 
BRANCH  13  15
ATOM     14  O   UNL     1       4.508   0.603   0.000  0.00  0.00    +0.000 OA
ATOM     15  C   UNL     1       4.508  -0.222   0.000  0.00  0.00    +0.000 C 
BRANCH  15  16
ATOM     16  C   UNL     1       3.793  -0.635   0.000  0.00  0.00    +0.000 C 
BRANCH  16  17
ATOM     17  N   UNL     1       3.079  -0.222   0.000  0.00  0.00    +0.000 NA
BRANCH  17  18
ATOM     18  C   UNL     1       2.365  -0.635   0.000  0.00  0.00    +0.000 C 
ATOM     19  C   UNL     1       2.777  -1.349   0.000  0.00  0.00    +0.000 C 
ATOM     20  C   UNL     1       1.952   0.080   0.000  0.00  0.00    +0.000 C 
ATOM     21  C   UNL     1       1.650  -1.047   0.000  0.00  0.00    +0.000 C 
ENDBRANCH  17  18
ENDBRANCH  16  17
ENDBRANCH  15  16
ENDBRANCH  13  15
ENDBRANCH  12  13
ENDBRANCH   2  12
TORSDOF 7
