REMARK  Name = 136
REMARK  3 active torsions:
REMARK  status: ('A' for Active; 'I' for Inactive)
REMARK    1  A    between atoms: C_1  and  C_8
REMARK    2  A    between atoms: C_5  and  N_11
REMARK    3  A    between atoms: C_12  and  C_14
REMARK                            x       y       z     vdW  Elec       q    Type
REMARK                         _______ _______ _______ _____ _____    ______ ____
ROOT
ATOM      1  N   UNL     1       0.120  -0.101   0.000  0.00  0.00    +0.000 NA
ATOM      2  C   UNL     1       0.834  -0.513   0.000  0.00  0.00    +0.000 C 
ATOM      3  O   UNL     1       1.548  -0.101   0.000  0.00  0.00    +0.000 OA
ENDROOT
BRANCH   2   4
ATOM      4  C   UNL     1       0.834  -1.338   0.000  0.00  0.00    +0.000 A 
ATOM      5  C   UNL     1       1.548  -1.750   0.000  0.00  0.00    +0.000 A 
ATOM      6  C   UNL     1       1.548  -2.575   0.000  0.00  0.00    +0.000 A 
ATOM      7  C   UNL     1       2.263  -2.988   0.000  0.00  0.00    +0.000 C 
ATOM      8  C   UNL     1       0.834  -2.988   0.000  0.00  0.00    +0.000 A 
ATOM      9  C   UNL     1       0.120  -2.575   0.000  0.00  0.00    +0.000 A 
ATOM     10  I   UNL     1      -0.595  -2.988   0.000  0.00  0.00    +0.000 I 
ATOM     11  C   UNL     1       0.120  -1.750   0.000  0.00  0.00    +0.000 A 
ATOM     12  O   UNL     1      -0.595  -1.338   0.000  0.00  0.00    +0.000 OA
ENDBRANCH   2   4
BRANCH   1  17
ATOM     13  C   UNL     1       0.120   2.374   0.000  0.00  0.00    +0.000 A 
ATOM     14  C   UNL     1       0.834   1.962   0.000  0.00  0.00    +0.000 A 
ATOM     15 CL   UNL     1       1.548   2.374   0.000  0.00  0.00    +0.000 Cl
ATOM     16  C   UNL     1       0.834   1.137   0.000  0.00  0.00    +0.000 A 
ATOM     17  C   UNL     1       0.120   0.725   0.000  0.00  0.00    +0.000 A 
ATOM     18  C   UNL     1      -0.595   1.137   0.000  0.00  0.00    +0.000 A 
ATOM     19  C   UNL     1      -0.595   1.962   0.000  0.00  0.00    +0.000 A 
BRANCH  13  20
ATOM     20  C   UNL     1       0.120   3.200   0.000  0.00  0.00    +0.000 C 
ATOM     21  N   UNL     1      -0.595   3.612   0.000  0.00  0.00    +0.000 NA
ATOM     22  N   UNL     1       0.834   3.612   0.000  0.00  0.00    +0.000 NA
ENDBRANCH  13  20
ENDBRANCH   1  17
TORSDOF 3
