REMARK  Name = 1362
REMARK  12 active torsions:
REMARK  status: ('A' for Active; 'I' for Inactive)
REMARK    1  A    between atoms: N_13  and  C_16
REMARK    2  A    between atoms: N_13  and  C_17
REMARK    3  A    between atoms: N_14  and  C_28
REMARK    4  A    between atoms: N_15  and  C_29
REMARK    5  A    between atoms: C_16  and  C_18
REMARK    6  A    between atoms: C_18  and  C_24
REMARK    7  A    between atoms: C_21  and  C_27
REMARK    8  A    between atoms: C_22  and  C_26
REMARK    9  A    between atoms: C_28  and  C_30
REMARK   10  A    between atoms: C_29  and  C_31
REMARK   11  A    between atoms: C_30  and  C_33
REMARK   12  A    between atoms: C_31  and  C_34
REMARK                            x       y       z     vdW  Elec       q    Type
REMARK                         _______ _______ _______ _____ _____    ______ ____
ROOT
ATOM      1  I   UNL     1       3.522   0.825   0.000  0.00  0.00    +0.000 I 
ATOM      2  I   UNL     1       6.380   0.825   0.000  0.00  0.00    +0.000 I 
ATOM      3  I   UNL     1       4.951  -1.650   0.000  0.00  0.00    +0.000 I 
ATOM      4  C   UNL     1       4.951   0.825   0.000  0.00  0.00    +0.000 A 
ATOM      5  C   UNL     1       4.237   0.412   0.000  0.00  0.00    +0.000 A 
ATOM      6  C   UNL     1       5.665   0.412   0.000  0.00  0.00    +0.000 A 
ATOM      7  C   UNL     1       4.237  -0.412   0.000  0.00  0.00    +0.000 A 
ATOM      8  C   UNL     1       5.665  -0.412   0.000  0.00  0.00    +0.000 A 
ATOM      9  C   UNL     1       4.951  -0.825   0.000  0.00  0.00    +0.000 A 
ENDROOT
BRANCH   4  11
ATOM     10  O   UNL     1       3.522   1.650   0.000  0.00  0.00    +0.000 OA
ATOM     11  N   UNL     1       4.951   1.650   0.000  0.00  0.00    +0.000 N 
ATOM     12  C   UNL     1       4.237   2.062   0.000  0.00  0.00    +0.000 C 
ATOM     13  C   UNL     1       4.237   2.888   0.000  0.00  0.00    +0.000 C 
BRANCH  11  14
ATOM     14  C   UNL     1       5.665   2.062   0.000  0.00  0.00    +0.000 C 
BRANCH  14  16
ATOM     15  O   UNL     1       4.951   3.300   0.000  0.00  0.00    +0.000 OA
ATOM     16  C   UNL     1       5.665   2.888   0.000  0.00  0.00    +0.000 C 
BRANCH  16  18
ATOM     17  O   UNL     1       6.380   4.125   0.000  0.00  0.00    +0.000 OA
ATOM     18  C   UNL     1       6.380   3.300   0.000  0.00  0.00    +0.000 C 
ENDBRANCH  16  18
ENDBRANCH  14  16
ENDBRANCH  11  14
ENDBRANCH   4  11
BRANCH   8  21
ATOM     19  O   UNL     1       7.094  -0.412   0.000  0.00  0.00    +0.000 OA
ATOM     20  N   UNL     1       6.380  -1.650   0.000  0.00  0.00    +0.000 NA
ATOM     21  C   UNL     1       6.380  -0.825   0.000  0.00  0.00    +0.000 C 
BRANCH  20  22
ATOM     22  C   UNL     1       7.094  -2.062   0.000  0.00  0.00    +0.000 C 
BRANCH  22  24
ATOM     23  O   UNL     1       6.380  -3.300   0.000  0.00  0.00    +0.000 OA
ATOM     24  C   UNL     1       7.094  -2.888   0.000  0.00  0.00    +0.000 C 
BRANCH  24  26
ATOM     25  O   UNL     1       7.809  -4.125   0.000  0.00  0.00    +0.000 OA
ATOM     26  C   UNL     1       7.809  -3.300   0.000  0.00  0.00    +0.000 C 
ENDBRANCH  24  26
ENDBRANCH  22  24
ENDBRANCH  20  22
ENDBRANCH   8  21
BRANCH   7  29
ATOM     27  O   UNL     1       2.808  -0.412   0.000  0.00  0.00    +0.000 OA
ATOM     28  N   UNL     1       3.522  -1.650   0.000  0.00  0.00    +0.000 NA
ATOM     29  C   UNL     1       3.522  -0.825   0.000  0.00  0.00    +0.000 C 
BRANCH  28  30
ATOM     30  C   UNL     1       2.808  -2.062   0.000  0.00  0.00    +0.000 C 
BRANCH  30  32
ATOM     31  O   UNL     1       3.522  -3.300   0.000  0.00  0.00    +0.000 OA
ATOM     32  C   UNL     1       2.808  -2.888   0.000  0.00  0.00    +0.000 C 
BRANCH  32  34
ATOM     33  O   UNL     1       2.093  -4.125   0.000  0.00  0.00    +0.000 OA
ATOM     34  C   UNL     1       2.093  -3.300   0.000  0.00  0.00    +0.000 C 
ENDBRANCH  32  34
ENDBRANCH  30  32
ENDBRANCH  28  30
ENDBRANCH   7  29
TORSDOF 12
