REMARK  Name = 1365
REMARK  3 active torsions:
REMARK  status: ('A' for Active; 'I' for Inactive)
REMARK    1  A    between atoms: N_1  and  C_2
REMARK    2  A    between atoms: C_2  and  C_3
REMARK    3  A    between atoms: C_3  and  C_6
REMARK                            x       y       z     vdW  Elec       q    Type
REMARK                         _______ _______ _______ _____ _____    ______ ____
ROOT
ATOM      1  C   UNL     1       2.365   0.412   0.000  0.00  0.00    +0.000 C 
ENDROOT
BRANCH   1   2
ATOM      2  C   UNL     1       2.365  -0.412   0.000  0.00  0.00    +0.000 A 
ATOM      3  C   UNL     1       3.079  -0.825   0.000  0.00  0.00    +0.000 A 
ATOM      4  C   UNL     1       1.650  -0.825   0.000  0.00  0.00    +0.000 A 
ATOM      5  C   UNL     1       3.079  -1.650   0.000  0.00  0.00    +0.000 A 
ATOM      6  C   UNL     1       1.650  -1.650   0.000  0.00  0.00    +0.000 A 
ATOM      7  C   UNL     1       2.365  -2.062   0.000  0.00  0.00    +0.000 A 
ENDBRANCH   1   2
BRANCH   1   8
ATOM      8  C   UNL     1       3.079   0.825   0.000  0.00  0.00    +0.000 C 
ATOM      9  C   UNL     1       2.667   1.540   0.000  0.00  0.00    +0.000 C 
ATOM     10  C   UNL     1       3.492   0.111   0.000  0.00  0.00    +0.000 C 
BRANCH   8  11
ATOM     11  N   UNL     1       3.793   1.238   0.000  0.00  0.00    +0.000 NA
ATOM     12  C   UNL     1       3.793   2.062   0.000  0.00  0.00    +0.000 C 
ENDBRANCH   8  11
ENDBRANCH   1   8
TORSDOF 3
