REMARK  Name = 1367
REMARK  3 active torsions:
REMARK  status: ('A' for Active; 'I' for Inactive)
REMARK    1  A    between atoms: N_1  and  C_2
REMARK    2  A    between atoms: N_1  and  C_9
REMARK    3  A    between atoms: C_9  and  C_12
REMARK                            x       y       z     vdW  Elec       q    Type
REMARK                         _______ _______ _______ _____ _____    ______ ____
ROOT
ATOM      1  C   UNL     1       3.860  -0.760   0.000  0.00  0.00    +0.000 C 
ATOM      2  C   UNL     1       4.341  -1.424   0.000  0.00  0.00    +0.000 C 
ATOM      3  C   UNL     1       3.860  -2.088   0.000  0.00  0.00    +0.000 C 
ATOM      4  C   UNL     1       3.079  -1.011   0.000  0.00  0.00    +0.000 A 
ATOM      5  C   UNL     1       3.079  -1.836   0.000  0.00  0.00    +0.000 A 
ATOM      6  C   UNL     1       2.365  -0.599   0.000  0.00  0.00    +0.000 A 
ATOM      7  C   UNL     1       2.365  -2.249   0.000  0.00  0.00    +0.000 A 
ATOM      8  C   UNL     1       1.650  -1.011   0.000  0.00  0.00    +0.000 A 
ATOM      9  C   UNL     1       1.650  -1.836   0.000  0.00  0.00    +0.000 A 
ENDROOT
BRANCH   1  10
ATOM     10  N   UNL     1       4.116   0.024   0.000  0.00  0.00    +0.000 NA
BRANCH  10  11
ATOM     11  C   UNL     1       4.923   0.194   0.000  0.00  0.00    +0.000 C 
BRANCH  11  12
ATOM     12  C   UNL     1       5.179   0.979   0.000  0.00  0.00    +0.000 C 
ATOM     13  C   UNL     1       5.436   1.763   0.000  0.00  0.00    +0.000 C 
ENDBRANCH  11  12
ENDBRANCH  10  11
ENDBRANCH   1  10
TORSDOF 3
