REMARK  Name = 1382
REMARK  6 active torsions:
REMARK  status: ('A' for Active; 'I' for Inactive)
REMARK    1  A    between atoms: S_1  and  N_6
REMARK    2  A    between atoms: S_1  and  C_9
REMARK    3  A    between atoms: O_2  and  C_13
REMARK    4  A    between atoms: O_2  and  C_16
REMARK    5  A    between atoms: O_5  and  C_18
REMARK    6  A    between atoms: C_13  and  C_18
REMARK                            x       y       z     vdW  Elec       q    Type
REMARK                         _______ _______ _______ _____ _____    ______ ____
ROOT
ATOM      1  N   UNL     1       3.079   1.856   0.000  0.00  0.00    +0.000 NA
ATOM      2  N   UNL     1       3.793   0.619   0.000  0.00  0.00    +0.000 NA
ATOM      3  N   UNL     1       2.365   0.619   0.000  0.00  0.00    +0.000 NA
ATOM      4  C   UNL     1       3.079   1.031   0.000  0.00  0.00    +0.000 A 
ATOM      5  C   UNL     1       3.079  -0.619   0.000  0.00  0.00    +0.000 A 
ATOM      6  C   UNL     1       3.793  -0.206   0.000  0.00  0.00    +0.000 A 
ATOM      7  C   UNL     1       2.365  -0.206   0.000  0.00  0.00    +0.000 A 
ENDROOT
BRANCH   1   8
ATOM      8  S   UNL     1       3.793   2.269   0.000  0.00  0.00    +0.000 S 
ATOM      9  O   UNL     1       4.206   1.554   0.000  0.00  0.00    +0.000 OA
ATOM     10  O   UNL     1       3.381   2.983   0.000  0.00  0.00    +0.000 OA
BRANCH   8  11
ATOM     11  C   UNL     1       4.508   2.681   0.000  0.00  0.00    +0.000 A 
ATOM     12  C   UNL     1       4.508   3.506   0.000  0.00  0.00    +0.000 A 
ATOM     13  C   UNL     1       5.222   2.269   0.000  0.00  0.00    +0.000 A 
ATOM     14  C   UNL     1       5.222   3.919   0.000  0.00  0.00    +0.000 A 
ATOM     15  C   UNL     1       5.937   2.681   0.000  0.00  0.00    +0.000 A 
ATOM     16  C   UNL     1       5.937   3.506   0.000  0.00  0.00    +0.000 A 
ENDBRANCH   8  11
ENDBRANCH   1   8
BRANCH   5  17
ATOM     17  O   UNL     1       3.079  -1.444   0.000  0.00  0.00    +0.000 OA
BRANCH  17  18
ATOM     18  C   UNL     1       2.365  -1.856   0.000  0.00  0.00    +0.000 C 
BRANCH  18  19
ATOM     19  C   UNL     1       2.365  -2.681   0.000  0.00  0.00    +0.000 C 
BRANCH  19  20
ATOM     20  O   UNL     1       1.650  -3.094   0.000  0.00  0.00    +0.000 OA
ATOM     21  C   UNL     1       1.650  -3.919   0.000  0.00  0.00    +0.000 C 
ENDBRANCH  19  20
ENDBRANCH  18  19
ENDBRANCH  17  18
ENDBRANCH   5  17
TORSDOF 6
