REMARK  Name = 1388
REMARK  12 active torsions:
REMARK  status: ('A' for Active; 'I' for Inactive)
REMARK    1  A    between atoms: O_2  and  C_8
REMARK    2  A    between atoms: O_2  and  C_22
REMARK    3  A    between atoms: O_4  and  C_27
REMARK    4  A    between atoms: N_5  and  C_16
REMARK    5  A    between atoms: N_5  and  C_24
REMARK    6  A    between atoms: C_8  and  C_12
REMARK    7  A    between atoms: C_9  and  C_11
REMARK    8  A    between atoms: C_12  and  C_16
REMARK    9  A    between atoms: C_22  and  C_27
REMARK   10  A    between atoms: C_24  and  C_26
REMARK   11  A    between atoms: C_26  and  C_28
REMARK   12  A    between atoms: C_28  and  C_29
REMARK                            x       y       z     vdW  Elec       q    Type
REMARK                         _______ _______ _______ _____ _____    ______ ____
ROOT
ATOM      1  F   UNL     1      11.105   3.240   0.000  0.00  0.00    +0.000 F 
ATOM      2  C   UNL     1       7.478   1.983   0.000  0.00  0.00    +0.000 C 
ATOM      3  C   UNL     1       8.192   1.570   0.000  0.00  0.00    +0.000 C 
ATOM      4  C   UNL     1       7.478   2.808   0.000  0.00  0.00    +0.000 C 
ATOM      5  C   UNL     1       8.907   1.983   0.000  0.00  0.00    +0.000 A 
ATOM      6  C   UNL     1       8.192   3.220   0.000  0.00  0.00    +0.000 C 
ATOM      7  C   UNL     1       8.907   2.808   0.000  0.00  0.00    +0.000 A 
ATOM      8  C   UNL     1       9.644   1.542   0.000  0.00  0.00    +0.000 A 
ATOM      9  C   UNL     1       9.644   3.249   0.000  0.00  0.00    +0.000 A 
ATOM     10  C   UNL     1      10.392   1.966   0.000  0.00  0.00    +0.000 A 
ATOM     11  C   UNL     1      10.392   2.825   0.000  0.00  0.00    +0.000 A 
ENDROOT
BRANCH   3  12
ATOM     12  C   UNL     1       8.192   0.745   0.000  0.00  0.00    +0.000 C 
ATOM     13  C   UNL     1       7.478   0.333   0.000  0.00  0.00    +0.000 C 
ATOM     14  C   UNL     1       8.907   0.333   0.000  0.00  0.00    +0.000 C 
ENDBRANCH   3  12
BRANCH   2  15
ATOM     15  O   UNL     1       6.653   1.983   0.000  0.00  0.00    +0.000 OA
BRANCH  15  17
ATOM     16  O   UNL     1       6.653   3.412   0.000  0.00  0.00    +0.000 OA
ATOM     17  C   UNL     1       6.240   2.697   0.000  0.00  0.00    +0.000 C 
BRANCH  17  18
ATOM     18  C   UNL     1       5.415   2.697   0.000  0.00  0.00    +0.000 C 
BRANCH  18  19
ATOM     19  O   UNL     1       5.003   3.412   0.000  0.00  0.00    +0.000 OA
ATOM     20  C   UNL     1       4.178   3.412   0.000  0.00  0.00    +0.000 C 
ENDBRANCH  18  19
ENDBRANCH  17  18
ENDBRANCH  15  17
ENDBRANCH   2  15
BRANCH   2  21
ATOM     21  C   UNL     1       7.066   1.268   0.000  0.00  0.00    +0.000 C 
BRANCH  21  22
ATOM     22  C   UNL     1       6.240   1.268   0.000  0.00  0.00    +0.000 C 
BRANCH  22  23
ATOM     23  N   UNL     1       5.828   0.554   0.000  0.00  0.00    +0.000 NA
ATOM     24  C   UNL     1       6.240  -0.161   0.000  0.00  0.00    +0.000 C 
BRANCH  23  25
ATOM     25  C   UNL     1       5.003   0.554   0.000  0.00  0.00    +0.000 C 
BRANCH  25  26
ATOM     26  C   UNL     1       4.590  -0.161   0.000  0.00  0.00    +0.000 C 
BRANCH  26  27
ATOM     27  C   UNL     1       3.765  -0.161   0.000  0.00  0.00    +0.000 C 
BRANCH  27  30
ATOM     28  N   UNL     1       2.537  -0.960   0.000  0.00  0.00    +0.000 NA
ATOM     29  N   UNL     1       3.687  -1.624   0.000  0.00  0.00    +0.000 NA
ATOM     30  C   UNL     1       3.353  -0.875   0.000  0.00  0.00    +0.000 A 
ATOM     31  C   UNL     1       2.365  -1.762   0.000  0.00  0.00    +0.000 A 
ATOM     32  C   UNL     1       3.079  -2.174   0.000  0.00  0.00    +0.000 A 
ATOM     33  C   UNL     1       1.650  -2.174   0.000  0.00  0.00    +0.000 A 
ATOM     34  C   UNL     1       3.079  -2.999   0.000  0.00  0.00    +0.000 A 
ATOM     35  C   UNL     1       1.650  -2.999   0.000  0.00  0.00    +0.000 A 
ATOM     36  C   UNL     1       2.365  -3.412   0.000  0.00  0.00    +0.000 A 
ENDBRANCH  27  30
ENDBRANCH  26  27
ENDBRANCH  25  26
ENDBRANCH  23  25
ENDBRANCH  22  23
ENDBRANCH  21  22
ENDBRANCH   2  21
TORSDOF 12
