REMARK  Name = 139
REMARK  3 active torsions:
REMARK  status: ('A' for Active; 'I' for Inactive)
REMARK    1  A    between atoms: C_5  and  C_6
REMARK    2  A    between atoms: C_5  and  C_7
REMARK    3  A    between atoms: C_6  and  C_8
REMARK                            x       y       z     vdW  Elec       q    Type
REMARK                         _______ _______ _______ _____ _____    ______ ____
ROOT
ATOM      1  C   UNL     1       3.522   0.206   0.000  0.00  0.00    +0.000 C 
ENDROOT
BRANCH   1   4
ATOM      2  O   UNL     1       2.093   0.206   0.000  0.00  0.00    +0.000 OA
ATOM      3  O   UNL     1       2.807  -1.031   0.000  0.00  0.00    +0.000 OA
ATOM      4  C   UNL     1       2.807  -0.206   0.000  0.00  0.00    +0.000 C 
ENDBRANCH   1   4
BRANCH   1   5
ATOM      5  C   UNL     1       4.236  -0.206   0.000  0.00  0.00    +0.000 C 
BRANCH   5   8
ATOM      6  O   UNL     1       5.665  -0.206   0.000  0.00  0.00    +0.000 OA
ATOM      7  O   UNL     1       4.950   1.031   0.000  0.00  0.00    +0.000 OA
ATOM      8  C   UNL     1       4.950   0.206   0.000  0.00  0.00    +0.000 C 
ENDBRANCH   5   8
ENDBRANCH   1   5
TORSDOF 3
