REMARK  Name = 1390
REMARK  0 active torsions:
REMARK  status: ('A' for Active; 'I' for Inactive)
REMARK                            x       y       z     vdW  Elec       q    Type
REMARK                         _______ _______ _______ _____ _____    ______ ____
ROOT
ATOM      1 NA   UNL     1       2.586   0.825   0.000  0.00  0.00    +0.000 Na
ENDROOT
TORSDOF 0
REMARK  Name = 1390
REMARK  0 active torsions:
REMARK  status: ('A' for Active; 'I' for Inactive)
REMARK                            x       y       z     vdW  Elec       q    Type
REMARK                         _______ _______ _______ _____ _____    ______ ____
ROOT
ATOM      1  O   UNL     1       0.443   1.238   0.000  0.00  0.00    +0.000 OA
ATOM      2  O   UNL     1       1.872   1.238   0.000  0.00  0.00    +0.000 OA
ATOM      3  O   UNL     1       1.157   0.000   0.000  0.00  0.00    +0.000 OA
ATOM      4  C   UNL     1       1.157   0.825   0.000  0.00  0.00    +0.000 C 
ENDROOT
TORSDOF 0
