REMARK  Name = 1392
REMARK  2 active torsions:
REMARK  status: ('A' for Active; 'I' for Inactive)
REMARK    1  A    between atoms: O_2  and  C_19
REMARK    2  A    between atoms: C_10  and  C_19
REMARK                            x       y       z     vdW  Elec       q    Type
REMARK                         _______ _______ _______ _____ _____    ______ ____
ROOT
ATOM      1  O   UNL     1       7.413  -1.649   0.000  0.00  0.00    +0.000 OA
ATOM      2  N   UNL     1       5.550   1.686   0.000  0.00  0.00    +0.000 NA
ATOM      3  N   UNL     1       3.595   0.796   0.000  0.00  0.00    +0.000 NA
ATOM      4  C   UNL     1       6.071   0.122   0.000  0.00  0.00    +0.000 C 
ATOM      5  C   UNL     1       6.627   0.739   0.000  0.00  0.00    +0.000 C 
ATOM      6  C   UNL     1       5.261   0.301   0.000  0.00  0.00    +0.000 C 
ATOM      7  C   UNL     1       5.016   1.094   0.000  0.00  0.00    +0.000 C 
ATOM      8  C   UNL     1       6.325  -0.704   0.000  0.00  0.00    +0.000 C 
ATOM      9  C   UNL     1       6.364   1.526   0.000  0.00  0.00    +0.000 C 
ATOM     10  C   UNL     1       7.475   0.572   0.000  0.00  0.00    +0.000 C 
ATOM     11  C   UNL     1       7.170  -0.890   0.000  0.00  0.00    +0.000 C 
ATOM     12  C   UNL     1       7.748  -0.248   0.000  0.00  0.00    +0.000 C 
ATOM     13  C   UNL     1       4.237   1.260   0.000  0.00  0.00    +0.000 A 
ATOM     14  C   UNL     1       5.303   2.444   0.000  0.00  0.00    +0.000 C 
ATOM     15  C   UNL     1       3.991   2.017   0.000  0.00  0.00    +0.000 A 
ATOM     16  C   UNL     1       4.524   2.610   0.000  0.00  0.00    +0.000 C 
ATOM     17  C   UNL     1       3.199   2.015   0.000  0.00  0.00    +0.000 A 
ATOM     18  C   UNL     1       2.955   1.262   0.000  0.00  0.00    +0.000 A 
ATOM     19  C   UNL     1       2.656   2.636   0.000  0.00  0.00    +0.000 A 
ATOM     20  C   UNL     1       2.151   1.077   0.000  0.00  0.00    +0.000 A 
ATOM     21  C   UNL     1       1.848   2.470   0.000  0.00  0.00    +0.000 A 
ATOM     22  C   UNL     1       1.593   1.686   0.000  0.00  0.00    +0.000 A 
ENDROOT
BRANCH   8  24
ATOM     23  O   UNL     1       5.008  -1.115   0.000  0.00  0.00    +0.000 OA
ATOM     24  C   UNL     1       5.785  -1.290   0.000  0.00  0.00    +0.000 C 
BRANCH  24  25
ATOM     25  O   UNL     1       6.023  -2.051   0.000  0.00  0.00    +0.000 OA
ATOM     26  C   UNL     1       5.483  -2.636   0.000  0.00  0.00    +0.000 C 
ENDBRANCH  24  25
ENDBRANCH   8  24
TORSDOF 2
