REMARK  Name = 1393
REMARK  7 active torsions:
REMARK  status: ('A' for Active; 'I' for Inactive)
REMARK    1  A    between atoms: O_2  and  C_7
REMARK    2  A    between atoms: O_2  and  C_11
REMARK    3  A    between atoms: N_6  and  C_10
REMARK    4  A    between atoms: C_7  and  C_18
REMARK    5  A    between atoms: C_8  and  C_9
REMARK    6  A    between atoms: C_8  and  C_10
REMARK    7  A    between atoms: C_19  and  C_20
REMARK                            x       y       z     vdW  Elec       q    Type
REMARK                         _______ _______ _______ _____ _____    ______ ____
ROOT
ATOM      1  C   UNL     1       3.793   0.697   0.000  0.00  0.00    +0.000 A 
ATOM      2  C   UNL     1       3.793   2.347   0.000  0.00  0.00    +0.000 A 
ATOM      3  C   UNL     1       3.079   1.110   0.000  0.00  0.00    +0.000 A 
ATOM      4  C   UNL     1       4.508   1.110   0.000  0.00  0.00    +0.000 A 
ATOM      5  C   UNL     1       3.079   1.935   0.000  0.00  0.00    +0.000 A 
ATOM      6  C   UNL     1       4.508   1.935   0.000  0.00  0.00    +0.000 A 
ENDROOT
BRANCH   1   7
ATOM      7  C   UNL     1       3.793  -0.128   0.000  0.00  0.00    +0.000 C 
BRANCH   7   8
ATOM      8  C   UNL     1       3.079  -0.540   0.000  0.00  0.00    +0.000 C 
BRANCH   8  10
ATOM      9  O   UNL     1       1.650  -1.365   0.000  0.00  0.00    +0.000 OA
ATOM     10  N   UNL     1       3.079  -1.365   0.000  0.00  0.00    +0.000 NA
ATOM     11  C   UNL     1       2.365  -1.778   0.000  0.00  0.00    +0.000 C 
BRANCH  11  13
ATOM     12 CL   UNL     1       2.365  -5.078   0.000  0.00  0.00    +0.000 Cl
ATOM     13  C   UNL     1       2.365  -2.603   0.000  0.00  0.00    +0.000 A 
ATOM     14  C   UNL     1       3.079  -3.015   0.000  0.00  0.00    +0.000 A 
ATOM     15  C   UNL     1       1.650  -3.015   0.000  0.00  0.00    +0.000 A 
ATOM     16  C   UNL     1       3.079  -3.841   0.000  0.00  0.00    +0.000 A 
ATOM     17  C   UNL     1       1.650  -3.841   0.000  0.00  0.00    +0.000 A 
ATOM     18  C   UNL     1       2.365  -4.253   0.000  0.00  0.00    +0.000 A 
ENDBRANCH  11  13
ENDBRANCH   8  10
ENDBRANCH   7   8
ENDBRANCH   1   7
BRANCH   2  19
ATOM     19  O   UNL     1       3.793   3.172   0.000  0.00  0.00    +0.000 OA
BRANCH  19  20
ATOM     20  C   UNL     1       4.508   3.585   0.000  0.00  0.00    +0.000 C 
ATOM     21  C   UNL     1       4.096   4.299   0.000  0.00  0.00    +0.000 C 
ATOM     22  C   UNL     1       4.920   2.870   0.000  0.00  0.00    +0.000 C 
BRANCH  20  25
ATOM     23  O   UNL     1       5.222   4.822   0.000  0.00  0.00    +0.000 OA
ATOM     24  O   UNL     1       5.937   3.585   0.000  0.00  0.00    +0.000 OA
ATOM     25  C   UNL     1       5.222   3.997   0.000  0.00  0.00    +0.000 C 
ENDBRANCH  20  25
ENDBRANCH  19  20
ENDBRANCH   2  19
TORSDOF 7
