REMARK  Name = 1395
REMARK  0 active torsions:
REMARK  status: ('A' for Active; 'I' for Inactive)
REMARK                            x       y       z     vdW  Elec       q    Type
REMARK                         _______ _______ _______ _____ _____    ______ ____
ROOT
ATOM      1  O   UNL     1       3.396  -1.642   0.000  0.00  0.00    +0.000 OA
ATOM      2  O   UNL     1       3.617  -3.036   0.000  0.00  0.00    +0.000 OA
ATOM      3  O   UNL     1       6.810   3.036   0.000  0.00  0.00    +0.000 OA
ATOM      4  C   UNL     1       3.151   0.043   0.000  0.00  0.00    +0.000 C 
ATOM      5  C   UNL     1       2.359   0.043   0.000  0.00  0.00    +0.000 C 
ATOM      6  C   UNL     1       2.115  -0.711   0.000  0.00  0.00    +0.000 C 
ATOM      7  C   UNL     1       3.396  -0.711   0.000  0.00  0.00    +0.000 C 
ATOM      8  C   UNL     1       3.694   0.664   0.000  0.00  0.00    +0.000 C 
ATOM      9  C   UNL     1       2.755  -1.176   0.000  0.00  0.00    +0.000 C 
ATOM     10  C   UNL     1       1.584  -0.122   0.000  0.00  0.00    +0.000 C 
ATOM     11  C   UNL     1       3.409   1.475   0.000  0.00  0.00    +0.000 C 
ATOM     12  C   UNL     1       4.502   0.499   0.000  0.00  0.00    +0.000 C 
ATOM     13  C   UNL     1       3.975   2.123   0.000  0.00  0.00    +0.000 C 
ATOM     14  C   UNL     1       4.200  -0.895   0.000  0.00  0.00    +0.000 C 
ATOM     15  C   UNL     1       3.131   2.289   0.000  0.00  0.00    +0.000 C 
ATOM     16  C   UNL     1       5.082   1.133   0.000  0.00  0.00    +0.000 C 
ATOM     17  C   UNL     1       4.757  -0.286   0.000  0.00  0.00    +0.000 C 
ATOM     18  C   UNL     1       2.115  -1.642   0.000  0.00  0.00    +0.000 C 
ATOM     19  C   UNL     1       4.817   1.950   0.000  0.00  0.00    +0.000 C 
ATOM     20  C   UNL     1       3.884  -1.335   0.000  0.00  0.00    +0.000 C 
ATOM     21  C   UNL     1       5.955   0.933   0.000  0.00  0.00    +0.000 C 
ATOM     22  C   UNL     1       2.359  -2.395   0.000  0.00  0.00    +0.000 C 
ATOM     23  C   UNL     1       5.327   0.380   0.000  0.00  0.00    +0.000 C 
ATOM     24  C   UNL     1       3.151  -2.395   0.000  0.00  0.00    +0.000 C 
ATOM     25  C   UNL     1       5.405   2.625   0.000  0.00  0.00    +0.000 C 
ATOM     26  C   UNL     1       6.559   1.594   0.000  0.00  0.00    +0.000 C 
ATOM     27  C   UNL     1       6.282   2.446   0.000  0.00  0.00    +0.000 C 
ENDROOT
TORSDOF 0
