REMARK  Name = 1399
REMARK  4 active torsions:
REMARK  status: ('A' for Active; 'I' for Inactive)
REMARK    1  A    between atoms: O_1  and  C_6
REMARK    2  A    between atoms: O_1  and  C_11
REMARK    3  A    between atoms: C_7  and  C_11
REMARK    4  A    between atoms: C_8  and  C_19
REMARK                            x       y       z     vdW  Elec       q    Type
REMARK                         _______ _______ _______ _____ _____    ______ ____
ROOT
ATOM      1  O   UNL     1       4.508  -0.050   0.000  0.00  0.00    +0.000 OA
ENDROOT
BRANCH   1   2
ATOM      2  C   UNL     1       5.222  -0.462   0.000  0.00  0.00    +0.000 A 
ATOM      3  C   UNL     1       5.937  -0.050   0.000  0.00  0.00    +0.000 A 
ATOM      4  C   UNL     1       5.222  -1.287   0.000  0.00  0.00    +0.000 A 
ATOM      5  C   UNL     1       6.651  -0.462   0.000  0.00  0.00    +0.000 A 
ATOM      6  C   UNL     1       5.937  -1.700   0.000  0.00  0.00    +0.000 A 
ATOM      7  C   UNL     1       6.651  -1.287   0.000  0.00  0.00    +0.000 A 
BRANCH   3  10
ATOM      8  O   UNL     1       6.651   1.188   0.000  0.00  0.00    +0.000 OA
ATOM      9  O   UNL     1       5.222   1.188   0.000  0.00  0.00    +0.000 OA
ATOM     10  C   UNL     1       5.937   0.775   0.000  0.00  0.00    +0.000 C 
ENDBRANCH   3  10
ENDBRANCH   1   2
BRANCH   1  12
ATOM     11  O   UNL     1       3.793  -1.287   0.000  0.00  0.00    +0.000 OA
ATOM     12  C   UNL     1       3.793  -0.462   0.000  0.00  0.00    +0.000 C 
BRANCH  12  14
ATOM     13  O   UNL     1       3.793   1.188   0.000  0.00  0.00    +0.000 OA
ATOM     14  C   UNL     1       3.079  -0.050   0.000  0.00  0.00    +0.000 A 
ATOM     15  C   UNL     1       3.079   0.775   0.000  0.00  0.00    +0.000 A 
ATOM     16  C   UNL     1       2.364  -0.462   0.000  0.00  0.00    +0.000 A 
ATOM     17  C   UNL     1       2.364   1.188   0.000  0.00  0.00    +0.000 A 
ATOM     18  C   UNL     1       1.650  -0.050   0.000  0.00  0.00    +0.000 A 
ATOM     19  C   UNL     1       1.650   0.775   0.000  0.00  0.00    +0.000 A 
ENDBRANCH  12  14
ENDBRANCH   1  12
TORSDOF 4
