REMARK  Name = 13U
REMARK  7 active torsions:
REMARK  status: ('A' for Active; 'I' for Inactive)
REMARK    1  A    between atoms: C_2  and  C_14
REMARK    2  A    between atoms: N_3  and  C_4
REMARK    3  A    between atoms: C_4  and  C_5
REMARK    4  A    between atoms: C_8  and  C_9
REMARK    5  A    between atoms: C_19  and  C_21
REMARK    6  A    between atoms: C_21  and  N_22
REMARK    7  A    between atoms: N_22  and  C_23
REMARK                            x       y       z     vdW  Elec       q    Type
REMARK                         _______ _______ _______ _____ _____    ______ ____
ROOT
ATOM      1  C   UNL     1       0.349  -0.696   0.000  0.00  0.00    +0.000 C 
ATOM      2  C   UNL     1       1.016  -1.181   0.000  0.00  0.00    +0.000 C 
ATOM      3  C   UNL     1       0.762  -1.966   0.000  0.00  0.00    +0.000 C 
ATOM      4  C   UNL     1      -0.063  -1.966   0.000  0.00  0.00    +0.000 C 
ATOM      5  N   UNL     1      -0.318  -1.181   0.000  0.00  0.00    +0.000 N 
ATOM      6  C   UNL     1      -1.103  -0.926   0.000  0.00  0.00    +0.000 C 
ATOM      7  O   UNL     1      -1.716  -1.478   0.000  0.00  0.00    +0.000 OA
ENDROOT
BRANCH   1   9
ATOM      8  O   UNL     1      -0.365   0.541   0.000  0.00  0.00    +0.000 OA
ATOM      9  C   UNL     1       0.349   0.129   0.000  0.00  0.00    +0.000 C 
ATOM     10  N   UNL     1       1.064   0.541   0.000  0.00  0.00    +0.000 NA
BRANCH  10  11
ATOM     11  C   UNL     1       1.064   1.367   0.000  0.00  0.00    +0.000 C 
BRANCH  11  12
ATOM     12  C   UNL     1       1.778   1.779   0.000  0.00  0.00    +0.000 A 
ATOM     13  C   UNL     1       1.778   2.604   0.000  0.00  0.00    +0.000 A 
ATOM     14  C   UNL     1       2.493   3.017   0.000  0.00  0.00    +0.000 A 
ATOM     15  C   UNL     1       3.207   2.604   0.000  0.00  0.00    +0.000 A 
ATOM     16  C   UNL     1       3.207   1.779   0.000  0.00  0.00    +0.000 A 
ATOM     17  C   UNL     1       2.493   1.367   0.000  0.00  0.00    +0.000 A 
BRANCH  15  18
ATOM     18  C   UNL     1       3.921   3.017   0.000  0.00  0.00    +0.000 C 
ATOM     19  N   UNL     1       4.636   2.604   0.000  0.00  0.00    +0.000 NA
ATOM     20  N   UNL     1       3.921   3.841   0.000  0.00  0.00    +0.000 NA
ENDBRANCH  15  18
ENDBRANCH  11  12
ENDBRANCH  10  11
ENDBRANCH   1   9
BRANCH   6  21
ATOM     21  C   UNL     1      -1.274  -0.119   0.000  0.00  0.00    +0.000 C 
BRANCH  21  22
ATOM     22  N   UNL     1      -2.059   0.136   0.000  0.00  0.00    +0.000 NA
BRANCH  22  23
ATOM     23  C   UNL     1      -2.672  -0.416   0.000  0.00  0.00    +0.000 C 
ATOM     24  C   UNL     1      -2.397  -1.194   0.000  0.00  0.00    +0.000 C 
ATOM     25  C   UNL     1      -2.752  -1.938   0.000  0.00  0.00    +0.000 C 
ATOM     26  C   UNL     1      -3.530  -2.214   0.000  0.00  0.00    +0.000 C 
ATOM     27  C   UNL     1      -4.274  -1.859   0.000  0.00  0.00    +0.000 C 
ATOM     28  C   UNL     1      -4.550  -1.081   0.000  0.00  0.00    +0.000 C 
ATOM     29  C   UNL     1      -4.194  -0.336   0.000  0.00  0.00    +0.000 C 
ATOM     30  C   UNL     1      -3.417  -0.061   0.000  0.00  0.00    +0.000 C 
ENDBRANCH  22  23
ENDBRANCH  21  22
ENDBRANCH   6  21
TORSDOF 7
