REMARK  Name = 1403
REMARK  5 active torsions:
REMARK  status: ('A' for Active; 'I' for Inactive)
REMARK    1  A    between atoms: N_8  and  C_15
REMARK    2  A    between atoms: C_13  and  O_22
REMARK    3  A    between atoms: C_15  and  C_16
REMARK    4  A    between atoms: C_16  and  C_17
REMARK    5  A    between atoms: C_17  and  N_19
REMARK                            x       y       z     vdW  Elec       q    Type
REMARK                         _______ _______ _______ _____ _____    ______ ____
ROOT
ATOM      1  C   UNL     1      12.293 -12.460   0.000  0.00  0.00    +0.000 A 
ATOM      2  C   UNL     1      12.293 -13.285   0.000  0.00  0.00    +0.000 A 
ATOM      3  C   UNL     1      13.036 -13.697   0.000  0.00  0.00    +0.000 A 
ATOM      4  C   UNL     1      13.036 -12.047   0.000  0.00  0.00    +0.000 A 
ATOM      5  C   UNL     1      13.737 -12.460   0.000  0.00  0.00    +0.000 A 
ATOM      6  C   UNL     1      13.737 -13.285   0.000  0.00  0.00    +0.000 A 
ATOM      7  S   UNL     1      14.438 -13.697   0.000  0.00  0.00    +0.000 S 
ATOM      8  N   UNL     1      14.438 -12.047   0.000  0.00  0.00    +0.000 N 
ATOM      9  C   UNL     1      15.181 -12.460   0.000  0.00  0.00    +0.000 A 
ATOM     10  C   UNL     1      15.181 -13.285   0.000  0.00  0.00    +0.000 A 
ATOM     11  C   UNL     1      15.841 -13.697   0.000  0.00  0.00    +0.000 A 
ATOM     12  C   UNL     1      16.583 -13.285   0.000  0.00  0.00    +0.000 A 
ATOM     13  C   UNL     1      16.583 -12.460   0.000  0.00  0.00    +0.000 A 
ATOM     14  C   UNL     1      15.882 -12.047   0.000  0.00  0.00    +0.000 A 
ENDROOT
BRANCH  13  15
ATOM     15  O   UNL     1      17.303 -12.048   0.000  0.00  0.00    +0.000 OA
ATOM     16  C   UNL     1      18.010 -12.460   0.000  0.00  0.00    +0.000 C 
ENDBRANCH  13  15
BRANCH   8  17
ATOM     17  C   UNL     1      14.438 -11.222   0.000  0.00  0.00    +0.000 C 
BRANCH  17  18
ATOM     18  C   UNL     1      15.181 -10.810   0.000  0.00  0.00    +0.000 C 
ATOM     19  C   UNL     1      15.882 -11.222   0.000  0.00  0.00    +0.000 C 
BRANCH  18  20
ATOM     20  C   UNL     1      15.181  -9.985   0.000  0.00  0.00    +0.000 C 
BRANCH  20  21
ATOM     21  N   UNL     1      15.882  -9.572   0.000  0.00  0.00    +0.000 NA
ATOM     22  C   UNL     1      15.882  -8.747   0.000  0.00  0.00    +0.000 C 
ATOM     23  C   UNL     1      16.624  -9.985   0.000  0.00  0.00    +0.000 C 
ENDBRANCH  20  21
ENDBRANCH  18  20
ENDBRANCH  17  18
ENDBRANCH   8  17
TORSDOF 5
