REMARK  Name = 1405
REMARK  3 active torsions:
REMARK  status: ('A' for Active; 'I' for Inactive)
REMARK    1  A    between atoms: N_7  and  C_14
REMARK    2  A    between atoms: N_9  and  C_24
REMARK    3  A    between atoms: C_23  and  C_27
REMARK                            x       y       z     vdW  Elec       q    Type
REMARK                         _______ _______ _______ _____ _____    ______ ____
ROOT
ATOM      1  F   UNL     1       7.149   2.082   0.000  0.00  0.00    +0.000 F 
ATOM      2  O   UNL     1       4.236   2.888   0.000  0.00  0.00    +0.000 OA
ATOM      3  N   UNL     1       4.236   0.412   0.000  0.00  0.00    +0.000 N 
ATOM      4  C   UNL     1       6.436   0.808   0.000  0.00  0.00    +0.000 A 
ATOM      5  C   UNL     1       5.688   0.384   0.000  0.00  0.00    +0.000 A 
ATOM      6  C   UNL     1       4.951   0.825   0.000  0.00  0.00    +0.000 A 
ATOM      7  C   UNL     1       6.436   1.667   0.000  0.00  0.00    +0.000 A 
ATOM      8  C   UNL     1       4.951   1.650   0.000  0.00  0.00    +0.000 A 
ATOM      9  C   UNL     1       5.688   2.091   0.000  0.00  0.00    +0.000 A 
ATOM     10  C   UNL     1       4.236   2.062   0.000  0.00  0.00    +0.000 A 
ATOM     11  C   UNL     1       3.522   0.825   0.000  0.00  0.00    +0.000 A 
ATOM     12  C   UNL     1       3.522   1.650   0.000  0.00  0.00    +0.000 A 
ENDROOT
BRANCH   3  15
ATOM     13  F   UNL     1       2.808  -0.412   0.000  0.00  0.00    +0.000 F 
ATOM     14  F   UNL     1       4.236  -2.888   0.000  0.00  0.00    +0.000 F 
ATOM     15  C   UNL     1       4.236  -0.412   0.000  0.00  0.00    +0.000 A 
ATOM     16  C   UNL     1       3.522  -0.825   0.000  0.00  0.00    +0.000 A 
ATOM     17  C   UNL     1       4.951  -0.825   0.000  0.00  0.00    +0.000 A 
ATOM     18  C   UNL     1       3.522  -1.650   0.000  0.00  0.00    +0.000 A 
ATOM     19  C   UNL     1       4.951  -1.650   0.000  0.00  0.00    +0.000 A 
ATOM     20  C   UNL     1       4.236  -2.062   0.000  0.00  0.00    +0.000 A 
ENDBRANCH   3  15
BRANCH   4  21
ATOM     21  N   UNL     1       7.149   0.393   0.000  0.00  0.00    +0.000 N 
ATOM     22  N   UNL     1       8.575  -0.438   0.000  0.00  0.00    +0.000 NA
ATOM     23  C   UNL     1       7.859  -0.848   0.000  0.00  0.00    +0.000 C 
ATOM     24  C   UNL     1       7.146  -0.432   0.000  0.00  0.00    +0.000 C 
ATOM     25  C   UNL     1       7.865   0.802   0.000  0.00  0.00    +0.000 C 
ATOM     26  C   UNL     1       8.578   0.387   0.000  0.00  0.00    +0.000 C 
ATOM     27  C   UNL     1       7.855  -1.673   0.000  0.00  0.00    +0.000 C 
ENDBRANCH   4  21
BRANCH  12  30
ATOM     28  O   UNL     1       2.093   1.650   0.000  0.00  0.00    +0.000 OA
ATOM     29  O   UNL     1       2.808   2.888   0.000  0.00  0.00    +0.000 OA
ATOM     30  C   UNL     1       2.808   2.062   0.000  0.00  0.00    +0.000 C 
ENDBRANCH  12  30
TORSDOF 3
