REMARK  Name = 1406
REMARK  1 active torsions:
REMARK  status: ('A' for Active; 'I' for Inactive)
REMARK    1  A    between atoms: C_10  and  C_20
REMARK                            x       y       z     vdW  Elec       q    Type
REMARK                         _______ _______ _______ _____ _____    ______ ____
ROOT
ATOM      1  O   UNL     1       6.957  -1.506   0.000  0.00  0.00    +0.000 OA
ATOM      2  O   UNL     1       2.078   1.801   0.000  0.00  0.00    +0.000 OA
ATOM      3  N   UNL     1       1.593   1.133   0.000  0.00  0.00    +0.000 NA
ATOM      4  C   UNL     1       6.402   0.331   0.000  0.00  0.00    +0.000 C 
ATOM      5  C   UNL     1       6.409  -0.499   0.000  0.00  0.00    +0.000 C 
ATOM      6  C   UNL     1       5.677   0.734   0.000  0.00  0.00    +0.000 C 
ATOM      7  C   UNL     1       4.987   0.336   0.000  0.00  0.00    +0.000 C 
ATOM      8  C   UNL     1       4.297   0.734   0.000  0.00  0.00    +0.000 C 
ATOM      9  C   UNL     1       5.690  -0.914   0.000  0.00  0.00    +0.000 C 
ATOM     10  C   UNL     1       7.196  -0.746   0.000  0.00  0.00    +0.000 C 
ATOM     11  C   UNL     1       4.974  -0.494   0.000  0.00  0.00    +0.000 C 
ATOM     12  C   UNL     1       7.186   0.590   0.000  0.00  0.00    +0.000 C 
ATOM     13  C   UNL     1       5.677   1.531   0.000  0.00  0.00    +0.000 C 
ATOM     14  C   UNL     1       7.675  -0.075   0.000  0.00  0.00    +0.000 C 
ATOM     15  C   UNL     1       4.297   1.531   0.000  0.00  0.00    +0.000 C 
ATOM     16  C   UNL     1       6.415  -1.296   0.000  0.00  0.00    +0.000 C 
ATOM     17  C   UNL     1       4.987   1.930   0.000  0.00  0.00    +0.000 C 
ATOM     18  C   UNL     1       3.585   0.308   0.000  0.00  0.00    +0.000 C 
ATOM     19  C   UNL     1       4.297  -0.062   0.000  0.00  0.00    +0.000 C 
ATOM     20  C   UNL     1       3.585   1.957   0.000  0.00  0.00    +0.000 C 
ATOM     21  C   UNL     1       2.863   0.718   0.000  0.00  0.00    +0.000 A 
ATOM     22  C   UNL     1       2.863   1.548   0.000  0.00  0.00    +0.000 A 
ATOM     23  C   UNL     1       2.078   0.465   0.000  0.00  0.00    +0.000 A 
ENDROOT
BRANCH  10  24
ATOM     24  C   UNL     1       7.845  -1.208   0.000  0.00  0.00    +0.000 C 
ATOM     25  C   UNL     1       8.494  -1.671   0.000  0.00  0.00    +0.000 C 
ENDBRANCH  10  24
TORSDOF 1
