REMARK  Name = 1407
REMARK  4 active torsions:
REMARK  status: ('A' for Active; 'I' for Inactive)
REMARK    1  A    between atoms: N_4  and  C_6
REMARK    2  A    between atoms: N_4  and  C_7
REMARK    3  A    between atoms: C_7  and  C_8
REMARK    4  A    between atoms: C_8  and  C_12
REMARK                            x       y       z     vdW  Elec       q    Type
REMARK                         _______ _______ _______ _____ _____    ______ ____
ROOT
ATOM      1 CL   UNL     1       5.222   1.879   0.000  0.00  0.00    +0.000 Cl
ATOM      2 CL   UNL     1       2.365   1.879   0.000  0.00  0.00    +0.000 Cl
ATOM      3  N   UNL     1       3.793   2.704   0.000  0.00  0.00    +0.000 NA
ATOM      4  C   UNL     1       3.793   0.229   0.000  0.00  0.00    +0.000 A 
ATOM      5  C   UNL     1       3.079   0.642   0.000  0.00  0.00    +0.000 A 
ATOM      6  C   UNL     1       4.508   0.642   0.000  0.00  0.00    +0.000 A 
ATOM      7  C   UNL     1       4.508   1.467   0.000  0.00  0.00    +0.000 A 
ATOM      8  C   UNL     1       3.079   1.467   0.000  0.00  0.00    +0.000 A 
ATOM      9  C   UNL     1       3.793   1.879   0.000  0.00  0.00    +0.000 A 
ENDROOT
BRANCH   4  11
ATOM     10  O   UNL     1       4.508  -1.008   0.000  0.00  0.00    +0.000 OA
ATOM     11  C   UNL     1       3.793  -0.596   0.000  0.00  0.00    +0.000 C 
BRANCH  11  12
ATOM     12  C   UNL     1       3.079  -1.008   0.000  0.00  0.00    +0.000 C 
BRANCH  12  13
ATOM     13  N   UNL     1       3.079  -1.833   0.000  0.00  0.00    +0.000 NA
BRANCH  13  14
ATOM     14  C   UNL     1       2.365  -2.246   0.000  0.00  0.00    +0.000 C 
ATOM     15  C   UNL     1       1.650  -2.658   0.000  0.00  0.00    +0.000 C 
ATOM     16  C   UNL     1       2.777  -2.960   0.000  0.00  0.00    +0.000 C 
ATOM     17  C   UNL     1       1.952  -1.531   0.000  0.00  0.00    +0.000 C 
ENDBRANCH  13  14
ENDBRANCH  12  13
ENDBRANCH  11  12
ENDBRANCH   4  11
TORSDOF 4
