REMARK  Name = 1408
REMARK  8 active torsions:
REMARK  status: ('A' for Active; 'I' for Inactive)
REMARK    1  A    between atoms: O_2  and  C_18
REMARK    2  A    between atoms: O_2  and  C_21
REMARK    3  A    between atoms: O_3  and  C_19
REMARK    4  A    between atoms: O_3  and  C_22
REMARK    5  A    between atoms: N_6  and  C_9
REMARK    6  A    between atoms: N_6  and  C_10
REMARK    7  A    between atoms: C_10  and  C_11
REMARK    8  A    between atoms: C_11  and  C_15
REMARK                            x       y       z     vdW  Elec       q    Type
REMARK                         _______ _______ _______ _____ _____    ______ ____
ROOT
ATOM      1  C   UNL     1       4.508   0.262   0.000  0.00  0.00    +0.000 A 
ATOM      2  C   UNL     1       5.222  -0.151   0.000  0.00  0.00    +0.000 A 
ATOM      3  C   UNL     1       3.793  -0.151   0.000  0.00  0.00    +0.000 A 
ATOM      4  C   UNL     1       3.793  -0.976   0.000  0.00  0.00    +0.000 A 
ATOM      5  C   UNL     1       5.222  -0.976   0.000  0.00  0.00    +0.000 A 
ATOM      6  C   UNL     1       4.508  -1.389   0.000  0.00  0.00    +0.000 A 
ENDROOT
BRANCH   1   8
ATOM      7  O   UNL     1       3.793   1.499   0.000  0.00  0.00    +0.000 OA
ATOM      8  C   UNL     1       4.508   1.087   0.000  0.00  0.00    +0.000 C 
BRANCH   8   9
ATOM      9  C   UNL     1       5.222   1.499   0.000  0.00  0.00    +0.000 C 
BRANCH   9  10
ATOM     10  N   UNL     1       5.222   2.324   0.000  0.00  0.00    +0.000 NA
BRANCH  10  11
ATOM     11  C   UNL     1       5.937   2.737   0.000  0.00  0.00    +0.000 C 
ATOM     12  C   UNL     1       6.349   2.022   0.000  0.00  0.00    +0.000 C 
ATOM     13  C   UNL     1       5.524   3.451   0.000  0.00  0.00    +0.000 C 
ATOM     14  C   UNL     1       6.652   3.149   0.000  0.00  0.00    +0.000 C 
ENDBRANCH  10  11
ENDBRANCH   9  10
ENDBRANCH   8   9
ENDBRANCH   1   8
BRANCH   5  15
ATOM     15  O   UNL     1       5.937  -1.389   0.000  0.00  0.00    +0.000 OA
BRANCH  15  18
ATOM     16  O   UNL     1       5.222  -2.626   0.000  0.00  0.00    +0.000 OA
ATOM     17  N   UNL     1       6.652  -2.626   0.000  0.00  0.00    +0.000 N 
ATOM     18  C   UNL     1       5.937  -2.213   0.000  0.00  0.00    +0.000 C 
ATOM     19  C   UNL     1       7.366  -2.213   0.000  0.00  0.00    +0.000 C 
ATOM     20  C   UNL     1       6.652  -3.451   0.000  0.00  0.00    +0.000 C 
ENDBRANCH  15  18
ENDBRANCH   5  15
BRANCH   4  21
ATOM     21  O   UNL     1       3.079  -1.389   0.000  0.00  0.00    +0.000 OA
BRANCH  21  24
ATOM     22  O   UNL     1       3.793  -2.626   0.000  0.00  0.00    +0.000 OA
ATOM     23  N   UNL     1       2.365  -2.626   0.000  0.00  0.00    +0.000 N 
ATOM     24  C   UNL     1       3.079  -2.213   0.000  0.00  0.00    +0.000 C 
ATOM     25  C   UNL     1       1.650  -2.213   0.000  0.00  0.00    +0.000 C 
ATOM     26  C   UNL     1       2.365  -3.451   0.000  0.00  0.00    +0.000 C 
ENDBRANCH  21  24
ENDBRANCH   4  21
TORSDOF 8
