REMARK  Name = 1413
REMARK  7 active torsions:
REMARK  status: ('A' for Active; 'I' for Inactive)
REMARK    1  A    between atoms: O_7  and  N_11
REMARK    2  A    between atoms: N_8  and  C_16
REMARK    3  A    between atoms: N_10  and  CA_22
REMARK    4  A    between atoms: C_16  and  C_20
REMARK    5  A    between atoms: CA_23  and  C_26
REMARK    6  A    between atoms: C_27  and  C_28
REMARK    7  A    between atoms: C_28  and  C_29
REMARK                            x       y       z     vdW  Elec       q    Type
REMARK                         _______ _______ _______ _____ _____    ______ ____
ROOT
ATOM      1  S   UNL     1       4.687  -0.267   0.000  0.00  0.00    +0.000 S 
ATOM      2  O   UNL     1       6.815   1.558   0.000  0.00  0.00    +0.000 OA
ATOM      3  N   UNL     1       5.401   0.970   0.000  0.00  0.00    +0.000 N 
ATOM      4  C   UNL     1       3.972   0.970   0.000  0.00  0.00    +0.000 C 
ATOM      5  C   UNL     1       5.401   0.145   0.000  0.00  0.00    +0.000 C 
ATOM      6  CA  UNL     1       6.233   0.142   0.000  0.00  0.00    +0.000 C 
ATOM      7  CA  UNL     1       4.687   1.383   0.000  0.00  0.00    +0.000 C 
ATOM      8  C   UNL     1       3.972   0.145   0.000  0.00  0.00    +0.000 C 
ATOM      9  C   UNL     1       6.233   0.974   0.000  0.00  0.00    +0.000 C 
ENDROOT
BRANCH   7  12
ATOM     10  O   UNL     1       5.401   2.620   0.000  0.00  0.00    +0.000 OA
ATOM     11  OXT UNL     1       3.972   2.620   0.000  0.00  0.00    +0.000 OA
ATOM     12  C   UNL     1       4.687   2.208   0.000  0.00  0.00    +0.000 C 
ENDBRANCH   7  12
BRANCH   6  14
ATOM     13  O   UNL     1       7.828   0.566   0.000  0.00  0.00    +0.000 OA
ATOM     14  N   UNL     1       6.815  -0.443   0.000  0.00  0.00    +0.000 NA
ATOM     15  C   UNL     1       7.613  -0.231   0.000  0.00  0.00    +0.000 C 
BRANCH  15  17
ATOM     16  N   UNL     1       7.980  -1.612   0.000  0.00  0.00    +0.000 NA
ATOM     17  C   UNL     1       8.195  -0.815   0.000  0.00  0.00    +0.000 C 
BRANCH  17  21
ATOM     18  S   UNL     1      10.325  -0.676   0.000  0.00  0.00    +0.000 S 
ATOM     19  N   UNL     1       9.289   0.166   0.000  0.00  0.00    +0.000 NA
ATOM     20  N   UNL     1      10.634   0.761   0.000  0.00  0.00    +0.000 NA
ATOM     21  C   UNL     1       8.992  -0.604   0.000  0.00  0.00    +0.000 A 
ATOM     22  C   UNL     1       9.632  -1.124   0.000  0.00  0.00    +0.000 A 
ATOM     23  C   UNL     1      10.113   0.121   0.000  0.00  0.00    +0.000 A 
ENDBRANCH  17  21
BRANCH  16  24
ATOM     24  O   UNL     1       7.182  -1.824   0.000  0.00  0.00    +0.000 OA
ATOM     25  C   UNL     1       6.967  -2.620   0.000  0.00  0.00    +0.000 C 
ENDBRANCH  16  24
ENDBRANCH  15  17
ENDBRANCH   6  14
BRANCH   4  26
ATOM     26  C   UNL     1       3.258   1.383   0.000  0.00  0.00    +0.000 C 
BRANCH  26  27
ATOM     27  N   UNL     1       2.543   0.970   0.000  0.00  0.00    +0.000 N 
ATOM     28  C   UNL     1       2.956   0.256   0.000  0.00  0.00    +0.000 C 
ATOM     29  C   UNL     1       1.736   0.799   0.000  0.00  0.00    +0.000 C 
ATOM     30  C   UNL     1       2.404  -0.357   0.000  0.00  0.00    +0.000 C 
ATOM     31  C   UNL     1       1.650  -0.022   0.000  0.00  0.00    +0.000 C 
ATOM     32  C   UNL     1       2.372   1.777   0.000  0.00  0.00    +0.000 C 
ENDBRANCH  26  27
ENDBRANCH   4  26
TORSDOF 7
