REMARK  Name = 1414
REMARK  7 active torsions:
REMARK  status: ('A' for Active; 'I' for Inactive)
REMARK    1  A    between atoms: O_3  and  C_17
REMARK    2  A    between atoms: O_3  and  C_21
REMARK    3  A    between atoms: N_9  and  CA_12
REMARK    4  A    between atoms: CA_14  and  C_18
REMARK    5  A    between atoms: C_15  and  C_17
REMARK    6  A    between atoms: C_19  and  C_20
REMARK    7  A    between atoms: C_20  and  C_22
REMARK                            x       y       z     vdW  Elec       q    Type
REMARK                         _______ _______ _______ _____ _____    ______ ____
ROOT
ATOM      1  S   UNL     1       5.222  -1.365   0.000  0.00  0.00    +0.000 S 
ATOM      2  O   UNL     1       7.351   0.461   0.000  0.00  0.00    +0.000 OA
ATOM      3  N   UNL     1       5.937  -0.127   0.000  0.00  0.00    +0.000 N 
ATOM      4  C   UNL     1       5.937  -0.952   0.000  0.00  0.00    +0.000 C 
ATOM      5  CA  UNL     1       6.769  -0.956   0.000  0.00  0.00    +0.000 C 
ATOM      6  C   UNL     1       6.769  -0.124   0.000  0.00  0.00    +0.000 C 
ATOM      7  CA  UNL     1       5.222   0.285   0.000  0.00  0.00    +0.000 C 
ATOM      8  C   UNL     1       4.508  -0.127   0.000  0.00  0.00    +0.000 C 
ATOM      9  C   UNL     1       4.508  -0.952   0.000  0.00  0.00    +0.000 C 
ENDROOT
BRANCH   7  12
ATOM     10  O   UNL     1       4.508   1.523   0.000  0.00  0.00    +0.000 OA
ATOM     11  OXT UNL     1       5.937   1.523   0.000  0.00  0.00    +0.000 OA
ATOM     12  C   UNL     1       5.222   1.110   0.000  0.00  0.00    +0.000 C 
ENDBRANCH   7  12
BRANCH   5  14
ATOM     13  O   UNL     1       8.364  -0.532   0.000  0.00  0.00    +0.000 OA
ATOM     14  N   UNL     1       7.351  -1.540   0.000  0.00  0.00    +0.000 NA
ATOM     15  C   UNL     1       8.148  -1.328   0.000  0.00  0.00    +0.000 C 
BRANCH  15  16
ATOM     16  C   UNL     1       8.730  -1.913   0.000  0.00  0.00    +0.000 C 
BRANCH  16  18
ATOM     17  N   UNL     1      10.325  -1.489   0.000  0.00  0.00    +0.000 NA
ATOM     18  C   UNL     1       9.528  -1.701   0.000  0.00  0.00    +0.000 C 
ENDBRANCH  16  18
ENDBRANCH  15  16
ENDBRANCH   5  14
BRANCH   8  19
ATOM     19  C   UNL     1       3.793   0.285   0.000  0.00  0.00    +0.000 C 
BRANCH  19  20
ATOM     20  O   UNL     1       3.079  -0.127   0.000  0.00  0.00    +0.000 OA
BRANCH  20  22
ATOM     21  O   UNL     1       2.365   1.110   0.000  0.00  0.00    +0.000 OA
ATOM     22  C   UNL     1       2.365   0.285   0.000  0.00  0.00    +0.000 C 
ATOM     23  C   UNL     1       1.650  -0.127   0.000  0.00  0.00    +0.000 C 
ENDBRANCH  20  22
ENDBRANCH  19  20
ENDBRANCH   8  19
TORSDOF 7
