REMARK  Name = 1416
REMARK  7 active torsions:
REMARK  status: ('A' for Active; 'I' for Inactive)
REMARK    1  A    between atoms: O_4  and  C_20
REMARK    2  A    between atoms: O_8  and  N_11
REMARK    3  A    between atoms: N_10  and  CA_15
REMARK    4  A    between atoms: CA_17  and  C_21
REMARK    5  A    between atoms: C_18  and  C_20
REMARK    6  A    between atoms: C_22  and  C_23
REMARK    7  A    between atoms: C_23  and  C_24
REMARK                            x       y       z     vdW  Elec       q    Type
REMARK                         _______ _______ _______ _____ _____    ______ ____
ROOT
ATOM      1  S   UNL     1       4.508  -0.523   0.000  0.00  0.00    +0.000 S 
ATOM      2  O   UNL     1       6.636   1.302   0.000  0.00  0.00    +0.000 OA
ATOM      3  N   UNL     1       5.222   0.715   0.000  0.00  0.00    +0.000 N 
ATOM      4  C   UNL     1       5.222  -0.111   0.000  0.00  0.00    +0.000 C 
ATOM      5  CA  UNL     1       6.054  -0.114   0.000  0.00  0.00    +0.000 C 
ATOM      6  C   UNL     1       6.054   0.718   0.000  0.00  0.00    +0.000 C 
ATOM      7  CA  UNL     1       4.508   1.127   0.000  0.00  0.00    +0.000 C 
ATOM      8  C   UNL     1       3.793   0.715   0.000  0.00  0.00    +0.000 C 
ATOM      9  C   UNL     1       3.793  -0.111   0.000  0.00  0.00    +0.000 C 
ENDROOT
BRANCH   5  11
ATOM     10  O   UNL     1       7.649   0.310   0.000  0.00  0.00    +0.000 OA
ATOM     11  N   UNL     1       6.636  -0.699   0.000  0.00  0.00    +0.000 NA
ATOM     12  C   UNL     1       7.434  -0.487   0.000  0.00  0.00    +0.000 C 
BRANCH  12  14
ATOM     13  N   UNL     1       7.801  -1.868   0.000  0.00  0.00    +0.000 NA
ATOM     14  C   UNL     1       8.016  -1.071   0.000  0.00  0.00    +0.000 C 
BRANCH  14  18
ATOM     15  S   UNL     1      10.146  -0.932   0.000  0.00  0.00    +0.000 S 
ATOM     16  N   UNL     1       9.111  -0.090   0.000  0.00  0.00    +0.000 NA
ATOM     17  N   UNL     1      10.455   0.505   0.000  0.00  0.00    +0.000 NA
ATOM     18  C   UNL     1       8.813  -0.859   0.000  0.00  0.00    +0.000 A 
ATOM     19  C   UNL     1       9.454  -1.380   0.000  0.00  0.00    +0.000 A 
ATOM     20  C   UNL     1       9.934  -0.135   0.000  0.00  0.00    +0.000 A 
ENDBRANCH  14  18
BRANCH  13  21
ATOM     21  O   UNL     1       7.003  -2.079   0.000  0.00  0.00    +0.000 OA
ATOM     22  C   UNL     1       6.788  -2.876   0.000  0.00  0.00    +0.000 C 
ENDBRANCH  13  21
ENDBRANCH  12  14
ENDBRANCH   5  11
BRANCH   7  25
ATOM     23  O   UNL     1       3.793   2.365   0.000  0.00  0.00    +0.000 OA
ATOM     24  OXT UNL     1       5.222   2.365   0.000  0.00  0.00    +0.000 OA
ATOM     25  C   UNL     1       4.508   1.952   0.000  0.00  0.00    +0.000 C 
ENDBRANCH   7  25
BRANCH   8  26
ATOM     26  C   UNL     1       3.079   1.127   0.000  0.00  0.00    +0.000 C 
BRANCH  26  27
ATOM     27  O   UNL     1       2.365   0.715   0.000  0.00  0.00    +0.000 OA
ATOM     28  C   UNL     1       1.650   1.127   0.000  0.00  0.00    +0.000 C 
ENDBRANCH  26  27
ENDBRANCH   8  26
TORSDOF 7
