REMARK  Name = 1419
REMARK  10 active torsions:
REMARK  status: ('A' for Active; 'I' for Inactive)
REMARK    1  A    between atoms: O_7  and  C_19
REMARK    2  A    between atoms: O_7  and  C_26
REMARK    3  A    between atoms: N_9  and  C_17
REMARK    4  A    between atoms: N_10  and  C_18
REMARK    5  A    between atoms: N_11  and  C_28
REMARK    6  A    between atoms: N_11  and  C_29
REMARK    7  A    between atoms: C_17  and  C_19
REMARK    8  A    between atoms: C_22  and  C_25
REMARK    9  A    between atoms: C_26  and  C_27
REMARK   10  A    between atoms: C_38  and  C_42
REMARK                            x       y       z     vdW  Elec       q    Type
REMARK                         _______ _______ _______ _____ _____    ______ ____
ROOT
ATOM      1  O   UNL     1       6.119   1.262   0.000  0.00  0.00    +0.000 OA
ATOM      2  C   UNL     1       6.828   0.841   0.000  0.00  0.00    +0.000 C 
ENDROOT
BRANCH   2   3
ATOM      3  C   UNL     1       7.548   1.245   0.000  0.00  0.00    +0.000 A 
ATOM      4  C   UNL     1       7.557   2.070   0.000  0.00  0.00    +0.000 A 
ATOM      5  C   UNL     1       8.257   0.825   0.000  0.00  0.00    +0.000 A 
ATOM      6  C   UNL     1       8.276   2.474   0.000  0.00  0.00    +0.000 A 
ATOM      7  C   UNL     1       8.976   1.229   0.000  0.00  0.00    +0.000 A 
ATOM      8  C   UNL     1       8.986   2.054   0.000  0.00  0.00    +0.000 A 
BRANCH   4   9
ATOM      9  N   UNL     1       6.848   2.491   0.000  0.00  0.00    +0.000 NA
BRANCH   9  11
ATOM     10  N   UNL     1       6.857   5.023   0.000  0.00  0.00    +0.000 NA
ATOM     11  C   UNL     1       6.857   3.316   0.000  0.00  0.00    +0.000 A 
ATOM     12  C   UNL     1       6.120   3.757   0.000  0.00  0.00    +0.000 A 
ATOM     13  C   UNL     1       6.120   4.582   0.000  0.00  0.00    +0.000 A 
ATOM     14  C   UNL     1       5.405   3.345   0.000  0.00  0.00    +0.000 A 
ATOM     15  C   UNL     1       7.604   3.740   0.000  0.00  0.00    +0.000 A 
ATOM     16  C   UNL     1       5.405   4.995   0.000  0.00  0.00    +0.000 A 
ATOM     17  C   UNL     1       4.691   4.582   0.000  0.00  0.00    +0.000 A 
ATOM     18  C   UNL     1       4.691   3.757   0.000  0.00  0.00    +0.000 A 
ATOM     19  C   UNL     1       7.604   4.599   0.000  0.00  0.00    +0.000 A 
BRANCH  17  23
ATOM     20  F   UNL     1       3.564   4.280   0.000  0.00  0.00    +0.000 F 
ATOM     21  F   UNL     1       3.261   5.407   0.000  0.00  0.00    +0.000 F 
ATOM     22  F   UNL     1       4.389   5.709   0.000  0.00  0.00    +0.000 F 
ATOM     23  C   UNL     1       3.976   4.995   0.000  0.00  0.00    +0.000 C 
ENDBRANCH  17  23
ENDBRANCH   9  11
ENDBRANCH   4   9
ENDBRANCH   2   3
BRANCH   2  24
ATOM     24  O   UNL     1       6.819   0.016   0.000  0.00  0.00    +0.000 OA
BRANCH  24  25
ATOM     25  C   UNL     1       6.100  -0.388   0.000  0.00  0.00    +0.000 C 
BRANCH  25  26
ATOM     26  C   UNL     1       6.090  -1.213   0.000  0.00  0.00    +0.000 C 
BRANCH  26  27
ATOM     27  N   UNL     1       5.371  -1.617   0.000  0.00  0.00    +0.000 NA
ATOM     28  N   UNL     1       3.933  -2.426   0.000  0.00  0.00    +0.000 N 
ATOM     29  C   UNL     1       5.361  -2.442   0.000  0.00  0.00    +0.000 C 
ATOM     30  C   UNL     1       4.661  -1.196   0.000  0.00  0.00    +0.000 C 
ATOM     31  C   UNL     1       4.642  -2.846   0.000  0.00  0.00    +0.000 C 
ATOM     32  C   UNL     1       3.942  -1.601   0.000  0.00  0.00    +0.000 C 
BRANCH  28  33
ATOM     33  C   UNL     1       3.213  -2.830   0.000  0.00  0.00    +0.000 A 
ATOM     34  C   UNL     1       3.204  -3.655   0.000  0.00  0.00    +0.000 A 
ATOM     35  C   UNL     1       2.504  -2.409   0.000  0.00  0.00    +0.000 A 
ATOM     36  C   UNL     1       2.485  -4.059   0.000  0.00  0.00    +0.000 A 
ATOM     37  C   UNL     1       1.784  -2.813   0.000  0.00  0.00    +0.000 A 
ATOM     38  C   UNL     1       1.775  -3.638   0.000  0.00  0.00    +0.000 A 
BRANCH  36  42
ATOM     39  F   UNL     1       3.300  -4.894   0.000  0.00  0.00    +0.000 F 
ATOM     40  F   UNL     1       1.650  -4.875   0.000  0.00  0.00    +0.000 F 
ATOM     41  F   UNL     1       2.466  -5.709   0.000  0.00  0.00    +0.000 F 
ATOM     42  C   UNL     1       2.475  -4.884   0.000  0.00  0.00    +0.000 C 
ENDBRANCH  36  42
ENDBRANCH  28  33
ENDBRANCH  26  27
ENDBRANCH  25  26
ENDBRANCH  24  25
ENDBRANCH   2  24
TORSDOF 10
