REMARK  Name = 142
REMARK  4 active torsions:
REMARK  status: ('A' for Active; 'I' for Inactive)
REMARK    1  A    between atoms: CB_6  and  CA_7
REMARK    2  A    between atoms: CB_6  and  CG_8
REMARK    3  A    between atoms: CA_7  and  C_9
REMARK    4  A    between atoms: CG_8  and  CD_10
REMARK                            x       y       z     vdW  Elec       q    Type
REMARK                         _______ _______ _______ _____ _____    ______ ____
ROOT
ATOM      1  CB  GLU A   1       3.079   0.050   0.000  0.00  0.00    +0.000 C 
ENDROOT
BRANCH   1   3
ATOM      2  N   GLU A   1       2.365   1.287   0.000  0.00  0.00    +0.000 NA
ATOM      3  CA  GLU A   1       3.079   0.875   0.000  0.00  0.00    +0.000 C 
BRANCH   3   6
ATOM      4  O   GLU A   1       4.508   0.875   0.000  0.00  0.00    +0.000 OA
ATOM      5  OXT GLU A   1       3.793   2.112   0.000  0.00  0.00    +0.000 OA
ATOM      6  C   GLU A   1       3.793   1.287   0.000  0.00  0.00    +0.000 C 
ENDBRANCH   3   6
ENDBRANCH   1   3
BRANCH   1   7
ATOM      7  CG  GLU A   1       2.365  -0.363   0.000  0.00  0.00    +0.000 C 
BRANCH   7  10
ATOM      8  OE1 GLU A   1       1.650  -1.601   0.000  0.00  0.00    +0.000 OA
ATOM      9  OE2 GLU A   1       3.079  -1.601   0.000  0.00  0.00    +0.000 OA
ATOM     10  CD  GLU A   1       2.365  -1.188   0.000  0.00  0.00    +0.000 C 
ENDBRANCH   7  10
ENDBRANCH   1   7
TORSDOF 4
