REMARK  Name = 1420
REMARK  3 active torsions:
REMARK  status: ('A' for Active; 'I' for Inactive)
REMARK    1  A    between atoms: O_1  and  C_11
REMARK    2  A    between atoms: O_1  and  C_23
REMARK    3  A    between atoms: C_23  and  C_24
REMARK                            x       y       z     vdW  Elec       q    Type
REMARK                         _______ _______ _______ _____ _____    ______ ____
ROOT
ATOM      1  O   UNL     1       1.650  -2.320   0.000  0.00  0.00    +0.000 OA
ATOM      2  C   UNL     1       6.099  -0.627   0.000  0.00  0.00    +0.000 C 
ATOM      3  C   UNL     1       6.099   0.198   0.000  0.00  0.00    +0.000 C 
ATOM      4  C   UNL     1       5.385  -1.040   0.000  0.00  0.00    +0.000 C 
ATOM      5  C   UNL     1       4.670  -0.627   0.000  0.00  0.00    +0.000 C 
ATOM      6  C   UNL     1       3.920  -1.045   0.000  0.00  0.00    +0.000 C 
ATOM      7  C   UNL     1       5.385   0.611   0.000  0.00  0.00    +0.000 C 
ATOM      8  C   UNL     1       4.670   0.198   0.000  0.00  0.00    +0.000 C 
ATOM      9  C   UNL     1       6.880   0.449   0.000  0.00  0.00    +0.000 C 
ATOM     10  C   UNL     1       6.880  -0.878   0.000  0.00  0.00    +0.000 C 
ATOM     11  C   UNL     1       5.398  -1.899   0.000  0.00  0.00    +0.000 C 
ATOM     12  C   UNL     1       7.361  -0.214   0.000  0.00  0.00    +0.000 C 
ATOM     13  C   UNL     1       3.913  -1.905   0.000  0.00  0.00    +0.000 C 
ATOM     14  C   UNL     1       6.099   1.023   0.000  0.00  0.00    +0.000 C 
ATOM     15  C   UNL     1       4.657  -2.334   0.000  0.00  0.00    +0.000 C 
ATOM     16  C   UNL     1       3.155  -0.580   0.000  0.00  0.00    +0.000 C 
ATOM     17  C   UNL     1       3.926  -0.220   0.000  0.00  0.00    +0.000 C 
ATOM     18  C   UNL     1       2.373  -1.015   0.000  0.00  0.00    +0.000 C 
ATOM     19  C   UNL     1       3.141  -2.358   0.000  0.00  0.00    +0.000 C 
ATOM     20  C   UNL     1       2.366  -1.911   0.000  0.00  0.00    +0.000 C 
ENDROOT
BRANCH   9  21
ATOM     21  O   UNL     1       7.136   1.234   0.000  0.00  0.00    +0.000 OA
BRANCH  21  23
ATOM     22  O   UNL     1       8.495   0.790   0.000  0.00  0.00    +0.000 OA
ATOM     23  C   UNL     1       7.944   1.404   0.000  0.00  0.00    +0.000 C 
BRANCH  23  24
ATOM     24  C   UNL     1       8.200   2.188   0.000  0.00  0.00    +0.000 C 
ATOM     25  C   UNL     1       9.007   2.358   0.000  0.00  0.00    +0.000 C 
ENDBRANCH  23  24
ENDBRANCH  21  23
ENDBRANCH   9  21
TORSDOF 3
