REMARK  Name = 1421
REMARK  9 active torsions:
REMARK  status: ('A' for Active; 'I' for Inactive)
REMARK    1  A    between atoms: O_1  and  C_20
REMARK    2  A    between atoms: O_1  and  C_26
REMARK    3  A    between atoms: O_2  and  C_21
REMARK    4  A    between atoms: O_2  and  C_30
REMARK    5  A    between atoms: O_4  and  C_27
REMARK    6  A    between atoms: O_4  and  C_33
REMARK    7  A    between atoms: C_29  and  C_38
REMARK    8  A    between atoms: C_36  and  C_41
REMARK    9  A    between atoms: C_40  and  C_42
REMARK                            x       y       z     vdW  Elec       q    Type
REMARK                         _______ _______ _______ _____ _____    ______ ____
ROOT
ATOM      1  O   UNL     1       6.635  -0.361   0.000  0.00  0.00    +0.000 OA
ENDROOT
BRANCH   1   5
ATOM      2  O   UNL     1       8.064  -1.186   0.000  0.00  0.00    +0.000 OA
ATOM      3  N   UNL     1       5.508  -3.138   0.000  0.00  0.00    +0.000 NA
ATOM      4  N   UNL     1       8.064  -2.836   0.000  0.00  0.00    +0.000 NA
ATOM      5  C   UNL     1       6.635  -1.186   0.000  0.00  0.00    +0.000 C 
ATOM      6  C   UNL     1       5.920  -1.598   0.000  0.00  0.00    +0.000 C 
ATOM      7  C   UNL     1       5.920  -2.423   0.000  0.00  0.00    +0.000 C 
ATOM      8  C   UNL     1       7.349  -1.598   0.000  0.00  0.00    +0.000 C 
ATOM      9  C   UNL     1       7.349  -2.423   0.000  0.00  0.00    +0.000 C 
ATOM     10  C   UNL     1       6.635  -2.836   0.000  0.00  0.00    +0.000 C 
BRANCH   6  11
ATOM     11  O   UNL     1       5.206  -1.186   0.000  0.00  0.00    +0.000 OA
BRANCH  11  16
ATOM     12  O   UNL     1       3.968  -1.900   0.000  0.00  0.00    +0.000 OA
ATOM     13  O   UNL     1       2.731   0.243   0.000  0.00  0.00    +0.000 OA
ATOM     14  O   UNL     1       1.906  -1.186   0.000  0.00  0.00    +0.000 OA
ATOM     15  N   UNL     1       4.381   0.243   0.000  0.00  0.00    +0.000 NA
ATOM     16  C   UNL     1       4.381  -1.186   0.000  0.00  0.00    +0.000 C 
ATOM     17  C   UNL     1       3.968  -0.471   0.000  0.00  0.00    +0.000 C 
ATOM     18  C   UNL     1       3.143  -0.471   0.000  0.00  0.00    +0.000 C 
ATOM     19  C   UNL     1       2.731  -1.186   0.000  0.00  0.00    +0.000 C 
ATOM     20  C   UNL     1       3.143  -1.900   0.000  0.00  0.00    +0.000 C 
BRANCH  20  22
ATOM     21  O   UNL     1       3.143  -3.329   0.000  0.00  0.00    +0.000 OA
ATOM     22  C   UNL     1       2.731  -2.615   0.000  0.00  0.00    +0.000 C 
ENDBRANCH  20  22
ENDBRANCH  11  16
ENDBRANCH   6  11
ENDBRANCH   1   5
BRANCH   1  25
ATOM     23  O   UNL     1       8.103  -0.284   0.000  0.00  0.00    +0.000 OA
ATOM     24  O   UNL     1       6.822   1.424   0.000  0.00  0.00    +0.000 OA
ATOM     25  C   UNL     1       7.349   0.052   0.000  0.00  0.00    +0.000 C 
ATOM     26  C   UNL     1       8.243   1.044   0.000  0.00  0.00    +0.000 C 
ATOM     27  C   UNL     1       7.436   0.872   0.000  0.00  0.00    +0.000 C 
ATOM     28  C   UNL     1       8.655   0.329   0.000  0.00  0.00    +0.000 C 
BRANCH  28  30
ATOM     29  O   UNL     1       9.811  -0.511   0.000  0.00  0.00    +0.000 OA
ATOM     30  C   UNL     1       9.476   0.243   0.000  0.00  0.00    +0.000 C 
ENDBRANCH  28  30
BRANCH  26  31
ATOM     31  O   UNL     1       8.578   1.798   0.000  0.00  0.00    +0.000 OA
BRANCH  31  36
ATOM     32  O   UNL     1       9.884   1.216   0.000  0.00  0.00    +0.000 OA
ATOM     33  O   UNL     1      10.890   3.477   0.000  0.00  0.00    +0.000 OA
ATOM     34  O   UNL     1      11.860   2.143   0.000  0.00  0.00    +0.000 OA
ATOM     35  N   UNL     1       9.249   3.305   0.000  0.00  0.00    +0.000 NA
ATOM     36  C   UNL     1       9.399   1.884   0.000  0.00  0.00    +0.000 C 
ATOM     37  C   UNL     1       9.734   2.638   0.000  0.00  0.00    +0.000 C 
ATOM     38  C   UNL     1      10.555   2.724   0.000  0.00  0.00    +0.000 C 
ATOM     39  C   UNL     1      11.040   2.056   0.000  0.00  0.00    +0.000 C 
ATOM     40  C   UNL     1      10.704   1.302   0.000  0.00  0.00    +0.000 C 
BRANCH  40  42
ATOM     41  N   UNL     1      12.009   0.721   0.000  0.00  0.00    +0.000 NA
ATOM     42  C   UNL     1      11.189   0.635   0.000  0.00  0.00    +0.000 C 
ENDBRANCH  40  42
ENDBRANCH  31  36
ENDBRANCH  26  31
ENDBRANCH   1  25
TORSDOF 9
