REMARK  Name = 1422
REMARK  1 active torsions:
REMARK  status: ('A' for Active; 'I' for Inactive)
REMARK    1  A    between atoms: N_5  and  C_8
REMARK                            x       y       z     vdW  Elec       q    Type
REMARK                         _______ _______ _______ _____ _____    ______ ____
ROOT
ATOM      1  O   UNL     1       2.364   1.728   0.000  0.00  0.00    +0.000 OA
ATOM      2  N   UNL     1       3.816   0.932   0.000  0.00  0.00    +0.000 NA
ATOM      3  C   UNL     1       3.079  -0.334   0.000  0.00  0.00    +0.000 A 
ATOM      4  C   UNL     1       3.079   0.491   0.000  0.00  0.00    +0.000 A 
ATOM      5  C   UNL     1       2.364  -0.747   0.000  0.00  0.00    +0.000 A 
ATOM      6  C   UNL     1       2.364   0.903   0.000  0.00  0.00    +0.000 A 
ATOM      7  C   UNL     1       1.650  -0.334   0.000  0.00  0.00    +0.000 A 
ATOM      8  C   UNL     1       3.816  -0.775   0.000  0.00  0.00    +0.000 A 
ATOM      9  C   UNL     1       1.650   0.491   0.000  0.00  0.00    +0.000 A 
ATOM     10  C   UNL     1       4.563  -0.351   0.000  0.00  0.00    +0.000 A 
ATOM     11  C   UNL     1       4.563   0.508   0.000  0.00  0.00    +0.000 A 
ENDROOT
BRANCH   5  14
ATOM     12  O   UNL     1       1.650  -1.984   0.000  0.00  0.00    +0.000 OA
ATOM     13  O   UNL     1       3.079  -1.984   0.000  0.00  0.00    +0.000 OA
ATOM     14  N   UNL     1       2.364  -1.571   0.000  0.00  0.00    +0.000 N 
ENDBRANCH   5  14
TORSDOF 1
