REMARK  Name = 1423
REMARK  6 active torsions:
REMARK  status: ('A' for Active; 'I' for Inactive)
REMARK    1  A    between atoms: S_1  and  C_8
REMARK    2  A    between atoms: S_1  and  C_12
REMARK    3  A    between atoms: N_7  and  C_11
REMARK    4  A    between atoms: C_8  and  C_9
REMARK    5  A    between atoms: C_11  and  C_15
REMARK    6  A    between atoms: C_12  and  C_13
REMARK                            x       y       z     vdW  Elec       q    Type
REMARK                         _______ _______ _______ _____ _____    ______ ____
ROOT
ATOM      1  C   UNL     1       4.726   0.494   0.000  0.00  0.00    +0.000 C 
ATOM      2  C   UNL     1       5.339   1.046   0.000  0.00  0.00    +0.000 C 
ENDROOT
BRANCH   1   5
ATOM      3  O   UNL     1       4.284  -0.865   0.000  0.00  0.00    +0.000 OA
ATOM      4  N   UNL     1       5.682  -0.568   0.000  0.00  0.00    +0.000 NA
ATOM      5  C   UNL     1       4.897  -0.313   0.000  0.00  0.00    +0.000 C 
BRANCH   4   6
ATOM      6  C   UNL     1       5.853  -1.375   0.000  0.00  0.00    +0.000 C 
BRANCH   6   9
ATOM      7  O   UNL     1       6.809  -2.437   0.000  0.00  0.00    +0.000 OA
ATOM      8  O   UNL     1       7.251  -1.078   0.000  0.00  0.00    +0.000 OA
ATOM      9  C   UNL     1       6.638  -1.630   0.000  0.00  0.00    +0.000 C 
ENDBRANCH   6   9
ENDBRANCH   4   6
ENDBRANCH   1   5
BRANCH   1  10
ATOM     10  S   UNL     1       3.941   0.749   0.000  0.00  0.00    +0.000 S 
BRANCH  10  12
ATOM     11  O   UNL     1       4.383   2.108   0.000  0.00  0.00    +0.000 OA
ATOM     12  C   UNL     1       3.769   1.556   0.000  0.00  0.00    +0.000 C 
BRANCH  12  14
ATOM     13  S   UNL     1       2.317   1.326   0.000  0.00  0.00    +0.000 S 
ATOM     14  C   UNL     1       2.985   1.810   0.000  0.00  0.00    +0.000 A 
ATOM     15  C   UNL     1       2.730   2.595   0.000  0.00  0.00    +0.000 A 
ATOM     16  C   UNL     1       1.905   2.595   0.000  0.00  0.00    +0.000 A 
ATOM     17  C   UNL     1       1.650   1.810   0.000  0.00  0.00    +0.000 A 
ENDBRANCH  12  14
ENDBRANCH  10  12
ENDBRANCH   1  10
TORSDOF 6
