REMARK  Name = 1425
REMARK  6 active torsions:
REMARK  status: ('A' for Active; 'I' for Inactive)
REMARK    1  A    between atoms: O_2  and  C_18
REMARK    2  A    between atoms: N_3  and  C_13
REMARK    3  A    between atoms: N_4  and  C_12
REMARK    4  A    between atoms: C_8  and  C_12
REMARK    5  A    between atoms: C_13  and  C_14
REMARK    6  A    between atoms: C_15  and  C_16
REMARK                            x       y       z     vdW  Elec       q    Type
REMARK                         _______ _______ _______ _____ _____    ______ ____
ROOT
ATOM      1  O   UNL     1       4.500  -0.841   0.000  0.00  0.00    +0.000 OA
ATOM      2  N   UNL     1       5.214   0.397   0.000  0.00  0.00    +0.000 NA
ATOM      3  C   UNL     1       5.214  -0.428   0.000  0.00  0.00    +0.000 C 
ENDROOT
BRANCH   3   7
ATOM      4  N   UNL     1       8.139  -0.590   0.000  0.00  0.00    +0.000 NA
ATOM      5  N   UNL     1       8.139  -1.917   0.000  0.00  0.00    +0.000 NA
ATOM      6  N   UNL     1       8.620  -1.254   0.000  0.00  0.00    +0.000 NA
ATOM      7  C   UNL     1       5.929  -0.841   0.000  0.00  0.00    +0.000 A 
ATOM      8  C   UNL     1       5.929  -1.666   0.000  0.00  0.00    +0.000 A 
ATOM      9  C   UNL     1       6.643  -0.428   0.000  0.00  0.00    +0.000 A 
ATOM     10  C   UNL     1       7.358  -0.841   0.000  0.00  0.00    +0.000 A 
ATOM     11  C   UNL     1       6.643  -2.079   0.000  0.00  0.00    +0.000 A 
ATOM     12  C   UNL     1       7.358  -1.666   0.000  0.00  0.00    +0.000 A 
BRANCH   8  13
ATOM     13  O   UNL     1       5.214  -2.079   0.000  0.00  0.00    +0.000 OA
ATOM     14  C   UNL     1       5.214  -2.904   0.000  0.00  0.00    +0.000 C 
ENDBRANCH   8  13
ENDBRANCH   3   7
BRANCH   2  15
ATOM     15  C   UNL     1       4.500   0.809   0.000  0.00  0.00    +0.000 C 
BRANCH  15  17
ATOM     16  N   UNL     1       3.833   2.119   0.000  0.00  0.00    +0.000 NA
ATOM     17  C   UNL     1       4.500   1.634   0.000  0.00  0.00    +0.000 C 
ATOM     18  C   UNL     1       5.167   2.119   0.000  0.00  0.00    +0.000 C 
ATOM     19  C   UNL     1       4.912   2.904   0.000  0.00  0.00    +0.000 C 
ATOM     20  C   UNL     1       4.087   2.904   0.000  0.00  0.00    +0.000 C 
BRANCH  16  21
ATOM     21  C   UNL     1       3.048   1.864   0.000  0.00  0.00    +0.000 C 
BRANCH  21  22
ATOM     22  C   UNL     1       2.435   2.416   0.000  0.00  0.00    +0.000 C 
ATOM     23  C   UNL     1       1.650   2.161   0.000  0.00  0.00    +0.000 C 
ENDBRANCH  21  22
ENDBRANCH  16  21
ENDBRANCH  15  17
ENDBRANCH   2  15
TORSDOF 6
