REMARK  Name = 1427
REMARK  1 active torsions:
REMARK  status: ('A' for Active; 'I' for Inactive)
REMARK    1  A    between atoms: C_5  and  C_6
REMARK                            x       y       z     vdW  Elec       q    Type
REMARK                         _______ _______ _______ _____ _____    ______ ____
ROOT
ATOM      1  O   UNL     1       2.093  -1.188   0.000  0.00  0.00    +0.000 OA
ATOM      2  N   UNL     1       3.522  -1.188   0.000  0.00  0.00    +0.000 NA
ATOM      3  N   UNL     1       2.093   0.462   0.000  0.00  0.00    +0.000 NA
ATOM      4  C   UNL     1       4.237   0.050   0.000  0.00  0.00    +0.000 A 
ATOM      5  C   UNL     1       3.522   0.462   0.000  0.00  0.00    +0.000 A 
ATOM      6  C   UNL     1       4.237  -0.775   0.000  0.00  0.00    +0.000 A 
ATOM      7  C   UNL     1       2.808   0.050   0.000  0.00  0.00    +0.000 A 
ATOM      8  C   UNL     1       2.808  -0.775   0.000  0.00  0.00    +0.000 A 
ENDROOT
BRANCH   4  10
ATOM      9  N   UNL     1       6.380   1.287   0.000  0.00  0.00    +0.000 NA
ATOM     10  C   UNL     1       4.951   0.462   0.000  0.00  0.00    +0.000 A 
ATOM     11  C   UNL     1       4.951   1.287   0.000  0.00  0.00    +0.000 A 
ATOM     12  C   UNL     1       5.665   0.050   0.000  0.00  0.00    +0.000 A 
ATOM     13  C   UNL     1       5.665   1.700   0.000  0.00  0.00    +0.000 A 
ATOM     14  C   UNL     1       6.380   0.462   0.000  0.00  0.00    +0.000 A 
ENDBRANCH   4  10
TORSDOF 1
