REMARK  Name = 1428
REMARK  3 active torsions:
REMARK  status: ('A' for Active; 'I' for Inactive)
REMARK    1  A    between atoms: O_1  and  C_9
REMARK    2  A    between atoms: C_4  and  C_5
REMARK    3  A    between atoms: C_5  and  C_6
REMARK                            x       y       z     vdW  Elec       q    Type
REMARK                         _______ _______ _______ _____ _____    ______ ____
ROOT
ATOM      1  O   UNL     1       2.093   0.206   0.000  0.00  0.00    +0.000 OA
ATOM      2  C   UNL     1       3.522   0.206   0.000  0.00  0.00    +0.000 A 
ATOM      3  C   UNL     1       2.808  -0.206   0.000  0.00  0.00    +0.000 A 
ATOM      4  C   UNL     1       4.237  -0.206   0.000  0.00  0.00    +0.000 A 
ATOM      5  C   UNL     1       3.522  -1.444   0.000  0.00  0.00    +0.000 A 
ATOM      6  C   UNL     1       2.808  -1.031   0.000  0.00  0.00    +0.000 A 
ATOM      7  C   UNL     1       4.237  -1.031   0.000  0.00  0.00    +0.000 A 
ENDROOT
BRANCH   5   8
ATOM      8  O   UNL     1       3.522  -2.269   0.000  0.00  0.00    +0.000 OA
ATOM      9  C   UNL     1       4.237  -2.681   0.000  0.00  0.00    +0.000 C 
ENDBRANCH   5   8
BRANCH   2  11
ATOM     10  O   UNL     1       2.808   1.444   0.000  0.00  0.00    +0.000 OA
ATOM     11  C   UNL     1       3.522   1.031   0.000  0.00  0.00    +0.000 C 
BRANCH  11  12
ATOM     12  C   UNL     1       4.237   1.444   0.000  0.00  0.00    +0.000 A 
ATOM     13  C   UNL     1       4.237   2.269   0.000  0.00  0.00    +0.000 A 
ATOM     14  C   UNL     1       4.951   1.031   0.000  0.00  0.00    +0.000 A 
ATOM     15  C   UNL     1       4.951   2.681   0.000  0.00  0.00    +0.000 A 
ATOM     16  C   UNL     1       5.665   1.444   0.000  0.00  0.00    +0.000 A 
ATOM     17  C   UNL     1       5.665   2.269   0.000  0.00  0.00    +0.000 A 
ENDBRANCH  11  12
ENDBRANCH   2  11
TORSDOF 3
