REMARK  Name = 1429
REMARK  8 active torsions:
REMARK  status: ('A' for Active; 'I' for Inactive)
REMARK    1  A    between atoms: N_1  and  C_3
REMARK    2  A    between atoms: N_1  and  C_8
REMARK    3  A    between atoms: N_1  and  C_10
REMARK    4  A    between atoms: N_2  and  C_13
REMARK    5  A    between atoms: N_2  and  C_18
REMARK    6  A    between atoms: N_2  and  C_19
REMARK    7  A    between atoms: C_8  and  C_9
REMARK    8  A    between atoms: C_9  and  C_13
REMARK                            x       y       z     vdW  Elec       q    Type
REMARK                         _______ _______ _______ _____ _____    ______ ____
ROOT
ATOM      1  N   UNL     1       5.166   0.000   0.000  0.00  0.00    +0.000 N 
ENDROOT
BRANCH   1   2
ATOM      2  C   UNL     1       4.341   0.000   0.000  0.00  0.00    +0.000 C 
ATOM      3  C   UNL     1       3.860  -0.664   0.000  0.00  0.00    +0.000 C 
ATOM      4  C   UNL     1       3.860   0.664   0.000  0.00  0.00    +0.000 C 
ATOM      5  C   UNL     1       3.079  -0.412   0.000  0.00  0.00    +0.000 A 
ATOM      6  C   UNL     1       3.079   0.412   0.000  0.00  0.00    +0.000 A 
ATOM      7  C   UNL     1       2.365  -0.825   0.000  0.00  0.00    +0.000 A 
ATOM      8  C   UNL     1       2.365   0.825   0.000  0.00  0.00    +0.000 A 
ATOM      9  C   UNL     1       1.650  -0.412   0.000  0.00  0.00    +0.000 A 
ATOM     10  C   UNL     1       1.650   0.412   0.000  0.00  0.00    +0.000 A 
ENDBRANCH   1   2
BRANCH   1  11
ATOM     11  C   UNL     1       5.579  -0.715   0.000  0.00  0.00    +0.000 A 
ATOM     12  C   UNL     1       6.404  -0.715   0.000  0.00  0.00    +0.000 A 
ATOM     13  C   UNL     1       5.166  -1.429   0.000  0.00  0.00    +0.000 A 
ATOM     14  C   UNL     1       6.816  -1.429   0.000  0.00  0.00    +0.000 A 
ATOM     15  C   UNL     1       5.579  -2.143   0.000  0.00  0.00    +0.000 A 
ATOM     16  C   UNL     1       6.404  -2.143   0.000  0.00  0.00    +0.000 A 
ENDBRANCH   1  11
BRANCH   1  17
ATOM     17  C   UNL     1       5.579   0.715   0.000  0.00  0.00    +0.000 C 
BRANCH  17  18
ATOM     18  C   UNL     1       6.404   0.715   0.000  0.00  0.00    +0.000 C 
BRANCH  18  19
ATOM     19  C   UNL     1       6.816   1.429   0.000  0.00  0.00    +0.000 C 
BRANCH  19  20
ATOM     20  N   UNL     1       7.641   1.429   0.000  0.00  0.00    +0.000 NA
BRANCH  20  21
ATOM     21  C   UNL     1       8.054   2.143   0.000  0.00  0.00    +0.000 C 
ATOM     22  C   UNL     1       8.879   2.143   0.000  0.00  0.00    +0.000 C 
ENDBRANCH  20  21
BRANCH  20  23
ATOM     23  C   UNL     1       8.054   0.715   0.000  0.00  0.00    +0.000 C 
ATOM     24  C   UNL     1       8.879   0.715   0.000  0.00  0.00    +0.000 C 
ENDBRANCH  20  23
ENDBRANCH  19  20
ENDBRANCH  18  19
ENDBRANCH  17  18
ENDBRANCH   1  17
TORSDOF 8
