REMARK  Name = 1430
REMARK  7 active torsions:
REMARK  status: ('A' for Active; 'I' for Inactive)
REMARK    1  A    between atoms: N_3  and  C_12
REMARK    2  A    between atoms: N_8  and  C_30
REMARK    3  A    between atoms: N_9  and  C_31
REMARK    4  A    between atoms: C_12  and  C_15
REMARK    5  A    between atoms: C_12  and  C_16
REMARK    6  A    between atoms: C_30  and  C_32
REMARK    7  A    between atoms: C_31  and  C_33
REMARK                            x       y       z     vdW  Elec       q    Type
REMARK                         _______ _______ _______ _____ _____    ______ ____
ROOT
ATOM      1  N   UNL     1       5.222  -0.619   0.000  0.00  0.00    +0.000 NA
ATOM      2  N   UNL     1       6.652   0.206   0.000  0.00  0.00    +0.000 N 
ATOM      3  N   UNL     1       7.366   1.444   0.000  0.00  0.00    +0.000 NA
ATOM      4  N   UNL     1       8.080   0.206   0.000  0.00  0.00    +0.000 NA
ATOM      5  N   UNL     1       8.795   1.444   0.000  0.00  0.00    +0.000 NA
ATOM      6  N   UNL     1       8.080   2.681   0.000  0.00  0.00    +0.000 NA
ATOM      7  N   UNL     1       9.509   0.206   0.000  0.00  0.00    +0.000 NA
ATOM      8  C   UNL     1       5.937  -1.031   0.000  0.00  0.00    +0.000 C 
ATOM      9  C   UNL     1       5.222   0.206   0.000  0.00  0.00    +0.000 C 
ATOM     10  C   UNL     1       6.652  -0.619   0.000  0.00  0.00    +0.000 C 
ATOM     11  C   UNL     1       5.937   0.619   0.000  0.00  0.00    +0.000 C 
ATOM     12  C   UNL     1       7.366   0.619   0.000  0.00  0.00    +0.000 A 
ATOM     13  C   UNL     1       8.080   1.856   0.000  0.00  0.00    +0.000 A 
ATOM     14  C   UNL     1       8.795   0.619   0.000  0.00  0.00    +0.000 A 
ENDROOT
BRANCH   1  15
ATOM     15  C   UNL     1       4.508  -1.031   0.000  0.00  0.00    +0.000 C 
BRANCH  15  17
ATOM     16  F   UNL     1       4.508  -4.331   0.000  0.00  0.00    +0.000 F 
ATOM     17  C   UNL     1       4.508  -1.856   0.000  0.00  0.00    +0.000 A 
ATOM     18  C   UNL     1       5.222  -2.269   0.000  0.00  0.00    +0.000 A 
ATOM     19  C   UNL     1       3.793  -2.269   0.000  0.00  0.00    +0.000 A 
ATOM     20  C   UNL     1       5.222  -3.094   0.000  0.00  0.00    +0.000 A 
ATOM     21  C   UNL     1       3.793  -3.094   0.000  0.00  0.00    +0.000 A 
ATOM     22  C   UNL     1       4.508  -3.506   0.000  0.00  0.00    +0.000 A 
ENDBRANCH  15  17
BRANCH  15  24
ATOM     23  F   UNL     1       1.650   0.619   0.000  0.00  0.00    +0.000 F 
ATOM     24  C   UNL     1       3.793  -0.619   0.000  0.00  0.00    +0.000 A 
ATOM     25  C   UNL     1       3.079  -1.031   0.000  0.00  0.00    +0.000 A 
ATOM     26  C   UNL     1       3.793   0.206   0.000  0.00  0.00    +0.000 A 
ATOM     27  C   UNL     1       2.365  -0.619   0.000  0.00  0.00    +0.000 A 
ATOM     28  C   UNL     1       3.079   0.619   0.000  0.00  0.00    +0.000 A 
ATOM     29  C   UNL     1       2.365   0.206   0.000  0.00  0.00    +0.000 A 
ENDBRANCH  15  24
ENDBRANCH   1  15
BRANCH   7  30
ATOM     30  C   UNL     1      10.224   0.619   0.000  0.00  0.00    +0.000 C 
BRANCH  30  31
ATOM     31  C   UNL     1      10.938   0.206   0.000  0.00  0.00    +0.000 C 
ATOM     32  C   UNL     1      11.653   0.619   0.000  0.00  0.00    +0.000 C 
ENDBRANCH  30  31
ENDBRANCH   7  30
BRANCH   6  33
ATOM     33  C   UNL     1       8.795   3.094   0.000  0.00  0.00    +0.000 C 
BRANCH  33  34
ATOM     34  C   UNL     1       8.795   3.919   0.000  0.00  0.00    +0.000 C 
ATOM     35  C   UNL     1       9.509   4.331   0.000  0.00  0.00    +0.000 C 
ENDBRANCH  33  34
ENDBRANCH   6  33
TORSDOF 7
