REMARK  Name = 1431
REMARK  2 active torsions:
REMARK  status: ('A' for Active; 'I' for Inactive)
REMARK    1  A    between atoms: C_6  and  C_16
REMARK    2  A    between atoms: C_16  and  C_21
REMARK                            x       y       z     vdW  Elec       q    Type
REMARK                         _______ _______ _______ _____ _____    ______ ____
ROOT
ATOM      1  O   UNL     1       5.910   1.607   0.000  0.00  0.00    +0.000 OA
ATOM      2  C   UNL     1       5.383   0.570   0.000  0.00  0.00    +0.000 C 
ATOM      3  C   UNL     1       5.383  -0.255   0.000  0.00  0.00    +0.000 C 
ATOM      4  C   UNL     1       4.669  -0.667   0.000  0.00  0.00    +0.000 C 
ATOM      5  C   UNL     1       3.954  -0.255   0.000  0.00  0.00    +0.000 C 
ATOM      6  C   UNL     1       6.164   0.821   0.000  0.00  0.00    +0.000 C 
ATOM      7  C   UNL     1       4.669   0.983   0.000  0.00  0.00    +0.000 C 
ATOM      8  C   UNL     1       6.164  -0.506   0.000  0.00  0.00    +0.000 C 
ATOM      9  C   UNL     1       3.954   0.570   0.000  0.00  0.00    +0.000 C 
ATOM     10  C   UNL     1       6.646   0.158   0.000  0.00  0.00    +0.000 C 
ATOM     11  C   UNL     1       3.204  -0.673   0.000  0.00  0.00    +0.000 C 
ATOM     12  C   UNL     1       4.682  -1.527   0.000  0.00  0.00    +0.000 C 
ATOM     13  C   UNL     1       5.383   1.395   0.000  0.00  0.00    +0.000 C 
ATOM     14  C   UNL     1       3.941  -1.962   0.000  0.00  0.00    +0.000 C 
ATOM     15  C   UNL     1       3.197  -1.532   0.000  0.00  0.00    +0.000 C 
ATOM     16  C   UNL     1       2.439  -0.208   0.000  0.00  0.00    +0.000 C 
ATOM     17  C   UNL     1       1.657  -0.643   0.000  0.00  0.00    +0.000 C 
ATOM     18  C   UNL     1       2.425  -1.986   0.000  0.00  0.00    +0.000 C 
ATOM     19  C   UNL     1       1.650  -1.538   0.000  0.00  0.00    +0.000 C 
ENDROOT
BRANCH   6  20
ATOM     20  C   UNL     1       6.832   1.305   0.000  0.00  0.00    +0.000 C 
BRANCH  20  21
ATOM     21  C   UNL     1       7.585   0.968   0.000  0.00  0.00    +0.000 C 
ATOM     22  C   UNL     1       8.254   1.452   0.000  0.00  0.00    +0.000 C 
ENDBRANCH  20  21
ENDBRANCH   6  20
TORSDOF 2
