REMARK  Name = 1434
REMARK  0 active torsions:
REMARK  status: ('A' for Active; 'I' for Inactive)
REMARK                            x       y       z     vdW  Elec       q    Type
REMARK                         _______ _______ _______ _____ _____    ______ ____
ROOT
ATOM      1  C   UNL     1      14.766  -9.266   0.000  0.00  0.00    +0.000 C 
ATOM      2  C   UNL     1      15.481  -8.858   0.000  0.00  0.00    +0.000 C 
ATOM      3  C   UNL     1      14.759 -10.094   0.000  0.00  0.00    +0.000 C 
ATOM      4  C   UNL     1      14.058  -8.854   0.000  0.00  0.00    +0.000 C 
ATOM      5  C   UNL     1      14.762  -8.443   0.000  0.00  0.00    +0.000 C 
ATOM      6  C   UNL     1      16.195  -9.273   0.000  0.00  0.00    +0.000 C 
ATOM      7  C   UNL     1      14.044 -10.502   0.000  0.00  0.00    +0.000 C 
ATOM      8  C   UNL     1      16.188 -10.101   0.000  0.00  0.00    +0.000 C 
ATOM      9  C   UNL     1      13.340  -9.259   0.000  0.00  0.00    +0.000 C 
ATOM     10  C   UNL     1      13.333 -10.083   0.000  0.00  0.00    +0.000 C 
ATOM     11  C   UNL     1      14.044 -11.329   0.000  0.00  0.00    +0.000 C 
ATOM     12  C   UNL     1      12.618 -10.492   0.000  0.00  0.00    +0.000 C 
ATOM     13  C   UNL     1      13.326 -11.738   0.000  0.00  0.00    +0.000 C 
ATOM     14  C   UNL     1      12.615 -11.322   0.000  0.00  0.00    +0.000 C 
ATOM     15  C   UNL     1      11.907 -10.079   0.000  0.00  0.00    +0.000 C 
ATOM     16  C   UNL     1      11.907 -11.734   0.000  0.00  0.00    +0.000 C 
ATOM     17  C   UNL     1      11.192 -10.492   0.000  0.00  0.00    +0.000 C 
ATOM     18  C   UNL     1      11.192 -11.322   0.000  0.00  0.00    +0.000 C 
ATOM     19  O   UNL     1      10.474 -11.731   0.000  0.00  0.00    +0.000 OA
ATOM     20  O   UNL     1      15.484  -8.002   0.000  0.00  0.00    +0.000 OA
ENDROOT
TORSDOF 0
