REMARK  Name = 1436
REMARK  6 active torsions:
REMARK  status: ('A' for Active; 'I' for Inactive)
REMARK    1  A    between atoms: C_4  and  C_9
REMARK    2  A    between atoms: C_9  and  C_14
REMARK    3  A    between atoms: C_14  and  C_17
REMARK    4  A    between atoms: C_16  and  C_19
REMARK    5  A    between atoms: C_17  and  C_18
REMARK    6  A    between atoms: C_18  and  C_20
REMARK                            x       y       z     vdW  Elec       q    Type
REMARK                         _______ _______ _______ _____ _____    ______ ____
ROOT
ATOM      1  C   UNL     1       4.508   0.952   0.000  0.00  0.00    +0.000 C 
ATOM      2  C   UNL     1       5.289   1.203   0.000  0.00  0.00    +0.000 C 
ATOM      3  C   UNL     1       4.508   0.127   0.000  0.00  0.00    +0.000 C 
ATOM      4  C   UNL     1       5.770   0.539   0.000  0.00  0.00    +0.000 C 
ATOM      5  C   UNL     1       5.289  -0.125   0.000  0.00  0.00    +0.000 C 
ATOM      6  C   UNL     1       3.793   1.364   0.000  0.00  0.00    +0.000 C 
ATOM      7  C   UNL     1       3.793  -0.286   0.000  0.00  0.00    +0.000 C 
ATOM      8  C   UNL     1       4.508   1.777   0.000  0.00  0.00    +0.000 C 
ATOM      9  C   UNL     1       3.079   0.952   0.000  0.00  0.00    +0.000 C 
ATOM     10  C   UNL     1       3.079   0.127   0.000  0.00  0.00    +0.000 C 
ATOM     11  C   UNL     1       3.793  -1.111   0.000  0.00  0.00    +0.000 C 
ENDROOT
BRANCH  11  14
ATOM     12  O   UNL     1       1.650  -3.998   0.000  0.00  0.00    +0.000 OA
ATOM     13  O   UNL     1       4.508  -3.998   0.000  0.00  0.00    +0.000 OA
ATOM     14  C   UNL     1       3.079  -1.523   0.000  0.00  0.00    +0.000 C 
ATOM     15  C   UNL     1       3.079  -2.348   0.000  0.00  0.00    +0.000 C 
ATOM     16  C   UNL     1       2.365  -2.761   0.000  0.00  0.00    +0.000 C 
ATOM     17  C   UNL     1       3.793  -2.761   0.000  0.00  0.00    +0.000 C 
ATOM     18  C   UNL     1       2.365  -3.586   0.000  0.00  0.00    +0.000 C 
ATOM     19  C   UNL     1       3.793  -3.586   0.000  0.00  0.00    +0.000 C 
ATOM     20  C   UNL     1       3.079  -3.998   0.000  0.00  0.00    +0.000 C 
ATOM     21  C   UNL     1       4.508  -2.348   0.000  0.00  0.00    +0.000 C 
ENDBRANCH  11  14
BRANCH   2  22
ATOM     22  C   UNL     1       5.545   1.987   0.000  0.00  0.00    +0.000 C 
ATOM     23  C   UNL     1       4.994   2.601   0.000  0.00  0.00    +0.000 C 
BRANCH  22  24
ATOM     24  C   UNL     1       6.352   2.157   0.000  0.00  0.00    +0.000 C 
BRANCH  24  25
ATOM     25  C   UNL     1       6.609   2.942   0.000  0.00  0.00    +0.000 C 
BRANCH  25  26
ATOM     26  C   UNL     1       7.416   3.112   0.000  0.00  0.00    +0.000 C 
BRANCH  26  27
ATOM     27  C   UNL     1       7.672   3.896   0.000  0.00  0.00    +0.000 C 
ATOM     28  C   UNL     1       7.121   4.510   0.000  0.00  0.00    +0.000 C 
ATOM     29  C   UNL     1       8.479   4.066   0.000  0.00  0.00    +0.000 C 
ENDBRANCH  26  27
ENDBRANCH  25  26
ENDBRANCH  24  25
ENDBRANCH  22  24
ENDBRANCH   2  22
TORSDOF 6
