REMARK  Name = 1437
REMARK  2 active torsions:
REMARK  status: ('A' for Active; 'I' for Inactive)
REMARK    1  A    between atoms: C_4  and  C_6
REMARK    2  A    between atoms: C_4  and  C_7
REMARK                            x       y       z     vdW  Elec       q    Type
REMARK                         _______ _______ _______ _____ _____    ______ ____
ROOT
ATOM      1  O   UNL     1       1.650   0.166   0.000  0.00  0.00    +0.000 OA
ATOM      2  O   UNL     1       3.079  -2.309   0.000  0.00  0.00    +0.000 OA
ATOM      3  N   UNL     1       2.365  -1.072   0.000  0.00  0.00    +0.000 NA
ATOM      4  C   UNL     1       3.079   0.166   0.000  0.00  0.00    +0.000 C 
ATOM      5  C   UNL     1       3.793  -0.247   0.000  0.00  0.00    +0.000 C 
ATOM      6  C   UNL     1       3.793  -1.072   0.000  0.00  0.00    +0.000 C 
ATOM      7  C   UNL     1       2.365  -0.247   0.000  0.00  0.00    +0.000 C 
ATOM      8  C   UNL     1       3.079  -1.484   0.000  0.00  0.00    +0.000 C 
ENDROOT
BRANCH   4   9
ATOM      9  C   UNL     1       3.492   0.880   0.000  0.00  0.00    +0.000 A 
ATOM     10  C   UNL     1       3.079   1.595   0.000  0.00  0.00    +0.000 A 
ATOM     11  C   UNL     1       4.317   0.880   0.000  0.00  0.00    +0.000 A 
ATOM     12  C   UNL     1       3.492   2.309   0.000  0.00  0.00    +0.000 A 
ATOM     13  C   UNL     1       4.729   1.595   0.000  0.00  0.00    +0.000 A 
ATOM     14  C   UNL     1       4.317   2.309   0.000  0.00  0.00    +0.000 A 
ENDBRANCH   4   9
BRANCH   4  15
ATOM     15  C   UNL     1       2.667   0.880   0.000  0.00  0.00    +0.000 C 
ATOM     16  C   UNL     1       1.841   0.880   0.000  0.00  0.00    +0.000 C 
ENDBRANCH   4  15
TORSDOF 2
