REMARK  Name = 1438
REMARK  2 active torsions:
REMARK  status: ('A' for Active; 'I' for Inactive)
REMARK    1  A    between atoms: N_2  and  C_6
REMARK    2  A    between atoms: N_3  and  C_11
REMARK                            x       y       z     vdW  Elec       q    Type
REMARK                         _______ _______ _______ _____ _____    ______ ____
ROOT
ATOM      1  N   UNL     1       3.793  -0.157   0.000  0.00  0.00    +0.000 NA
ATOM      2  N   UNL     1       3.793   0.668   0.000  0.00  0.00    +0.000 NA
ENDROOT
BRANCH   1   6
ATOM      3  N   UNL     1       5.222  -1.807   0.000  0.00  0.00    +0.000 NA
ATOM      4  N   UNL     1       3.793  -1.807   0.000  0.00  0.00    +0.000 NA
ATOM      5  N   UNL     1       6.651  -1.807   0.000  0.00  0.00    +0.000 NA
ATOM      6  C   UNL     1       4.508  -0.569   0.000  0.00  0.00    +0.000 A 
ATOM      7  C   UNL     1       4.508  -1.394   0.000  0.00  0.00    +0.000 A 
ATOM      8  C   UNL     1       5.222  -0.157   0.000  0.00  0.00    +0.000 A 
ATOM      9  C   UNL     1       5.937  -0.569   0.000  0.00  0.00    +0.000 A 
ATOM     10  C   UNL     1       5.937  -1.394   0.000  0.00  0.00    +0.000 A 
ENDBRANCH   1   6
BRANCH   2  11
ATOM     11  C   UNL     1       3.079   1.081   0.000  0.00  0.00    +0.000 A 
ATOM     12  C   UNL     1       2.364   0.668   0.000  0.00  0.00    +0.000 A 
ATOM     13  C   UNL     1       3.079   1.906   0.000  0.00  0.00    +0.000 A 
ATOM     14  C   UNL     1       1.650   1.081   0.000  0.00  0.00    +0.000 A 
ATOM     15  C   UNL     1       2.364   2.318   0.000  0.00  0.00    +0.000 A 
ATOM     16  C   UNL     1       1.650   1.906   0.000  0.00  0.00    +0.000 A 
ENDBRANCH   2  11
TORSDOF 2
