REMARK  Name = 1441
REMARK  6 active torsions:
REMARK  status: ('A' for Active; 'I' for Inactive)
REMARK    1  A    between atoms: O_1  and  C_18
REMARK    2  A    between atoms: N_2  and  C_4
REMARK    3  A    between atoms: N_2  and  C_5
REMARK    4  A    between atoms: N_2  and  C_6
REMARK    5  A    between atoms: C_4  and  C_7
REMARK    6  A    between atoms: C_7  and  C_8
REMARK                            x       y       z     vdW  Elec       q    Type
REMARK                         _______ _______ _______ _____ _____    ______ ____
ROOT
ATOM      1  N   UNL     1       5.289  -1.989   0.000  0.00  0.00    +0.000 NA
ATOM      2  C   UNL     1       5.289  -0.661   0.000  0.00  0.00    +0.000 A 
ATOM      3  C   UNL     1       4.508  -0.913   0.000  0.00  0.00    +0.000 A 
ATOM      4  C   UNL     1       4.508  -1.738   0.000  0.00  0.00    +0.000 A 
ATOM      5  C   UNL     1       5.770  -1.325   0.000  0.00  0.00    +0.000 A 
ATOM      6  C   UNL     1       3.793  -0.500   0.000  0.00  0.00    +0.000 A 
ATOM      7  C   UNL     1       3.793  -2.150   0.000  0.00  0.00    +0.000 A 
ATOM      8  C   UNL     1       3.079  -0.913   0.000  0.00  0.00    +0.000 A 
ATOM      9  C   UNL     1       3.079  -1.738   0.000  0.00  0.00    +0.000 A 
ENDROOT
BRANCH   8  10
ATOM     10  O   UNL     1       2.365  -0.500   0.000  0.00  0.00    +0.000 OA
ATOM     11  C   UNL     1       1.650  -0.913   0.000  0.00  0.00    +0.000 C 
ENDBRANCH   8  10
BRANCH   2  12
ATOM     12  C   UNL     1       5.545   0.123   0.000  0.00  0.00    +0.000 C 
BRANCH  12  13
ATOM     13  C   UNL     1       6.352   0.293   0.000  0.00  0.00    +0.000 C 
BRANCH  13  14
ATOM     14  N   UNL     1       6.609   1.077   0.000  0.00  0.00    +0.000 NA
BRANCH  14  15
ATOM     15  C   UNL     1       7.416   1.247   0.000  0.00  0.00    +0.000 C 
ATOM     16  C   UNL     1       7.967   0.633   0.000  0.00  0.00    +0.000 C 
ATOM     17  C   UNL     1       7.672   2.031   0.000  0.00  0.00    +0.000 C 
ENDBRANCH  14  15
BRANCH  14  18
ATOM     18  C   UNL     1       6.058   1.691   0.000  0.00  0.00    +0.000 C 
ATOM     19  C   UNL     1       5.250   1.521   0.000  0.00  0.00    +0.000 C 
ATOM     20  C   UNL     1       6.314   2.475   0.000  0.00  0.00    +0.000 C 
ENDBRANCH  14  18
ENDBRANCH  13  14
ENDBRANCH  12  13
ENDBRANCH   2  12
TORSDOF 6
