REMARK  Name = 1442
REMARK  3 active torsions:
REMARK  status: ('A' for Active; 'I' for Inactive)
REMARK    1  A    between atoms: O_3  and  C_12
REMARK    2  A    between atoms: C_5  and  C_6
REMARK    3  A    between atoms: C_5  and  C_7
REMARK                            x       y       z     vdW  Elec       q    Type
REMARK                         _______ _______ _______ _____ _____    ______ ____
ROOT
ATOM      1  O   UNL     1       6.446  -1.027   0.000  0.00  0.00    +0.000 OA
ATOM      2  O   UNL     1       6.446   0.301   0.000  0.00  0.00    +0.000 OA
ATOM      3  C   UNL     1       4.237  -0.775   0.000  0.00  0.00    +0.000 A 
ATOM      4  C   UNL     1       4.951  -1.188   0.000  0.00  0.00    +0.000 A 
ATOM      5  C   UNL     1       5.665  -0.775   0.000  0.00  0.00    +0.000 A 
ATOM      6  C   UNL     1       4.237   0.050   0.000  0.00  0.00    +0.000 A 
ATOM      7  C   UNL     1       5.665   0.050   0.000  0.00  0.00    +0.000 A 
ATOM      8  C   UNL     1       4.951   0.462   0.000  0.00  0.00    +0.000 A 
ATOM      9  C   UNL     1       6.928  -0.363   0.000  0.00  0.00    +0.000 C 
ENDROOT
BRANCH   8  10
ATOM     10  O   UNL     1       4.951   1.287   0.000  0.00  0.00    +0.000 OA
ATOM     11  C   UNL     1       4.237   1.700   0.000  0.00  0.00    +0.000 C 
ENDBRANCH   8  10
BRANCH   3  12
ATOM     12  C   UNL     1       3.522  -1.188   0.000  0.00  0.00    +0.000 C 
BRANCH  12  14
ATOM     13  N   UNL     1       2.093  -1.188   0.000  0.00  0.00    +0.000 NA
ATOM     14  C   UNL     1       2.808  -0.775   0.000  0.00  0.00    +0.000 C 
ATOM     15  C   UNL     1       2.808   0.050   0.000  0.00  0.00    +0.000 C 
ENDBRANCH  12  14
ENDBRANCH   3  12
TORSDOF 3
