REMARK  Name = 1444
REMARK  4 active torsions:
REMARK  status: ('A' for Active; 'I' for Inactive)
REMARK    1  A    between atoms: N_3  and  C_4
REMARK    2  A    between atoms: C_4  and  C_5
REMARK    3  A    between atoms: C_6  and  C_10
REMARK    4  A    between atoms: C_6  and  C_11
REMARK                            x       y       z     vdW  Elec       q    Type
REMARK                         _______ _______ _______ _____ _____    ______ ____
ROOT
ATOM      1  C   UNL     1       3.079   0.222   0.000  0.00  0.00    +0.000 C 
ATOM      2  C   UNL     1       3.793  -0.190   0.000  0.00  0.00    +0.000 C 
ENDROOT
BRANCH   2   4
ATOM      3  S   UNL     1       5.262  -0.113   0.000  0.00  0.00    +0.000 S 
ATOM      4  C   UNL     1       4.508   0.222   0.000  0.00  0.00    +0.000 A 
ATOM      5  C   UNL     1       4.594   1.043   0.000  0.00  0.00    +0.000 A 
ATOM      6  C   UNL     1       5.401   1.214   0.000  0.00  0.00    +0.000 A 
ATOM      7  C   UNL     1       5.814   0.500   0.000  0.00  0.00    +0.000 A 
ENDBRANCH   2   4
BRANCH   2   9
ATOM      8  S   UNL     1       3.126  -1.500   0.000  0.00  0.00    +0.000 S 
ATOM      9  C   UNL     1       3.793  -1.015   0.000  0.00  0.00    +0.000 A 
ATOM     10  C   UNL     1       4.461  -1.500   0.000  0.00  0.00    +0.000 A 
ATOM     11  C   UNL     1       4.206  -2.285   0.000  0.00  0.00    +0.000 A 
ATOM     12  C   UNL     1       3.381  -2.285   0.000  0.00  0.00    +0.000 A 
ENDBRANCH   2   9
BRANCH   1  13
ATOM     13  C   UNL     1       3.079   1.047   0.000  0.00  0.00    +0.000 C 
ATOM     14  C   UNL     1       3.793   1.460   0.000  0.00  0.00    +0.000 C 
BRANCH  13  15
ATOM     15  N   UNL     1       2.365   1.460   0.000  0.00  0.00    +0.000 NA
ATOM     16  C   UNL     1       2.365   2.285   0.000  0.00  0.00    +0.000 C 
ATOM     17  C   UNL     1       1.650   1.047   0.000  0.00  0.00    +0.000 C 
ENDBRANCH  13  15
ENDBRANCH   1  13
TORSDOF 4
