REMARK  Name = 1445
REMARK  3 active torsions:
REMARK  status: ('A' for Active; 'I' for Inactive)
REMARK    1  A    between atoms: N_2  and  C_7
REMARK    2  A    between atoms: C_4  and  C_5
REMARK    3  A    between atoms: C_4  and  C_7
REMARK                            x       y       z     vdW  Elec       q    Type
REMARK                         _______ _______ _______ _____ _____    ______ ____
ROOT
ATOM      1  O   UNL     1       2.093  -0.108   0.000  0.00  0.00    +0.000 OA
ATOM      2  N   UNL     1       5.017  -1.597   0.000  0.00  0.00    +0.000 NA
ATOM      3  C   UNL     1       5.017  -0.269   0.000  0.00  0.00    +0.000 A 
ATOM      4  C   UNL     1       4.237  -0.521   0.000  0.00  0.00    +0.000 A 
ATOM      5  C   UNL     1       4.237  -1.346   0.000  0.00  0.00    +0.000 A 
ATOM      6  C   UNL     1       5.499  -0.933   0.000  0.00  0.00    +0.000 A 
ATOM      7  C   UNL     1       3.522  -0.108   0.000  0.00  0.00    +0.000 A 
ATOM      8  C   UNL     1       3.522  -1.758   0.000  0.00  0.00    +0.000 A 
ATOM      9  C   UNL     1       2.808  -0.521   0.000  0.00  0.00    +0.000 A 
ATOM     10  C   UNL     1       2.808  -1.346   0.000  0.00  0.00    +0.000 A 
ENDROOT
BRANCH   3  11
ATOM     11  C   UNL     1       5.273   0.515   0.000  0.00  0.00    +0.000 C 
BRANCH  11  12
ATOM     12  C   UNL     1       6.081   0.685   0.000  0.00  0.00    +0.000 C 
BRANCH  12  13
ATOM     13  N   UNL     1       6.337   1.469   0.000  0.00  0.00    +0.000 NA
ATOM     14  C   UNL     1       7.144   1.639   0.000  0.00  0.00    +0.000 C 
ATOM     15  C   UNL     1       5.786   2.083   0.000  0.00  0.00    +0.000 C 
ENDBRANCH  12  13
ENDBRANCH  11  12
ENDBRANCH   3  11
TORSDOF 3
