REMARK  Name = 1446
REMARK  2 active torsions:
REMARK  status: ('A' for Active; 'I' for Inactive)
REMARK    1  A    between atoms: C_3  and  C_4
REMARK    2  A    between atoms: C_3  and  C_5
REMARK                            x       y       z     vdW  Elec       q    Type
REMARK                         _______ _______ _______ _____ _____    ______ ____
ROOT
ATOM      1  N   UNL     1       3.860  -1.480   0.000  0.00  0.00    +0.000 NA
ATOM      2  C   UNL     1       3.860  -0.153   0.000  0.00  0.00    +0.000 A 
ATOM      3  C   UNL     1       3.079  -0.404   0.000  0.00  0.00    +0.000 A 
ATOM      4  C   UNL     1       3.079  -1.229   0.000  0.00  0.00    +0.000 A 
ATOM      5  C   UNL     1       4.341  -0.817   0.000  0.00  0.00    +0.000 A 
ATOM      6  C   UNL     1       2.365   0.009   0.000  0.00  0.00    +0.000 A 
ATOM      7  C   UNL     1       2.365  -1.641   0.000  0.00  0.00    +0.000 A 
ATOM      8  C   UNL     1       1.650  -0.404   0.000  0.00  0.00    +0.000 A 
ATOM      9  C   UNL     1       1.650  -1.229   0.000  0.00  0.00    +0.000 A 
ENDROOT
BRANCH   2  10
ATOM     10  C   UNL     1       4.116   0.632   0.000  0.00  0.00    +0.000 C 
BRANCH  10  12
ATOM     11  N   UNL     1       5.179   1.586   0.000  0.00  0.00    +0.000 NA
ATOM     12  C   UNL     1       4.923   0.802   0.000  0.00  0.00    +0.000 C 
ATOM     13  C   UNL     1       5.474   0.188   0.000  0.00  0.00    +0.000 C 
ENDBRANCH  10  12
ENDBRANCH   2  10
TORSDOF 2
