REMARK  Name = 1450
REMARK  4 active torsions:
REMARK  status: ('A' for Active; 'I' for Inactive)
REMARK    1  A    between atoms: O_2  and  C_8
REMARK    2  A    between atoms: C_11  and  C_18
REMARK    3  A    between atoms: C_18  and  C_22
REMARK    4  A    between atoms: C_22  and  C_29
REMARK                            x       y       z     vdW  Elec       q    Type
REMARK                         _______ _______ _______ _____ _____    ______ ____
ROOT
ATOM      1  O   UNL     1       4.308  -1.438   0.000  0.00  0.00    +0.000 OA
ATOM      2  O   UNL     1       2.240  -1.609   0.000  0.00  0.00    +0.000 OA
ATOM      3  N   UNL     1       5.142   1.989   0.000  0.00  0.00    +0.000 NA
ATOM      4  C   UNL     1       5.142   0.560   0.000  0.00  0.00    +0.000 C 
ATOM      5  C   UNL     1       4.730  -0.155   0.000  0.00  0.00    +0.000 C 
ATOM      6  C   UNL     1       5.967  -0.869   0.000  0.00  0.00    +0.000 C 
ATOM      7  C   UNL     1       5.142  -0.869   0.000  0.00  0.00    +0.000 C 
ATOM      8  C   UNL     1       5.967   0.560   0.000  0.00  0.00    +0.000 C 
ATOM      9  C   UNL     1       6.380  -0.155   0.000  0.00  0.00    +0.000 C 
ATOM     10  C   UNL     1       4.730   1.274   0.000  0.00  0.00    +0.000 C 
ATOM     11  C   UNL     1       5.738   0.175   0.000  0.00  0.00    +0.000 C 
ATOM     12  C   UNL     1       5.426  -0.448   0.000  0.00  0.00    +0.000 C 
ATOM     13  C   UNL     1       4.317   0.560   0.000  0.00  0.00    +0.000 C 
ATOM     14  C   UNL     1       3.905  -0.155   0.000  0.00  0.00    +0.000 A 
ATOM     15  C   UNL     1       3.905   1.274   0.000  0.00  0.00    +0.000 C 
ATOM     16  C   UNL     1       4.308   2.137   0.000  0.00  0.00    +0.000 C 
ATOM     17  C   UNL     1       3.492   0.560   0.000  0.00  0.00    +0.000 A 
ATOM     18  C   UNL     1       3.492  -0.869   0.000  0.00  0.00    +0.000 A 
ATOM     19  C   UNL     1       5.917   2.350   0.000  0.00  0.00    +0.000 C 
ATOM     20  C   UNL     1       2.667   0.560   0.000  0.00  0.00    +0.000 A 
ATOM     21  C   UNL     1       2.667  -0.869   0.000  0.00  0.00    +0.000 A 
ATOM     22  C   UNL     1       2.255  -0.155   0.000  0.00  0.00    +0.000 A 
ENDROOT
BRANCH   9  24
ATOM     23  O   UNL     1       7.234   0.700   0.000  0.00  0.00    +0.000 OA
ATOM     24  C   UNL     1       7.234  -0.155   0.000  0.00  0.00    +0.000 C 
ATOM     25  C   UNL     1       7.234  -1.009   0.000  0.00  0.00    +0.000 C 
BRANCH  24  26
ATOM     26  C   UNL     1       8.089  -0.155   0.000  0.00  0.00    +0.000 C 
BRANCH  26  27
ATOM     27  C   UNL     1       8.517   0.586   0.000  0.00  0.00    +0.000 C 
ATOM     28  C   UNL     1       9.372   0.586   0.000  0.00  0.00    +0.000 C 
ENDBRANCH  26  27
ENDBRANCH  24  26
ENDBRANCH   9  24
BRANCH   6  29
ATOM     29  O   UNL     1       6.395  -1.609   0.000  0.00  0.00    +0.000 OA
ATOM     30  C   UNL     1       5.967  -2.350   0.000  0.00  0.00    +0.000 C 
ENDBRANCH   6  29
TORSDOF 4
