REMARK  Name = 1454
REMARK  3 active torsions:
REMARK  status: ('A' for Active; 'I' for Inactive)
REMARK    1  A    between atoms: N_3  and  C_4
REMARK    2  A    between atoms: C_4  and  C_5
REMARK    3  A    between atoms: C_5  and  C_6
REMARK                            x       y       z     vdW  Elec       q    Type
REMARK                         _______ _______ _______ _____ _____    ______ ____
ROOT
ATOM      1  O   UNL     1       6.717   0.408   0.000  0.00  0.00    +0.000 OA
ATOM      2  O   UNL     1       6.717  -0.919   0.000  0.00  0.00    +0.000 OA
ATOM      3  C   UNL     1       4.508   0.157   0.000  0.00  0.00    +0.000 A 
ATOM      4  C   UNL     1       5.222   0.569   0.000  0.00  0.00    +0.000 A 
ATOM      5  C   UNL     1       5.936   0.157   0.000  0.00  0.00    +0.000 A 
ATOM      6  C   UNL     1       4.508  -0.668   0.000  0.00  0.00    +0.000 A 
ATOM      7  C   UNL     1       5.936  -0.668   0.000  0.00  0.00    +0.000 A 
ATOM      8  C   UNL     1       5.222  -1.081   0.000  0.00  0.00    +0.000 A 
ATOM      9  C   UNL     1       7.199  -0.256   0.000  0.00  0.00    +0.000 C 
ENDROOT
BRANCH   3  10
ATOM     10  C   UNL     1       3.793   0.569   0.000  0.00  0.00    +0.000 C 
BRANCH  10  11
ATOM     11  C   UNL     1       3.079   0.157   0.000  0.00  0.00    +0.000 C 
ATOM     12  C   UNL     1       3.079  -0.668   0.000  0.00  0.00    +0.000 C 
BRANCH  11  13
ATOM     13  N   UNL     1       2.364   0.569   0.000  0.00  0.00    +0.000 NA
ATOM     14  C   UNL     1       1.650   0.157   0.000  0.00  0.00    +0.000 C 
ENDBRANCH  11  13
ENDBRANCH  10  11
ENDBRANCH   3  10
TORSDOF 3
