REMARK  Name = 1459
REMARK  8 active torsions:
REMARK  status: ('A' for Active; 'I' for Inactive)
REMARK    1  A    between atoms: N_3  and  C_12
REMARK    2  A    between atoms: N_4  and  C_7
REMARK    3  A    between atoms: C_12  and  C_13
REMARK    4  A    between atoms: C_13  and  C_15
REMARK    5  A    between atoms: C_15  and  C_18
REMARK    6  A    between atoms: C_15  and  C_19
REMARK    7  A    between atoms: C_15  and  C_23
REMARK    8  A    between atoms: C_22  and  C_30
REMARK                            x       y       z     vdW  Elec       q    Type
REMARK                         _______ _______ _______ _____ _____    ______ ____
ROOT
ATOM      1  N   UNL     1       4.628   0.664   0.000  0.00  0.00    +0.000 NA
ATOM      2  C   UNL     1       4.116  -0.904   0.000  0.00  0.00    +0.000 C 
ATOM      3  C   UNL     1       4.923  -0.734   0.000  0.00  0.00    +0.000 C 
ATOM      4  C   UNL     1       3.565  -0.290   0.000  0.00  0.00    +0.000 C 
ATOM      5  C   UNL     1       5.179   0.050   0.000  0.00  0.00    +0.000 C 
ATOM      6  C   UNL     1       3.821   0.494   0.000  0.00  0.00    +0.000 C 
ENDROOT
BRANCH   2   9
ATOM      7  O   UNL     1       5.166  -2.353   0.000  0.00  0.00    +0.000 OA
ATOM      8  O   UNL     1       3.565  -4.415   0.000  0.00  0.00    +0.000 OA
ATOM      9  N   UNL     1       3.860  -1.689   0.000  0.00  0.00    +0.000 N 
ATOM     10  N   UNL     1       3.860  -3.017   0.000  0.00  0.00    +0.000 N 
ATOM     11  C   UNL     1       3.079  -1.940   0.000  0.00  0.00    +0.000 A 
ATOM     12  C   UNL     1       4.341  -2.353   0.000  0.00  0.00    +0.000 A 
ATOM     13  C   UNL     1       3.079  -2.765   0.000  0.00  0.00    +0.000 A 
ATOM     14  C   UNL     1       2.365  -1.528   0.000  0.00  0.00    +0.000 A 
ATOM     15  C   UNL     1       2.365  -3.178   0.000  0.00  0.00    +0.000 A 
ATOM     16  C   UNL     1       4.116  -3.801   0.000  0.00  0.00    +0.000 C 
ATOM     17  C   UNL     1       1.650  -1.940   0.000  0.00  0.00    +0.000 A 
ATOM     18  C   UNL     1       1.650  -2.765   0.000  0.00  0.00    +0.000 A 
BRANCH  16  19
ATOM     19  C   UNL     1       4.923  -3.971   0.000  0.00  0.00    +0.000 C 
ATOM     20  C   UNL     1       5.179  -4.755   0.000  0.00  0.00    +0.000 C 
ENDBRANCH  16  19
ENDBRANCH   2   9
BRANCH   1  21
ATOM     21  C   UNL     1       4.885   1.448   0.000  0.00  0.00    +0.000 C 
BRANCH  21  22
ATOM     22  C   UNL     1       5.692   1.618   0.000  0.00  0.00    +0.000 C 
BRANCH  22  23
ATOM     23  C   UNL     1       5.948   2.402   0.000  0.00  0.00    +0.000 C 
BRANCH  23  24
ATOM     24  C   UNL     1       6.205   3.187   0.000  0.00  0.00    +0.000 A 
ATOM     25  C   UNL     1       5.654   3.801   0.000  0.00  0.00    +0.000 A 
ATOM     26  C   UNL     1       7.012   3.357   0.000  0.00  0.00    +0.000 A 
ATOM     27  C   UNL     1       5.910   4.585   0.000  0.00  0.00    +0.000 A 
ATOM     28  C   UNL     1       7.268   4.141   0.000  0.00  0.00    +0.000 A 
ATOM     29  C   UNL     1       6.717   4.755   0.000  0.00  0.00    +0.000 A 
ENDBRANCH  23  24
BRANCH  23  30
ATOM     30  C   UNL     1       6.733   2.146   0.000  0.00  0.00    +0.000 A 
ATOM     31  C   UNL     1       7.347   2.697   0.000  0.00  0.00    +0.000 A 
ATOM     32  C   UNL     1       6.903   1.339   0.000  0.00  0.00    +0.000 A 
ATOM     33  C   UNL     1       8.131   2.441   0.000  0.00  0.00    +0.000 A 
ATOM     34  C   UNL     1       7.687   1.083   0.000  0.00  0.00    +0.000 A 
ATOM     35  C   UNL     1       8.301   1.633   0.000  0.00  0.00    +0.000 A 
ENDBRANCH  23  30
BRANCH  23  37
ATOM     36  N   UNL     1       4.380   2.915   0.000  0.00  0.00    +0.000 NA
ATOM     37  C   UNL     1       5.164   2.659   0.000  0.00  0.00    +0.000 C 
ENDBRANCH  23  37
ENDBRANCH  22  23
ENDBRANCH  21  22
ENDBRANCH   1  21
TORSDOF 8
