REMARK  Name = 1460
REMARK  5 active torsions:
REMARK  status: ('A' for Active; 'I' for Inactive)
REMARK    1  A    between atoms: N_1  and  C_3
REMARK    2  A    between atoms: N_1  and  C_7
REMARK    3  A    between atoms: N_1  and  C_8
REMARK    4  A    between atoms: C_3  and  C_4
REMARK    5  A    between atoms: C_4  and  C_5
REMARK                            x       y       z     vdW  Elec       q    Type
REMARK                         _______ _______ _______ _____ _____    ______ ____
ROOT
ATOM      1  N   UNL     1       3.860  -1.989   0.000  0.00  0.00    +0.000 NA
ATOM      2  C   UNL     1       3.860  -0.661   0.000  0.00  0.00    +0.000 A 
ATOM      3  C   UNL     1       3.079  -0.913   0.000  0.00  0.00    +0.000 A 
ATOM      4  C   UNL     1       3.079  -1.738   0.000  0.00  0.00    +0.000 A 
ATOM      5  C   UNL     1       4.341  -1.325   0.000  0.00  0.00    +0.000 A 
ATOM      6  C   UNL     1       2.365  -0.500   0.000  0.00  0.00    +0.000 A 
ATOM      7  C   UNL     1       2.365  -2.150   0.000  0.00  0.00    +0.000 A 
ATOM      8  C   UNL     1       1.650  -0.913   0.000  0.00  0.00    +0.000 A 
ATOM      9  C   UNL     1       1.650  -1.738   0.000  0.00  0.00    +0.000 A 
ENDROOT
BRANCH   2  10
ATOM     10  C   UNL     1       4.116   0.123   0.000  0.00  0.00    +0.000 C 
BRANCH  10  11
ATOM     11  C   UNL     1       4.923   0.293   0.000  0.00  0.00    +0.000 C 
BRANCH  11  12
ATOM     12  N   UNL     1       5.180   1.077   0.000  0.00  0.00    +0.000 NA
BRANCH  12  13
ATOM     13  C   UNL     1       4.629   1.691   0.000  0.00  0.00    +0.000 C 
ATOM     14  C   UNL     1       4.885   2.475   0.000  0.00  0.00    +0.000 C 
ENDBRANCH  12  13
BRANCH  12  15
ATOM     15  C   UNL     1       5.987   1.247   0.000  0.00  0.00    +0.000 C 
ATOM     16  C   UNL     1       6.243   2.032   0.000  0.00  0.00    +0.000 C 
ENDBRANCH  12  15
ENDBRANCH  11  12
ENDBRANCH  10  11
ENDBRANCH   2  10
TORSDOF 5
