REMARK  Name = 1461
REMARK  9 active torsions:
REMARK  status: ('A' for Active; 'I' for Inactive)
REMARK    1  A    between atoms: O_1  and  C_5
REMARK    2  A    between atoms: O_1  and  C_13
REMARK    3  A    between atoms: O_2  and  C_8
REMARK    4  A    between atoms: O_2  and  C_14
REMARK    5  A    between atoms: N_4  and  C_15
REMARK    6  A    between atoms: C_5  and  C_6
REMARK    7  A    between atoms: C_5  and  C_7
REMARK    8  A    between atoms: C_5  and  C_8
REMARK    9  A    between atoms: C_14  and  C_15
REMARK                            x       y       z     vdW  Elec       q    Type
REMARK                         _______ _______ _______ _____ _____    ______ ____
ROOT
ATOM      1  C   UNL     1       3.713   0.000   0.000  0.00  0.00    +0.000 C 
ENDROOT
BRANCH   1   2
ATOM      2  C   UNL     1       3.713  -0.825   0.000  0.00  0.00    +0.000 A 
ATOM      3  C   UNL     1       4.427  -1.238   0.000  0.00  0.00    +0.000 A 
ATOM      4  C   UNL     1       2.998  -1.238   0.000  0.00  0.00    +0.000 A 
ATOM      5  C   UNL     1       4.427  -2.062   0.000  0.00  0.00    +0.000 A 
ATOM      6  C   UNL     1       2.998  -2.062   0.000  0.00  0.00    +0.000 A 
ATOM      7  C   UNL     1       3.713  -2.475   0.000  0.00  0.00    +0.000 A 
ENDBRANCH   1   2
BRANCH   1   8
ATOM      8  C   UNL     1       3.713   0.825   0.000  0.00  0.00    +0.000 A 
ATOM      9  C   UNL     1       2.998   1.238   0.000  0.00  0.00    +0.000 A 
ATOM     10  C   UNL     1       4.427   1.238   0.000  0.00  0.00    +0.000 A 
ATOM     11  C   UNL     1       2.998   2.062   0.000  0.00  0.00    +0.000 A 
ATOM     12  C   UNL     1       4.427   2.062   0.000  0.00  0.00    +0.000 A 
ATOM     13  C   UNL     1       3.713   2.475   0.000  0.00  0.00    +0.000 A 
ENDBRANCH   1   8
BRANCH   1  15
ATOM     14  O   UNL     1       4.950   0.715   0.000  0.00  0.00    +0.000 OA
ATOM     15  C   UNL     1       4.538   0.000   0.000  0.00  0.00    +0.000 C 
BRANCH  15  16
ATOM     16  O   UNL     1       4.950  -0.715   0.000  0.00  0.00    +0.000 OA
BRANCH  16  17
ATOM     17  C   UNL     1       5.775  -0.715   0.000  0.00  0.00    +0.000 C 
BRANCH  17  18
ATOM     18  C   UNL     1       6.188  -1.429   0.000  0.00  0.00    +0.000 C 
BRANCH  18  19
ATOM     19  N   UNL     1       7.013  -1.429   0.000  0.00  0.00    +0.000 NA
ATOM     20  C   UNL     1       7.425  -2.143   0.000  0.00  0.00    +0.000 C 
ATOM     21  C   UNL     1       7.425  -0.715   0.000  0.00  0.00    +0.000 C 
ENDBRANCH  18  19
ENDBRANCH  17  18
ENDBRANCH  16  17
ENDBRANCH  15  16
ENDBRANCH   1  15
BRANCH   1  22
ATOM     22  O   UNL     1       2.888   0.000   0.000  0.00  0.00    +0.000 OA
BRANCH  22  23
ATOM     23  C   UNL     1       2.475   0.715   0.000  0.00  0.00    +0.000 C 
ATOM     24  C   UNL     1       1.650   0.715   0.000  0.00  0.00    +0.000 C 
ENDBRANCH  22  23
ENDBRANCH   1  22
TORSDOF 9
