REMARK  Name = 1462
REMARK  10 active torsions:
REMARK  status: ('A' for Active; 'I' for Inactive)
REMARK    1  A    between atoms: O_1  and  C_27
REMARK    2  A    between atoms: O_1  and  C_28
REMARK    3  A    between atoms: N_4  and  C_8
REMARK    4  A    between atoms: N_5  and  C_9
REMARK    5  A    between atoms: N_5  and  C_14
REMARK    6  A    between atoms: N_5  and  C_15
REMARK    7  A    between atoms: N_7  and  C_19
REMARK    8  A    between atoms: C_8  and  C_9
REMARK    9  A    between atoms: C_10  and  C_13
REMARK   10  A    between atoms: C_13  and  C_17
REMARK                            x       y       z     vdW  Elec       q    Type
REMARK                         _______ _______ _______ _____ _____    ______ ____
ROOT
ATOM      1  N   UNL     1       5.289   0.550   0.000  0.00  0.00    +0.000 N 
ATOM      2  N   UNL     1       5.289  -0.778   0.000  0.00  0.00    +0.000 NA
ATOM      3  C   UNL     1       5.770  -0.114   0.000  0.00  0.00    +0.000 A 
ATOM      4  C   UNL     1       4.508   0.298   0.000  0.00  0.00    +0.000 A 
ATOM      5  C   UNL     1       4.508  -0.527   0.000  0.00  0.00    +0.000 A 
ATOM      6  C   UNL     1       3.793   0.711   0.000  0.00  0.00    +0.000 A 
ATOM      7  C   UNL     1       3.793  -0.939   0.000  0.00  0.00    +0.000 A 
ATOM      8  C   UNL     1       3.079  -0.527   0.000  0.00  0.00    +0.000 A 
ATOM      9  C   UNL     1       3.079   0.298   0.000  0.00  0.00    +0.000 A 
ENDROOT
BRANCH   8  12
ATOM     10  O   UNL     1       1.650  -0.527   0.000  0.00  0.00    +0.000 OA
ATOM     11  O   UNL     1       2.365  -1.764   0.000  0.00  0.00    +0.000 OA
ATOM     12  N   UNL     1       2.365  -0.939   0.000  0.00  0.00    +0.000 N 
ENDBRANCH   8  12
BRANCH   3  13
ATOM     13  C   UNL     1       6.595  -0.114   0.000  0.00  0.00    +0.000 C 
BRANCH  13  14
ATOM     14  C   UNL     1       7.008  -0.829   0.000  0.00  0.00    +0.000 A 
ATOM     15  C   UNL     1       7.833  -0.829   0.000  0.00  0.00    +0.000 A 
ATOM     16  C   UNL     1       6.595  -1.543   0.000  0.00  0.00    +0.000 A 
ATOM     17  C   UNL     1       8.245  -1.543   0.000  0.00  0.00    +0.000 A 
ATOM     18  C   UNL     1       7.008  -2.258   0.000  0.00  0.00    +0.000 A 
ATOM     19  C   UNL     1       7.833  -2.258   0.000  0.00  0.00    +0.000 A 
BRANCH  19  20
ATOM     20  O   UNL     1       8.245  -2.972   0.000  0.00  0.00    +0.000 OA
BRANCH  20  21
ATOM     21  C   UNL     1       9.070  -2.972   0.000  0.00  0.00    +0.000 C 
ATOM     22  C   UNL     1       9.483  -3.687   0.000  0.00  0.00    +0.000 C 
ENDBRANCH  20  21
ENDBRANCH  19  20
ENDBRANCH  13  14
ENDBRANCH   3  13
BRANCH   1  23
ATOM     23  C   UNL     1       5.545   1.334   0.000  0.00  0.00    +0.000 C 
BRANCH  23  24
ATOM     24  C   UNL     1       6.352   1.504   0.000  0.00  0.00    +0.000 C 
BRANCH  24  25
ATOM     25  N   UNL     1       6.609   2.288   0.000  0.00  0.00    +0.000 NA
BRANCH  25  26
ATOM     26  C   UNL     1       6.058   2.902   0.000  0.00  0.00    +0.000 C 
ATOM     27  C   UNL     1       6.314   3.687   0.000  0.00  0.00    +0.000 C 
ENDBRANCH  25  26
BRANCH  25  28
ATOM     28  C   UNL     1       7.416   2.458   0.000  0.00  0.00    +0.000 C 
ATOM     29  C   UNL     1       7.672   3.243   0.000  0.00  0.00    +0.000 C 
ENDBRANCH  25  28
ENDBRANCH  24  25
ENDBRANCH  23  24
ENDBRANCH   1  23
TORSDOF 10
