REMARK  Name = 1463
REMARK  3 active torsions:
REMARK  status: ('A' for Active; 'I' for Inactive)
REMARK    1  A    between atoms: N_1  and  C_5
REMARK    2  A    between atoms: N_1  and  C_10
REMARK    3  A    between atoms: C_4  and  C_9
REMARK                            x       y       z     vdW  Elec       q    Type
REMARK                         _______ _______ _______ _____ _____    ______ ____
ROOT
ATOM      1  C   UNL     1       5.298   0.804   0.000  0.00  0.00    +0.000 C 
ATOM      2  C   UNL     1       5.512   1.601   0.000  0.00  0.00    +0.000 C 
ATOM      3  C   UNL     1       3.870  -0.021   0.000  0.00  0.00    +0.000 C 
ATOM      4  C   UNL     1       3.457   0.693   0.000  0.00  0.00    +0.000 C 
ATOM      5  C   UNL     1       4.904   2.412   0.000  0.00  0.00    +0.000 C 
ATOM      6  C   UNL     1       6.810   0.178   0.000  0.00  0.00    +0.000 C 
ATOM      7  C   UNL     1       7.023   0.975   0.000  0.00  0.00    +0.000 C 
ENDROOT
BRANCH   3   8
ATOM      8  C   UNL     1       3.656  -0.818   0.000  0.00  0.00    +0.000 A 
ATOM      9  C   UNL     1       2.859  -1.031   0.000  0.00  0.00    +0.000 A 
ATOM     10  C   UNL     1       4.239  -1.401   0.000  0.00  0.00    +0.000 A 
ATOM     11  C   UNL     1       2.646  -1.828   0.000  0.00  0.00    +0.000 A 
ATOM     12  C   UNL     1       4.026  -2.198   0.000  0.00  0.00    +0.000 A 
ATOM     13  C   UNL     1       3.229  -2.412   0.000  0.00  0.00    +0.000 A 
ENDBRANCH   3   8
BRANCH   4  14
ATOM     14  N   UNL     1       2.660   0.907   0.000  0.00  0.00    +0.000 NA
BRANCH  14  15
ATOM     15  C   UNL     1       2.447   1.704   0.000  0.00  0.00    +0.000 C 
ATOM     16  C   UNL     1       1.650   1.917   0.000  0.00  0.00    +0.000 C 
ENDBRANCH  14  15
ENDBRANCH   4  14
TORSDOF 3
