REMARK  Name = 1464
REMARK  9 active torsions:
REMARK  status: ('A' for Active; 'I' for Inactive)
REMARK    1  A    between atoms: O_1  and  C_13
REMARK    2  A    between atoms: O_1  and  C_25
REMARK    3  A    between atoms: O_2  and  C_14
REMARK    4  A    between atoms: O_2  and  C_19
REMARK    5  A    between atoms: N_5  and  C_12
REMARK    6  A    between atoms: C_6  and  C_11
REMARK    7  A    between atoms: C_6  and  C_13
REMARK    8  A    between atoms: C_12  and  C_14
REMARK    9  A    between atoms: C_17  and  C_19
REMARK                            x       y       z     vdW  Elec       q    Type
REMARK                         _______ _______ _______ _____ _____    ______ ____
ROOT
ATOM      1  N   UNL     1       4.125   0.523   0.000  0.00  0.00    +0.000 NA
ATOM      2  C   UNL     1       4.125   2.173   0.000  0.00  0.00    +0.000 C 
ATOM      3  C   UNL     1       4.840   1.761   0.000  0.00  0.00    +0.000 C 
ATOM      4  C   UNL     1       3.411   1.761   0.000  0.00  0.00    +0.000 C 
ATOM      5  C   UNL     1       4.840   0.936   0.000  0.00  0.00    +0.000 C 
ATOM      6  C   UNL     1       3.411   0.936   0.000  0.00  0.00    +0.000 C 
ENDROOT
BRANCH   2   7
ATOM      7  C   UNL     1       4.757   2.704   0.000  0.00  0.00    +0.000 A 
ATOM      8  C   UNL     1       4.614   3.516   0.000  0.00  0.00    +0.000 A 
ATOM      9  C   UNL     1       5.532   2.421   0.000  0.00  0.00    +0.000 A 
ATOM     10  C   UNL     1       5.246   4.046   0.000  0.00  0.00    +0.000 A 
ATOM     11  C   UNL     1       6.164   2.952   0.000  0.00  0.00    +0.000 A 
ATOM     12  C   UNL     1       6.021   3.764   0.000  0.00  0.00    +0.000 A 
ENDBRANCH   2   7
BRANCH   2  14
ATOM     13  O   UNL     1       3.856   3.700   0.000  0.00  0.00    +0.000 OA
ATOM     14  C   UNL     1       3.713   2.888   0.000  0.00  0.00    +0.000 C 
BRANCH  14  15
ATOM     15  O   UNL     1       2.888   2.888   0.000  0.00  0.00    +0.000 OA
BRANCH  15  16
ATOM     16  C   UNL     1       2.475   3.602   0.000  0.00  0.00    +0.000 C 
ATOM     17  C   UNL     1       1.650   3.602   0.000  0.00  0.00    +0.000 C 
ENDBRANCH  15  16
ENDBRANCH  14  15
ENDBRANCH   2  14
BRANCH   1  18
ATOM     18  C   UNL     1       4.125  -0.302   0.000  0.00  0.00    +0.000 C 
BRANCH  18  19
ATOM     19  C   UNL     1       3.411  -0.714   0.000  0.00  0.00    +0.000 C 
BRANCH  19  20
ATOM     20  O   UNL     1       3.411  -1.539   0.000  0.00  0.00    +0.000 OA
BRANCH  20  21
ATOM     21  C   UNL     1       2.696  -1.952   0.000  0.00  0.00    +0.000 C 
BRANCH  21  23
ATOM     22  O   UNL     1       3.364  -3.262   0.000  0.00  0.00    +0.000 OA
ATOM     23  C   UNL     1       2.696  -2.777   0.000  0.00  0.00    +0.000 C 
ATOM     24  C   UNL     1       2.029  -3.262   0.000  0.00  0.00    +0.000 C 
ATOM     25  C   UNL     1       2.284  -4.046   0.000  0.00  0.00    +0.000 C 
ATOM     26  C   UNL     1       3.109  -4.046   0.000  0.00  0.00    +0.000 C 
ENDBRANCH  21  23
ENDBRANCH  20  21
ENDBRANCH  19  20
ENDBRANCH  18  19
ENDBRANCH   1  18
TORSDOF 9
