REMARK  Name = 1466
REMARK  2 active torsions:
REMARK  status: ('A' for Active; 'I' for Inactive)
REMARK    1  A    between atoms: O_3  and  C_20
REMARK    2  A    between atoms: O_3  and  C_22
REMARK                            x       y       z     vdW  Elec       q    Type
REMARK                         _______ _______ _______ _____ _____    ______ ____
ROOT
ATOM      1  O   UNL     1       2.687  -0.336   0.000  0.00  0.00    +0.000 OA
ATOM      2  O   UNL     1       2.486  -2.465   0.000  0.00  0.00    +0.000 OA
ATOM      3  N   UNL     1       6.095  -1.207   0.000  0.00  0.00    +0.000 NA
ATOM      4  C   UNL     1       3.952  -0.794   0.000  0.00  0.00    +0.000 C 
ATOM      5  C   UNL     1       4.666  -1.207   0.000  0.00  0.00    +0.000 C 
ATOM      6  C   UNL     1       5.381  -0.794   0.000  0.00  0.00    +0.000 C 
ATOM      7  C   UNL     1       3.237  -1.207   0.000  0.00  0.00    +0.000 C 
ATOM      8  C   UNL     1       4.428  -0.189   0.000  0.00  0.00    +0.000 C 
ATOM      9  C   UNL     1       3.952   0.031   0.000  0.00  0.00    +0.000 A 
ATOM     10  C   UNL     1       5.381   0.031   0.000  0.00  0.00    +0.000 C 
ATOM     11  C   UNL     1       5.602  -0.189   0.000  0.00  0.00    +0.000 C 
ATOM     12  C   UNL     1       4.666   0.443   0.000  0.00  0.00    +0.000 A 
ATOM     13  C   UNL     1       3.237  -2.032   0.000  0.00  0.00    +0.000 C 
ATOM     14  C   UNL     1       4.666  -2.032   0.000  0.00  0.00    +0.000 C 
ATOM     15  C   UNL     1       3.237   0.443   0.000  0.00  0.00    +0.000 A 
ATOM     16  C   UNL     1       3.952  -2.444   0.000  0.00  0.00    +0.000 C 
ATOM     17  C   UNL     1       4.666   1.268   0.000  0.00  0.00    +0.000 A 
ATOM     18  C   UNL     1       6.686  -1.842   0.000  0.00  0.00    +0.000 C 
ATOM     19  C   UNL     1       3.237   1.268   0.000  0.00  0.00    +0.000 A 
ATOM     20  C   UNL     1       3.952   1.681   0.000  0.00  0.00    +0.000 A 
ENDROOT
BRANCH  19  21
ATOM     21  O   UNL     1       2.486   1.702   0.000  0.00  0.00    +0.000 OA
BRANCH  21  22
ATOM     22  C   UNL     1       2.486   2.569   0.000  0.00  0.00    +0.000 C 
ATOM     23  C   UNL     1       1.735   3.003   0.000  0.00  0.00    +0.000 C 
ENDBRANCH  21  22
ENDBRANCH  19  21
TORSDOF 2
