REMARK  Name = 1467
REMARK  5 active torsions:
REMARK  status: ('A' for Active; 'I' for Inactive)
REMARK    1  A    between atoms: O_1  and  C_8
REMARK    2  A    between atoms: O_2  and  C_10
REMARK    3  A    between atoms: C_4  and  C_5
REMARK    4  A    between atoms: C_4  and  C_6
REMARK    5  A    between atoms: C_7  and  C_12
REMARK                            x       y       z     vdW  Elec       q    Type
REMARK                         _______ _______ _______ _____ _____    ______ ____
ROOT
ATOM      1  C   UNL     1       3.793   0.285   0.000  0.00  0.00    +0.000 A 
ATOM      2  C   UNL     1       3.793  -1.365   0.000  0.00  0.00    +0.000 A 
ATOM      3  C   UNL     1       3.079  -0.128   0.000  0.00  0.00    +0.000 A 
ATOM      4  C   UNL     1       4.508  -0.128   0.000  0.00  0.00    +0.000 A 
ATOM      5  C   UNL     1       4.508  -0.953   0.000  0.00  0.00    +0.000 A 
ATOM      6  C   UNL     1       3.079  -0.953   0.000  0.00  0.00    +0.000 A 
ENDROOT
BRANCH   3   7
ATOM      7  O   UNL     1       2.365   0.285   0.000  0.00  0.00    +0.000 OA
ATOM      8  C   UNL     1       1.650  -0.128   0.000  0.00  0.00    +0.000 C 
ENDBRANCH   3   7
BRANCH   5   9
ATOM      9  O   UNL     1       5.222  -1.365   0.000  0.00  0.00    +0.000 OA
ATOM     10  C   UNL     1       5.937  -0.953   0.000  0.00  0.00    +0.000 C 
ENDBRANCH   5   9
BRANCH   2  11
ATOM     11  C   UNL     1       3.793  -2.190   0.000  0.00  0.00    +0.000 C 
ATOM     12  C   UNL     1       3.079  -2.603   0.000  0.00  0.00    +0.000 C 
ENDBRANCH   2  11
BRANCH   1  13
ATOM     13  C   UNL     1       3.793   1.110   0.000  0.00  0.00    +0.000 C 
BRANCH  13  15
ATOM     14  N   UNL     1       4.508   2.347   0.000  0.00  0.00    +0.000 NA
ATOM     15  C   UNL     1       4.508   1.522   0.000  0.00  0.00    +0.000 C 
ATOM     16  C   UNL     1       5.222   1.110   0.000  0.00  0.00    +0.000 C 
ENDBRANCH  13  15
ENDBRANCH   1  13
TORSDOF 5
