REMARK  Name = 1468
REMARK  5 active torsions:
REMARK  status: ('A' for Active; 'I' for Inactive)
REMARK    1  A    between atoms: N_3  and  C_4
REMARK    2  A    between atoms: N_3  and  C_6
REMARK    3  A    between atoms: C_4  and  C_5
REMARK    4  A    between atoms: C_8  and  C_11
REMARK    5  A    between atoms: C_8  and  C_12
REMARK                            x       y       z     vdW  Elec       q    Type
REMARK                         _______ _______ _______ _____ _____    ______ ____
ROOT
ATOM      1  C   UNL     1       3.079   0.016   0.000  0.00  0.00    +0.000 C 
ATOM      2  C   UNL     1       3.793  -0.397   0.000  0.00  0.00    +0.000 C 
ENDROOT
BRANCH   2   4
ATOM      3  S   UNL     1       5.262  -0.320   0.000  0.00  0.00    +0.000 S 
ATOM      4  C   UNL     1       4.508   0.016   0.000  0.00  0.00    +0.000 A 
ATOM      5  C   UNL     1       4.594   0.837   0.000  0.00  0.00    +0.000 A 
ATOM      6  C   UNL     1       5.401   1.008   0.000  0.00  0.00    +0.000 A 
ATOM      7  C   UNL     1       5.814   0.293   0.000  0.00  0.00    +0.000 A 
ENDBRANCH   2   4
BRANCH   2   9
ATOM      8  S   UNL     1       3.126  -1.706   0.000  0.00  0.00    +0.000 S 
ATOM      9  C   UNL     1       3.793  -1.222   0.000  0.00  0.00    +0.000 A 
ATOM     10  C   UNL     1       4.461  -1.706   0.000  0.00  0.00    +0.000 A 
ATOM     11  C   UNL     1       4.206  -2.491   0.000  0.00  0.00    +0.000 A 
ATOM     12  C   UNL     1       3.381  -2.491   0.000  0.00  0.00    +0.000 A 
ENDBRANCH   2   9
BRANCH   1  13
ATOM     13  C   UNL     1       3.079   0.841   0.000  0.00  0.00    +0.000 C 
ATOM     14  C   UNL     1       3.793   1.254   0.000  0.00  0.00    +0.000 C 
BRANCH  13  15
ATOM     15  N   UNL     1       2.365   1.254   0.000  0.00  0.00    +0.000 NA
ATOM     16  C   UNL     1       1.650   0.841   0.000  0.00  0.00    +0.000 C 
BRANCH  15  17
ATOM     17  C   UNL     1       2.365   2.079   0.000  0.00  0.00    +0.000 C 
ATOM     18  C   UNL     1       1.650   2.491   0.000  0.00  0.00    +0.000 C 
ENDBRANCH  15  17
ENDBRANCH  13  15
ENDBRANCH   1  13
TORSDOF 5
