REMARK  Name = 147
REMARK  2 active torsions:
REMARK  status: ('A' for Active; 'I' for Inactive)
REMARK    1  A    between atoms: C_5  and  C_9
REMARK    2  A    between atoms: C_6  and  C_12
REMARK                            x       y       z     vdW  Elec       q    Type
REMARK                         _______ _______ _______ _____ _____    ______ ____
ROOT
ATOM      1  O   UNL     1       2.093   0.206   0.000  0.00  0.00    +0.000 OA
ATOM      2  N   UNL     1       3.522  -1.444   0.000  0.00  0.00    +0.000 NA
ATOM      3  C   UNL     1       4.237  -0.206   0.000  0.00  0.00    +0.000 A 
ATOM      4  C   UNL     1       3.522   0.206   0.000  0.00  0.00    +0.000 A 
ATOM      5  C   UNL     1       2.808  -0.206   0.000  0.00  0.00    +0.000 A 
ATOM      6  C   UNL     1       2.808  -1.031   0.000  0.00  0.00    +0.000 A 
ATOM      7  C   UNL     1       4.237  -1.031   0.000  0.00  0.00    +0.000 A 
ATOM      8  C   UNL     1       2.093  -1.444   0.000  0.00  0.00    +0.000 C 
ENDROOT
BRANCH   3  10
ATOM      9  O   UNL     1       5.665  -0.206   0.000  0.00  0.00    +0.000 OA
ATOM     10  C   UNL     1       4.951   0.206   0.000  0.00  0.00    +0.000 C 
ENDBRANCH   3  10
BRANCH   4  12
ATOM     11  O   UNL     1       2.808   1.444   0.000  0.00  0.00    +0.000 OA
ATOM     12  C   UNL     1       3.522   1.031   0.000  0.00  0.00    +0.000 C 
ENDBRANCH   4  12
TORSDOF 2
