REMARK  Name = 1470
REMARK  6 active torsions:
REMARK  status: ('A' for Active; 'I' for Inactive)
REMARK    1  A    between atoms: N_3  and  C_10
REMARK    2  A    between atoms: N_4  and  C_5
REMARK    3  A    between atoms: N_4  and  C_13
REMARK    4  A    between atoms: C_10  and  C_11
REMARK    5  A    between atoms: C_11  and  C_15
REMARK    6  A    between atoms: C_14  and  C_16
REMARK                            x       y       z     vdW  Elec       q    Type
REMARK                         _______ _______ _______ _____ _____    ______ ____
ROOT
ATOM      1  N   UNL     1       3.079  -0.397   0.000  0.00  0.00    +0.000 NA
ATOM      2  C   UNL     1       3.079   1.254   0.000  0.00  0.00    +0.000 C 
ATOM      3  C   UNL     1       2.365   0.841   0.000  0.00  0.00    +0.000 C 
ATOM      4  C   UNL     1       3.793   0.841   0.000  0.00  0.00    +0.000 C 
ATOM      5  C   UNL     1       2.365   0.016   0.000  0.00  0.00    +0.000 C 
ATOM      6  C   UNL     1       3.793   0.016   0.000  0.00  0.00    +0.000 C 
ENDROOT
BRANCH   2   8
ATOM      7  O   UNL     1       1.650   2.079   0.000  0.00  0.00    +0.000 OA
ATOM      8  N   UNL     1       3.079   2.079   0.000  0.00  0.00    +0.000 N 
ATOM      9  C   UNL     1       2.365   2.491   0.000  0.00  0.00    +0.000 C 
BRANCH   8  10
ATOM     10  C   UNL     1       3.793   2.491   0.000  0.00  0.00    +0.000 A 
ATOM     11  C   UNL     1       3.793   3.316   0.000  0.00  0.00    +0.000 A 
ATOM     12  C   UNL     1       4.508   2.079   0.000  0.00  0.00    +0.000 A 
ATOM     13  C   UNL     1       4.508   3.729   0.000  0.00  0.00    +0.000 A 
ATOM     14  C   UNL     1       5.222   2.491   0.000  0.00  0.00    +0.000 A 
ATOM     15  C   UNL     1       5.222   3.316   0.000  0.00  0.00    +0.000 A 
ENDBRANCH   8  10
BRANCH   9  16
ATOM     16  C   UNL     1       2.365   3.316   0.000  0.00  0.00    +0.000 C 
ATOM     17  C   UNL     1       1.650   3.729   0.000  0.00  0.00    +0.000 C 
ENDBRANCH   9  16
ENDBRANCH   2   8
BRANCH   1  18
ATOM     18  C   UNL     1       3.079  -1.222   0.000  0.00  0.00    +0.000 C 
ATOM     19  C   UNL     1       3.793  -1.634   0.000  0.00  0.00    +0.000 C 
BRANCH  18  20
ATOM     20  C   UNL     1       2.365  -1.634   0.000  0.00  0.00    +0.000 C 
BRANCH  20  22
ATOM     21  S   UNL     1       1.697  -2.944   0.000  0.00  0.00    +0.000 S 
ATOM     22  C   UNL     1       2.365  -2.459   0.000  0.00  0.00    +0.000 A 
ATOM     23  C   UNL     1       3.032  -2.944   0.000  0.00  0.00    +0.000 A 
ATOM     24  C   UNL     1       2.777  -3.729   0.000  0.00  0.00    +0.000 A 
ATOM     25  C   UNL     1       1.952  -3.729   0.000  0.00  0.00    +0.000 A 
ENDBRANCH  20  22
ENDBRANCH  18  20
ENDBRANCH   1  18
TORSDOF 6
