REMARK  Name = 1472
REMARK  3 active torsions:
REMARK  status: ('A' for Active; 'I' for Inactive)
REMARK    1  A    between atoms: O_1  and  C_11
REMARK    2  A    between atoms: C_3  and  C_4
REMARK    3  A    between atoms: C_3  and  C_5
REMARK                            x       y       z     vdW  Elec       q    Type
REMARK                         _______ _______ _______ _____ _____    ______ ____
ROOT
ATOM      1  C   UNL     1       2.365   0.285   0.000  0.00  0.00    +0.000 A 
ATOM      2  C   UNL     1       3.079  -0.128   0.000  0.00  0.00    +0.000 A 
ATOM      3  C   UNL     1       1.650  -0.128   0.000  0.00  0.00    +0.000 A 
ATOM      4  C   UNL     1       3.079  -0.953   0.000  0.00  0.00    +0.000 A 
ATOM      5  C   UNL     1       1.650  -0.953   0.000  0.00  0.00    +0.000 A 
ATOM      6  C   UNL     1       2.365  -1.365   0.000  0.00  0.00    +0.000 A 
ENDROOT
BRANCH   6   7
ATOM      7  O   UNL     1       2.365  -2.190   0.000  0.00  0.00    +0.000 OA
ATOM      8  C   UNL     1       1.650  -2.603   0.000  0.00  0.00    +0.000 C 
ENDBRANCH   6   7
BRANCH   1   9
ATOM      9  C   UNL     1       2.365   1.110   0.000  0.00  0.00    +0.000 C 
BRANCH   9  11
ATOM     10  N   UNL     1       3.079   2.347   0.000  0.00  0.00    +0.000 NA
ATOM     11  C   UNL     1       3.079   1.522   0.000  0.00  0.00    +0.000 C 
ATOM     12  C   UNL     1       3.793   1.110   0.000  0.00  0.00    +0.000 C 
ENDBRANCH   9  11
ENDBRANCH   1   9
TORSDOF 3
