REMARK  Name = 1475
REMARK  8 active torsions:
REMARK  status: ('A' for Active; 'I' for Inactive)
REMARK    1  A    between atoms: O_2  and  C_12
REMARK    2  A    between atoms: O_2  and  C_25
REMARK    3  A    between atoms: N_4  and  C_7
REMARK    4  A    between atoms: C_5  and  C_6
REMARK    5  A    between atoms: C_5  and  C_10
REMARK    6  A    between atoms: C_5  and  C_11
REMARK    7  A    between atoms: C_5  and  C_12
REMARK    8  A    between atoms: C_6  and  C_7
REMARK                            x       y       z     vdW  Elec       q    Type
REMARK                         _______ _______ _______ _____ _____    ______ ____
ROOT
ATOM      1  C   UNL     1       5.363   0.000   0.000  0.00  0.00    +0.000 C 
ENDROOT
BRANCH   1   2
ATOM      2  C   UNL     1       5.363  -0.825   0.000  0.00  0.00    +0.000 A 
ATOM      3  C   UNL     1       6.077  -1.238   0.000  0.00  0.00    +0.000 A 
ATOM      4  C   UNL     1       4.648  -1.238   0.000  0.00  0.00    +0.000 A 
ATOM      5  C   UNL     1       6.077  -2.062   0.000  0.00  0.00    +0.000 A 
ATOM      6  C   UNL     1       4.648  -2.062   0.000  0.00  0.00    +0.000 A 
ATOM      7  C   UNL     1       5.363  -2.475   0.000  0.00  0.00    +0.000 A 
ENDBRANCH   1   2
BRANCH   1   8
ATOM      8  C   UNL     1       5.363   0.825   0.000  0.00  0.00    +0.000 A 
ATOM      9  C   UNL     1       4.648   1.238   0.000  0.00  0.00    +0.000 A 
ATOM     10  C   UNL     1       6.077   1.238   0.000  0.00  0.00    +0.000 A 
ATOM     11  C   UNL     1       4.648   2.062   0.000  0.00  0.00    +0.000 A 
ATOM     12  C   UNL     1       6.077   2.062   0.000  0.00  0.00    +0.000 A 
ATOM     13  C   UNL     1       5.363   2.475   0.000  0.00  0.00    +0.000 A 
ENDBRANCH   1   8
BRANCH   1  15
ATOM     14  O   UNL     1       6.600   0.715   0.000  0.00  0.00    +0.000 OA
ATOM     15  C   UNL     1       6.188   0.000   0.000  0.00  0.00    +0.000 C 
BRANCH  15  16
ATOM     16  O   UNL     1       6.600  -0.715   0.000  0.00  0.00    +0.000 OA
BRANCH  16  17
ATOM     17  C   UNL     1       7.425  -0.715   0.000  0.00  0.00    +0.000 C 
ATOM     18  C   UNL     1       7.838  -1.429   0.000  0.00  0.00    +0.000 C 
ENDBRANCH  16  17
ENDBRANCH  15  16
ENDBRANCH   1  15
BRANCH   1  19
ATOM     19  C   UNL     1       4.538   0.000   0.000  0.00  0.00    +0.000 C 
BRANCH  19  20
ATOM     20  C   UNL     1       4.125   0.715   0.000  0.00  0.00    +0.000 C 
BRANCH  20  22
ATOM     21  O   UNL     1       1.650   0.715   0.000  0.00  0.00    +0.000 OA
ATOM     22  N   UNL     1       3.300   0.715   0.000  0.00  0.00    +0.000 NA
ATOM     23  C   UNL     1       2.888   1.429   0.000  0.00  0.00    +0.000 C 
ATOM     24  C   UNL     1       2.888   0.000   0.000  0.00  0.00    +0.000 C 
ATOM     25  C   UNL     1       2.062   1.429   0.000  0.00  0.00    +0.000 C 
ATOM     26  C   UNL     1       2.062   0.000   0.000  0.00  0.00    +0.000 C 
ENDBRANCH  20  22
ENDBRANCH  19  20
ENDBRANCH   1  19
TORSDOF 8
