REMARK  Name = 1476
REMARK  1 active torsions:
REMARK  status: ('A' for Active; 'I' for Inactive)
REMARK    1  A    between atoms: C_7  and  C_12
REMARK                            x       y       z     vdW  Elec       q    Type
REMARK                         _______ _______ _______ _____ _____    ______ ____
ROOT
ATOM      1 BR   UNL     1       1.650  -0.775   0.000  0.00  0.00    +0.000 Br
ATOM      2  O   UNL     1       4.552  -1.034   0.000  0.00  0.00    +0.000 OA
ATOM      3  O   UNL     1       5.210   2.329   0.000  0.00  0.00    +0.000 OA
ATOM      4  N   UNL     1       5.183   0.136   0.000  0.00  0.00    +0.000 NA
ATOM      5  N   UNL     1       4.027   1.585   0.000  0.00  0.00    +0.000 NA
ATOM      6  C   UNL     1       4.440  -0.222   0.000  0.00  0.00    +0.000 C 
ATOM      7  C   UNL     1       5.748  -0.458   0.000  0.00  0.00    +0.000 C 
ATOM      8  C   UNL     1       3.697   0.136   0.000  0.00  0.00    +0.000 A 
ATOM      9  C   UNL     1       5.359  -1.180   0.000  0.00  0.00    +0.000 C 
ATOM     10  C   UNL     1       5.367   0.940   0.000  0.00  0.00    +0.000 C 
ATOM     11  C   UNL     1       3.513   0.940   0.000  0.00  0.00    +0.000 A 
ATOM     12  C   UNL     1       4.852   1.585   0.000  0.00  0.00    +0.000 C 
ATOM     13  C   UNL     1       3.076  -0.458   0.000  0.00  0.00    +0.000 A 
ATOM     14  C   UNL     1       2.696   1.206   0.000  0.00  0.00    +0.000 A 
ATOM     15  C   UNL     1       2.253  -0.211   0.000  0.00  0.00    +0.000 A 
ATOM     16  C   UNL     1       2.061   0.627   0.000  0.00  0.00    +0.000 A 
ENDROOT
BRANCH   6  18
ATOM     17  F   UNL     1       5.156  -1.709   0.000  0.00  0.00    +0.000 F 
ATOM     18  C   UNL     1       3.975  -0.904   0.000  0.00  0.00    +0.000 A 
ATOM     19  C   UNL     1       4.333  -1.647   0.000  0.00  0.00    +0.000 A 
ATOM     20  C   UNL     1       3.152  -0.842   0.000  0.00  0.00    +0.000 A 
ATOM     21  C   UNL     1       3.868  -2.329   0.000  0.00  0.00    +0.000 A 
ATOM     22  C   UNL     1       2.688  -1.524   0.000  0.00  0.00    +0.000 A 
ATOM     23  C   UNL     1       3.046  -2.267   0.000  0.00  0.00    +0.000 A 
ENDBRANCH   6  18
TORSDOF 1
