REMARK  Name = 1477
REMARK  1 active torsions:
REMARK  status: ('A' for Active; 'I' for Inactive)
REMARK    1  A    between atoms: O_4  and  C_22
REMARK                            x       y       z     vdW  Elec       q    Type
REMARK                         _______ _______ _______ _____ _____    ______ ____
ROOT
ATOM      1 BR   UNL     1       0.000   2.838   0.000  0.00  0.00    +0.000 Br
ENDROOT
TORSDOF 0
REMARK  Name = 1477
REMARK  1 active torsions:
REMARK  status: ('A' for Active; 'I' for Inactive)
REMARK    1  A    between atoms: O_4  and  C_22
REMARK                            x       y       z     vdW  Elec       q    Type
REMARK                         _______ _______ _______ _____ _____    ______ ____
ROOT
ATOM      1  O   UNL     1       2.907   2.667   0.000  0.00  0.00    +0.000 OA
ATOM      2  O   UNL     1       2.706   0.538   0.000  0.00  0.00    +0.000 OA
ATOM      3  N   UNL     1       6.315   1.796   0.000  0.00  0.00    +0.000 N 
ATOM      4  C   UNL     1       4.172   2.209   0.000  0.00  0.00    +0.000 C 
ATOM      5  C   UNL     1       4.886   1.796   0.000  0.00  0.00    +0.000 C 
ATOM      6  C   UNL     1       5.601   2.209   0.000  0.00  0.00    +0.000 C 
ATOM      7  C   UNL     1       4.649   2.814   0.000  0.00  0.00    +0.000 C 
ATOM      8  C   UNL     1       3.458   1.796   0.000  0.00  0.00    +0.000 C 
ATOM      9  C   UNL     1       4.172   3.034   0.000  0.00  0.00    +0.000 A 
ATOM     10  C   UNL     1       5.822   2.814   0.000  0.00  0.00    +0.000 C 
ATOM     11  C   UNL     1       5.601   3.034   0.000  0.00  0.00    +0.000 C 
ATOM     12  C   UNL     1       4.886   3.446   0.000  0.00  0.00    +0.000 A 
ATOM     13  C   UNL     1       4.886   0.972   0.000  0.00  0.00    +0.000 C 
ATOM     14  C   UNL     1       3.458   0.972   0.000  0.00  0.00    +0.000 C 
ATOM     15  C   UNL     1       3.458   3.446   0.000  0.00  0.00    +0.000 A 
ATOM     16  C   UNL     1       7.145   1.542   0.000  0.00  0.00    +0.000 C 
ATOM     17  C   UNL     1       6.510   0.951   0.000  0.00  0.00    +0.000 C 
ATOM     18  C   UNL     1       4.172   0.559   0.000  0.00  0.00    +0.000 C 
ATOM     19  C   UNL     1       4.886   4.271   0.000  0.00  0.00    +0.000 A 
ATOM     20  C   UNL     1       3.458   4.271   0.000  0.00  0.00    +0.000 A 
ATOM     21  C   UNL     1       4.172   4.684   0.000  0.00  0.00    +0.000 A 
ENDROOT
BRANCH  20  22
ATOM     22  O   UNL     1       2.706   4.705   0.000  0.00  0.00    +0.000 OA
ATOM     23  C   UNL     1       2.706   5.573   0.000  0.00  0.00    +0.000 C 
ENDBRANCH  20  22
TORSDOF 1
