REMARK  Name = 1478
REMARK  4 active torsions:
REMARK  status: ('A' for Active; 'I' for Inactive)
REMARK    1  A    between atoms: O_1  and  C_4
REMARK    2  A    between atoms: O_1  and  C_13
REMARK    3  A    between atoms: C_4  and  C_9
REMARK    4  A    between atoms: C_13  and  C_16
REMARK                            x       y       z     vdW  Elec       q    Type
REMARK                         _______ _______ _______ _____ _____    ______ ____
ROOT
ATOM      1  N   UNL     1       4.125  -1.484   0.000  0.00  0.00    +0.000 NA
ATOM      2  C   UNL     1       4.125   0.166   0.000  0.00  0.00    +0.000 C 
ATOM      3  C   UNL     1       4.840  -0.247   0.000  0.00  0.00    +0.000 C 
ATOM      4  C   UNL     1       3.411  -0.247   0.000  0.00  0.00    +0.000 C 
ATOM      5  C   UNL     1       4.840  -1.072   0.000  0.00  0.00    +0.000 C 
ATOM      6  C   UNL     1       3.411  -1.072   0.000  0.00  0.00    +0.000 C 
ATOM      7  C   UNL     1       4.125  -2.309   0.000  0.00  0.00    +0.000 C 
ENDROOT
BRANCH   2   8
ATOM      8  C   UNL     1       4.538   0.880   0.000  0.00  0.00    +0.000 A 
ATOM      9  C   UNL     1       4.125   1.595   0.000  0.00  0.00    +0.000 A 
ATOM     10  C   UNL     1       5.363   0.880   0.000  0.00  0.00    +0.000 A 
ATOM     11  C   UNL     1       4.538   2.309   0.000  0.00  0.00    +0.000 A 
ATOM     12  C   UNL     1       5.775   1.595   0.000  0.00  0.00    +0.000 A 
ATOM     13  C   UNL     1       5.363   2.309   0.000  0.00  0.00    +0.000 A 
ENDBRANCH   2   8
BRANCH   2  14
ATOM     14  O   UNL     1       3.713   0.880   0.000  0.00  0.00    +0.000 OA
BRANCH  14  16
ATOM     15  O   UNL     1       2.475   0.166   0.000  0.00  0.00    +0.000 OA
ATOM     16  C   UNL     1       2.888   0.880   0.000  0.00  0.00    +0.000 C 
BRANCH  16  17
ATOM     17  C   UNL     1       2.475   1.595   0.000  0.00  0.00    +0.000 C 
ATOM     18  C   UNL     1       1.650   1.595   0.000  0.00  0.00    +0.000 C 
ENDBRANCH  16  17
ENDBRANCH  14  16
ENDBRANCH   2  14
TORSDOF 4
