REMARK  Name = 1481
REMARK  0 active torsions:
REMARK  status: ('A' for Active; 'I' for Inactive)
REMARK                            x       y       z     vdW  Elec       q    Type
REMARK                         _______ _______ _______ _____ _____    ______ ____
ROOT
ATOM      1  O   UNL     1       7.135   1.743   0.000  0.00  0.00    +0.000 OA
ATOM      2  O   UNL     1       1.650  -1.810   0.000  0.00  0.00    +0.000 OA
ATOM      3  C   UNL     1       6.098  -0.118   0.000  0.00  0.00    +0.000 C 
ATOM      4  C   UNL     1       5.384  -0.530   0.000  0.00  0.00    +0.000 C 
ATOM      5  C   UNL     1       6.098   0.707   0.000  0.00  0.00    +0.000 C 
ATOM      6  C   UNL     1       4.670  -0.118   0.000  0.00  0.00    +0.000 C 
ATOM      7  C   UNL     1       3.919  -0.536   0.000  0.00  0.00    +0.000 C 
ATOM      8  C   UNL     1       5.384   1.120   0.000  0.00  0.00    +0.000 C 
ATOM      9  C   UNL     1       4.670   0.707   0.000  0.00  0.00    +0.000 C 
ATOM     10  C   UNL     1       6.879   0.959   0.000  0.00  0.00    +0.000 C 
ATOM     11  C   UNL     1       6.879  -0.369   0.000  0.00  0.00    +0.000 C 
ATOM     12  C   UNL     1       5.397  -1.389   0.000  0.00  0.00    +0.000 C 
ATOM     13  C   UNL     1       3.913  -1.395   0.000  0.00  0.00    +0.000 C 
ATOM     14  C   UNL     1       7.360   0.295   0.000  0.00  0.00    +0.000 C 
ATOM     15  C   UNL     1       4.657  -1.825   0.000  0.00  0.00    +0.000 C 
ATOM     16  C   UNL     1       6.098   1.532   0.000  0.00  0.00    +0.000 C 
ATOM     17  C   UNL     1       3.925   0.289   0.000  0.00  0.00    +0.000 C 
ATOM     18  C   UNL     1       3.155  -0.070   0.000  0.00  0.00    +0.000 C 
ATOM     19  C   UNL     1       3.141  -1.848   0.000  0.00  0.00    +0.000 C 
ATOM     20  C   UNL     1       2.373  -0.506   0.000  0.00  0.00    +0.000 C 
ATOM     21  C   UNL     1       2.366  -1.401   0.000  0.00  0.00    +0.000 C 
ENDROOT
TORSDOF 0
