REMARK  Name = 1482
REMARK  6 active torsions:
REMARK  status: ('A' for Active; 'I' for Inactive)
REMARK    1  A    between atoms: N_3  and  C_9
REMARK    2  A    between atoms: N_4  and  C_8
REMARK    3  A    between atoms: N_4  and  C_10
REMARK    4  A    between atoms: C_8  and  C_12
REMARK    5  A    between atoms: C_9  and  C_10
REMARK    6  A    between atoms: C_12  and  C_17
REMARK                            x       y       z     vdW  Elec       q    Type
REMARK                         _______ _______ _______ _____ _____    ______ ____
ROOT
ATOM      1  O   UNL     1       1.872   3.812   0.000  0.00  0.00    +0.000 OA
ATOM      2  O   UNL     1       0.443   1.337   0.000  0.00  0.00    +0.000 OA
ATOM      3  N   UNL     1       3.367   2.825   0.000  0.00  0.00    +0.000 N 
ATOM      4  N   UNL     1       1.872   1.337   0.000  0.00  0.00    +0.000 N 
ATOM      5  N   UNL     1       1.157   2.574   0.000  0.00  0.00    +0.000 N 
ATOM      6  N   UNL     1       3.367   1.498   0.000  0.00  0.00    +0.000 NA
ATOM      7  C   UNL     1       2.586   2.574   0.000  0.00  0.00    +0.000 A 
ATOM      8  C   UNL     1       2.586   1.749   0.000  0.00  0.00    +0.000 A 
ATOM      9  C   UNL     1       3.849   2.162   0.000  0.00  0.00    +0.000 A 
ATOM     10  C   UNL     1       1.872   2.987   0.000  0.00  0.00    +0.000 A 
ATOM     11  C   UNL     1       1.157   1.749   0.000  0.00  0.00    +0.000 A 
ATOM     12  C   UNL     1       1.872   0.511   0.000  0.00  0.00    +0.000 C 
ATOM     13  C   UNL     1       0.443   2.987   0.000  0.00  0.00    +0.000 C 
ENDROOT
BRANCH   3  14
ATOM     14  C   UNL     1       3.623   3.610   0.000  0.00  0.00    +0.000 C 
BRANCH  14  15
ATOM     15  C   UNL     1       4.431   3.780   0.000  0.00  0.00    +0.000 C 
BRANCH  15  16
ATOM     16  N   UNL     1       4.687   4.564   0.000  0.00  0.00    +0.000 NA
BRANCH  16  17
ATOM     17  C   UNL     1       5.494   4.734   0.000  0.00  0.00    +0.000 C 
ATOM     18  C   UNL     1       6.045   4.120   0.000  0.00  0.00    +0.000 C 
BRANCH  17  19
ATOM     19  C   UNL     1       5.750   5.518   0.000  0.00  0.00    +0.000 C 
BRANCH  19  20
ATOM     20  C   UNL     1       6.558   5.688   0.000  0.00  0.00    +0.000 A 
ATOM     21  C   UNL     1       6.814   6.473   0.000  0.00  0.00    +0.000 A 
ATOM     22  C   UNL     1       7.109   5.074   0.000  0.00  0.00    +0.000 A 
ATOM     23  C   UNL     1       7.621   6.643   0.000  0.00  0.00    +0.000 A 
ATOM     24  C   UNL     1       7.916   5.245   0.000  0.00  0.00    +0.000 A 
ATOM     25  C   UNL     1       8.172   6.029   0.000  0.00  0.00    +0.000 A 
ENDBRANCH  19  20
ENDBRANCH  17  19
ENDBRANCH  16  17
ENDBRANCH  15  16
ENDBRANCH  14  15
ENDBRANCH   3  14
TORSDOF 6
