REMARK  Name = 1487
REMARK  9 active torsions:
REMARK  status: ('A' for Active; 'I' for Inactive)
REMARK    1  A    between atoms: O_1  and  C_15
REMARK    2  A    between atoms: N_4  and  C_8
REMARK    3  A    between atoms: C_5  and  C_6
REMARK    4  A    between atoms: C_5  and  C_7
REMARK    5  A    between atoms: C_5  and  C_8
REMARK    6  A    between atoms: C_5  and  C_9
REMARK    7  A    between atoms: C_14  and  C_17
REMARK    8  A    between atoms: C_17  and  C_19
REMARK    9  A    between atoms: C_19  and  C_20
REMARK                            x       y       z     vdW  Elec       q    Type
REMARK                         _______ _______ _______ _____ _____    ______ ____
ROOT
ATOM      1  C   UNL     1       3.079  -0.747   0.000  0.00  0.00    +0.000 C 
ENDROOT
BRANCH   1   2
ATOM      2  C   UNL     1       3.079  -1.572   0.000  0.00  0.00    +0.000 A 
ATOM      3  C   UNL     1       2.365  -1.984   0.000  0.00  0.00    +0.000 A 
ATOM      4  C   UNL     1       3.793  -1.984   0.000  0.00  0.00    +0.000 A 
ATOM      5  C   UNL     1       2.365  -2.809   0.000  0.00  0.00    +0.000 A 
ATOM      6  C   UNL     1       3.793  -2.809   0.000  0.00  0.00    +0.000 A 
ATOM      7  C   UNL     1       3.079  -3.222   0.000  0.00  0.00    +0.000 A 
BRANCH   5   8
ATOM      8  O   UNL     1       1.650  -3.222   0.000  0.00  0.00    +0.000 OA
ATOM      9  C   UNL     1       1.650  -4.047   0.000  0.00  0.00    +0.000 C 
ENDBRANCH   5   8
ENDBRANCH   1   2
BRANCH   1  10
ATOM     10  C   UNL     1       3.904  -0.747   0.000  0.00  0.00    +0.000 C 
ATOM     11  C   UNL     1       4.317  -1.461   0.000  0.00  0.00    +0.000 C 
ENDBRANCH   1  10
BRANCH   1  12
ATOM     12  C   UNL     1       2.254  -0.747   0.000  0.00  0.00    +0.000 C 
ATOM     13  C   UNL     1       1.841  -0.032   0.000  0.00  0.00    +0.000 C 
ENDBRANCH   1  12
BRANCH   1  14
ATOM     14  C   UNL     1       3.079   0.078   0.000  0.00  0.00    +0.000 C 
BRANCH  14  16
ATOM     15  O   UNL     1       3.079   1.728   0.000  0.00  0.00    +0.000 OA
ATOM     16  N   UNL     1       3.793   0.491   0.000  0.00  0.00    +0.000 NA
ATOM     17  C   UNL     1       3.793   1.316   0.000  0.00  0.00    +0.000 C 
BRANCH  17  18
ATOM     18  C   UNL     1       4.508   1.728   0.000  0.00  0.00    +0.000 C 
BRANCH  18  19
ATOM     19  C   UNL     1       4.508   2.553   0.000  0.00  0.00    +0.000 C 
BRANCH  19  21
ATOM     20  O   UNL     1       5.222   3.791   0.000  0.00  0.00    +0.000 OA
ATOM     21  C   UNL     1       5.222   2.966   0.000  0.00  0.00    +0.000 C 
ENDBRANCH  19  21
ENDBRANCH  18  19
ENDBRANCH  17  18
ENDBRANCH  14  16
ENDBRANCH   1  14
TORSDOF 9
