REMARK  Name = 1488
REMARK  3 active torsions:
REMARK  status: ('A' for Active; 'I' for Inactive)
REMARK    1  A    between atoms: N_1  and  C_5
REMARK    2  A    between atoms: C_3  and  C_4
REMARK    3  A    between atoms: C_3  and  C_5
REMARK                            x       y       z     vdW  Elec       q    Type
REMARK                         _______ _______ _______ _____ _____    ______ ____
ROOT
ATOM      1  N   UNL     1       3.860  -1.597   0.000  0.00  0.00    +0.000 NA
ATOM      2  C   UNL     1       3.860  -0.269   0.000  0.00  0.00    +0.000 A 
ATOM      3  C   UNL     1       3.079  -0.521   0.000  0.00  0.00    +0.000 A 
ATOM      4  C   UNL     1       3.079  -1.346   0.000  0.00  0.00    +0.000 A 
ATOM      5  C   UNL     1       4.341  -0.933   0.000  0.00  0.00    +0.000 A 
ATOM      6  C   UNL     1       2.365  -0.108   0.000  0.00  0.00    +0.000 A 
ATOM      7  C   UNL     1       2.365  -1.758   0.000  0.00  0.00    +0.000 A 
ATOM      8  C   UNL     1       1.650  -0.521   0.000  0.00  0.00    +0.000 A 
ATOM      9  C   UNL     1       1.650  -1.346   0.000  0.00  0.00    +0.000 A 
ENDROOT
BRANCH   2  10
ATOM     10  C   UNL     1       4.116   0.515   0.000  0.00  0.00    +0.000 C 
BRANCH  10  11
ATOM     11  C   UNL     1       4.923   0.685   0.000  0.00  0.00    +0.000 C 
BRANCH  11  12
ATOM     12  N   UNL     1       5.180   1.469   0.000  0.00  0.00    +0.000 NA
ATOM     13  C   UNL     1       5.987   1.639   0.000  0.00  0.00    +0.000 C 
ATOM     14  C   UNL     1       4.629   2.083   0.000  0.00  0.00    +0.000 C 
ENDBRANCH  11  12
ENDBRANCH  10  11
ENDBRANCH   2  10
TORSDOF 3
