REMARK  Name = 1489
REMARK  3 active torsions:
REMARK  status: ('A' for Active; 'I' for Inactive)
REMARK    1  A    between atoms: O_2  and  C_11
REMARK    2  A    between atoms: O_2  and  C_23
REMARK    3  A    between atoms: C_10  and  C_13
REMARK                            x       y       z     vdW  Elec       q    Type
REMARK                         _______ _______ _______ _____ _____    ______ ____
ROOT
ATOM      1 CL   UNL     1       2.817  -3.103   0.000  0.00  0.00    +0.000 Cl
ATOM      2  O   UNL     1       2.611   1.616   0.000  0.00  0.00    +0.000 OA
ATOM      3  N   UNL     1       2.454   0.228   0.000  0.00  0.00    +0.000 N 
ATOM      4  N   UNL     1       4.308   0.228   0.000  0.00  0.00    +0.000 NA
ATOM      5  C   UNL     1       2.638  -0.577   0.000  0.00  0.00    +0.000 A 
ATOM      6  C   UNL     1       3.381  -0.935   0.000  0.00  0.00    +0.000 A 
ATOM      7  C   UNL     1       4.125  -0.577   0.000  0.00  0.00    +0.000 C 
ATOM      8  C   UNL     1       3.794   0.873   0.000  0.00  0.00    +0.000 C 
ATOM      9  C   UNL     1       2.969   0.873   0.000  0.00  0.00    +0.000 C 
ATOM     10  C   UNL     1       1.921  -1.050   0.000  0.00  0.00    +0.000 A 
ATOM     11  C   UNL     1       3.459  -1.790   0.000  0.00  0.00    +0.000 A 
ATOM     12  C   UNL     1       1.650   0.411   0.000  0.00  0.00    +0.000 C 
ATOM     13  C   UNL     1       1.978  -1.907   0.000  0.00  0.00    +0.000 A 
ATOM     14  C   UNL     1       2.752  -2.280   0.000  0.00  0.00    +0.000 A 
ENDROOT
BRANCH   7  15
ATOM     15  C   UNL     1       4.769  -1.091   0.000  0.00  0.00    +0.000 A 
ATOM     16  C   UNL     1       5.537  -0.790   0.000  0.00  0.00    +0.000 A 
ATOM     17  C   UNL     1       4.647  -1.907   0.000  0.00  0.00    +0.000 A 
ATOM     18  C   UNL     1       6.183  -1.304   0.000  0.00  0.00    +0.000 A 
ATOM     19  C   UNL     1       5.292  -2.421   0.000  0.00  0.00    +0.000 A 
ATOM     20  C   UNL     1       6.059  -2.120   0.000  0.00  0.00    +0.000 A 
ENDBRANCH   7  15
BRANCH   8  21
ATOM     21  O   UNL     1       4.152   1.616   0.000  0.00  0.00    +0.000 OA
BRANCH  21  24
ATOM     22  O   UNL     1       5.439   0.996   0.000  0.00  0.00    +0.000 OA
ATOM     23  N   UNL     1       5.332   2.421   0.000  0.00  0.00    +0.000 N 
ATOM     24  C   UNL     1       4.974   1.678   0.000  0.00  0.00    +0.000 C 
ATOM     25  C   UNL     1       6.155   2.482   0.000  0.00  0.00    +0.000 C 
ATOM     26  C   UNL     1       4.868   3.103   0.000  0.00  0.00    +0.000 C 
ENDBRANCH  21  24
ENDBRANCH   8  21
TORSDOF 3
