REMARK  Name = 1490
REMARK  1 active torsions:
REMARK  status: ('A' for Active; 'I' for Inactive)
REMARK    1  A    between atoms: C_4  and  C_6
REMARK                            x       y       z     vdW  Elec       q    Type
REMARK                         _______ _______ _______ _____ _____    ______ ____
ROOT
ATOM      1  O   UNL     1       2.389   0.520   0.000  0.00  0.00    +0.000 OA
ATOM      2  N   UNL     1       3.469   1.305   0.000  0.00  0.00    +0.000 NA
ATOM      3  N   UNL     1       2.159   1.972   0.000  0.00  0.00    +0.000 NA
ATOM      4  C   UNL     1       3.056   0.035   0.000  0.00  0.00    +0.000 C 
ATOM      5  C   UNL     1       3.724   0.520   0.000  0.00  0.00    +0.000 C 
ATOM      6  C   UNL     1       2.644   1.305   0.000  0.00  0.00    +0.000 C 
ENDROOT
BRANCH   4   7
ATOM      7  C   UNL     1       3.056  -0.790   0.000  0.00  0.00    +0.000 A 
ATOM      8  C   UNL     1       3.771  -1.202   0.000  0.00  0.00    +0.000 A 
ATOM      9  C   UNL     1       2.342  -1.202   0.000  0.00  0.00    +0.000 A 
ATOM     10  C   UNL     1       3.771  -2.027   0.000  0.00  0.00    +0.000 A 
ATOM     11  C   UNL     1       2.342  -2.027   0.000  0.00  0.00    +0.000 A 
ATOM     12  C   UNL     1       3.056  -2.440   0.000  0.00  0.00    +0.000 A 
ENDBRANCH   4   7
TORSDOF 1
