REMARK  Name = 1493
REMARK  1 active torsions:
REMARK  status: ('A' for Active; 'I' for Inactive)
REMARK    1  A    between atoms: C_6  and  C_14
REMARK                            x       y       z     vdW  Elec       q    Type
REMARK                         _______ _______ _______ _____ _____    ______ ____
ROOT
ATOM      1  O   UNL     1       6.832   1.189   0.000  0.00  0.00    +0.000 OA
ATOM      2  C   UNL     1       5.383   0.454   0.000  0.00  0.00    +0.000 C 
ATOM      3  C   UNL     1       5.383  -0.371   0.000  0.00  0.00    +0.000 C 
ATOM      4  C   UNL     1       4.669  -0.784   0.000  0.00  0.00    +0.000 C 
ATOM      5  C   UNL     1       3.954  -0.371   0.000  0.00  0.00    +0.000 C 
ATOM      6  C   UNL     1       6.164   0.705   0.000  0.00  0.00    +0.000 C 
ATOM      7  C   UNL     1       4.669   0.866   0.000  0.00  0.00    +0.000 C 
ATOM      8  C   UNL     1       6.164  -0.623   0.000  0.00  0.00    +0.000 C 
ATOM      9  C   UNL     1       3.954   0.454   0.000  0.00  0.00    +0.000 C 
ATOM     10  C   UNL     1       6.646   0.041   0.000  0.00  0.00    +0.000 C 
ATOM     11  C   UNL     1       3.204  -0.789   0.000  0.00  0.00    +0.000 C 
ATOM     12  C   UNL     1       4.682  -1.643   0.000  0.00  0.00    +0.000 C 
ATOM     13  C   UNL     1       5.383   1.279   0.000  0.00  0.00    +0.000 C 
ATOM     14  C   UNL     1       3.941  -2.079   0.000  0.00  0.00    +0.000 C 
ATOM     15  C   UNL     1       3.197  -1.649   0.000  0.00  0.00    +0.000 C 
ATOM     16  C   UNL     1       2.439  -0.324   0.000  0.00  0.00    +0.000 C 
ATOM     17  C   UNL     1       1.657  -0.760   0.000  0.00  0.00    +0.000 C 
ATOM     18  C   UNL     1       2.425  -2.102   0.000  0.00  0.00    +0.000 C 
ATOM     19  C   UNL     1       1.650  -1.655   0.000  0.00  0.00    +0.000 C 
ENDROOT
BRANCH   6  20
ATOM     20  C   UNL     1       5.910   1.490   0.000  0.00  0.00    +0.000 C 
ATOM     21  C   UNL     1       6.463   2.102   0.000  0.00  0.00    +0.000 C 
ENDBRANCH   6  20
TORSDOF 1
