REMARK  Name = 1494
REMARK  3 active torsions:
REMARK  status: ('A' for Active; 'I' for Inactive)
REMARK    1  A    between atoms: N_8  and  C_9
REMARK    2  A    between atoms: C_9  and  C_13
REMARK    3  A    between atoms: C_14  and  C_15
REMARK                            x       y       z     vdW  Elec       q    Type
REMARK                         _______ _______ _______ _____ _____    ______ ____
ROOT
ATOM      1 CL   UNL     1       0.357   0.302   0.000  0.00  0.00    +0.000 Cl
ATOM      2 CL   UNL     1       0.659   1.429   0.000  0.00  0.00    +0.000 Cl
ATOM      3 CL   UNL     1       1.484   0.000   0.000  0.00  0.00    +0.000 Cl
ATOM      4  C   UNL     1       1.072   0.715   0.000  0.00  0.00    +0.000 C 
ENDROOT
BRANCH   4   7
ATOM      5  O   UNL     1       2.501   0.715   0.000  0.00  0.00    +0.000 OA
ATOM      6  O   UNL     1       1.786   1.952   0.000  0.00  0.00    +0.000 OA
ATOM      7  C   UNL     1       1.786   1.127   0.000  0.00  0.00    +0.000 C 
ENDBRANCH   4   7
TORSDOF 1
REMARK  Name = 1494
REMARK  3 active torsions:
REMARK  status: ('A' for Active; 'I' for Inactive)
REMARK    1  A    between atoms: N_8  and  C_9
REMARK    2  A    between atoms: C_9  and  C_13
REMARK    3  A    between atoms: C_14  and  C_15
REMARK                            x       y       z     vdW  Elec       q    Type
REMARK                         _______ _______ _______ _____ _____    ______ ____
ROOT
ATOM      1  N   UNL     1       1.157   5.015   0.000  0.00  0.00    +0.000 N 
ATOM      2  C   UNL     1       1.570   4.301   0.000  0.00  0.00    +0.000 C 
ATOM      3  C   UNL     1       0.745   5.730   0.000  0.00  0.00    +0.000 C 
ATOM      4  C   UNL     1       0.443   4.603   0.000  0.00  0.00    +0.000 C 
ENDROOT
BRANCH   1   5
ATOM      5  C   UNL     1       1.872   5.428   0.000  0.00  0.00    +0.000 C 
BRANCH   5   8
ATOM      6  O   UNL     1       3.301   5.428   0.000  0.00  0.00    +0.000 OA
ATOM      7  O   UNL     1       2.586   4.190   0.000  0.00  0.00    +0.000 OA
ATOM      8  C   UNL     1       2.586   5.015   0.000  0.00  0.00    +0.000 C 
ENDBRANCH   5   8
ENDBRANCH   1   5
TORSDOF 2
