REMARK  Name = 1496
REMARK  4 active torsions:
REMARK  status: ('A' for Active; 'I' for Inactive)
REMARK    1  A    between atoms: C_10  and  C_11
REMARK    2  A    between atoms: C_11  and  C_12
REMARK    3  A    between atoms: C_15  and  C_17
REMARK    4  A    between atoms: C_19  and  C_23
REMARK                            x       y       z     vdW  Elec       q    Type
REMARK                         _______ _______ _______ _____ _____    ______ ____
ROOT
ATOM      1  O   UNL     1       2.985   0.299   0.000  0.00  0.00    +0.000 OA
ATOM      2  C   UNL     1       2.317  -0.186   0.000  0.00  0.00    +0.000 A 
ATOM      3  C   UNL     1       2.730   1.084   0.000  0.00  0.00    +0.000 A 
ATOM      4  C   UNL     1       1.650   0.299   0.000  0.00  0.00    +0.000 A 
ATOM      5  C   UNL     1       1.905   1.084   0.000  0.00  0.00    +0.000 A 
ENDROOT
BRANCH   3   6
ATOM      6  C   UNL     1       3.215   1.751   0.000  0.00  0.00    +0.000 A 
ATOM      7  C   UNL     1       4.035   1.665   0.000  0.00  0.00    +0.000 A 
ATOM      8  C   UNL     1       2.879   2.505   0.000  0.00  0.00    +0.000 A 
ATOM      9  C   UNL     1       4.520   2.332   0.000  0.00  0.00    +0.000 A 
ATOM     10  C   UNL     1       3.364   3.172   0.000  0.00  0.00    +0.000 A 
ATOM     11  C   UNL     1       4.185   3.086   0.000  0.00  0.00    +0.000 A 
BRANCH   7  15
ATOM     12  F   UNL     1       3.617   0.576   0.000  0.00  0.00    +0.000 F 
ATOM     13  F   UNL     1       4.707   0.158   0.000  0.00  0.00    +0.000 F 
ATOM     14  F   UNL     1       5.125   1.247   0.000  0.00  0.00    +0.000 F 
ATOM     15  C   UNL     1       4.371   0.911   0.000  0.00  0.00    +0.000 C 
ENDBRANCH   7  15
ENDBRANCH   3   6
BRANCH   2  16
ATOM     16  C   UNL     1       2.317  -1.011   0.000  0.00  0.00    +0.000 C 
BRANCH  16  22
ATOM     17  S   UNL     1       5.175  -2.661   0.000  0.00  0.00    +0.000 S 
ATOM     18  O   UNL     1       2.317  -2.661   0.000  0.00  0.00    +0.000 OA
ATOM     19  O   UNL     1       3.746  -0.186   0.000  0.00  0.00    +0.000 OA
ATOM     20  N   UNL     1       3.746  -2.661   0.000  0.00  0.00    +0.000 NA
ATOM     21  N   UNL     1       4.461  -1.423   0.000  0.00  0.00    +0.000 NA
ATOM     22  C   UNL     1       3.032  -1.423   0.000  0.00  0.00    +0.000 C 
ATOM     23  C   UNL     1       3.032  -2.248   0.000  0.00  0.00    +0.000 C 
ATOM     24  C   UNL     1       3.746  -1.011   0.000  0.00  0.00    +0.000 C 
ATOM     25  C   UNL     1       4.461  -2.248   0.000  0.00  0.00    +0.000 C 
ENDBRANCH  16  22
ENDBRANCH   2  16
TORSDOF 4
