REMARK  Name = 1498
REMARK  7 active torsions:
REMARK  status: ('A' for Active; 'I' for Inactive)
REMARK    1  A    between atoms: N_2  and  C_6
REMARK    2  A    between atoms: C_3  and  C_4
REMARK    3  A    between atoms: C_3  and  C_5
REMARK    4  A    between atoms: C_3  and  C_7
REMARK    5  A    between atoms: C_3  and  C_8
REMARK    6  A    between atoms: C_4  and  C_6
REMARK    7  A    between atoms: C_5  and  C_9
REMARK                            x       y       z     vdW  Elec       q    Type
REMARK                         _______ _______ _______ _____ _____    ______ ____
ROOT
ATOM      1  C   UNL     1       4.657   0.000   0.000  0.00  0.00    +0.000 C 
ENDROOT
BRANCH   1   2
ATOM      2  C   UNL     1       4.657  -0.825   0.000  0.00  0.00    +0.000 A 
ATOM      3  C   UNL     1       5.372  -1.238   0.000  0.00  0.00    +0.000 A 
ATOM      4  C   UNL     1       3.943  -1.238   0.000  0.00  0.00    +0.000 A 
ATOM      5  C   UNL     1       5.372  -2.062   0.000  0.00  0.00    +0.000 A 
ATOM      6  C   UNL     1       3.943  -2.062   0.000  0.00  0.00    +0.000 A 
ATOM      7  C   UNL     1       4.657  -2.475   0.000  0.00  0.00    +0.000 A 
ENDBRANCH   1   2
BRANCH   1   8
ATOM      8  C   UNL     1       4.657   0.825   0.000  0.00  0.00    +0.000 A 
ATOM      9  C   UNL     1       3.943   1.238   0.000  0.00  0.00    +0.000 A 
ATOM     10  C   UNL     1       5.372   1.238   0.000  0.00  0.00    +0.000 A 
ATOM     11  C   UNL     1       3.943   2.062   0.000  0.00  0.00    +0.000 A 
ATOM     12  C   UNL     1       5.372   2.062   0.000  0.00  0.00    +0.000 A 
ATOM     13  C   UNL     1       4.657   2.475   0.000  0.00  0.00    +0.000 A 
ENDBRANCH   1   8
BRANCH   1  15
ATOM     14  O   UNL     1       5.895   0.714   0.000  0.00  0.00    +0.000 OA
ATOM     15  C   UNL     1       5.482   0.000   0.000  0.00  0.00    +0.000 C 
BRANCH  15  16
ATOM     16  C   UNL     1       5.895  -0.714   0.000  0.00  0.00    +0.000 C 
ATOM     17  C   UNL     1       6.720  -0.714   0.000  0.00  0.00    +0.000 C 
ENDBRANCH  15  16
ENDBRANCH   1  15
BRANCH   1  18
ATOM     18  C   UNL     1       3.833   0.000   0.000  0.00  0.00    +0.000 C 
BRANCH  18  19
ATOM     19  C   UNL     1       3.057  -0.282   0.000  0.00  0.00    +0.000 C 
ATOM     20  C   UNL     1       2.914  -1.095   0.000  0.00  0.00    +0.000 C 
BRANCH  19  21
ATOM     21  N   UNL     1       2.425   0.248   0.000  0.00  0.00    +0.000 NA
ATOM     22  C   UNL     1       1.650  -0.034   0.000  0.00  0.00    +0.000 C 
ATOM     23  C   UNL     1       2.569   1.061   0.000  0.00  0.00    +0.000 C 
ENDBRANCH  19  21
ENDBRANCH  18  19
ENDBRANCH   1  18
TORSDOF 7
