REMARK  Name = 1499
REMARK  5 active torsions:
REMARK  status: ('A' for Active; 'I' for Inactive)
REMARK    1  A    between atoms: O_1  and  C_4
REMARK    2  A    between atoms: O_1  and  C_15
REMARK    3  A    between atoms: C_4  and  C_10
REMARK    4  A    between atoms: C_5  and  C_9
REMARK    5  A    between atoms: C_15  and  C_18
REMARK                            x       y       z     vdW  Elec       q    Type
REMARK                         _______ _______ _______ _____ _____    ______ ____
ROOT
ATOM      1  N   UNL     1       3.470  -1.706   0.000  0.00  0.00    +0.000 NA
ATOM      2  C   UNL     1       3.470  -0.056   0.000  0.00  0.00    +0.000 C 
ATOM      3  C   UNL     1       2.755  -0.469   0.000  0.00  0.00    +0.000 C 
ATOM      4  C   UNL     1       4.184  -0.469   0.000  0.00  0.00    +0.000 C 
ATOM      5  C   UNL     1       2.755  -1.294   0.000  0.00  0.00    +0.000 C 
ATOM      6  C   UNL     1       4.184  -1.294   0.000  0.00  0.00    +0.000 C 
ATOM      7  C   UNL     1       3.470  -2.531   0.000  0.00  0.00    +0.000 C 
ENDROOT
BRANCH   2   8
ATOM      8  C   UNL     1       3.882   0.658   0.000  0.00  0.00    +0.000 A 
ATOM      9  C   UNL     1       3.470   1.373   0.000  0.00  0.00    +0.000 A 
ATOM     10  C   UNL     1       4.707   0.658   0.000  0.00  0.00    +0.000 A 
ATOM     11  C   UNL     1       3.882   2.087   0.000  0.00  0.00    +0.000 A 
ATOM     12  C   UNL     1       5.120   1.373   0.000  0.00  0.00    +0.000 A 
ATOM     13  C   UNL     1       4.707   2.087   0.000  0.00  0.00    +0.000 A 
ENDBRANCH   2   8
BRANCH   3  14
ATOM     14  C   UNL     1       1.943  -0.612   0.000  0.00  0.00    +0.000 C 
ATOM     15  C   UNL     1       1.661  -1.387   0.000  0.00  0.00    +0.000 C 
ENDBRANCH   3  14
BRANCH   2  16
ATOM     16  O   UNL     1       3.057   0.658   0.000  0.00  0.00    +0.000 OA
BRANCH  16  18
ATOM     17  O   UNL     1       1.650   0.906   0.000  0.00  0.00    +0.000 OA
ATOM     18  C   UNL     1       2.425   1.189   0.000  0.00  0.00    +0.000 C 
BRANCH  18  19
ATOM     19  C   UNL     1       2.568   2.001   0.000  0.00  0.00    +0.000 C 
ATOM     20  C   UNL     1       1.937   2.531   0.000  0.00  0.00    +0.000 C 
ENDBRANCH  18  19
ENDBRANCH  16  18
ENDBRANCH   2  16
TORSDOF 5
