REMARK  Name = 14A
REMARK  10 active torsions:
REMARK  status: ('A' for Active; 'I' for Inactive)
REMARK    1  A    between atoms: N_4  and  O_5
REMARK    2  A    between atoms: O_5  and  C_6
REMARK    3  A    between atoms: C_6  and  C_7
REMARK    4  A    between atoms: C_7  and  C_8
REMARK    5  A    between atoms: C_8  and  O_9
REMARK    6  A    between atoms: O_9  and  C_10
REMARK    7  A    between atoms: C_14  and  C_17
REMARK    8  A    between atoms: N_19  and  C_20
REMARK    9  A    between atoms: N_19  and  C_23
REMARK   10  A    between atoms: C_20  and  C_21
REMARK                            x       y       z     vdW  Elec       q    Type
REMARK                         _______ _______ _______ _____ _____    ______ ____
ROOT
ATOM      1  C   UNL     1       0.114   0.953   0.000  0.00  0.00    +0.000 A 
ATOM      2  C   UNL     1       0.114   1.778   0.000  0.00  0.00    +0.000 A 
ATOM      3  C   UNL     1       0.829   2.190   0.000  0.00  0.00    +0.000 A 
ATOM      4  C   UNL     1       1.543   1.778   0.000  0.00  0.00    +0.000 A 
ATOM      5  C   UNL     1       1.543   0.953   0.000  0.00  0.00    +0.000 A 
ATOM      6  C   UNL     1       0.829   0.540   0.000  0.00  0.00    +0.000 A 
ATOM      7 CL   UNL     1       0.829   3.015   0.000  0.00  0.00    +0.000 Cl
ENDROOT
BRANCH   5   8
ATOM      8  C   UNL     1       2.258   0.540   0.000  0.00  0.00    +0.000 C 
ATOM      9  O   UNL     1       2.972   0.953   0.000  0.00  0.00    +0.000 OA
ATOM     10  N   UNL     1       2.258  -0.285   0.000  0.00  0.00    +0.000 N 
BRANCH  10  11
ATOM     11  C   UNL     1       1.543  -0.697   0.000  0.00  0.00    +0.000 C 
ATOM     12  C   UNL     1       1.457  -1.518   0.000  0.00  0.00    +0.000 C 
ATOM     13  C   UNL     1       0.650  -1.689   0.000  0.00  0.00    +0.000 C 
ATOM     14  C   UNL     1       0.237  -0.975   0.000  0.00  0.00    +0.000 C 
ATOM     15  C   UNL     1       0.789  -0.361   0.000  0.00  0.00    +0.000 C 
ENDBRANCH  10  11
BRANCH  10  16
ATOM     16  C   UNL     1       2.972  -0.697   0.000  0.00  0.00    +0.000 C 
BRANCH  16  17
ATOM     17  C   UNL     1       2.972  -1.522   0.000  0.00  0.00    +0.000 C 
ATOM     18  C   UNL     1       3.687  -1.935   0.000  0.00  0.00    +0.000 C 
ENDBRANCH  16  17
ENDBRANCH  10  16
ENDBRANCH   5   8
BRANCH   1  19
ATOM     19  O   UNL     1      -0.600   0.540   0.000  0.00  0.00    +0.000 OA
BRANCH  19  20
ATOM     20  C   UNL     1      -1.315   0.953   0.000  0.00  0.00    +0.000 C 
BRANCH  20  21
ATOM     21  C   UNL     1      -2.029   0.540   0.000  0.00  0.00    +0.000 C 
BRANCH  21  22
ATOM     22  C   UNL     1      -2.744   0.953   0.000  0.00  0.00    +0.000 C 
BRANCH  22  23
ATOM     23  O   UNL     1      -3.458   0.540   0.000  0.00  0.00    +0.000 OA
BRANCH  23  27
ATOM     24  N   UNL     1      -5.602   0.953   0.000  0.00  0.00    +0.000 NA
ATOM     25  C   UNL     1      -4.887   0.540   0.000  0.00  0.00    +0.000 C 
ATOM     26  N   UNL     1      -4.887  -0.285   0.000  0.00  0.00    +0.000 NA
ATOM     27  N   UNL     1      -4.173   0.953   0.000  0.00  0.00    +0.000 NA
ENDBRANCH  23  27
ENDBRANCH  22  23
ENDBRANCH  21  22
ENDBRANCH  20  21
ENDBRANCH  19  20
ENDBRANCH   1  19
TORSDOF 10
