REMARK  Name = 14C
REMARK  1 active torsions:
REMARK  status: ('A' for Active; 'I' for Inactive)
REMARK    1  A    between atoms: C_9  and  N_10
REMARK                            x       y       z     vdW  Elec       q    Type
REMARK                         _______ _______ _______ _____ _____    ______ ____
ROOT
ATOM      1  C   UNL     1       0.971  -0.767   0.000  0.00  0.00    +0.000 A 
ATOM      2  C   UNL     1       0.971  -1.592   0.000  0.00  0.00    +0.000 C 
ATOM      3  N   UNL     1      -1.013   0.058   0.000  0.00  0.00    +0.000 N 
ATOM      4  C   UNL     1      -0.528   0.726   0.000  0.00  0.00    +0.000 C 
ATOM      5  O   UNL     1      -0.783   1.510   0.000  0.00  0.00    +0.000 OA
ATOM      6  C   UNL     1       0.257   0.471   0.000  0.00  0.00    +0.000 A 
ATOM      7  C   UNL     1       0.971   0.883   0.000  0.00  0.00    +0.000 A 
ATOM      8  C   UNL     1       1.686   0.471   0.000  0.00  0.00    +0.000 A 
ATOM      9  C   UNL     1      -0.528  -0.609   0.000  0.00  0.00    +0.000 C 
ATOM     10  O   UNL     1      -0.783  -1.394   0.000  0.00  0.00    +0.000 OA
ATOM     11  C   UNL     1       0.257  -0.354   0.000  0.00  0.00    +0.000 A 
ATOM     12  C   UNL     1       1.686  -0.354   0.000  0.00  0.00    +0.000 A 
ENDROOT
BRANCH   3  19
ATOM     13 CL   UNL     1      -3.488   1.487   0.000  0.00  0.00    +0.000 Cl
ATOM     14  C   UNL     1      -3.075   0.772   0.000  0.00  0.00    +0.000 A 
ATOM     15  C   UNL     1      -2.250   0.772   0.000  0.00  0.00    +0.000 A 
ATOM     16  N   UNL     1      -3.488   0.058   0.000  0.00  0.00    +0.000 NA
ATOM     17  C   UNL     1      -3.075  -0.656   0.000  0.00  0.00    +0.000 A 
ATOM     18  C   UNL     1      -2.250  -0.656   0.000  0.00  0.00    +0.000 A 
ATOM     19  C   UNL     1      -1.838   0.058   0.000  0.00  0.00    +0.000 A 
ENDBRANCH   3  19
TORSDOF 1
