REMARK  Name = 1501
REMARK  8 active torsions:
REMARK  status: ('A' for Active; 'I' for Inactive)
REMARK    1  A    between atoms: N_3  and  C_10
REMARK    2  A    between atoms: C_5  and  C_11
REMARK    3  A    between atoms: C_5  and  C_13
REMARK    4  A    between atoms: C_10  and  C_12
REMARK    5  A    between atoms: C_12  and  C_14
REMARK    6  A    between atoms: C_14  and  C_17
REMARK    7  A    between atoms: C_14  and  C_18
REMARK    8  A    between atoms: C_14  and  C_21
REMARK                            x       y       z     vdW  Elec       q    Type
REMARK                         _______ _______ _______ _____ _____    ______ ____
ROOT
ATOM      1  C   UNL     1       4.840  -0.318   0.000  0.00  0.00    +0.000 C 
ENDROOT
BRANCH   1   2
ATOM      2  N   UNL     1       4.840   0.507   0.000  0.00  0.00    +0.000 NA
ATOM      3  C   UNL     1       4.840   2.157   0.000  0.00  0.00    +0.000 C 
ATOM      4  C   UNL     1       5.554   1.745   0.000  0.00  0.00    +0.000 C 
ATOM      5  C   UNL     1       4.125   1.745   0.000  0.00  0.00    +0.000 C 
ATOM      6  C   UNL     1       5.554   0.920   0.000  0.00  0.00    +0.000 C 
ATOM      7  C   UNL     1       4.125   0.920   0.000  0.00  0.00    +0.000 C 
BRANCH   3   8
ATOM      8  C   UNL     1       5.472   2.688   0.000  0.00  0.00    +0.000 A 
ATOM      9  C   UNL     1       5.328   3.500   0.000  0.00  0.00    +0.000 A 
ATOM     10  C   UNL     1       6.247   2.405   0.000  0.00  0.00    +0.000 A 
ATOM     11  C   UNL     1       5.960   4.030   0.000  0.00  0.00    +0.000 A 
ATOM     12  C   UNL     1       6.879   2.936   0.000  0.00  0.00    +0.000 A 
ATOM     13  C   UNL     1       6.736   3.748   0.000  0.00  0.00    +0.000 A 
ENDBRANCH   3   8
BRANCH   3  16
ATOM     14  O   UNL     1       3.602   2.872   0.000  0.00  0.00    +0.000 OA
ATOM     15  O   UNL     1       4.570   3.684   0.000  0.00  0.00    +0.000 OA
ATOM     16  C   UNL     1       4.427   2.872   0.000  0.00  0.00    +0.000 C 
ENDBRANCH   3  16
ENDBRANCH   1   2
BRANCH   1  17
ATOM     17  C   UNL     1       4.125  -0.730   0.000  0.00  0.00    +0.000 C 
BRANCH  17  18
ATOM     18  C   UNL     1       4.125  -1.555   0.000  0.00  0.00    +0.000 C 
BRANCH  18  19
ATOM     19  C   UNL     1       4.125  -2.380   0.000  0.00  0.00    +0.000 A 
ATOM     20  C   UNL     1       4.840  -2.793   0.000  0.00  0.00    +0.000 A 
ATOM     21  C   UNL     1       3.411  -2.793   0.000  0.00  0.00    +0.000 A 
ATOM     22  C   UNL     1       4.840  -3.618   0.000  0.00  0.00    +0.000 A 
ATOM     23  C   UNL     1       3.411  -3.618   0.000  0.00  0.00    +0.000 A 
ATOM     24  C   UNL     1       4.125  -4.030   0.000  0.00  0.00    +0.000 A 
ENDBRANCH  18  19
BRANCH  18  25
ATOM     25  C   UNL     1       3.300  -1.555   0.000  0.00  0.00    +0.000 A 
ATOM     26  C   UNL     1       2.888  -2.270   0.000  0.00  0.00    +0.000 A 
ATOM     27  C   UNL     1       2.888  -0.841   0.000  0.00  0.00    +0.000 A 
ATOM     28  C   UNL     1       2.062  -2.270   0.000  0.00  0.00    +0.000 A 
ATOM     29  C   UNL     1       2.062  -0.841   0.000  0.00  0.00    +0.000 A 
ATOM     30  C   UNL     1       1.650  -1.555   0.000  0.00  0.00    +0.000 A 
ENDBRANCH  18  25
BRANCH  18  32
ATOM     31  N   UNL     1       5.775  -1.555   0.000  0.00  0.00    +0.000 NA
ATOM     32  C   UNL     1       4.950  -1.555   0.000  0.00  0.00    +0.000 C 
ENDBRANCH  18  32
ENDBRANCH  17  18
ENDBRANCH   1  17
TORSDOF 8
