REMARK  Name = 1502
REMARK  8 active torsions:
REMARK  status: ('A' for Active; 'I' for Inactive)
REMARK    1  A    between atoms: N_2  and  C_4
REMARK    2  A    between atoms: N_2  and  C_6
REMARK    3  A    between atoms: N_3  and  C_5
REMARK    4  A    between atoms: N_3  and  C_10
REMARK    5  A    between atoms: C_4  and  C_5
REMARK    6  A    between atoms: C_6  and  C_8
REMARK    7  A    between atoms: C_8  and  C_11
REMARK    8  A    between atoms: C_12  and  C_13
REMARK                            x       y       z     vdW  Elec       q    Type
REMARK                         _______ _______ _______ _____ _____    ______ ____
ROOT
ATOM      1  C   UNL     1       3.793  -0.206   0.000  0.00  0.00    +0.000 C 
ATOM      2  C   UNL     1       4.508   0.206   0.000  0.00  0.00    +0.000 C 
ENDROOT
BRANCH   1   3
ATOM      3  N   UNL     1       3.079   0.206   0.000  0.00  0.00    +0.000 NA
ATOM      4  C   UNL     1       2.365  -0.206   0.000  0.00  0.00    +0.000 C 
BRANCH   3   5
ATOM      5  C   UNL     1       3.079   1.031   0.000  0.00  0.00    +0.000 C 
BRANCH   5   6
ATOM      6  C   UNL     1       2.365   1.444   0.000  0.00  0.00    +0.000 C 
BRANCH   6   7
ATOM      7  C   UNL     1       2.365   2.269   0.000  0.00  0.00    +0.000 A 
ATOM      8  C   UNL     1       1.650   2.681   0.000  0.00  0.00    +0.000 A 
ATOM      9  C   UNL     1       3.079   2.681   0.000  0.00  0.00    +0.000 A 
ATOM     10  C   UNL     1       1.650   3.506   0.000  0.00  0.00    +0.000 A 
ATOM     11  C   UNL     1       3.079   3.506   0.000  0.00  0.00    +0.000 A 
ATOM     12  C   UNL     1       2.365   3.919   0.000  0.00  0.00    +0.000 A 
ENDBRANCH   6   7
ENDBRANCH   5   6
ENDBRANCH   3   5
ENDBRANCH   1   3
BRANCH   1  13
ATOM     13  C   UNL     1       3.793  -1.031   0.000  0.00  0.00    +0.000 C 
BRANCH  13  15
ATOM     14  O   UNL     1       5.937  -1.444   0.000  0.00  0.00    +0.000 OA
ATOM     15  N   UNL     1       4.508  -1.444   0.000  0.00  0.00    +0.000 N 
ATOM     16  C   UNL     1       5.222  -1.031   0.000  0.00  0.00    +0.000 C 
BRANCH  15  17
ATOM     17  C   UNL     1       4.508  -2.269   0.000  0.00  0.00    +0.000 A 
ATOM     18  C   UNL     1       5.222  -2.681   0.000  0.00  0.00    +0.000 A 
ATOM     19  C   UNL     1       3.793  -2.681   0.000  0.00  0.00    +0.000 A 
ATOM     20  C   UNL     1       5.222  -3.506   0.000  0.00  0.00    +0.000 A 
ATOM     21  C   UNL     1       3.793  -3.506   0.000  0.00  0.00    +0.000 A 
ATOM     22  C   UNL     1       4.508  -3.919   0.000  0.00  0.00    +0.000 A 
ENDBRANCH  15  17
BRANCH  16  23
ATOM     23  C   UNL     1       5.222  -0.206   0.000  0.00  0.00    +0.000 C 
ATOM     24  C   UNL     1       5.937   0.206   0.000  0.00  0.00    +0.000 C 
ENDBRANCH  16  23
ENDBRANCH  13  15
ENDBRANCH   1  13
TORSDOF 8
