REMARK  Name = 1506
REMARK  1 active torsions:
REMARK  status: ('A' for Active; 'I' for Inactive)
REMARK    1  A    between atoms: C_2  and  C_8
REMARK                            x       y       z     vdW  Elec       q    Type
REMARK                         _______ _______ _______ _____ _____    ______ ____
ROOT
ATOM      1  N   UNL     1       2.162   0.715   0.000  0.00  0.00    +0.000 NA
ATOM      2  C   UNL     1       2.574   0.000   0.000  0.00  0.00    +0.000 C 
ATOM      3  C   UNL     1       3.288  -0.412   0.000  0.00  0.00    +0.000 C 
ATOM      4  C   UNL     1       1.860  -0.412   0.000  0.00  0.00    +0.000 C 
ATOM      5  C   UNL     1       3.288  -1.238   0.000  0.00  0.00    +0.000 C 
ATOM      6  C   UNL     1       1.860  -1.238   0.000  0.00  0.00    +0.000 C 
ATOM      7  C   UNL     1       2.574  -1.650   0.000  0.00  0.00    +0.000 C 
ENDROOT
BRANCH   2   8
ATOM      8  C   UNL     1       3.288   0.412   0.000  0.00  0.00    +0.000 A 
ATOM      9  C   UNL     1       4.003   0.000   0.000  0.00  0.00    +0.000 A 
ATOM     10  C   UNL     1       3.288   1.238   0.000  0.00  0.00    +0.000 A 
ATOM     11  C   UNL     1       4.718   0.412   0.000  0.00  0.00    +0.000 A 
ATOM     12  C   UNL     1       4.003   1.650   0.000  0.00  0.00    +0.000 A 
ATOM     13  C   UNL     1       4.718   1.238   0.000  0.00  0.00    +0.000 A 
ENDBRANCH   2   8
TORSDOF 1
