REMARK  Name = 1509
REMARK  2 active torsions:
REMARK  status: ('A' for Active; 'I' for Inactive)
REMARK    1  A    between atoms: C_4  and  C_5
REMARK    2  A    between atoms: C_4  and  C_6
REMARK                            x       y       z     vdW  Elec       q    Type
REMARK                         _______ _______ _______ _____ _____    ______ ____
ROOT
ATOM      1  O   UNL     1       6.446   0.408   0.000  0.00  0.00    +0.000 OA
ATOM      2  O   UNL     1       6.446  -0.920   0.000  0.00  0.00    +0.000 OA
ATOM      3  C   UNL     1       4.237   0.157   0.000  0.00  0.00    +0.000 A 
ATOM      4  C   UNL     1       4.951   0.569   0.000  0.00  0.00    +0.000 A 
ATOM      5  C   UNL     1       5.665   0.157   0.000  0.00  0.00    +0.000 A 
ATOM      6  C   UNL     1       4.237  -0.668   0.000  0.00  0.00    +0.000 A 
ATOM      7  C   UNL     1       5.665  -0.668   0.000  0.00  0.00    +0.000 A 
ATOM      8  C   UNL     1       4.951  -1.081   0.000  0.00  0.00    +0.000 A 
ATOM      9  C   UNL     1       6.928  -0.256   0.000  0.00  0.00    +0.000 C 
ENDROOT
BRANCH   3  10
ATOM     10  C   UNL     1       3.522   0.569   0.000  0.00  0.00    +0.000 C 
BRANCH  10  12
ATOM     11  N   UNL     1       2.093   0.569   0.000  0.00  0.00    +0.000 NA
ATOM     12  C   UNL     1       2.808   0.157   0.000  0.00  0.00    +0.000 C 
ATOM     13  C   UNL     1       2.808  -0.668   0.000  0.00  0.00    +0.000 C 
ENDBRANCH  10  12
ENDBRANCH   3  10
TORSDOF 2
