REMARK  Name = 1514
REMARK  0 active torsions:
REMARK  status: ('A' for Active; 'I' for Inactive)
REMARK                            x       y       z     vdW  Elec       q    Type
REMARK                         _______ _______ _______ _____ _____    ______ ____
ROOT
ATOM      1  O   UNL     1       7.845  -1.434   0.000  0.00  0.00    +0.000 OA
ATOM      2  O   UNL     1       1.593   0.907   0.000  0.00  0.00    +0.000 OA
ATOM      3  N   UNL     1       2.078   0.239   0.000  0.00  0.00    +0.000 NA
ATOM      4  N   UNL     1       2.078   1.575   0.000  0.00  0.00    +0.000 NA
ATOM      5  C   UNL     1       6.402   0.105   0.000  0.00  0.00    +0.000 C 
ATOM      6  C   UNL     1       6.409  -0.725   0.000  0.00  0.00    +0.000 C 
ATOM      7  C   UNL     1       5.677   0.509   0.000  0.00  0.00    +0.000 C 
ATOM      8  C   UNL     1       4.987   0.111   0.000  0.00  0.00    +0.000 C 
ATOM      9  C   UNL     1       4.297   0.509   0.000  0.00  0.00    +0.000 C 
ATOM     10  C   UNL     1       7.196  -0.972   0.000  0.00  0.00    +0.000 C 
ATOM     11  C   UNL     1       5.690  -1.140   0.000  0.00  0.00    +0.000 C 
ATOM     12  C   UNL     1       4.974  -0.719   0.000  0.00  0.00    +0.000 C 
ATOM     13  C   UNL     1       4.297   1.306   0.000  0.00  0.00    +0.000 C 
ATOM     14  C   UNL     1       7.186   0.364   0.000  0.00  0.00    +0.000 C 
ATOM     15  C   UNL     1       5.677   1.306   0.000  0.00  0.00    +0.000 C 
ATOM     16  C   UNL     1       7.675  -0.300   0.000  0.00  0.00    +0.000 C 
ATOM     17  C   UNL     1       4.987   1.704   0.000  0.00  0.00    +0.000 C 
ATOM     18  C   UNL     1       3.585   0.083   0.000  0.00  0.00    +0.000 C 
ATOM     19  C   UNL     1       6.415  -1.522   0.000  0.00  0.00    +0.000 C 
ATOM     20  C   UNL     1       4.297  -0.288   0.000  0.00  0.00    +0.000 C 
ATOM     21  C   UNL     1       3.585   1.732   0.000  0.00  0.00    +0.000 C 
ATOM     22  C   UNL     1       6.957  -1.732   0.000  0.00  0.00    +0.000 C 
ATOM     23  C   UNL     1       2.863   0.492   0.000  0.00  0.00    +0.000 A 
ATOM     24  C   UNL     1       2.863   1.322   0.000  0.00  0.00    +0.000 A 
ENDROOT
TORSDOF 0
