REMARK  Name = 1515
REMARK  4 active torsions:
REMARK  status: ('A' for Active; 'I' for Inactive)
REMARK    1  A    between atoms: O_1  and  C_12
REMARK    2  A    between atoms: O_1  and  C_15
REMARK    3  A    between atoms: C_8  and  C_14
REMARK    4  A    between atoms: C_15  and  C_16
REMARK                            x       y       z     vdW  Elec       q    Type
REMARK                         _______ _______ _______ _____ _____    ______ ____
ROOT
ATOM      1  N   UNL     1       6.848   1.889   0.000  0.00  0.00    +0.000 NA
ATOM      2  C   UNL     1       7.242   0.281   0.000  0.00  0.00    +0.000 C 
ATOM      3  C   UNL     1       7.456   1.078   0.000  0.00  0.00    +0.000 C 
ATOM      4  C   UNL     1       5.976  -0.744   0.000  0.00  0.00    +0.000 C 
ATOM      5  C   UNL     1       8.754  -0.345   0.000  0.00  0.00    +0.000 C 
ATOM      6  C   UNL     1       8.967   0.452   0.000  0.00  0.00    +0.000 C 
ATOM      7  C   UNL     1       5.309   0.412   0.000  0.00  0.00    +0.000 C 
ATOM      8  C   UNL     1       5.222  -0.409   0.000  0.00  0.00    +0.000 C 
ATOM      9  C   UNL     1       6.436   2.603   0.000  0.00  0.00    +0.000 C 
ENDROOT
BRANCH   4  12
ATOM     10  O   UNL     1       5.534  -2.103   0.000  0.00  0.00    +0.000 OA
ATOM     11  O   UNL     1       6.932  -1.806   0.000  0.00  0.00    +0.000 OA
ATOM     12  C   UNL     1       6.148  -1.551   0.000  0.00  0.00    +0.000 C 
ENDBRANCH   4  12
BRANCH   8  13
ATOM     13  O   UNL     1       4.508  -0.821   0.000  0.00  0.00    +0.000 OA
BRANCH  13  15
ATOM     14  O   UNL     1       3.793   0.416   0.000  0.00  0.00    +0.000 OA
ATOM     15  C   UNL     1       3.793  -0.409   0.000  0.00  0.00    +0.000 C 
BRANCH  15  16
ATOM     16  C   UNL     1       3.079  -0.821   0.000  0.00  0.00    +0.000 A 
ATOM     17  C   UNL     1       3.079  -1.646   0.000  0.00  0.00    +0.000 A 
ATOM     18  C   UNL     1       2.364  -0.409   0.000  0.00  0.00    +0.000 A 
ATOM     19  C   UNL     1       2.364  -2.059   0.000  0.00  0.00    +0.000 A 
ATOM     20  C   UNL     1       1.650  -0.821   0.000  0.00  0.00    +0.000 A 
ATOM     21  C   UNL     1       1.650  -1.646   0.000  0.00  0.00    +0.000 A 
ENDBRANCH  15  16
ENDBRANCH  13  15
ENDBRANCH   8  13
TORSDOF 4
