REMARK  Name = 1518
REMARK  9 active torsions:
REMARK  status: ('A' for Active; 'I' for Inactive)
REMARK    1  A    between atoms: O_1  and  C_11
REMARK    2  A    between atoms: O_1  and  C_19
REMARK    3  A    between atoms: O_3  and  C_15
REMARK    4  A    between atoms: O_3  and  C_20
REMARK    5  A    between atoms: N_4  and  C_12
REMARK    6  A    between atoms: C_5  and  C_10
REMARK    7  A    between atoms: C_5  and  C_11
REMARK    8  A    between atoms: C_12  and  C_15
REMARK    9  A    between atoms: C_20  and  C_22
REMARK                            x       y       z     vdW  Elec       q    Type
REMARK                         _______ _______ _______ _____ _____    ______ ____
ROOT
ATOM      1  N   UNL     1       4.125   0.714   0.000  0.00  0.00    +0.000 NA
ATOM      2  C   UNL     1       4.125   2.364   0.000  0.00  0.00    +0.000 C 
ATOM      3  C   UNL     1       3.411   1.951   0.000  0.00  0.00    +0.000 C 
ATOM      4  C   UNL     1       4.840   1.951   0.000  0.00  0.00    +0.000 C 
ATOM      5  C   UNL     1       3.411   1.126   0.000  0.00  0.00    +0.000 C 
ATOM      6  C   UNL     1       4.840   1.126   0.000  0.00  0.00    +0.000 C 
ENDROOT
BRANCH   2   7
ATOM      7  C   UNL     1       4.757   2.894   0.000  0.00  0.00    +0.000 A 
ATOM      8  C   UNL     1       4.614   3.706   0.000  0.00  0.00    +0.000 A 
ATOM      9  C   UNL     1       5.532   2.612   0.000  0.00  0.00    +0.000 A 
ATOM     10  C   UNL     1       5.246   4.237   0.000  0.00  0.00    +0.000 A 
ATOM     11  C   UNL     1       6.164   3.142   0.000  0.00  0.00    +0.000 A 
ATOM     12  C   UNL     1       6.021   3.954   0.000  0.00  0.00    +0.000 A 
ENDBRANCH   2   7
BRANCH   2  14
ATOM     13  O   UNL     1       3.856   3.890   0.000  0.00  0.00    +0.000 OA
ATOM     14  C   UNL     1       3.713   3.078   0.000  0.00  0.00    +0.000 C 
BRANCH  14  15
ATOM     15  O   UNL     1       2.888   3.078   0.000  0.00  0.00    +0.000 OA
BRANCH  15  16
ATOM     16  C   UNL     1       2.475   3.792   0.000  0.00  0.00    +0.000 C 
ATOM     17  C   UNL     1       1.650   3.792   0.000  0.00  0.00    +0.000 C 
ENDBRANCH  15  16
ENDBRANCH  14  15
ENDBRANCH   2  14
BRANCH   1  18
ATOM     18  C   UNL     1       4.125  -0.112   0.000  0.00  0.00    +0.000 C 
BRANCH  18  19
ATOM     19  C   UNL     1       3.411  -0.524   0.000  0.00  0.00    +0.000 C 
BRANCH  19  20
ATOM     20  O   UNL     1       3.411  -1.349   0.000  0.00  0.00    +0.000 OA
BRANCH  20  21
ATOM     21  C   UNL     1       2.696  -1.762   0.000  0.00  0.00    +0.000 C 
BRANCH  21  22
ATOM     22  C   UNL     1       2.696  -2.587   0.000  0.00  0.00    +0.000 A 
ATOM     23  C   UNL     1       3.411  -2.999   0.000  0.00  0.00    +0.000 A 
ATOM     24  C   UNL     1       1.982  -2.999   0.000  0.00  0.00    +0.000 A 
ATOM     25  C   UNL     1       3.411  -3.824   0.000  0.00  0.00    +0.000 A 
ATOM     26  C   UNL     1       1.982  -3.824   0.000  0.00  0.00    +0.000 A 
ATOM     27  C   UNL     1       2.696  -4.237   0.000  0.00  0.00    +0.000 A 
ENDBRANCH  21  22
ENDBRANCH  20  21
ENDBRANCH  19  20
ENDBRANCH  18  19
ENDBRANCH   1  18
TORSDOF 9
