REMARK  Name = 152
REMARK  4 active torsions:
REMARK  status: ('A' for Active; 'I' for Inactive)
REMARK    1  A    between atoms: N_3  and  C_8
REMARK    2  A    between atoms: C_8  and  C_11
REMARK    3  A    between atoms: C_9  and  C_10
REMARK    4  A    between atoms: C_10  and  C_14
REMARK                            x       y       z     vdW  Elec       q    Type
REMARK                         _______ _______ _______ _____ _____    ______ ____
ROOT
ATOM      1  S   UNL     1       1.905   0.850   0.000  0.00  0.00    +0.000 S 
ATOM      2  N   UNL     1       2.317  -0.419   0.000  0.00  0.00    +0.000 N 
ATOM      3  C   UNL     1       2.985   0.066   0.000  0.00  0.00    +0.000 A 
ATOM      4  C   UNL     1       2.730   0.850   0.000  0.00  0.00    +0.000 A 
ATOM      5  C   UNL     1       1.650   0.066   0.000  0.00  0.00    +0.000 A 
ATOM      6  C   UNL     1       3.770  -0.189   0.000  0.00  0.00    +0.000 C 
ENDROOT
BRANCH   2   7
ATOM      7  C   UNL     1       2.317  -1.244   0.000  0.00  0.00    +0.000 C 
BRANCH   7  11
ATOM      8  N   UNL     1       3.747  -2.894   0.000  0.00  0.00    +0.000 NA
ATOM      9  N   UNL     1       4.461  -1.657   0.000  0.00  0.00    +0.000 NA
ATOM     10  N   UNL     1       2.317  -2.894   0.000  0.00  0.00    +0.000 NA
ATOM     11  C   UNL     1       3.032  -1.657   0.000  0.00  0.00    +0.000 A 
ATOM     12  C   UNL     1       3.032  -2.482   0.000  0.00  0.00    +0.000 A 
ATOM     13  C   UNL     1       3.747  -1.244   0.000  0.00  0.00    +0.000 A 
ATOM     14  C   UNL     1       4.461  -2.482   0.000  0.00  0.00    +0.000 A 
ATOM     15  C   UNL     1       5.175  -2.894   0.000  0.00  0.00    +0.000 C 
ENDBRANCH   7  11
ENDBRANCH   2   7
BRANCH   4  16
ATOM     16  C   UNL     1       3.215   1.518   0.000  0.00  0.00    +0.000 C 
BRANCH  16  18
ATOM     17  O   UNL     1       3.364   2.939   0.000  0.00  0.00    +0.000 OA
ATOM     18  C   UNL     1       2.879   2.271   0.000  0.00  0.00    +0.000 C 
ENDBRANCH  16  18
ENDBRANCH   4  16
TORSDOF 4
