REMARK  Name = 1522
REMARK  9 active torsions:
REMARK  status: ('A' for Active; 'I' for Inactive)
REMARK    1  A    between atoms: O_1  and  C_6
REMARK    2  A    between atoms: O_1  and  C_23
REMARK    3  A    between atoms: N_3  and  C_7
REMARK    4  A    between atoms: C_4  and  C_5
REMARK    5  A    between atoms: C_4  and  C_6
REMARK    6  A    between atoms: C_4  and  C_8
REMARK    7  A    between atoms: C_4  and  C_9
REMARK    8  A    between atoms: C_5  and  C_7
REMARK    9  A    between atoms: C_6  and  C_10
REMARK                            x       y       z     vdW  Elec       q    Type
REMARK                         _______ _______ _______ _____ _____    ______ ____
ROOT
ATOM      1  C   UNL     1       4.657   0.000   0.000  0.00  0.00    +0.000 C 
ENDROOT
BRANCH   1   2
ATOM      2  C   UNL     1       4.657  -0.825   0.000  0.00  0.00    +0.000 A 
ATOM      3  C   UNL     1       5.372  -1.238   0.000  0.00  0.00    +0.000 A 
ATOM      4  C   UNL     1       3.943  -1.238   0.000  0.00  0.00    +0.000 A 
ATOM      5  C   UNL     1       5.372  -2.062   0.000  0.00  0.00    +0.000 A 
ATOM      6  C   UNL     1       3.943  -2.062   0.000  0.00  0.00    +0.000 A 
ATOM      7  C   UNL     1       4.657  -2.475   0.000  0.00  0.00    +0.000 A 
ENDBRANCH   1   2
BRANCH   1   8
ATOM      8  C   UNL     1       4.657   0.825   0.000  0.00  0.00    +0.000 A 
ATOM      9  C   UNL     1       3.943   1.238   0.000  0.00  0.00    +0.000 A 
ATOM     10  C   UNL     1       5.372   1.238   0.000  0.00  0.00    +0.000 A 
ATOM     11  C   UNL     1       3.943   2.062   0.000  0.00  0.00    +0.000 A 
ATOM     12  C   UNL     1       5.372   2.062   0.000  0.00  0.00    +0.000 A 
ATOM     13  C   UNL     1       4.657   2.475   0.000  0.00  0.00    +0.000 A 
ENDBRANCH   1   8
BRANCH   1  14
ATOM     14  C   UNL     1       3.833   0.000   0.000  0.00  0.00    +0.000 C 
BRANCH  14  15
ATOM     15  C   UNL     1       3.057   0.282   0.000  0.00  0.00    +0.000 C 
ATOM     16  C   UNL     1       2.914   1.095   0.000  0.00  0.00    +0.000 C 
BRANCH  15  17
ATOM     17  N   UNL     1       2.425  -0.248   0.000  0.00  0.00    +0.000 NA
ATOM     18  C   UNL     1       1.650   0.034   0.000  0.00  0.00    +0.000 C 
ATOM     19  C   UNL     1       2.568  -1.060   0.000  0.00  0.00    +0.000 C 
ENDBRANCH  15  17
ENDBRANCH  14  15
ENDBRANCH   1  14
BRANCH   1  20
ATOM     20  C   UNL     1       5.482   0.000   0.000  0.00  0.00    +0.000 C 
BRANCH  20  21
ATOM     21  C   UNL     1       5.895   0.714   0.000  0.00  0.00    +0.000 C 
ATOM     22  C   UNL     1       6.720   0.714   0.000  0.00  0.00    +0.000 C 
ENDBRANCH  20  21
BRANCH  20  23
ATOM     23  O   UNL     1       5.895  -0.714   0.000  0.00  0.00    +0.000 OA
BRANCH  23  25
ATOM     24  O   UNL     1       7.133   0.000   0.000  0.00  0.00    +0.000 OA
ATOM     25  C   UNL     1       6.720  -0.714   0.000  0.00  0.00    +0.000 C 
ATOM     26  C   UNL     1       7.133  -1.429   0.000  0.00  0.00    +0.000 C 
ENDBRANCH  23  25
ENDBRANCH  20  23
ENDBRANCH   1  20
TORSDOF 9
