REMARK  Name = 1523
REMARK  8 active torsions:
REMARK  status: ('A' for Active; 'I' for Inactive)
REMARK    1  A    between atoms: N_4  and  C_8
REMARK    2  A    between atoms: N_5  and  C_9
REMARK    3  A    between atoms: N_5  and  C_14
REMARK    4  A    between atoms: N_5  and  C_15
REMARK    5  A    between atoms: N_7  and  C_21
REMARK    6  A    between atoms: C_8  and  C_9
REMARK    7  A    between atoms: C_10  and  C_13
REMARK    8  A    between atoms: C_13  and  C_18
REMARK                            x       y       z     vdW  Elec       q    Type
REMARK                         _______ _______ _______ _____ _____    ______ ____
ROOT
ATOM      1  N   UNL     1       5.289   0.193   0.000  0.00  0.00    +0.000 N 
ATOM      2  N   UNL     1       5.289  -1.135   0.000  0.00  0.00    +0.000 NA
ATOM      3  C   UNL     1       5.770  -0.471   0.000  0.00  0.00    +0.000 A 
ATOM      4  C   UNL     1       4.508  -0.059   0.000  0.00  0.00    +0.000 A 
ATOM      5  C   UNL     1       4.508  -0.884   0.000  0.00  0.00    +0.000 A 
ATOM      6  C   UNL     1       3.793   0.354   0.000  0.00  0.00    +0.000 A 
ATOM      7  C   UNL     1       3.793  -1.296   0.000  0.00  0.00    +0.000 A 
ATOM      8  C   UNL     1       3.079  -0.884   0.000  0.00  0.00    +0.000 A 
ATOM      9  C   UNL     1       3.079  -0.059   0.000  0.00  0.00    +0.000 A 
ENDROOT
BRANCH   8  12
ATOM     10  O   UNL     1       1.650  -0.884   0.000  0.00  0.00    +0.000 OA
ATOM     11  O   UNL     1       2.365  -2.122   0.000  0.00  0.00    +0.000 OA
ATOM     12  N   UNL     1       2.365  -1.296   0.000  0.00  0.00    +0.000 N 
ENDBRANCH   8  12
BRANCH   3  13
ATOM     13  C   UNL     1       6.595  -0.471   0.000  0.00  0.00    +0.000 C 
BRANCH  13  15
ATOM     14 CL   UNL     1       8.245  -3.329   0.000  0.00  0.00    +0.000 Cl
ATOM     15  C   UNL     1       7.008  -1.186   0.000  0.00  0.00    +0.000 A 
ATOM     16  C   UNL     1       7.833  -1.186   0.000  0.00  0.00    +0.000 A 
ATOM     17  C   UNL     1       6.595  -1.900   0.000  0.00  0.00    +0.000 A 
ATOM     18  C   UNL     1       8.245  -1.900   0.000  0.00  0.00    +0.000 A 
ATOM     19  C   UNL     1       7.008  -2.615   0.000  0.00  0.00    +0.000 A 
ATOM     20  C   UNL     1       7.833  -2.615   0.000  0.00  0.00    +0.000 A 
ENDBRANCH  13  15
ENDBRANCH   3  13
BRANCH   1  21
ATOM     21  C   UNL     1       5.545   0.977   0.000  0.00  0.00    +0.000 C 
BRANCH  21  22
ATOM     22  C   UNL     1       6.352   1.147   0.000  0.00  0.00    +0.000 C 
BRANCH  22  23
ATOM     23  N   UNL     1       6.609   1.931   0.000  0.00  0.00    +0.000 NA
BRANCH  23  24
ATOM     24  C   UNL     1       6.058   2.545   0.000  0.00  0.00    +0.000 C 
ATOM     25  C   UNL     1       6.314   3.329   0.000  0.00  0.00    +0.000 C 
ENDBRANCH  23  24
BRANCH  23  26
ATOM     26  C   UNL     1       7.416   2.101   0.000  0.00  0.00    +0.000 C 
ATOM     27  C   UNL     1       7.672   2.885   0.000  0.00  0.00    +0.000 C 
ENDBRANCH  23  26
ENDBRANCH  22  23
ENDBRANCH  21  22
ENDBRANCH   1  21
TORSDOF 8
