REMARK  Name = 1525
REMARK  1 active torsions:
REMARK  status: ('A' for Active; 'I' for Inactive)
REMARK    1  A    between atoms: C_7  and  C_13
REMARK                            x       y       z     vdW  Elec       q    Type
REMARK                         _______ _______ _______ _____ _____    ______ ____
ROOT
ATOM      1  O   UNL     1       2.093  -0.821   0.000  0.00  0.00    +0.000 OA
ATOM      2  N   UNL     1       4.433   1.889   0.000  0.00  0.00    +0.000 NA
ATOM      3  C   UNL     1       4.827   0.281   0.000  0.00  0.00    +0.000 C 
ATOM      4  C   UNL     1       5.041   1.078   0.000  0.00  0.00    +0.000 C 
ATOM      5  C   UNL     1       3.561  -0.744   0.000  0.00  0.00    +0.000 C 
ATOM      6  C   UNL     1       6.338  -0.345   0.000  0.00  0.00    +0.000 C 
ATOM      7  C   UNL     1       6.552   0.452   0.000  0.00  0.00    +0.000 C 
ATOM      8  C   UNL     1       2.893   0.412   0.000  0.00  0.00    +0.000 C 
ATOM      9  C   UNL     1       2.807  -0.409   0.000  0.00  0.00    +0.000 C 
ATOM     10  C   UNL     1       4.021   2.603   0.000  0.00  0.00    +0.000 C 
ENDROOT
BRANCH   5  13
ATOM     11  O   UNL     1       3.119  -2.103   0.000  0.00  0.00    +0.000 OA
ATOM     12  O   UNL     1       4.517  -1.806   0.000  0.00  0.00    +0.000 OA
ATOM     13  C   UNL     1       3.732  -1.551   0.000  0.00  0.00    +0.000 C 
ENDBRANCH   5  13
TORSDOF 1
