REMARK  Name = 1527
REMARK  2 active torsions:
REMARK  status: ('A' for Active; 'I' for Inactive)
REMARK    1  A    between atoms: C_3  and  C_4
REMARK    2  A    between atoms: C_4  and  C_7
REMARK                            x       y       z     vdW  Elec       q    Type
REMARK                         _______ _______ _______ _____ _____    ______ ____
ROOT
ATOM      1 CL   UNL     1       1.650  -0.256   0.000  0.00  0.00    +0.000 Cl
ATOM      2  C   UNL     1       3.079  -0.256   0.000  0.00  0.00    +0.000 A 
ATOM      3  C   UNL     1       2.365  -0.668   0.000  0.00  0.00    +0.000 A 
ATOM      4  C   UNL     1       3.793  -0.668   0.000  0.00  0.00    +0.000 A 
ATOM      5  C   UNL     1       2.365  -1.493   0.000  0.00  0.00    +0.000 A 
ATOM      6  C   UNL     1       3.793  -1.493   0.000  0.00  0.00    +0.000 A 
ATOM      7  C   UNL     1       3.079  -1.906   0.000  0.00  0.00    +0.000 A 
ENDROOT
BRANCH   2   8
ATOM      8  C   UNL     1       3.079   0.569   0.000  0.00  0.00    +0.000 C 
BRANCH   8  10
ATOM      9  N   UNL     1       4.508   1.394   0.000  0.00  0.00    +0.000 NA
ATOM     10  C   UNL     1       3.793   0.982   0.000  0.00  0.00    +0.000 C 
ATOM     11  C   UNL     1       3.381   1.696   0.000  0.00  0.00    +0.000 C 
ATOM     12  C   UNL     1       4.206   0.267   0.000  0.00  0.00    +0.000 C 
ENDBRANCH   8  10
ENDBRANCH   2   8
TORSDOF 2
