REMARK  Name = 1532
REMARK  5 active torsions:
REMARK  status: ('A' for Active; 'I' for Inactive)
REMARK    1  A    between atoms: N_2  and  C_9
REMARK    2  A    between atoms: N_3  and  C_4
REMARK    3  A    between atoms: N_3  and  C_12
REMARK    4  A    between atoms: C_9  and  C_10
REMARK    5  A    between atoms: C_10  and  C_14
REMARK                            x       y       z     vdW  Elec       q    Type
REMARK                         _______ _______ _______ _____ _____    ______ ____
ROOT
ATOM      1  N   UNL     1       3.079  -0.206   0.000  0.00  0.00    +0.000 NA
ATOM      2  C   UNL     1       3.079   1.444   0.000  0.00  0.00    +0.000 C 
ATOM      3  C   UNL     1       2.365   1.031   0.000  0.00  0.00    +0.000 C 
ATOM      4  C   UNL     1       3.793   1.031   0.000  0.00  0.00    +0.000 C 
ATOM      5  C   UNL     1       2.365   0.206   0.000  0.00  0.00    +0.000 C 
ATOM      6  C   UNL     1       3.793   0.206   0.000  0.00  0.00    +0.000 C 
ENDROOT
BRANCH   2   8
ATOM      7  O   UNL     1       1.650   2.269   0.000  0.00  0.00    +0.000 OA
ATOM      8  N   UNL     1       3.079   2.269   0.000  0.00  0.00    +0.000 N 
ATOM      9  C   UNL     1       2.365   2.681   0.000  0.00  0.00    +0.000 C 
ATOM     10  C   UNL     1       2.365   3.506   0.000  0.00  0.00    +0.000 C 
BRANCH   8  11
ATOM     11  C   UNL     1       3.793   2.681   0.000  0.00  0.00    +0.000 A 
ATOM     12  C   UNL     1       3.793   3.506   0.000  0.00  0.00    +0.000 A 
ATOM     13  C   UNL     1       4.508   2.269   0.000  0.00  0.00    +0.000 A 
ATOM     14  C   UNL     1       4.508   3.919   0.000  0.00  0.00    +0.000 A 
ATOM     15  C   UNL     1       5.222   2.681   0.000  0.00  0.00    +0.000 A 
ATOM     16  C   UNL     1       5.222   3.506   0.000  0.00  0.00    +0.000 A 
ENDBRANCH   8  11
ENDBRANCH   2   8
BRANCH   1  17
ATOM     17  C   UNL     1       3.079  -1.031   0.000  0.00  0.00    +0.000 C 
ATOM     18  C   UNL     1       3.793  -1.444   0.000  0.00  0.00    +0.000 C 
BRANCH  17  19
ATOM     19  C   UNL     1       2.365  -1.444   0.000  0.00  0.00    +0.000 C 
BRANCH  19  20
ATOM     20  C   UNL     1       2.365  -2.269   0.000  0.00  0.00    +0.000 A 
ATOM     21  C   UNL     1       3.079  -2.681   0.000  0.00  0.00    +0.000 A 
ATOM     22  C   UNL     1       1.650  -2.681   0.000  0.00  0.00    +0.000 A 
ATOM     23  C   UNL     1       3.079  -3.506   0.000  0.00  0.00    +0.000 A 
ATOM     24  C   UNL     1       1.650  -3.506   0.000  0.00  0.00    +0.000 A 
ATOM     25  C   UNL     1       2.365  -3.919   0.000  0.00  0.00    +0.000 A 
ENDBRANCH  19  20
ENDBRANCH  17  19
ENDBRANCH   1  17
TORSDOF 5
