REMARK  Name = 1533
REMARK  6 active torsions:
REMARK  status: ('A' for Active; 'I' for Inactive)
REMARK    1  A    between atoms: N_3  and  C_4
REMARK    2  A    between atoms: N_3  and  C_5
REMARK    3  A    between atoms: N_3  and  C_6
REMARK    4  A    between atoms: C_4  and  C_7
REMARK    5  A    between atoms: C_9  and  C_12
REMARK    6  A    between atoms: C_9  and  C_13
REMARK                            x       y       z     vdW  Elec       q    Type
REMARK                         _______ _______ _______ _____ _____    ______ ____
ROOT
ATOM      1  C   UNL     1       3.793   0.016   0.000  0.00  0.00    +0.000 C 
ATOM      2  C   UNL     1       4.508  -0.397   0.000  0.00  0.00    +0.000 C 
ENDROOT
BRANCH   2   4
ATOM      3  S   UNL     1       5.976  -0.320   0.000  0.00  0.00    +0.000 S 
ATOM      4  C   UNL     1       5.222   0.016   0.000  0.00  0.00    +0.000 A 
ATOM      5  C   UNL     1       5.309   0.837   0.000  0.00  0.00    +0.000 A 
ATOM      6  C   UNL     1       6.116   1.008   0.000  0.00  0.00    +0.000 A 
ATOM      7  C   UNL     1       6.528   0.293   0.000  0.00  0.00    +0.000 A 
ENDBRANCH   2   4
BRANCH   2   9
ATOM      8  S   UNL     1       3.841  -1.706   0.000  0.00  0.00    +0.000 S 
ATOM      9  C   UNL     1       4.508  -1.222   0.000  0.00  0.00    +0.000 A 
ATOM     10  C   UNL     1       5.175  -1.706   0.000  0.00  0.00    +0.000 A 
ATOM     11  C   UNL     1       4.920  -2.491   0.000  0.00  0.00    +0.000 A 
ATOM     12  C   UNL     1       4.096  -2.491   0.000  0.00  0.00    +0.000 A 
ENDBRANCH   2   9
BRANCH   1  13
ATOM     13  C   UNL     1       3.793   0.841   0.000  0.00  0.00    +0.000 C 
ATOM     14  C   UNL     1       4.508   1.254   0.000  0.00  0.00    +0.000 C 
BRANCH  13  15
ATOM     15  N   UNL     1       3.079   1.254   0.000  0.00  0.00    +0.000 NA
BRANCH  15  16
ATOM     16  C   UNL     1       2.365   0.841   0.000  0.00  0.00    +0.000 C 
ATOM     17  C   UNL     1       1.650   1.254   0.000  0.00  0.00    +0.000 C 
ENDBRANCH  15  16
BRANCH  15  18
ATOM     18  C   UNL     1       3.079   2.079   0.000  0.00  0.00    +0.000 C 
ATOM     19  C   UNL     1       2.365   2.491   0.000  0.00  0.00    +0.000 C 
ENDBRANCH  15  18
ENDBRANCH  13  15
ENDBRANCH   1  13
TORSDOF 6
