REMARK  Name = 1534
REMARK  5 active torsions:
REMARK  status: ('A' for Active; 'I' for Inactive)
REMARK    1  A    between atoms: O_4  and  C_9
REMARK    2  A    between atoms: O_4  and  C_13
REMARK    3  A    between atoms: C_7  and  C_8
REMARK    4  A    between atoms: C_8  and  C_9
REMARK    5  A    between atoms: C_13  and  C_14
REMARK                            x       y       z     vdW  Elec       q    Type
REMARK                         _______ _______ _______ _____ _____    ______ ____
ROOT
ATOM      1  O   UNL     1       4.951   0.389   0.000  0.00  0.00    +0.000 OA
ENDROOT
BRANCH   1   3
ATOM      2  O   UNL     1       5.665  -0.848   0.000  0.00  0.00    +0.000 OA
ATOM      3  C   UNL     1       5.665  -0.023   0.000  0.00  0.00    +0.000 C 
BRANCH   3   7
ATOM      4 CL   UNL     1       7.094   0.802   0.000  0.00  0.00    +0.000 Cl
ATOM      5 CL   UNL     1       6.793  -0.325   0.000  0.00  0.00    +0.000 Cl
ATOM      6 CL   UNL     1       5.967   1.104   0.000  0.00  0.00    +0.000 Cl
ATOM      7  C   UNL     1       6.380   0.389   0.000  0.00  0.00    +0.000 C 
ENDBRANCH   3   7
ENDBRANCH   1   3
BRANCH   1   8
ATOM      8  C   UNL     1       4.237  -0.023   0.000  0.00  0.00    +0.000 C 
ATOM      9  C   UNL     1       4.237  -0.848   0.000  0.00  0.00    +0.000 C 
BRANCH   8  10
ATOM     10  C   UNL     1       3.522   0.389   0.000  0.00  0.00    +0.000 C 
BRANCH  10  12
ATOM     11  O   UNL     1       2.093  -0.436   0.000  0.00  0.00    +0.000 OA
ATOM     12  C   UNL     1       2.808  -0.023   0.000  0.00  0.00    +0.000 C 
ATOM     13  C   UNL     1       2.395   0.691   0.000  0.00  0.00    +0.000 C 
ATOM     14  C   UNL     1       3.220  -0.738   0.000  0.00  0.00    +0.000 C 
ENDBRANCH  10  12
ENDBRANCH   8  10
ENDBRANCH   1   8
TORSDOF 5
