REMARK  Name = 1537
REMARK  4 active torsions:
REMARK  status: ('A' for Active; 'I' for Inactive)
REMARK    1  A    between atoms: O_2  and  C_7
REMARK    2  A    between atoms: O_3  and  C_10
REMARK    3  A    between atoms: C_5  and  C_6
REMARK    4  A    between atoms: C_6  and  C_8
REMARK                            x       y       z     vdW  Elec       q    Type
REMARK                         _______ _______ _______ _____ _____    ______ ____
ROOT
ATOM      1 BR   UNL     1       3.793  -2.397   0.000  0.00  0.00    +0.000 Br
ATOM      2  C   UNL     1       3.793   0.078   0.000  0.00  0.00    +0.000 A 
ATOM      3  C   UNL     1       3.079  -0.334   0.000  0.00  0.00    +0.000 A 
ATOM      4  C   UNL     1       4.508  -0.334   0.000  0.00  0.00    +0.000 A 
ATOM      5  C   UNL     1       4.508  -1.159   0.000  0.00  0.00    +0.000 A 
ATOM      6  C   UNL     1       3.079  -1.159   0.000  0.00  0.00    +0.000 A 
ATOM      7  C   UNL     1       3.793  -1.572   0.000  0.00  0.00    +0.000 A 
ENDROOT
BRANCH   3   8
ATOM      8  O   UNL     1       2.365   0.078   0.000  0.00  0.00    +0.000 OA
ATOM      9  C   UNL     1       1.650  -0.334   0.000  0.00  0.00    +0.000 C 
ENDBRANCH   3   8
BRANCH   5  10
ATOM     10  O   UNL     1       5.222  -1.572   0.000  0.00  0.00    +0.000 OA
ATOM     11  C   UNL     1       5.937  -1.159   0.000  0.00  0.00    +0.000 C 
ENDBRANCH   5  10
BRANCH   2  12
ATOM     12  C   UNL     1       3.793   0.903   0.000  0.00  0.00    +0.000 C 
BRANCH  12  14
ATOM     13  N   UNL     1       4.508   2.141   0.000  0.00  0.00    +0.000 NA
ATOM     14  C   UNL     1       4.508   1.316   0.000  0.00  0.00    +0.000 C 
ENDBRANCH  12  14
ENDBRANCH   2  12
TORSDOF 4
