REMARK  Name = 1538
REMARK  3 active torsions:
REMARK  status: ('A' for Active; 'I' for Inactive)
REMARK    1  A    between atoms: O_2  and  C_13
REMARK    2  A    between atoms: O_2  and  C_23
REMARK    3  A    between atoms: O_3  and  C_21
REMARK                            x       y       z     vdW  Elec       q    Type
REMARK                         _______ _______ _______ _____ _____    ______ ____
ROOT
ATOM      1  O   UNL     1       2.687   0.263   0.000  0.00  0.00    +0.000 OA
ATOM      2  N   UNL     1       6.095  -0.608   0.000  0.00  0.00    +0.000 NA
ATOM      3  C   UNL     1       3.952  -0.196   0.000  0.00  0.00    +0.000 C 
ATOM      4  C   UNL     1       4.666  -0.608   0.000  0.00  0.00    +0.000 C 
ATOM      5  C   UNL     1       3.237  -0.608   0.000  0.00  0.00    +0.000 C 
ATOM      6  C   UNL     1       5.381  -0.196   0.000  0.00  0.00    +0.000 C 
ATOM      7  C   UNL     1       4.428   0.409   0.000  0.00  0.00    +0.000 C 
ATOM      8  C   UNL     1       3.952   0.629   0.000  0.00  0.00    +0.000 A 
ATOM      9  C   UNL     1       4.666  -1.433   0.000  0.00  0.00    +0.000 C 
ATOM     10  C   UNL     1       3.237  -1.433   0.000  0.00  0.00    +0.000 C 
ATOM     11  C   UNL     1       5.381   0.629   0.000  0.00  0.00    +0.000 C 
ATOM     12  C   UNL     1       3.952  -1.846   0.000  0.00  0.00    +0.000 C 
ATOM     13  C   UNL     1       5.602   0.409   0.000  0.00  0.00    +0.000 C 
ATOM     14  C   UNL     1       4.666   1.042   0.000  0.00  0.00    +0.000 A 
ATOM     15  C   UNL     1       3.237   1.042   0.000  0.00  0.00    +0.000 A 
ATOM     16  C   UNL     1       6.686  -1.243   0.000  0.00  0.00    +0.000 C 
ATOM     17  C   UNL     1       4.666   1.867   0.000  0.00  0.00    +0.000 A 
ATOM     18  C   UNL     1       3.237   1.867   0.000  0.00  0.00    +0.000 A 
ATOM     19  C   UNL     1       3.952   2.279   0.000  0.00  0.00    +0.000 A 
ENDROOT
BRANCH  18  20
ATOM     20  O   UNL     1       2.486   2.301   0.000  0.00  0.00    +0.000 OA
ATOM     21  C   UNL     1       2.486   3.168   0.000  0.00  0.00    +0.000 C 
ENDBRANCH  18  20
BRANCH  10  22
ATOM     22  O   UNL     1       2.486  -1.867   0.000  0.00  0.00    +0.000 OA
BRANCH  22  24
ATOM     23  O   UNL     1       3.237  -3.168   0.000  0.00  0.00    +0.000 OA
ATOM     24  C   UNL     1       2.486  -2.734   0.000  0.00  0.00    +0.000 C 
ATOM     25  C   UNL     1       1.735  -3.168   0.000  0.00  0.00    +0.000 C 
ENDBRANCH  22  24
ENDBRANCH  10  22
TORSDOF 3
