REMARK  Name = 1542
REMARK  6 active torsions:
REMARK  status: ('A' for Active; 'I' for Inactive)
REMARK    1  A    between atoms: O_1  and  C_4
REMARK    2  A    between atoms: O_1  and  C_15
REMARK    3  A    between atoms: C_4  and  C_10
REMARK    4  A    between atoms: C_5  and  C_9
REMARK    5  A    between atoms: C_9  and  C_14
REMARK    6  A    between atoms: C_15  and  C_18
REMARK                            x       y       z     vdW  Elec       q    Type
REMARK                         _______ _______ _______ _____ _____    ______ ____
ROOT
ATOM      1  N   UNL     1       4.272  -1.706   0.000  0.00  0.00    +0.000 NA
ATOM      2  C   UNL     1       4.272  -0.056   0.000  0.00  0.00    +0.000 C 
ATOM      3  C   UNL     1       3.557  -0.469   0.000  0.00  0.00    +0.000 C 
ATOM      4  C   UNL     1       4.986  -0.469   0.000  0.00  0.00    +0.000 C 
ATOM      5  C   UNL     1       3.557  -1.294   0.000  0.00  0.00    +0.000 C 
ATOM      6  C   UNL     1       4.986  -1.294   0.000  0.00  0.00    +0.000 C 
ATOM      7  C   UNL     1       4.272  -2.531   0.000  0.00  0.00    +0.000 C 
ENDROOT
BRANCH   2   8
ATOM      8  C   UNL     1       4.684   0.658   0.000  0.00  0.00    +0.000 A 
ATOM      9  C   UNL     1       4.272   1.373   0.000  0.00  0.00    +0.000 A 
ATOM     10  C   UNL     1       5.509   0.658   0.000  0.00  0.00    +0.000 A 
ATOM     11  C   UNL     1       4.684   2.087   0.000  0.00  0.00    +0.000 A 
ATOM     12  C   UNL     1       5.922   1.373   0.000  0.00  0.00    +0.000 A 
ATOM     13  C   UNL     1       5.509   2.087   0.000  0.00  0.00    +0.000 A 
ENDBRANCH   2   8
BRANCH   2  14
ATOM     14  O   UNL     1       3.859   0.658   0.000  0.00  0.00    +0.000 OA
BRANCH  14  16
ATOM     15  O   UNL     1       2.452   0.906   0.000  0.00  0.00    +0.000 OA
ATOM     16  C   UNL     1       3.227   1.189   0.000  0.00  0.00    +0.000 C 
BRANCH  16  17
ATOM     17  C   UNL     1       3.370   2.001   0.000  0.00  0.00    +0.000 C 
ATOM     18  C   UNL     1       2.738   2.531   0.000  0.00  0.00    +0.000 C 
ENDBRANCH  16  17
ENDBRANCH  14  16
ENDBRANCH   2  14
BRANCH   3  19
ATOM     19  C   UNL     1       2.745  -0.612   0.000  0.00  0.00    +0.000 C 
BRANCH  19  20
ATOM     20  C   UNL     1       2.462  -1.387   0.000  0.00  0.00    +0.000 C 
ATOM     21  C   UNL     1       1.650  -1.531   0.000  0.00  0.00    +0.000 C 
ENDBRANCH  19  20
ENDBRANCH   3  19
TORSDOF 6
