REMARK  Name = 1544
REMARK  2 active torsions:
REMARK  status: ('A' for Active; 'I' for Inactive)
REMARK    1  A    between atoms: N_7  and  C_16
REMARK    2  A    between atoms: C_10  and  C_15
REMARK                            x       y       z     vdW  Elec       q    Type
REMARK                         _______ _______ _______ _____ _____    ______ ____
ROOT
ATOM      1  O   UNL     1       2.611   2.593   0.000  0.00  0.00    +0.000 OA
ATOM      2  N   UNL     1       2.454   1.205   0.000  0.00  0.00    +0.000 N 
ATOM      3  N   UNL     1       4.308   1.205   0.000  0.00  0.00    +0.000 NA
ATOM      4  C   UNL     1       3.381   0.042   0.000  0.00  0.00    +0.000 A 
ATOM      5  C   UNL     1       2.638   0.400   0.000  0.00  0.00    +0.000 A 
ATOM      6  C   UNL     1       4.125   0.400   0.000  0.00  0.00    +0.000 C 
ATOM      7  C   UNL     1       3.459  -0.814   0.000  0.00  0.00    +0.000 A 
ATOM      8  C   UNL     1       3.794   1.850   0.000  0.00  0.00    +0.000 C 
ATOM      9  C   UNL     1       1.921  -0.073   0.000  0.00  0.00    +0.000 A 
ATOM     10  C   UNL     1       2.969   1.850   0.000  0.00  0.00    +0.000 C 
ATOM     11  C   UNL     1       2.752  -1.303   0.000  0.00  0.00    +0.000 A 
ATOM     12  C   UNL     1       1.978  -0.930   0.000  0.00  0.00    +0.000 A 
ATOM     13  C   UNL     1       1.650   1.388   0.000  0.00  0.00    +0.000 C 
ENDROOT
BRANCH   6  15
ATOM     14  F   UNL     1       3.879  -1.231   0.000  0.00  0.00    +0.000 F 
ATOM     15  C   UNL     1       4.769  -0.114   0.000  0.00  0.00    +0.000 A 
ATOM     16  C   UNL     1       4.647  -0.930   0.000  0.00  0.00    +0.000 A 
ATOM     17  C   UNL     1       5.537   0.187   0.000  0.00  0.00    +0.000 A 
ATOM     18  C   UNL     1       5.292  -1.444   0.000  0.00  0.00    +0.000 A 
ATOM     19  C   UNL     1       6.183  -0.327   0.000  0.00  0.00    +0.000 A 
ATOM     20  C   UNL     1       6.059  -1.143   0.000  0.00  0.00    +0.000 A 
ENDBRANCH   6  15
BRANCH  11  23
ATOM     21  O   UNL     1       2.137  -2.593   0.000  0.00  0.00    +0.000 OA
ATOM     22  O   UNL     1       3.562  -2.481   0.000  0.00  0.00    +0.000 OA
ATOM     23  N   UNL     1       2.817  -2.126   0.000  0.00  0.00    +0.000 N 
ENDBRANCH  11  23
TORSDOF 2
