REMARK  Name = 1545
REMARK  4 active torsions:
REMARK  status: ('A' for Active; 'I' for Inactive)
REMARK    1  A    between atoms: O_3  and  C_16
REMARK    2  A    between atoms: O_3  and  C_24
REMARK    3  A    between atoms: C_9  and  C_12
REMARK    4  A    between atoms: C_10  and  C_16
REMARK                            x       y       z     vdW  Elec       q    Type
REMARK                         _______ _______ _______ _____ _____    ______ ____
ROOT
ATOM      1 CL   UNL     1       2.547  -2.792   0.000  0.00  0.00    +0.000 Cl
ATOM      2  O   UNL     1       2.340   1.926   0.000  0.00  0.00    +0.000 OA
ATOM      3  N   UNL     1       2.184   0.538   0.000  0.00  0.00    +0.000 NA
ATOM      4  N   UNL     1       4.037   0.538   0.000  0.00  0.00    +0.000 NA
ATOM      5  C   UNL     1       3.111  -0.625   0.000  0.00  0.00    +0.000 A 
ATOM      6  C   UNL     1       3.854  -0.267   0.000  0.00  0.00    +0.000 C 
ATOM      7  C   UNL     1       3.523   1.183   0.000  0.00  0.00    +0.000 C 
ATOM      8  C   UNL     1       2.367  -0.267   0.000  0.00  0.00    +0.000 A 
ATOM      9  C   UNL     1       2.698   1.183   0.000  0.00  0.00    +0.000 C 
ATOM     10  C   UNL     1       3.188  -1.480   0.000  0.00  0.00    +0.000 A 
ATOM     11  C   UNL     1       1.650  -0.740   0.000  0.00  0.00    +0.000 A 
ATOM     12  C   UNL     1       2.482  -1.970   0.000  0.00  0.00    +0.000 A 
ATOM     13  C   UNL     1       1.708  -1.597   0.000  0.00  0.00    +0.000 A 
ENDROOT
BRANCH   6  15
ATOM     14  F   UNL     1       3.608  -1.898   0.000  0.00  0.00    +0.000 F 
ATOM     15  C   UNL     1       4.499  -0.781   0.000  0.00  0.00    +0.000 A 
ATOM     16  C   UNL     1       4.376  -1.597   0.000  0.00  0.00    +0.000 A 
ATOM     17  C   UNL     1       5.267  -0.480   0.000  0.00  0.00    +0.000 A 
ATOM     18  C   UNL     1       5.021  -2.111   0.000  0.00  0.00    +0.000 A 
ATOM     19  C   UNL     1       5.912  -0.994   0.000  0.00  0.00    +0.000 A 
ATOM     20  C   UNL     1       5.789  -1.810   0.000  0.00  0.00    +0.000 A 
ENDBRANCH   6  15
BRANCH   7  22
ATOM     21  O   UNL     1       3.416   2.608   0.000  0.00  0.00    +0.000 OA
ATOM     22  C   UNL     1       3.881   1.926   0.000  0.00  0.00    +0.000 C 
BRANCH  22  23
ATOM     23  O   UNL     1       4.704   1.988   0.000  0.00  0.00    +0.000 OA
BRANCH  23  24
ATOM     24  C   UNL     1       5.062   2.731   0.000  0.00  0.00    +0.000 C 
ATOM     25  C   UNL     1       5.885   2.792   0.000  0.00  0.00    +0.000 C 
ENDBRANCH  23  24
ENDBRANCH  22  23
ENDBRANCH   7  22
TORSDOF 4
