REMARK  Name = 1547
REMARK  2 active torsions:
REMARK  status: ('A' for Active; 'I' for Inactive)
REMARK    1  A    between atoms: O_3  and  C_18
REMARK    2  A    between atoms: O_4  and  C_21
REMARK                            x       y       z     vdW  Elec       q    Type
REMARK                         _______ _______ _______ _____ _____    ______ ____
ROOT
ATOM      1  O   UNL     1       6.707   0.995   0.000  0.00  0.00    +0.000 OA
ATOM      2  O   UNL     1       6.002  -1.949   0.000  0.00  0.00    +0.000 OA
ATOM      3  N   UNL     1       5.644   1.400   0.000  0.00  0.00    +0.000 NA
ATOM      4  C   UNL     1       5.278   0.170   0.000  0.00  0.00    +0.000 C 
ATOM      5  C   UNL     1       5.992   0.583   0.000  0.00  0.00    +0.000 C 
ATOM      6  C   UNL     1       5.992   1.407   0.000  0.00  0.00    +0.000 C 
ATOM      7  C   UNL     1       5.265  -0.689   0.000  0.00  0.00    +0.000 C 
ATOM      8  C   UNL     1       5.111   0.475   0.000  0.00  0.00    +0.000 C 
ATOM      9  C   UNL     1       6.743   0.164   0.000  0.00  0.00    +0.000 C 
ATOM     10  C   UNL     1       4.564   0.583   0.000  0.00  0.00    +0.000 A 
ATOM     11  C   UNL     1       5.278   1.820   0.000  0.00  0.00    +0.000 C 
ATOM     12  C   UNL     1       6.005  -1.125   0.000  0.00  0.00    +0.000 C 
ATOM     13  C   UNL     1       5.042   1.132   0.000  0.00  0.00    +0.000 C 
ATOM     14  C   UNL     1       6.750  -0.695   0.000  0.00  0.00    +0.000 C 
ATOM     15  C   UNL     1       4.564   1.407   0.000  0.00  0.00    +0.000 A 
ATOM     16  C   UNL     1       3.826   0.141   0.000  0.00  0.00    +0.000 A 
ATOM     17  C   UNL     1       5.816   2.207   0.000  0.00  0.00    +0.000 C 
ATOM     18  C   UNL     1       3.826   1.849   0.000  0.00  0.00    +0.000 A 
ATOM     19  C   UNL     1       3.079   0.565   0.000  0.00  0.00    +0.000 A 
ATOM     20  C   UNL     1       3.079   1.425   0.000  0.00  0.00    +0.000 A 
ENDROOT
BRANCH  16  21
ATOM     21  O   UNL     1       3.836  -0.683   0.000  0.00  0.00    +0.000 OA
ATOM     22  C   UNL     1       3.126  -1.104   0.000  0.00  0.00    +0.000 C 
ENDBRANCH  16  21
BRANCH  19  23
ATOM     23  O   UNL     1       2.366   0.150   0.000  0.00  0.00    +0.000 OA
ATOM     24  C   UNL     1       1.650   0.560   0.000  0.00  0.00    +0.000 C 
ENDBRANCH  19  23
TORSDOF 2
