REMARK  Name = 1548992
REMARK  7 active torsions:
REMARK  status: ('A' for Active; 'I' for Inactive)
REMARK    1  A    between atoms: S_1  and  C_8
REMARK    2  A    between atoms: S_1  and  C_9
REMARK    3  A    between atoms: N_4  and  C_11
REMARK    4  A    between atoms: N_4  and  C_14
REMARK    5  A    between atoms: N_6  and  C_14
REMARK    6  A    between atoms: C_7  and  C_8
REMARK    7  A    between atoms: C_9  and  C_11
REMARK                            x       y       z     vdW  Elec       q    Type
REMARK                         _______ _______ _______ _____ _____    ______ ____
ROOT
ATOM      1  S   UNL     1       2.880  -0.531   0.000  0.00  0.00    +0.000 S 
ENDROOT
BRANCH   1   2
ATOM      2  C   UNL     1       3.215  -1.284   0.000  0.00  0.00    +0.000 C 
BRANCH   2   5
ATOM      3  N   UNL     1       2.318  -3.221   0.000  0.00  0.00    +0.000 NA
ATOM      4  N   UNL     1       1.905  -1.952   0.000  0.00  0.00    +0.000 NA
ATOM      5  C   UNL     1       2.730  -1.952   0.000  0.00  0.00    +0.000 A 
ATOM      6  C   UNL     1       2.985  -2.736   0.000  0.00  0.00    +0.000 A 
ATOM      7  C   UNL     1       3.770  -2.991   0.000  0.00  0.00    +0.000 C 
ATOM      8  C   UNL     1       1.650  -2.736   0.000  0.00  0.00    +0.000 A 
ENDBRANCH   2   5
ENDBRANCH   1   2
BRANCH   1   9
ATOM      9  C   UNL     1       3.364   0.137   0.000  0.00  0.00    +0.000 C 
BRANCH   9  10
ATOM     10  C   UNL     1       3.029   0.891   0.000  0.00  0.00    +0.000 C 
BRANCH  10  11
ATOM     11  N   UNL     1       3.514   1.558   0.000  0.00  0.00    +0.000 NA
BRANCH  11  13
ATOM     12  S   UNL     1       2.358   2.398   0.000  0.00  0.00    +0.000 S 
ATOM     13  C   UNL     1       3.178   2.312   0.000  0.00  0.00    +0.000 C 
BRANCH  13  14
ATOM     14  N   UNL     1       3.663   2.979   0.000  0.00  0.00    +0.000 NA
ATOM     15  C   UNL     1       3.328   3.733   0.000  0.00  0.00    +0.000 C 
ENDBRANCH  13  14
ENDBRANCH  11  13
ENDBRANCH  10  11
ENDBRANCH   9  10
ENDBRANCH   1   9
TORSDOF 7
