REMARK  Name = 1550
REMARK  6 active torsions:
REMARK  status: ('A' for Active; 'I' for Inactive)
REMARK    1  A    between atoms: N_1  and  C_3
REMARK    2  A    between atoms: N_1  and  C_7
REMARK    3  A    between atoms: C_3  and  C_4
REMARK    4  A    between atoms: C_4  and  C_5
REMARK    5  A    between atoms: C_7  and  C_10
REMARK    6  A    between atoms: C_10  and  C_14
REMARK                            x       y       z     vdW  Elec       q    Type
REMARK                         _______ _______ _______ _____ _____    ______ ____
ROOT
ATOM      1  C   UNL     1       3.079   0.000   0.000  0.00  0.00    +0.000 C 
ATOM      2  C   UNL     1       3.793  -0.412   0.000  0.00  0.00    +0.000 C 
ENDROOT
BRANCH   1   3
ATOM      3  C   UNL     1       2.364  -0.412   0.000  0.00  0.00    +0.000 C 
BRANCH   3   4
ATOM      4  C   UNL     1       2.364  -1.237   0.000  0.00  0.00    +0.000 A 
ATOM      5  C   UNL     1       3.079  -1.650   0.000  0.00  0.00    +0.000 A 
ATOM      6  C   UNL     1       1.650  -1.650   0.000  0.00  0.00    +0.000 A 
ATOM      7  C   UNL     1       3.079  -2.475   0.000  0.00  0.00    +0.000 A 
ATOM      8  C   UNL     1       1.650  -2.475   0.000  0.00  0.00    +0.000 A 
ATOM      9  C   UNL     1       2.364  -2.887   0.000  0.00  0.00    +0.000 A 
ENDBRANCH   3   4
ENDBRANCH   1   3
BRANCH   1  10
ATOM     10  N   UNL     1       3.079   0.825   0.000  0.00  0.00    +0.000 NA
BRANCH  10  11
ATOM     11  C   UNL     1       3.793   1.237   0.000  0.00  0.00    +0.000 C 
BRANCH  11  12
ATOM     12  C   UNL     1       3.793   2.062   0.000  0.00  0.00    +0.000 C 
BRANCH  12  14
ATOM     13  N   UNL     1       5.222   2.887   0.000  0.00  0.00    +0.000 NA
ATOM     14  C   UNL     1       4.508   2.475   0.000  0.00  0.00    +0.000 C 
ENDBRANCH  12  14
ENDBRANCH  11  12
ENDBRANCH  10  11
ENDBRANCH   1  10
TORSDOF 6
