REMARK  Name = 1558
REMARK  1 active torsions:
REMARK  status: ('A' for Active; 'I' for Inactive)
REMARK    1  A    between atoms: C_8  and  C_11
REMARK                            x       y       z     vdW  Elec       q    Type
REMARK                         _______ _______ _______ _____ _____    ______ ____
ROOT
ATOM      1 BR   UNL     1       2.547  -2.359   0.000  0.00  0.00    +0.000 Br
ATOM      2  O   UNL     1       2.340   2.359   0.000  0.00  0.00    +0.000 OA
ATOM      3  N   UNL     1       2.184   0.971   0.000  0.00  0.00    +0.000 NA
ATOM      4  N   UNL     1       4.037   0.971   0.000  0.00  0.00    +0.000 NA
ATOM      5  C   UNL     1       3.111  -0.191   0.000  0.00  0.00    +0.000 A 
ATOM      6  C   UNL     1       2.367   0.167   0.000  0.00  0.00    +0.000 A 
ATOM      7  C   UNL     1       3.854   0.167   0.000  0.00  0.00    +0.000 C 
ATOM      8  C   UNL     1       3.188  -1.047   0.000  0.00  0.00    +0.000 A 
ATOM      9  C   UNL     1       3.523   1.616   0.000  0.00  0.00    +0.000 C 
ATOM     10  C   UNL     1       1.650  -0.306   0.000  0.00  0.00    +0.000 A 
ATOM     11  C   UNL     1       2.698   1.616   0.000  0.00  0.00    +0.000 C 
ATOM     12  C   UNL     1       2.482  -1.537   0.000  0.00  0.00    +0.000 A 
ATOM     13  C   UNL     1       1.708  -1.164   0.000  0.00  0.00    +0.000 A 
ENDROOT
BRANCH   7  15
ATOM     14  N   UNL     1       5.267  -0.046   0.000  0.00  0.00    +0.000 NA
ATOM     15  C   UNL     1       4.499  -0.348   0.000  0.00  0.00    +0.000 A 
ATOM     16  C   UNL     1       4.376  -1.164   0.000  0.00  0.00    +0.000 A 
ATOM     17  C   UNL     1       5.021  -1.678   0.000  0.00  0.00    +0.000 A 
ATOM     18  C   UNL     1       5.912  -0.561   0.000  0.00  0.00    +0.000 A 
ATOM     19  C   UNL     1       5.789  -1.377   0.000  0.00  0.00    +0.000 A 
ENDBRANCH   7  15
TORSDOF 1
