REMARK  Name = 1559
REMARK  2 active torsions:
REMARK  status: ('A' for Active; 'I' for Inactive)
REMARK    1  A    between atoms: C_8  and  C_14
REMARK    2  A    between atoms: C_9  and  C_11
REMARK                            x       y       z     vdW  Elec       q    Type
REMARK                         _______ _______ _______ _____ _____    ______ ____
ROOT
ATOM      1  S   UNL     1       4.391  -1.463   0.000  0.00  0.00    +0.000 S 
ATOM      2  O   UNL     1       1.650  -2.201   0.000  0.00  0.00    +0.000 OA
ATOM      3  N   UNL     1       2.966  -1.733   0.000  0.00  0.00    +0.000 N 
ATOM      4  N   UNL     1       2.154  -0.067   0.000  0.00  0.00    +0.000 NA
ATOM      5  C   UNL     1       3.605  -0.390   0.000  0.00  0.00    +0.000 A 
ATOM      6  C   UNL     1       3.609  -1.215   0.000  0.00  0.00    +0.000 A 
ATOM      7  C   UNL     1       2.957   0.121   0.000  0.00  0.00    +0.000 C 
ATOM      8  C   UNL     1       4.869  -0.797   0.000  0.00  0.00    +0.000 A 
ATOM      9  C   UNL     1       4.384  -0.135   0.000  0.00  0.00    +0.000 A 
ATOM     10  C   UNL     1       1.800  -0.812   0.000  0.00  0.00    +0.000 C 
ATOM     11  C   UNL     1       2.161  -1.554   0.000  0.00  0.00    +0.000 C 
ATOM     12  C   UNL     1       3.154  -2.536   0.000  0.00  0.00    +0.000 C 
ENDROOT
BRANCH   7  14
ATOM     13 CL   UNL     1       4.532   0.615   0.000  0.00  0.00    +0.000 Cl
ATOM     14  C   UNL     1       3.137   0.926   0.000  0.00  0.00    +0.000 A 
ATOM     15  C   UNL     1       3.924   1.173   0.000  0.00  0.00    +0.000 A 
ATOM     16  C   UNL     1       2.529   1.484   0.000  0.00  0.00    +0.000 A 
ATOM     17  C   UNL     1       4.104   1.978   0.000  0.00  0.00    +0.000 A 
ATOM     18  C   UNL     1       2.709   2.289   0.000  0.00  0.00    +0.000 A 
ATOM     19  C   UNL     1       3.496   2.536   0.000  0.00  0.00    +0.000 A 
ENDBRANCH   7  14
BRANCH   8  20
ATOM     20  C   UNL     1       5.694  -0.792   0.000  0.00  0.00    +0.000 C 
ATOM     21  C   UNL     1       6.110  -1.505   0.000  0.00  0.00    +0.000 C 
ENDBRANCH   8  20
TORSDOF 2
