REMARK  Name = 1560
REMARK  2 active torsions:
REMARK  status: ('A' for Active; 'I' for Inactive)
REMARK    1  A    between atoms: C_3  and  C_4
REMARK    2  A    between atoms: C_4  and  C_5
REMARK                            x       y       z     vdW  Elec       q    Type
REMARK                         _______ _______ _______ _____ _____    ______ ____
ROOT
ATOM      1  C   UNL     1       2.364  -0.334   0.000  0.00  0.00    +0.000 A 
ATOM      2  C   UNL     1       3.079  -0.747   0.000  0.00  0.00    +0.000 A 
ATOM      3  C   UNL     1       1.650  -0.747   0.000  0.00  0.00    +0.000 A 
ATOM      4  C   UNL     1       3.079  -1.572   0.000  0.00  0.00    +0.000 A 
ATOM      5  C   UNL     1       1.650  -1.572   0.000  0.00  0.00    +0.000 A 
ATOM      6  C   UNL     1       2.364  -1.984   0.000  0.00  0.00    +0.000 A 
ENDROOT
BRANCH   1   8
ATOM      7  O   UNL     1       1.650   0.903   0.000  0.00  0.00    +0.000 OA
ATOM      8  C   UNL     1       2.364   0.491   0.000  0.00  0.00    +0.000 C 
BRANCH   8  10
ATOM      9  N   UNL     1       3.079   1.728   0.000  0.00  0.00    +0.000 NA
ATOM     10  C   UNL     1       3.079   0.903   0.000  0.00  0.00    +0.000 C 
ATOM     11  C   UNL     1       3.793   0.491   0.000  0.00  0.00    +0.000 C 
ENDBRANCH   8  10
ENDBRANCH   1   8
TORSDOF 2
