REMARK  Name = 1561
REMARK  0 active torsions:
REMARK  status: ('A' for Active; 'I' for Inactive)
REMARK                            x       y       z     vdW  Elec       q    Type
REMARK                         _______ _______ _______ _____ _____    ______ ____
ROOT
ATOM      1  O   UNL     1       7.135   1.796   0.000  0.00  0.00    +0.000 OA
ATOM      2  O   UNL     1       1.650  -1.758   0.000  0.00  0.00    +0.000 OA
ATOM      3  C   UNL     1       4.670  -0.065   0.000  0.00  0.00    +0.000 C 
ATOM      4  C   UNL     1       5.384  -0.477   0.000  0.00  0.00    +0.000 C 
ATOM      5  C   UNL     1       3.919  -0.483   0.000  0.00  0.00    +0.000 C 
ATOM      6  C   UNL     1       6.098  -0.065   0.000  0.00  0.00    +0.000 C 
ATOM      7  C   UNL     1       6.098   0.760   0.000  0.00  0.00    +0.000 C 
ATOM      8  C   UNL     1       3.913  -1.342   0.000  0.00  0.00    +0.000 C 
ATOM      9  C   UNL     1       4.670   0.760   0.000  0.00  0.00    +0.000 C 
ATOM     10  C   UNL     1       5.397  -1.336   0.000  0.00  0.00    +0.000 C 
ATOM     11  C   UNL     1       5.384   1.173   0.000  0.00  0.00    +0.000 C 
ATOM     12  C   UNL     1       4.657  -1.772   0.000  0.00  0.00    +0.000 C 
ATOM     13  C   UNL     1       6.879  -0.316   0.000  0.00  0.00    +0.000 C 
ATOM     14  C   UNL     1       3.155  -0.018   0.000  0.00  0.00    +0.000 C 
ATOM     15  C   UNL     1       6.879   1.012   0.000  0.00  0.00    +0.000 C 
ATOM     16  C   UNL     1       3.925   0.342   0.000  0.00  0.00    +0.000 C 
ATOM     17  C   UNL     1       3.141  -1.796   0.000  0.00  0.00    +0.000 C 
ATOM     18  C   UNL     1       7.360   0.348   0.000  0.00  0.00    +0.000 C 
ATOM     19  C   UNL     1       6.098   1.585   0.000  0.00  0.00    +0.000 C 
ATOM     20  C   UNL     1       2.373  -0.453   0.000  0.00  0.00    +0.000 C 
ATOM     21  C   UNL     1       2.366  -1.348   0.000  0.00  0.00    +0.000 C 
ENDROOT
TORSDOF 0
