REMARK  Name = 1563
REMARK  1 active torsions:
REMARK  status: ('A' for Active; 'I' for Inactive)
REMARK    1  A    between atoms: C_6  and  C_7
REMARK                            x       y       z     vdW  Elec       q    Type
REMARK                         _______ _______ _______ _____ _____    ______ ____
ROOT
ATOM      1 CL   UNL     1       1.650  -0.802   0.000  0.00  0.00    +0.000 Cl
ATOM      2 CL   UNL     1       1.952   0.325   0.000  0.00  0.00    +0.000 Cl
ATOM      3 CL   UNL     1       2.777  -1.104   0.000  0.00  0.00    +0.000 Cl
ATOM      4  C   UNL     1       2.365  -0.389   0.000  0.00  0.00    +0.000 C 
ENDROOT
BRANCH   4   7
ATOM      5  O   UNL     1       3.793  -0.389   0.000  0.00  0.00    +0.000 OA
ATOM      6  O   UNL     1       3.079   0.848   0.000  0.00  0.00    +0.000 OA
ATOM      7  C   UNL     1       3.079   0.023   0.000  0.00  0.00    +0.000 C 
ENDBRANCH   4   7
TORSDOF 1
