REMARK  Name = 1568
REMARK  1 active torsions:
REMARK  status: ('A' for Active; 'I' for Inactive)
REMARK    1  A    between atoms: O_4  and  C_21
REMARK                            x       y       z     vdW  Elec       q    Type
REMARK                         _______ _______ _______ _____ _____    ______ ____
ROOT
ATOM      1  O   UNL     1       1.936  -0.119   0.000  0.00  0.00    +0.000 OA
ATOM      2  O   UNL     1       5.538  -1.835   0.000  0.00  0.00    +0.000 OA
ATOM      3  O   UNL     1       1.735  -2.249   0.000  0.00  0.00    +0.000 OA
ATOM      4  N   UNL     1       5.344  -0.990   0.000  0.00  0.00    +0.000 N 
ATOM      5  C   UNL     1       3.201  -0.577   0.000  0.00  0.00    +0.000 C 
ATOM      6  C   UNL     1       3.915  -0.990   0.000  0.00  0.00    +0.000 C 
ATOM      7  C   UNL     1       4.630  -0.577   0.000  0.00  0.00    +0.000 C 
ATOM      8  C   UNL     1       2.486  -0.990   0.000  0.00  0.00    +0.000 C 
ATOM      9  C   UNL     1       3.677   0.028   0.000  0.00  0.00    +0.000 C 
ATOM     10  C   UNL     1       3.201   0.248   0.000  0.00  0.00    +0.000 A 
ATOM     11  C   UNL     1       4.851   0.028   0.000  0.00  0.00    +0.000 C 
ATOM     12  C   UNL     1       4.630   0.248   0.000  0.00  0.00    +0.000 C 
ATOM     13  C   UNL     1       3.915   0.660   0.000  0.00  0.00    +0.000 A 
ATOM     14  C   UNL     1       2.486  -1.815   0.000  0.00  0.00    +0.000 C 
ATOM     15  C   UNL     1       3.915  -1.815   0.000  0.00  0.00    +0.000 C 
ATOM     16  C   UNL     1       2.486   0.660   0.000  0.00  0.00    +0.000 A 
ATOM     17  C   UNL     1       3.201  -2.227   0.000  0.00  0.00    +0.000 C 
ATOM     18  C   UNL     1       6.173  -1.244   0.000  0.00  0.00    +0.000 C 
ATOM     19  C   UNL     1       3.915   1.485   0.000  0.00  0.00    +0.000 A 
ATOM     20  C   UNL     1       2.486   1.485   0.000  0.00  0.00    +0.000 A 
ATOM     21  C   UNL     1       3.201   1.898   0.000  0.00  0.00    +0.000 A 
ENDROOT
BRANCH  20  22
ATOM     22  O   UNL     1       1.735   1.919   0.000  0.00  0.00    +0.000 OA
ATOM     23  C   UNL     1       1.735   2.786   0.000  0.00  0.00    +0.000 C 
ENDBRANCH  20  22
TORSDOF 1
