REMARK  Name = 1569
REMARK  1 active torsions:
REMARK  status: ('A' for Active; 'I' for Inactive)
REMARK    1  A    between atoms: C_10  and  C_16
REMARK                            x       y       z     vdW  Elec       q    Type
REMARK                         _______ _______ _______ _____ _____    ______ ____
ROOT
ATOM      1  C   UNL     1      -0.356   0.205   0.000  0.00  0.00    +0.000 C 
ATOM      2  C   UNL     1      -0.356  -0.620   0.000  0.00  0.00    +0.000 C 
ATOM      3  C   UNL     1       0.358  -0.205   0.000  0.00  0.00    +0.000 C 
ATOM      4  C   UNL     1      -0.356  -1.452   0.000  0.00  0.00    +0.000 C 
ATOM      5  C   UNL     1      -1.069  -0.205   0.000  0.00  0.00    +0.000 C 
ATOM      6  C   UNL     1       1.071  -0.620   0.000  0.00  0.00    +0.000 C 
ATOM      7  C   UNL     1       0.358   0.626   0.000  0.00  0.00    +0.000 C 
ATOM      8  C   UNL     1       0.358  -1.867   0.000  0.00  0.00    +0.000 C 
ATOM      9  C   UNL     1      -1.069  -1.867   0.000  0.00  0.00    +0.000 C 
ATOM     10  C   UNL     1      -1.781  -0.620   0.000  0.00  0.00    +0.000 C 
ATOM     11  C   UNL     1       1.783  -0.205   0.000  0.00  0.00    +0.000 C 
ATOM     12  C   UNL     1       1.071  -1.452   0.000  0.00  0.00    +0.000 C 
ATOM     13  O   UNL     1      -0.358   1.040   0.000  0.00  0.00    +0.000 OA
ATOM     14  C   UNL     1       1.071   1.042   0.000  0.00  0.00    +0.000 C 
ATOM     15  C   UNL     1      -1.781  -1.452   0.000  0.00  0.00    +0.000 C 
ATOM     16  C   UNL     1       1.783   0.626   0.000  0.00  0.00    +0.000 C 
ATOM     17  C   UNL     1       3.208  -0.205   0.000  0.00  0.00    +0.000 C 
ATOM     18  O   UNL     1      -2.496  -1.865   0.000  0.00  0.00    +0.000 OA
ATOM     19  C   UNL     1       1.783   1.452   0.000  0.00  0.00    +0.000 C 
ATOM     20  C   UNL     1       2.496   1.042   0.000  0.00  0.00    +0.000 C 
ATOM     21  C   UNL     1       3.208   0.626   0.000  0.00  0.00    +0.000 C 
ATOM     22  C   UNL     1       3.210   1.456   0.000  0.00  0.00    +0.000 C 
ATOM     23  O   UNL     1       2.496   1.867   0.000  0.00  0.00    +0.000 OA
ENDROOT
BRANCH  10  24
ATOM     24  C   UNL     1      -2.496  -0.209   0.000  0.00  0.00    +0.000 C 
ATOM     25  O   UNL     1      -3.210  -0.620   0.000  0.00  0.00    +0.000 OA
ENDBRANCH  10  24
TORSDOF 1
