REMARK  Name = 157
REMARK  7 active torsions:
REMARK  status: ('A' for Active; 'I' for Inactive)
REMARK    1  A    between atoms: C_1  and  C_2
REMARK    2  A    between atoms: C_1  and  C_15
REMARK    3  A    between atoms: C_2  and  C_3
REMARK    4  A    between atoms: C_3  and  C_4
REMARK    5  A    between atoms: C_4  and  C_5
REMARK    6  A    between atoms: C_10  and  C_15
REMARK    7  A    between atoms: C_15  and  C_16
REMARK                            x       y       z     vdW  Elec       q    Type
REMARK                         _______ _______ _______ _____ _____    ______ ____
ROOT
ATOM      1  C   UNL     1       0.860  -0.137   0.000  0.00  0.00    +0.000 C 
ENDROOT
BRANCH   1   3
ATOM      2  O   UNL     1       2.648  -0.290   0.000  0.00  0.00    +0.000 OA
ATOM      3  C   UNL     1       1.400   0.486   0.000  0.00  0.00    +0.000 C 
ATOM      4  C   UNL     1       1.919   1.716   0.000  0.00  0.00    +0.000 C 
ATOM      5  C   UNL     1       1.213   1.290   0.000  0.00  0.00    +0.000 C 
ATOM      6  C   UNL     1       2.222   0.416   0.000  0.00  0.00    +0.000 C 
ATOM      7  C   UNL     1       2.543   1.176   0.000  0.00  0.00    +0.000 C 
ENDBRANCH   1   3
BRANCH   1   9
ATOM      8  O   UNL     1       0.590  -1.540   0.000  0.00  0.00    +0.000 OA
ATOM      9  C   UNL     1       1.130  -0.917   0.000  0.00  0.00    +0.000 C 
ENDBRANCH   1   9
BRANCH   1  10
ATOM     10  C   UNL     1       0.049   0.019   0.000  0.00  0.00    +0.000 C 
BRANCH  10  11
ATOM     11  C   UNL     1      -0.491  -0.605   0.000  0.00  0.00    +0.000 C 
BRANCH  11  12
ATOM     12  C   UNL     1      -1.301  -0.449   0.000  0.00  0.00    +0.000 C 
BRANCH  12  13
ATOM     13  C   UNL     1      -1.841  -1.073   0.000  0.00  0.00    +0.000 C 
BRANCH  13  14
ATOM     14  C   UNL     1      -2.651  -0.917   0.000  0.00  0.00    +0.000 C 
ATOM     15  N   UNL     1      -3.191  -1.540   0.000  0.00  0.00    +0.000 NA
ATOM     16  N   UNL     1      -2.921  -0.137   0.000  0.00  0.00    +0.000 NA
ENDBRANCH  13  14
ENDBRANCH  12  13
ENDBRANCH  11  12
ENDBRANCH  10  11
ENDBRANCH   1  10
TORSDOF 7
