REMARK  Name = 1570
REMARK  6 active torsions:
REMARK  status: ('A' for Active; 'I' for Inactive)
REMARK    1  A    between atoms: N_3  and  C_11
REMARK    2  A    between atoms: N_4  and  C_5
REMARK    3  A    between atoms: N_4  and  C_13
REMARK    4  A    between atoms: C_11  and  C_12
REMARK    5  A    between atoms: C_12  and  C_15
REMARK    6  A    between atoms: C_14  and  C_16
REMARK                            x       y       z     vdW  Elec       q    Type
REMARK                         _______ _______ _______ _____ _____    ______ ____
ROOT
ATOM      1  N   UNL     1       3.522  -0.206   0.000  0.00  0.00    +0.000 NA
ATOM      2  C   UNL     1       3.522   1.444   0.000  0.00  0.00    +0.000 C 
ATOM      3  C   UNL     1       2.808   1.031   0.000  0.00  0.00    +0.000 C 
ATOM      4  C   UNL     1       4.237   1.031   0.000  0.00  0.00    +0.000 C 
ATOM      5  C   UNL     1       2.808   0.206   0.000  0.00  0.00    +0.000 C 
ATOM      6  C   UNL     1       4.237   0.206   0.000  0.00  0.00    +0.000 C 
ATOM      7  C   UNL     1       2.093   1.444   0.000  0.00  0.00    +0.000 C 
ENDROOT
BRANCH   2   9
ATOM      8  O   UNL     1       2.093   2.269   0.000  0.00  0.00    +0.000 OA
ATOM      9  N   UNL     1       3.522   2.269   0.000  0.00  0.00    +0.000 N 
ATOM     10  C   UNL     1       2.808   2.681   0.000  0.00  0.00    +0.000 C 
BRANCH   9  11
ATOM     11  C   UNL     1       4.237   2.681   0.000  0.00  0.00    +0.000 A 
ATOM     12  C   UNL     1       4.237   3.506   0.000  0.00  0.00    +0.000 A 
ATOM     13  C   UNL     1       4.951   2.269   0.000  0.00  0.00    +0.000 A 
ATOM     14  C   UNL     1       4.951   3.919   0.000  0.00  0.00    +0.000 A 
ATOM     15  C   UNL     1       5.665   2.681   0.000  0.00  0.00    +0.000 A 
ATOM     16  C   UNL     1       5.665   3.506   0.000  0.00  0.00    +0.000 A 
ENDBRANCH   9  11
BRANCH  10  17
ATOM     17  C   UNL     1       2.808   3.506   0.000  0.00  0.00    +0.000 C 
ATOM     18  C   UNL     1       2.093   3.919   0.000  0.00  0.00    +0.000 C 
ENDBRANCH  10  17
ENDBRANCH   2   9
BRANCH   1  19
ATOM     19  C   UNL     1       3.522  -1.031   0.000  0.00  0.00    +0.000 C 
BRANCH  19  21
ATOM     20  O   UNL     1       2.093  -1.031   0.000  0.00  0.00    +0.000 OA
ATOM     21  C   UNL     1       2.808  -1.444   0.000  0.00  0.00    +0.000 C 
BRANCH  21  22
ATOM     22  C   UNL     1       2.808  -2.269   0.000  0.00  0.00    +0.000 A 
ATOM     23  C   UNL     1       3.522  -2.681   0.000  0.00  0.00    +0.000 A 
ATOM     24  C   UNL     1       2.093  -2.681   0.000  0.00  0.00    +0.000 A 
ATOM     25  C   UNL     1       3.522  -3.506   0.000  0.00  0.00    +0.000 A 
ATOM     26  C   UNL     1       2.093  -3.506   0.000  0.00  0.00    +0.000 A 
ATOM     27  C   UNL     1       2.808  -3.919   0.000  0.00  0.00    +0.000 A 
ENDBRANCH  21  22
ENDBRANCH  19  21
ENDBRANCH   1  19
TORSDOF 6
