REMARK  Name = 1573
REMARK  3 active torsions:
REMARK  status: ('A' for Active; 'I' for Inactive)
REMARK    1  A    between atoms: O_3  and  C_20
REMARK    2  A    between atoms: O_3  and  C_22
REMARK    3  A    between atoms: C_22  and  C_23
REMARK                            x       y       z     vdW  Elec       q    Type
REMARK                         _______ _______ _______ _____ _____    ______ ____
ROOT
ATOM      1  O   UNL     1       4.189  -0.986   0.000  0.00  0.00    +0.000 OA
ATOM      2  O   UNL     1       3.989  -3.116   0.000  0.00  0.00    +0.000 OA
ATOM      3  N   UNL     1       7.597  -1.857   0.000  0.00  0.00    +0.000 NA
ATOM      4  C   UNL     1       5.454  -1.445   0.000  0.00  0.00    +0.000 C 
ATOM      5  C   UNL     1       6.168  -1.857   0.000  0.00  0.00    +0.000 C 
ATOM      6  C   UNL     1       6.883  -1.445   0.000  0.00  0.00    +0.000 C 
ATOM      7  C   UNL     1       4.740  -1.857   0.000  0.00  0.00    +0.000 C 
ATOM      8  C   UNL     1       5.931  -0.840   0.000  0.00  0.00    +0.000 C 
ATOM      9  C   UNL     1       5.454  -0.620   0.000  0.00  0.00    +0.000 A 
ATOM     10  C   UNL     1       6.883  -0.620   0.000  0.00  0.00    +0.000 C 
ATOM     11  C   UNL     1       7.104  -0.840   0.000  0.00  0.00    +0.000 C 
ATOM     12  C   UNL     1       6.168  -0.207   0.000  0.00  0.00    +0.000 A 
ATOM     13  C   UNL     1       4.740  -2.682   0.000  0.00  0.00    +0.000 C 
ATOM     14  C   UNL     1       6.168  -2.682   0.000  0.00  0.00    +0.000 C 
ATOM     15  C   UNL     1       4.740  -0.207   0.000  0.00  0.00    +0.000 A 
ATOM     16  C   UNL     1       5.454  -3.095   0.000  0.00  0.00    +0.000 C 
ATOM     17  C   UNL     1       6.168   0.618   0.000  0.00  0.00    +0.000 A 
ATOM     18  C   UNL     1       8.188  -2.492   0.000  0.00  0.00    +0.000 C 
ATOM     19  C   UNL     1       4.740   0.618   0.000  0.00  0.00    +0.000 A 
ATOM     20  C   UNL     1       5.454   1.030   0.000  0.00  0.00    +0.000 A 
ENDROOT
BRANCH  19  21
ATOM     21  O   UNL     1       3.989   1.051   0.000  0.00  0.00    +0.000 OA
BRANCH  21  22
ATOM     22  C   UNL     1       3.989   1.919   0.000  0.00  0.00    +0.000 C 
BRANCH  22  23
ATOM     23  C   UNL     1       3.237   2.353   0.000  0.00  0.00    +0.000 A 
ATOM     24  C   UNL     1       2.486   1.919   0.000  0.00  0.00    +0.000 A 
ATOM     25  C   UNL     1       3.237   3.220   0.000  0.00  0.00    +0.000 A 
ATOM     26  C   UNL     1       1.735   2.353   0.000  0.00  0.00    +0.000 A 
ATOM     27  C   UNL     1       2.486   3.654   0.000  0.00  0.00    +0.000 A 
ATOM     28  C   UNL     1       1.735   3.220   0.000  0.00  0.00    +0.000 A 
ENDBRANCH  22  23
ENDBRANCH  21  22
ENDBRANCH  19  21
TORSDOF 3
