REMARK  Name = 158
REMARK  9 active torsions:
REMARK  status: ('A' for Active; 'I' for Inactive)
REMARK    1  A    between atoms: N_7  and  CA_14
REMARK    2  A    between atoms: N_8  and  C_20
REMARK    3  A    between atoms: N_8  and  C_21
REMARK    4  A    between atoms: CA_14  and  CB_15
REMARK    5  A    between atoms: CA_14  and  C_19
REMARK    6  A    between atoms: CB_15  and  CG_16
REMARK    7  A    between atoms: CG_16  and  CD_27
REMARK    8  A    between atoms: C_17  and  C_18
REMARK    9  A    between atoms: C_21  and  C_26
REMARK                            x       y       z     vdW  Elec       q    Type
REMARK                         _______ _______ _______ _____ _____    ______ ____
ROOT
ATOM      1  C   UNK A   0       9.289  -0.198   0.000  0.00  0.00    +0.000 A 
ATOM      2  C   UNK A   0       7.863  -1.028   0.000  0.00  0.00    +0.000 A 
ATOM      3  C   UNK A   0       9.292  -1.023   0.000  0.00  0.00    +0.000 A 
ATOM      4  C   UNK A   0       8.573   0.212   0.000  0.00  0.00    +0.000 A 
ATOM      5  C   UNK A   0       8.579  -1.438   0.000  0.00  0.00    +0.000 A 
ATOM      6  C   UNK A   0       7.860  -0.203   0.000  0.00  0.00    +0.000 A 
ENDROOT
BRANCH   1   9
ATOM      7  O   UNK A   0       9.999   1.043   0.000  0.00  0.00    +0.000 OA
ATOM      8  N   GLU A   1      10.718  -0.192   0.000  0.00  0.00    +0.000 NA
ATOM      9  C   UNK A   0      10.002   0.218   0.000  0.00  0.00    +0.000 C 
BRANCH   8  10
ATOM     10  CA  GLU A   1      11.431   0.223   0.000  0.00  0.00    +0.000 C 
BRANCH  10  13
ATOM     11  O   GLU A   1      12.860   0.229   0.000  0.00  0.00    +0.000 OA
ATOM     12  OXT GLU A   1      12.150  -1.012   0.000  0.00  0.00    +0.000 OA
ATOM     13  C   GLU A   1      12.147  -0.187   0.000  0.00  0.00    +0.000 C 
ENDBRANCH  10  13
BRANCH  10  14
ATOM     14  CB  GLU A   1      11.428   1.048   0.000  0.00  0.00    +0.000 C 
BRANCH  14  15
ATOM     15  CG  GLU A   1      12.141   1.463   0.000  0.00  0.00    +0.000 C 
BRANCH  15  18
ATOM     16  OE1 GLU A   1      12.850   2.704   0.000  0.00  0.00    +0.000 OA
ATOM     17  OE2 GLU A   1      11.421   2.698   0.000  0.00  0.00    +0.000 OA
ATOM     18  CD  GLU A   1      12.137   2.288   0.000  0.00  0.00    +0.000 C 
ENDBRANCH  15  18
ENDBRANCH  14  15
ENDBRANCH  10  14
ENDBRANCH   8  10
ENDBRANCH   1   9
BRANCH   2  19
ATOM     19  N   UNK A   0       7.150  -1.443   0.000  0.00  0.00    +0.000 NA
BRANCH  19  20
ATOM     20  C   UNK A   0       6.434  -1.034   0.000  0.00  0.00    +0.000 C 
BRANCH  20  27
ATOM     21  O   UNK A   0       3.522  -0.229   0.000  0.00  0.00    +0.000 OA
ATOM     22  N   UNK A   0       4.974  -1.025   0.000  0.00  0.00    +0.000 NA
ATOM     23  N   UNK A   0       3.522  -2.704   0.000  0.00  0.00    +0.000 NA
ATOM     24  N   UNK A   0       4.974  -2.732   0.000  0.00  0.00    +0.000 NA
ATOM     25  N   UNK A   0       2.808  -1.466   0.000  0.00  0.00    +0.000 NA
ATOM     26  N   UNK A   0       2.093  -2.704   0.000  0.00  0.00    +0.000 NA
ATOM     27  C   UNK A   0       5.721  -1.449   0.000  0.00  0.00    +0.000 A 
ATOM     28  C   UNK A   0       4.236  -1.466   0.000  0.00  0.00    +0.000 A 
ATOM     29  C   UNK A   0       4.236  -2.291   0.000  0.00  0.00    +0.000 A 
ATOM     30  C   UNK A   0       5.721  -2.308   0.000  0.00  0.00    +0.000 A 
ATOM     31  C   UNK A   0       3.522  -1.054   0.000  0.00  0.00    +0.000 A 
ATOM     32  C   UNK A   0       2.808  -2.291   0.000  0.00  0.00    +0.000 A 
ENDBRANCH  20  27
ENDBRANCH  19  20
ENDBRANCH   2  19
TORSDOF 9
