REMARK  Name = 1580
REMARK  9 active torsions:
REMARK  status: ('A' for Active; 'I' for Inactive)
REMARK    1  A    between atoms: O_1  and  C_8
REMARK    2  A    between atoms: O_1  and  C_11
REMARK    3  A    between atoms: O_3  and  C_12
REMARK    4  A    between atoms: O_3  and  C_17
REMARK    5  A    between atoms: N_4  and  C_5
REMARK    6  A    between atoms: N_4  and  C_7
REMARK    7  A    between atoms: C_5  and  C_6
REMARK    8  A    between atoms: C_6  and  C_8
REMARK    9  A    between atoms: C_17  and  C_18
REMARK                            x       y       z     vdW  Elec       q    Type
REMARK                         _______ _______ _______ _____ _____    ______ ____
ROOT
ATOM      1  C   UNL     1       5.222  -1.444   0.000  0.00  0.00    +0.000 A 
ATOM      2  C   UNL     1       4.508  -1.856   0.000  0.00  0.00    +0.000 A 
ATOM      3  C   UNL     1       5.937  -1.856   0.000  0.00  0.00    +0.000 A 
ATOM      4  C   UNL     1       4.508  -2.681   0.000  0.00  0.00    +0.000 A 
ATOM      5  C   UNL     1       5.937  -2.681   0.000  0.00  0.00    +0.000 A 
ATOM      6  C   UNL     1       5.222  -3.094   0.000  0.00  0.00    +0.000 A 
ENDROOT
BRANCH   2   7
ATOM      7  O   UNL     1       3.793  -1.444   0.000  0.00  0.00    +0.000 OA
BRANCH   7   8
ATOM      8  C   UNL     1       3.079  -1.856   0.000  0.00  0.00    +0.000 C 
BRANCH   8   9
ATOM      9  C   UNL     1       2.365  -1.444   0.000  0.00  0.00    +0.000 C 
ATOM     10  C   UNL     1       1.650  -1.856   0.000  0.00  0.00    +0.000 C 
ENDBRANCH   8   9
ENDBRANCH   7   8
ENDBRANCH   2   7
BRANCH   1  11
ATOM     11  O   UNL     1       5.222  -0.619   0.000  0.00  0.00    +0.000 OA
BRANCH  11  12
ATOM     12  C   UNL     1       5.937  -0.206   0.000  0.00  0.00    +0.000 C 
BRANCH  12  14
ATOM     13  O   UNL     1       5.222   1.031   0.000  0.00  0.00    +0.000 OA
ATOM     14  C   UNL     1       5.937   0.619   0.000  0.00  0.00    +0.000 C 
BRANCH  14  15
ATOM     15  C   UNL     1       6.652   1.031   0.000  0.00  0.00    +0.000 C 
BRANCH  15  16
ATOM     16  N   UNL     1       6.652   1.856   0.000  0.00  0.00    +0.000 NA
BRANCH  16  17
ATOM     17  C   UNL     1       7.366   2.269   0.000  0.00  0.00    +0.000 C 
ATOM     18  C   UNL     1       7.366   3.094   0.000  0.00  0.00    +0.000 C 
ATOM     19  C   UNL     1       8.080   1.856   0.000  0.00  0.00    +0.000 C 
ENDBRANCH  16  17
ENDBRANCH  15  16
ENDBRANCH  14  15
ENDBRANCH  12  14
ENDBRANCH  11  12
ENDBRANCH   1  11
TORSDOF 9
