REMARK  Name = 1583
REMARK  10 active torsions:
REMARK  status: ('A' for Active; 'I' for Inactive)
REMARK    1  A    between atoms: O_10  and  C_30
REMARK    2  A    between atoms: O_10  and  C_38
REMARK    3  A    between atoms: O_11  and  C_33
REMARK    4  A    between atoms: O_11  and  C_39
REMARK    5  A    between atoms: C_20  and  CA_22
REMARK    6  A    between atoms: C_20  and  C_23
REMARK    7  A    between atoms: C_21  and  CA_24
REMARK    8  A    between atoms: C_21  and  C_25
REMARK    9  A    between atoms: CA_22  and  C_36
REMARK   10  A    between atoms: CA_24  and  C_37
REMARK                            x       y       z     vdW  Elec       q    Type
REMARK                         _______ _______ _______ _____ _____    ______ ____
ROOT
ATOM      1  I   UNL     1      10.124   4.950   0.000  0.00  0.00    +0.000 I 
ATOM      2  I   UNL     1       7.266   4.950   0.000  0.00  0.00    +0.000 I 
ATOM      3  C   UNL     1       8.695   3.300   0.000  0.00  0.00    +0.000 A 
ATOM      4  C   UNL     1       7.980   3.713   0.000  0.00  0.00    +0.000 A 
ATOM      5  C   UNL     1       9.409   3.713   0.000  0.00  0.00    +0.000 A 
ATOM      6  C   UNL     1       8.695   4.950   0.000  0.00  0.00    +0.000 A 
ATOM      7  C   UNL     1       9.409   4.538   0.000  0.00  0.00    +0.000 A 
ATOM      8  C   UNL     1       7.980   4.538   0.000  0.00  0.00    +0.000 A 
ENDROOT
BRANCH   6   9
ATOM      9  O   UNL     1       8.695   5.775   0.000  0.00  0.00    +0.000 OA
BRANCH   9  13
ATOM     10  I   UNL     1      10.124   8.250   0.000  0.00  0.00    +0.000 I 
ATOM     11  I   UNL     1      11.553   5.775   0.000  0.00  0.00    +0.000 I 
ATOM     12  O   UNL     1      11.553   7.425   0.000  0.00  0.00    +0.000 OA
ATOM     13  C   UNL     1       9.409   6.188   0.000  0.00  0.00    +0.000 A 
ATOM     14  C   UNL     1      10.124   5.775   0.000  0.00  0.00    +0.000 A 
ATOM     15  C   UNL     1       9.409   7.013   0.000  0.00  0.00    +0.000 A 
ATOM     16  C   UNL     1      10.124   7.425   0.000  0.00  0.00    +0.000 A 
ATOM     17  C   UNL     1      10.838   6.188   0.000  0.00  0.00    +0.000 A 
ATOM     18  C   UNL     1      10.838   7.013   0.000  0.00  0.00    +0.000 A 
ENDBRANCH   9  13
ENDBRANCH   6   9
BRANCH   3  19
ATOM     19  C   UNL     1       8.695   2.475   0.000  0.00  0.00    +0.000 C 
BRANCH  19  21
ATOM     20  N   UNL     1       7.266   2.475   0.000  0.00  0.00    +0.000 NA
ATOM     21  CA  UNL     1       7.980   2.062   0.000  0.00  0.00    +0.000 C 
BRANCH  21  24
ATOM     22  O   UNL     1       7.266   0.825   0.000  0.00  0.00    +0.000 OA
ATOM     23  OXT UNL     1       8.695   0.825   0.000  0.00  0.00    +0.000 OA
ATOM     24  C   UNL     1       7.980   1.238   0.000  0.00  0.00    +0.000 C 
ENDBRANCH  21  24
ENDBRANCH  19  21
ENDBRANCH   3  19
TORSDOF 5
REMARK  Name = 1583
REMARK  10 active torsions:
REMARK  status: ('A' for Active; 'I' for Inactive)
REMARK    1  A    between atoms: O_10  and  C_30
REMARK    2  A    between atoms: O_10  and  C_38
REMARK    3  A    between atoms: O_11  and  C_33
REMARK    4  A    between atoms: O_11  and  C_39
REMARK    5  A    between atoms: C_20  and  CA_22
REMARK    6  A    between atoms: C_20  and  C_23
REMARK    7  A    between atoms: C_21  and  CA_24
REMARK    8  A    between atoms: C_21  and  C_25
REMARK    9  A    between atoms: CA_22  and  C_36
REMARK   10  A    between atoms: CA_24  and  C_37
REMARK                            x       y       z     vdW  Elec       q    Type
REMARK                         _______ _______ _______ _____ _____    ______ ____
ROOT
ATOM      1  I   UNL     1       3.301   7.013   0.000  0.00  0.00    +0.000 I 
ATOM      2  I   UNL     1       0.443   7.013   0.000  0.00  0.00    +0.000 I 
ATOM      3  C   UNL     1       1.872   5.363   0.000  0.00  0.00    +0.000 A 
ATOM      4  C   UNL     1       1.157   5.775   0.000  0.00  0.00    +0.000 A 
ATOM      5  C   UNL     1       2.586   5.775   0.000  0.00  0.00    +0.000 A 
ATOM      6  C   UNL     1       1.872   7.013   0.000  0.00  0.00    +0.000 A 
ATOM      7  C   UNL     1       2.586   6.600   0.000  0.00  0.00    +0.000 A 
ATOM      8  C   UNL     1       1.157   6.600   0.000  0.00  0.00    +0.000 A 
ENDROOT
BRANCH   6   9
ATOM      9  O   UNL     1       1.872   7.838   0.000  0.00  0.00    +0.000 OA
BRANCH   9  12
ATOM     10  I   UNL     1       3.301  10.313   0.000  0.00  0.00    +0.000 I 
ATOM     11  O   UNL     1       4.730   9.488   0.000  0.00  0.00    +0.000 OA
ATOM     12  C   UNL     1       2.586   8.250   0.000  0.00  0.00    +0.000 A 
ATOM     13  C   UNL     1       2.586   9.075   0.000  0.00  0.00    +0.000 A 
ATOM     14  C   UNL     1       3.301   7.838   0.000  0.00  0.00    +0.000 A 
ATOM     15  C   UNL     1       3.301   9.488   0.000  0.00  0.00    +0.000 A 
ATOM     16  C   UNL     1       4.015   8.250   0.000  0.00  0.00    +0.000 A 
ATOM     17  C   UNL     1       4.015   9.075   0.000  0.00  0.00    +0.000 A 
ENDBRANCH   9  12
ENDBRANCH   6   9
BRANCH   3  18
ATOM     18  C   UNL     1       1.872   4.538   0.000  0.00  0.00    +0.000 C 
BRANCH  18  20
ATOM     19  N   UNL     1       0.443   4.538   0.000  0.00  0.00    +0.000 NA
ATOM     20  CA  UNL     1       1.157   4.125   0.000  0.00  0.00    +0.000 C 
BRANCH  20  23
ATOM     21  O   UNL     1       0.443   2.888   0.000  0.00  0.00    +0.000 OA
ATOM     22  OXT UNL     1       1.872   2.888   0.000  0.00  0.00    +0.000 OA
ATOM     23  C   UNL     1       1.157   3.300   0.000  0.00  0.00    +0.000 C 
ENDBRANCH  20  23
ENDBRANCH  18  20
ENDBRANCH   3  18
TORSDOF 5
REMARK  Name = 1583
REMARK  10 active torsions:
REMARK  status: ('A' for Active; 'I' for Inactive)
REMARK    1  A    between atoms: O_10  and  C_30
REMARK    2  A    between atoms: O_10  and  C_38
REMARK    3  A    between atoms: O_11  and  C_33
REMARK    4  A    between atoms: O_11  and  C_39
REMARK    5  A    between atoms: C_20  and  CA_22
REMARK    6  A    between atoms: C_20  and  C_23
REMARK    7  A    between atoms: C_21  and  CA_24
REMARK    8  A    between atoms: C_21  and  C_25
REMARK    9  A    between atoms: CA_22  and  C_36
REMARK   10  A    between atoms: CA_24  and  C_37
REMARK                            x       y       z     vdW  Elec       q    Type
REMARK                         _______ _______ _______ _____ _____    ______ ____
ROOT
ATOM      1 NA   UNL     1       0.443   2.062   0.000  0.00  0.00    +0.000 Na
ENDROOT
TORSDOF 0
REMARK  Name = 1583
REMARK  10 active torsions:
REMARK  status: ('A' for Active; 'I' for Inactive)
REMARK    1  A    between atoms: O_10  and  C_30
REMARK    2  A    between atoms: O_10  and  C_38
REMARK    3  A    between atoms: O_11  and  C_33
REMARK    4  A    between atoms: O_11  and  C_39
REMARK    5  A    between atoms: C_20  and  CA_22
REMARK    6  A    between atoms: C_20  and  C_23
REMARK    7  A    between atoms: C_21  and  CA_24
REMARK    8  A    between atoms: C_21  and  C_25
REMARK    9  A    between atoms: CA_22  and  C_36
REMARK   10  A    between atoms: CA_24  and  C_37
REMARK                            x       y       z     vdW  Elec       q    Type
REMARK                         _______ _______ _______ _____ _____    ______ ____
ROOT
ATOM      1 NA   UNL     1       7.266   0.000   0.000  0.00  0.00    +0.000 Na
ENDROOT
TORSDOF 0
