REMARK  Name = 1586
REMARK  4 active torsions:
REMARK  status: ('A' for Active; 'I' for Inactive)
REMARK    1  A    between atoms: C_10  and  C_20
REMARK    2  A    between atoms: C_20  and  C_25
REMARK    3  A    between atoms: C_25  and  C_27
REMARK    4  A    between atoms: C_27  and  C_28
REMARK                            x       y       z     vdW  Elec       q    Type
REMARK                         _______ _______ _______ _____ _____    ______ ____
ROOT
ATOM      1  O   UNL     1       6.559  -2.519   0.000  0.00  0.00    +0.000 OA
ATOM      2  O   UNL     1       2.092  -2.537   0.000  0.00  0.00    +0.000 OA
ATOM      3  C   UNL     1       6.541  -0.844   0.000  0.00  0.00    +0.000 C 
ATOM      4  C   UNL     1       6.541  -0.019   0.000  0.00  0.00    +0.000 C 
ATOM      5  C   UNL     1       5.827  -1.256   0.000  0.00  0.00    +0.000 C 
ATOM      6  C   UNL     1       5.112  -0.844   0.000  0.00  0.00    +0.000 C 
ATOM      7  C   UNL     1       4.361  -1.262   0.000  0.00  0.00    +0.000 C 
ATOM      8  C   UNL     1       7.322   0.233   0.000  0.00  0.00    +0.000 C 
ATOM      9  C   UNL     1       4.355  -2.121   0.000  0.00  0.00    +0.000 C 
ATOM     10  C   UNL     1       5.827   0.394   0.000  0.00  0.00    +0.000 C 
ATOM     11  C   UNL     1       5.112  -0.019   0.000  0.00  0.00    +0.000 C 
ATOM     12  C   UNL     1       5.840  -2.115   0.000  0.00  0.00    +0.000 C 
ATOM     13  C   UNL     1       7.322  -1.095   0.000  0.00  0.00    +0.000 C 
ATOM     14  C   UNL     1       7.803  -0.431   0.000  0.00  0.00    +0.000 C 
ATOM     15  C   UNL     1       5.099  -2.551   0.000  0.00  0.00    +0.000 C 
ATOM     16  C   UNL     1       3.597  -0.796   0.000  0.00  0.00    +0.000 C 
ATOM     17  C   UNL     1       6.541   0.806   0.000  0.00  0.00    +0.000 C 
ATOM     18  C   UNL     1       3.583  -2.575   0.000  0.00  0.00    +0.000 C 
ATOM     19  C   UNL     1       4.368  -0.437   0.000  0.00  0.00    +0.000 C 
ATOM     20  C   UNL     1       2.815  -1.232   0.000  0.00  0.00    +0.000 C 
ATOM     21  C   UNL     1       2.808  -2.127   0.000  0.00  0.00    +0.000 C 
ENDROOT
BRANCH   8  22
ATOM     22  C   UNL     1       7.578   1.017   0.000  0.00  0.00    +0.000 C 
ATOM     23  C   UNL     1       7.027   1.631   0.000  0.00  0.00    +0.000 C 
BRANCH  22  24
ATOM     24  C   UNL     1       8.385   1.187   0.000  0.00  0.00    +0.000 C 
BRANCH  24  25
ATOM     25  C   UNL     1       8.642   1.971   0.000  0.00  0.00    +0.000 C 
BRANCH  25  28
ATOM     26  O   UNL     1       9.705   2.925   0.000  0.00  0.00    +0.000 OA
ATOM     27  O   UNL     1      10.000   1.527   0.000  0.00  0.00    +0.000 OA
ATOM     28  C   UNL     1       9.449   2.141   0.000  0.00  0.00    +0.000 C 
ENDBRANCH  25  28
ENDBRANCH  24  25
ENDBRANCH  22  24
ENDBRANCH   8  22
TORSDOF 4
