REMARK  Name = 1587
REMARK  1 active torsions:
REMARK  status: ('A' for Active; 'I' for Inactive)
REMARK    1  A    between atoms: C_7  and  C_9
REMARK                            x       y       z     vdW  Elec       q    Type
REMARK                         _______ _______ _______ _____ _____    ______ ____
ROOT
ATOM      1 CL   UNL     1       1.650  -0.744   0.000  0.00  0.00    +0.000 Cl
ATOM      2  O   UNL     1       4.362  -1.047   0.000  0.00  0.00    +0.000 OA
ATOM      3  O   UNL     1       6.639   0.060   0.000  0.00  0.00    +0.000 OA
ATOM      4  O   UNL     1       5.210   2.359   0.000  0.00  0.00    +0.000 OA
ATOM      5  N   UNL     1       5.183   0.167   0.000  0.00  0.00    +0.000 N 
ATOM      6  N   UNL     1       4.027   1.616   0.000  0.00  0.00    +0.000 N 
ATOM      7  C   UNL     1       4.440  -0.191   0.000  0.00  0.00    +0.000 C 
ATOM      8  C   UNL     1       3.696   0.167   0.000  0.00  0.00    +0.000 A 
ATOM      9  C   UNL     1       5.367   0.971   0.000  0.00  0.00    +0.000 C 
ATOM     10  C   UNL     1       3.513   0.971   0.000  0.00  0.00    +0.000 A 
ATOM     11  C   UNL     1       5.900  -0.306   0.000  0.00  0.00    +0.000 C 
ATOM     12  C   UNL     1       4.852   1.616   0.000  0.00  0.00    +0.000 C 
ATOM     13  C   UNL     1       3.076  -0.428   0.000  0.00  0.00    +0.000 A 
ATOM     14  C   UNL     1       5.069  -1.537   0.000  0.00  0.00    +0.000 C 
ATOM     15  C   UNL     1       5.843  -1.164   0.000  0.00  0.00    +0.000 C 
ATOM     16  C   UNL     1       2.696   1.237   0.000  0.00  0.00    +0.000 A 
ATOM     17  C   UNL     1       3.669   2.359   0.000  0.00  0.00    +0.000 C 
ATOM     18  C   UNL     1       2.252  -0.181   0.000  0.00  0.00    +0.000 A 
ATOM     19  C   UNL     1       2.061   0.657   0.000  0.00  0.00    +0.000 A 
ATOM     20  C   UNL     1       5.004  -2.359   0.000  0.00  0.00    +0.000 C 
ENDROOT
BRANCH   7  21
ATOM     21  C   UNL     1       3.975  -0.873   0.000  0.00  0.00    +0.000 A 
ATOM     22  C   UNL     1       4.333  -1.616   0.000  0.00  0.00    +0.000 A 
ATOM     23  C   UNL     1       3.152  -0.811   0.000  0.00  0.00    +0.000 A 
ATOM     24  C   UNL     1       3.868  -2.298   0.000  0.00  0.00    +0.000 A 
ATOM     25  C   UNL     1       2.688  -1.493   0.000  0.00  0.00    +0.000 A 
ATOM     26  C   UNL     1       3.046  -2.236   0.000  0.00  0.00    +0.000 A 
ENDBRANCH   7  21
TORSDOF 1
