REMARK  Name = 1588
REMARK  3 active torsions:
REMARK  status: ('A' for Active; 'I' for Inactive)
REMARK    1  A    between atoms: N_3  and  C_8
REMARK    2  A    between atoms: C_5  and  C_8
REMARK    3  A    between atoms: C_14  and  C_17
REMARK                            x       y       z     vdW  Elec       q    Type
REMARK                         _______ _______ _______ _____ _____    ______ ____
ROOT
ATOM      1 CL   UNL     1       3.665  -2.553   0.000  0.00  0.00    +0.000 Cl
ATOM      2  O   UNL     1       3.459   2.165   0.000  0.00  0.00    +0.000 OA
ATOM      3  N   UNL     1       3.302   0.777   0.000  0.00  0.00    +0.000 N 
ATOM      4  N   UNL     1       5.156   0.777   0.000  0.00  0.00    +0.000 NA
ATOM      5  C   UNL     1       3.486  -0.027   0.000  0.00  0.00    +0.000 A 
ATOM      6  C   UNL     1       3.817   1.422   0.000  0.00  0.00    +0.000 C 
ATOM      7  C   UNL     1       4.229  -0.385   0.000  0.00  0.00    +0.000 A 
ATOM      8  C   UNL     1       4.642   1.422   0.000  0.00  0.00    +0.000 C 
ATOM      9  C   UNL     1       2.768  -0.500   0.000  0.00  0.00    +0.000 A 
ATOM     10  C   UNL     1       4.972  -0.027   0.000  0.00  0.00    +0.000 C 
ATOM     11  C   UNL     1       4.307  -1.241   0.000  0.00  0.00    +0.000 A 
ATOM     12  C   UNL     1       2.826  -1.358   0.000  0.00  0.00    +0.000 A 
ATOM     13  C   UNL     1       3.600  -1.731   0.000  0.00  0.00    +0.000 A 
ENDROOT
BRANCH  10  14
ATOM     14  C   UNL     1       5.617  -0.542   0.000  0.00  0.00    +0.000 A 
ATOM     15  C   UNL     1       6.385  -0.240   0.000  0.00  0.00    +0.000 A 
ATOM     16  C   UNL     1       5.495  -1.357   0.000  0.00  0.00    +0.000 A 
ATOM     17  C   UNL     1       7.030  -0.755   0.000  0.00  0.00    +0.000 A 
ATOM     18  C   UNL     1       6.139  -1.872   0.000  0.00  0.00    +0.000 A 
ATOM     19  C   UNL     1       6.907  -1.571   0.000  0.00  0.00    +0.000 A 
ENDBRANCH  10  14
BRANCH   3  20
ATOM     20  C   UNL     1       2.498   0.961   0.000  0.00  0.00    +0.000 C 
BRANCH  20  21
ATOM     21  C   UNL     1       2.255   1.749   0.000  0.00  0.00    +0.000 C 
ATOM     22  C   UNL     1       2.438   2.553   0.000  0.00  0.00    +0.000 C 
ATOM     23  C   UNL     1       1.650   2.310   0.000  0.00  0.00    +0.000 C 
ENDBRANCH  20  21
ENDBRANCH   3  20
TORSDOF 3
