REMARK  Name = 159
REMARK  5 active torsions:
REMARK  status: ('A' for Active; 'I' for Inactive)
REMARK    1  A    between atoms: C_2  and  C_4
REMARK    2  A    between atoms: C_10  and  S_11
REMARK    3  A    between atoms: S_11  and  N_14
REMARK    4  A    between atoms: N_14  and  C_15
REMARK    5  A    between atoms: C_15  and  C_16
REMARK                            x       y       z     vdW  Elec       q    Type
REMARK                         _______ _______ _______ _____ _____    ______ ____
ROOT
ATOM      1  C   UNL     1      -1.831   0.026   0.000  0.00  0.00    +0.000 A 
ATOM      2  C   UNL     1      -1.831   0.852   0.000  0.00  0.00    +0.000 A 
ATOM      3  C   UNL     1      -1.117   1.264   0.000  0.00  0.00    +0.000 A 
ATOM      4  C   UNL     1      -0.402   0.852   0.000  0.00  0.00    +0.000 A 
ATOM      5  O   UNL     1      -2.546   1.264   0.000  0.00  0.00    +0.000 OA
ATOM      6  C   UNL     1      -1.117  -0.386   0.000  0.00  0.00    +0.000 A 
ATOM      7  C   UNL     1      -0.402   0.026   0.000  0.00  0.00    +0.000 A 
ENDROOT
BRANCH   1   9
ATOM      8  O   UNL     1      -3.260   0.026   0.000  0.00  0.00    +0.000 OA
ATOM      9  C   UNL     1      -2.546  -0.386   0.000  0.00  0.00    +0.000 C 
ATOM     10  O   UNL     1      -2.546  -1.211   0.000  0.00  0.00    +0.000 OA
ENDBRANCH   1   9
BRANCH   7  11
ATOM     11  S   UNL     1       0.312  -0.386   0.000  0.00  0.00    +0.000 S 
ATOM     12  O   UNL     1      -0.100  -1.101   0.000  0.00  0.00    +0.000 OA
ATOM     13  O   UNL     1       0.725   0.329   0.000  0.00  0.00    +0.000 OA
BRANCH  11  14
ATOM     14  N   UNL     1       1.027  -0.798   0.000  0.00  0.00    +0.000 NA
BRANCH  14  15
ATOM     15  C   UNL     1       1.741  -0.386   0.000  0.00  0.00    +0.000 C 
BRANCH  15  16
ATOM     16  C   UNL     1       2.456  -0.798   0.000  0.00  0.00    +0.000 C 
ATOM     17  S   UNL     1       3.170  -0.386   0.000  0.00  0.00    +0.000 S 
ENDBRANCH  15  16
ENDBRANCH  14  15
ENDBRANCH  11  14
ENDBRANCH   7  11
TORSDOF 5
