REMARK  Name = 1594
REMARK  4 active torsions:
REMARK  status: ('A' for Active; 'I' for Inactive)
REMARK    1  A    between atoms: N_5  and  C_10
REMARK    2  A    between atoms: C_10  and  C_17
REMARK    3  A    between atoms: C_11  and  C_16
REMARK    4  A    between atoms: C_17  and  C_25
REMARK                            x       y       z     vdW  Elec       q    Type
REMARK                         _______ _______ _______ _____ _____    ______ ____
ROOT
ATOM      1 CL   UNL     1       4.669  -2.378   0.000  0.00  0.00    +0.000 Cl
ATOM      2  O   UNL     1       6.003   2.340   0.000  0.00  0.00    +0.000 OA
ATOM      3  O   UNL     1       4.463   2.340   0.000  0.00  0.00    +0.000 OA
ATOM      4  N   UNL     1       4.306   0.952   0.000  0.00  0.00    +0.000 N 
ATOM      5  N   UNL     1       6.160   0.952   0.000  0.00  0.00    +0.000 NA
ATOM      6  C   UNL     1       4.490   0.147   0.000  0.00  0.00    +0.000 A 
ATOM      7  C   UNL     1       5.233  -0.210   0.000  0.00  0.00    +0.000 A 
ATOM      8  C   UNL     1       5.976   0.147   0.000  0.00  0.00    +0.000 C 
ATOM      9  C   UNL     1       4.820   1.597   0.000  0.00  0.00    +0.000 C 
ATOM     10  C   UNL     1       5.645   1.597   0.000  0.00  0.00    +0.000 C 
ATOM     11  C   UNL     1       3.772  -0.326   0.000  0.00  0.00    +0.000 A 
ATOM     12  C   UNL     1       5.310  -1.066   0.000  0.00  0.00    +0.000 A 
ATOM     13  C   UNL     1       3.830  -1.183   0.000  0.00  0.00    +0.000 A 
ATOM     14  C   UNL     1       4.604  -1.556   0.000  0.00  0.00    +0.000 A 
ENDROOT
BRANCH   8  16
ATOM     15  F   UNL     1       5.730  -1.484   0.000  0.00  0.00    +0.000 F 
ATOM     16  C   UNL     1       6.621  -0.367   0.000  0.00  0.00    +0.000 A 
ATOM     17  C   UNL     1       6.498  -1.183   0.000  0.00  0.00    +0.000 A 
ATOM     18  C   UNL     1       7.389  -0.066   0.000  0.00  0.00    +0.000 A 
ATOM     19  C   UNL     1       7.143  -1.697   0.000  0.00  0.00    +0.000 A 
ATOM     20  C   UNL     1       8.034  -0.580   0.000  0.00  0.00    +0.000 A 
ATOM     21  C   UNL     1       7.911  -1.396   0.000  0.00  0.00    +0.000 A 
ENDBRANCH   8  16
BRANCH   4  22
ATOM     22  C   UNL     1       3.502   1.135   0.000  0.00  0.00    +0.000 C 
BRANCH  22  23
ATOM     23  C   UNL     1       3.259   1.924   0.000  0.00  0.00    +0.000 C 
BRANCH  23  25
ATOM     24  N   UNL     1       1.650   2.291   0.000  0.00  0.00    +0.000 NA
ATOM     25  C   UNL     1       2.454   2.107   0.000  0.00  0.00    +0.000 C 
ENDBRANCH  23  25
ENDBRANCH  22  23
ENDBRANCH   4  22
TORSDOF 4
