REMARK  Name = 1598
REMARK  6 active torsions:
REMARK  status: ('A' for Active; 'I' for Inactive)
REMARK    1  A    between atoms: S_1  and  C_15
REMARK    2  A    between atoms: S_1  and  C_18
REMARK    3  A    between atoms: N_7  and  C_19
REMARK    4  A    between atoms: C_10  and  C_13
REMARK    5  A    between atoms: C_14  and  C_17
REMARK    6  A    between atoms: C_18  and  C_19
REMARK                            x       y       z     vdW  Elec       q    Type
REMARK                         _______ _______ _______ _____ _____    ______ ____
ROOT
ATOM      1  O   UNL     1       2.447  -1.239   0.000  0.00  0.00    +0.000 OA
ATOM      2  N   UNL     1       3.861  -0.651   0.000  0.00  0.00    +0.000 N 
ATOM      3  C   UNL     1       3.861   0.174   0.000  0.00  0.00    +0.000 C 
ATOM      4  C   UNL     1       3.030   0.178   0.000  0.00  0.00    +0.000 C 
ATOM      5  C   UNL     1       4.646   0.429   0.000  0.00  0.00    +0.000 C 
ATOM      6  C   UNL     1       3.030  -0.654   0.000  0.00  0.00    +0.000 C 
ATOM      7  C   UNL     1       4.646  -0.906   0.000  0.00  0.00    +0.000 C 
ATOM      8  C   UNL     1       5.131  -0.238   0.000  0.00  0.00    +0.000 C 
ENDROOT
BRANCH   7  11
ATOM      9  O   UNL     1       5.708  -1.862   0.000  0.00  0.00    +0.000 OA
ATOM     10  O   UNL     1       4.349  -2.303   0.000  0.00  0.00    +0.000 OA
ATOM     11  C   UNL     1       4.901  -1.690   0.000  0.00  0.00    +0.000 C 
ENDBRANCH   7  11
BRANCH   4  13
ATOM     12  O   UNL     1       2.663   1.559   0.000  0.00  0.00    +0.000 OA
ATOM     13  C   UNL     1       2.447   0.762   0.000  0.00  0.00    +0.000 C 
ATOM     14  C   UNL     1       1.650   0.550   0.000  0.00  0.00    +0.000 C 
ENDBRANCH   4  13
BRANCH   8  15
ATOM     15  S   UNL     1       5.956  -0.238   0.000  0.00  0.00    +0.000 S 
BRANCH  15  16
ATOM     16  C   UNL     1       6.368   0.476   0.000  0.00  0.00    +0.000 C 
BRANCH  16  17
ATOM     17  C   UNL     1       7.193   0.476   0.000  0.00  0.00    +0.000 C 
BRANCH  17  18
ATOM     18  N   UNL     1       7.606   1.191   0.000  0.00  0.00    +0.000 NA
ATOM     19  N   UNL     1       8.843   1.905   0.000  0.00  0.00    +0.000 NA
ATOM     20  C   UNL     1       8.431   1.191   0.000  0.00  0.00    +0.000 C 
ENDBRANCH  17  18
ENDBRANCH  16  17
ENDBRANCH  15  16
ENDBRANCH   8  15
TORSDOF 6
