REMARK  Name = 1600
REMARK  4 active torsions:
REMARK  status: ('A' for Active; 'I' for Inactive)
REMARK    1  A    between atoms: C_5  and  C_6
REMARK    2  A    between atoms: C_5  and  C_12
REMARK    3  A    between atoms: C_7  and  C_11
REMARK    4  A    between atoms: C_11  and  C_13
REMARK                            x       y       z     vdW  Elec       q    Type
REMARK                         _______ _______ _______ _____ _____    ______ ____
ROOT
ATOM      1  S   UNL     1       3.165   0.945   0.000  0.00  0.00    +0.000 S 
ATOM      2  C   UNL     1       3.972   1.116   0.000  0.00  0.00    +0.000 A 
ATOM      3  C   UNL     1       3.079   0.124   0.000  0.00  0.00    +0.000 A 
ATOM      4  C   UNL     1       4.385   0.402   0.000  0.00  0.00    +0.000 A 
ATOM      5  C   UNL     1       3.833  -0.211   0.000  0.00  0.00    +0.000 A 
ENDROOT
BRANCH   3   7
ATOM      6  O   UNL     1       1.650   0.124   0.000  0.00  0.00    +0.000 OA
ATOM      7  C   UNL     1       2.365  -0.288   0.000  0.00  0.00    +0.000 C 
BRANCH   7   8
ATOM      8  C   UNL     1       2.365  -1.113   0.000  0.00  0.00    +0.000 A 
ATOM      9  C   UNL     1       3.079  -1.526   0.000  0.00  0.00    +0.000 A 
ATOM     10  C   UNL     1       1.650  -1.526   0.000  0.00  0.00    +0.000 A 
ATOM     11  C   UNL     1       3.079  -2.351   0.000  0.00  0.00    +0.000 A 
ATOM     12  C   UNL     1       1.650  -2.351   0.000  0.00  0.00    +0.000 A 
ATOM     13  C   UNL     1       2.365  -2.763   0.000  0.00  0.00    +0.000 A 
ENDBRANCH   7   8
ENDBRANCH   3   7
BRANCH   2  14
ATOM     14  C   UNL     1       4.308   1.870   0.000  0.00  0.00    +0.000 C 
ATOM     15  C   UNL     1       3.823   2.537   0.000  0.00  0.00    +0.000 C 
BRANCH  14  18
ATOM     16  O   UNL     1       5.464   2.710   0.000  0.00  0.00    +0.000 OA
ATOM     17  O   UNL     1       5.613   1.289   0.000  0.00  0.00    +0.000 OA
ATOM     18  C   UNL     1       5.128   1.956   0.000  0.00  0.00    +0.000 C 
ENDBRANCH  14  18
ENDBRANCH   2  14
TORSDOF 4
