REMARK  Name = 1602
REMARK  10 active torsions:
REMARK  status: ('A' for Active; 'I' for Inactive)
REMARK    1  A    between atoms: O_3  and  C_19
REMARK    2  A    between atoms: O_3  and  C_22
REMARK    3  A    between atoms: O_6  and  C_22
REMARK    4  A    between atoms: O_6  and  C_29
REMARK    5  A    between atoms: O_7  and  C_29
REMARK    6  A    between atoms: O_7  and  C_31
REMARK    7  A    between atoms: N_10  and  C_15
REMARK    8  A    between atoms: C_14  and  C_19
REMARK    9  A    between atoms: C_20  and  C_21
REMARK   10  A    between atoms: C_21  and  C_23
REMARK                            x       y       z     vdW  Elec       q    Type
REMARK                         _______ _______ _______ _____ _____    ______ ____
ROOT
ATOM      1  S   UNL     1       7.620   2.531   0.000  0.00  0.00    +0.000 S 
ATOM      2  O   UNL     1       5.421   0.863   0.000  0.00  0.00    +0.000 OA
ATOM      3  N   UNL     1       6.835   1.451   0.000  0.00  0.00    +0.000 N 
ATOM      4  C   UNL     1       6.835   2.276   0.000  0.00  0.00    +0.000 C 
ATOM      5  C   UNL     1       8.105   1.863   0.000  0.00  0.00    +0.000 C 
ATOM      6  C   UNL     1       7.620   1.196   0.000  0.00  0.00    +0.000 C 
ATOM      7  C   UNL     1       6.004   2.279   0.000  0.00  0.00    +0.000 C 
ATOM      8  C   UNL     1       6.004   1.447   0.000  0.00  0.00    +0.000 C 
ATOM      9  C   UNL     1       8.773   2.348   0.000  0.00  0.00    +0.000 C 
ATOM     10  C   UNL     1       8.773   1.378   0.000  0.00  0.00    +0.000 C 
ENDROOT
BRANCH   7  12
ATOM     11  O   UNL     1       4.409   1.855   0.000  0.00  0.00    +0.000 OA
ATOM     12  N   UNL     1       5.421   2.864   0.000  0.00  0.00    +0.000 NA
ATOM     13  C   UNL     1       4.624   2.652   0.000  0.00  0.00    +0.000 C 
BRANCH  13  15
ATOM     14  N   UNL     1       4.257   4.033   0.000  0.00  0.00    +0.000 NA
ATOM     15  C   UNL     1       4.042   3.236   0.000  0.00  0.00    +0.000 C 
BRANCH  15  16
ATOM     16  C   UNL     1       3.245   3.024   0.000  0.00  0.00    +0.000 A 
ATOM     17  C   UNL     1       3.030   2.228   0.000  0.00  0.00    +0.000 A 
ATOM     18  C   UNL     1       2.663   3.609   0.000  0.00  0.00    +0.000 A 
ATOM     19  C   UNL     1       2.232   2.016   0.000  0.00  0.00    +0.000 A 
ATOM     20  C   UNL     1       1.865   3.397   0.000  0.00  0.00    +0.000 A 
ATOM     21  C   UNL     1       1.650   2.601   0.000  0.00  0.00    +0.000 A 
ENDBRANCH  15  16
ENDBRANCH  13  15
ENDBRANCH   7  12
BRANCH   6  23
ATOM     22  O   UNL     1       8.682   0.240   0.000  0.00  0.00    +0.000 OA
ATOM     23  C   UNL     1       7.875   0.411   0.000  0.00  0.00    +0.000 C 
BRANCH  23  24
ATOM     24  O   UNL     1       7.323  -0.202   0.000  0.00  0.00    +0.000 OA
BRANCH  24  25
ATOM     25  C   UNL     1       7.578  -0.987   0.000  0.00  0.00    +0.000 C 
ATOM     26  C   UNL     1       8.385  -1.158   0.000  0.00  0.00    +0.000 C 
BRANCH  25  27
ATOM     27  O   UNL     1       7.026  -1.600   0.000  0.00  0.00    +0.000 OA
BRANCH  27  29
ATOM     28  O   UNL     1       8.088  -2.556   0.000  0.00  0.00    +0.000 OA
ATOM     29  C   UNL     1       7.281  -2.384   0.000  0.00  0.00    +0.000 C 
BRANCH  29  30
ATOM     30  O   UNL     1       6.729  -2.998   0.000  0.00  0.00    +0.000 OA
BRANCH  30  31
ATOM     31  C   UNL     1       6.984  -3.782   0.000  0.00  0.00    +0.000 C 
ATOM     32  C   UNL     1       6.432  -4.395   0.000  0.00  0.00    +0.000 C 
ENDBRANCH  30  31
ENDBRANCH  29  30
ENDBRANCH  27  29
ENDBRANCH  25  27
ENDBRANCH  24  25
ENDBRANCH  23  24
ENDBRANCH   6  23
TORSDOF 10
