REMARK  Name = 1603
REMARK  5 active torsions:
REMARK  status: ('A' for Active; 'I' for Inactive)
REMARK    1  A    between atoms: O_6  and  C_20
REMARK    2  A    between atoms: O_7  and  C_21
REMARK    3  A    between atoms: N_9  and  CA_13
REMARK    4  A    between atoms: CA_12  and  C_17
REMARK    5  A    between atoms: C_18  and  C_19
REMARK                            x       y       z     vdW  Elec       q    Type
REMARK                         _______ _______ _______ _____ _____    ______ ____
ROOT
ATOM      1  O   UNL     1       3.827  -0.321   0.000  0.00  0.00    +0.000 OA
ATOM      2  N   UNL     1       4.839   0.687   0.000  0.00  0.00    +0.000 NA
ATOM      3  C   UNL     1       4.042   0.475   0.000  0.00  0.00    +0.000 C 
ENDROOT
BRANCH   2  10
ATOM      4  S   UNL     1       7.038   0.354   0.000  0.00  0.00    +0.000 S 
ATOM      5  O   UNL     1       4.839  -1.314   0.000  0.00  0.00    +0.000 OA
ATOM      6  N   UNL     1       6.253  -0.726   0.000  0.00  0.00    +0.000 N 
ATOM      7  C   UNL     1       6.253   0.099   0.000  0.00  0.00    +0.000 C 
ATOM      8  C   UNL     1       7.523  -0.313   0.000  0.00  0.00    +0.000 C 
ATOM      9  CA  UNL     1       7.038  -0.981   0.000  0.00  0.00    +0.000 C 
ATOM     10  CA  UNL     1       5.421   0.103   0.000  0.00  0.00    +0.000 C 
ATOM     11  C   UNL     1       5.421  -0.729   0.000  0.00  0.00    +0.000 C 
ATOM     12  C   UNL     1       8.190  -0.798   0.000  0.00  0.00    +0.000 C 
ATOM     13  C   UNL     1       8.190   0.172   0.000  0.00  0.00    +0.000 C 
BRANCH   9  16
ATOM     14  O   UNL     1       6.741  -2.378   0.000  0.00  0.00    +0.000 OA
ATOM     15  OXT UNL     1       8.100  -1.937   0.000  0.00  0.00    +0.000 OA
ATOM     16  C   UNL     1       7.293  -1.765   0.000  0.00  0.00    +0.000 C 
ENDBRANCH   9  16
ENDBRANCH   2  10
BRANCH   3  17
ATOM     17  C   UNL     1       3.460   1.060   0.000  0.00  0.00    +0.000 A 
ATOM     18  C   UNL     1       2.663   0.848   0.000  0.00  0.00    +0.000 A 
ATOM     19  C   UNL     1       3.675   1.856   0.000  0.00  0.00    +0.000 A 
ATOM     20  C   UNL     1       2.080   1.433   0.000  0.00  0.00    +0.000 A 
ATOM     21  C   UNL     1       3.093   2.441   0.000  0.00  0.00    +0.000 A 
ATOM     22  C   UNL     1       2.296   2.229   0.000  0.00  0.00    +0.000 A 
BRANCH  18  23
ATOM     23  O   UNL     1       2.447   0.052   0.000  0.00  0.00    +0.000 OA
ATOM     24  C   UNL     1       1.650  -0.160   0.000  0.00  0.00    +0.000 C 
ENDBRANCH  18  23
BRANCH  19  25
ATOM     25  O   UNL     1       4.472   2.068   0.000  0.00  0.00    +0.000 OA
ATOM     26  C   UNL     1       4.688   2.865   0.000  0.00  0.00    +0.000 C 
ENDBRANCH  19  25
ENDBRANCH   3  17
TORSDOF 5
