REMARK  Name = 1604
REMARK  9 active torsions:
REMARK  status: ('A' for Active; 'I' for Inactive)
REMARK    1  A    between atoms: O_3  and  C_18
REMARK    2  A    between atoms: O_3  and  C_21
REMARK    3  A    between atoms: O_6  and  C_21
REMARK    4  A    between atoms: O_6  and  C_26
REMARK    5  A    between atoms: N_9  and  C_14
REMARK    6  A    between atoms: C_13  and  C_18
REMARK    7  A    between atoms: C_19  and  C_20
REMARK    8  A    between atoms: C_20  and  C_22
REMARK    9  A    between atoms: C_23  and  C_26
REMARK                            x       y       z     vdW  Elec       q    Type
REMARK                         _______ _______ _______ _____ _____    ______ ____
ROOT
ATOM      1  S   UNL     1       7.620   2.138   0.000  0.00  0.00    +0.000 S 
ATOM      2  O   UNL     1       5.421   0.470   0.000  0.00  0.00    +0.000 OA
ATOM      3  N   UNL     1       6.835   1.058   0.000  0.00  0.00    +0.000 N 
ATOM      4  C   UNL     1       6.835   1.883   0.000  0.00  0.00    +0.000 C 
ATOM      5  C   UNL     1       8.105   1.471   0.000  0.00  0.00    +0.000 C 
ATOM      6  C   UNL     1       7.620   0.803   0.000  0.00  0.00    +0.000 C 
ATOM      7  C   UNL     1       6.004   1.887   0.000  0.00  0.00    +0.000 C 
ATOM      8  C   UNL     1       6.004   1.055   0.000  0.00  0.00    +0.000 C 
ATOM      9  C   UNL     1       8.773   1.956   0.000  0.00  0.00    +0.000 C 
ATOM     10  C   UNL     1       8.773   0.986   0.000  0.00  0.00    +0.000 C 
ENDROOT
BRANCH   7  12
ATOM     11  O   UNL     1       4.409   1.463   0.000  0.00  0.00    +0.000 OA
ATOM     12  N   UNL     1       5.421   2.471   0.000  0.00  0.00    +0.000 NA
ATOM     13  C   UNL     1       4.624   2.259   0.000  0.00  0.00    +0.000 C 
BRANCH  13  15
ATOM     14  N   UNL     1       4.257   3.640   0.000  0.00  0.00    +0.000 NA
ATOM     15  C   UNL     1       4.042   2.844   0.000  0.00  0.00    +0.000 C 
BRANCH  15  16
ATOM     16  C   UNL     1       3.245   2.632   0.000  0.00  0.00    +0.000 A 
ATOM     17  C   UNL     1       3.030   1.836   0.000  0.00  0.00    +0.000 A 
ATOM     18  C   UNL     1       2.663   3.217   0.000  0.00  0.00    +0.000 A 
ATOM     19  C   UNL     1       2.232   1.624   0.000  0.00  0.00    +0.000 A 
ATOM     20  C   UNL     1       1.865   3.005   0.000  0.00  0.00    +0.000 A 
ATOM     21  C   UNL     1       1.650   2.208   0.000  0.00  0.00    +0.000 A 
ENDBRANCH  15  16
ENDBRANCH  13  15
ENDBRANCH   7  12
BRANCH   6  23
ATOM     22  O   UNL     1       8.682  -0.153   0.000  0.00  0.00    +0.000 OA
ATOM     23  C   UNL     1       7.875   0.019   0.000  0.00  0.00    +0.000 C 
BRANCH  23  24
ATOM     24  O   UNL     1       7.323  -0.594   0.000  0.00  0.00    +0.000 OA
BRANCH  24  25
ATOM     25  C   UNL     1       7.578  -1.379   0.000  0.00  0.00    +0.000 C 
BRANCH  25  26
ATOM     26  O   UNL     1       7.026  -1.992   0.000  0.00  0.00    +0.000 OA
BRANCH  26  28
ATOM     27  O   UNL     1       8.088  -2.948   0.000  0.00  0.00    +0.000 OA
ATOM     28  C   UNL     1       7.281  -2.777   0.000  0.00  0.00    +0.000 C 
BRANCH  28  29
ATOM     29  C   UNL     1       6.729  -3.390   0.000  0.00  0.00    +0.000 C 
ATOM     30  C   UNL     1       6.177  -4.003   0.000  0.00  0.00    +0.000 C 
ATOM     31  C   UNL     1       7.342  -3.942   0.000  0.00  0.00    +0.000 C 
ATOM     32  C   UNL     1       6.116  -2.838   0.000  0.00  0.00    +0.000 C 
ENDBRANCH  28  29
ENDBRANCH  26  28
ENDBRANCH  25  26
ENDBRANCH  24  25
ENDBRANCH  23  24
ENDBRANCH   6  23
TORSDOF 9
