REMARK  Name = 1607
REMARK  5 active torsions:
REMARK  status: ('A' for Active; 'I' for Inactive)
REMARK    1  A    between atoms: N_10  and  CA_14
REMARK    2  A    between atoms: CA_13  and  C_18
REMARK    3  A    between atoms: C_19  and  C_20
REMARK    4  A    between atoms: C_20  and  C_21
REMARK    5  A    between atoms: C_20  and  C_22
REMARK                            x       y       z     vdW  Elec       q    Type
REMARK                         _______ _______ _______ _____ _____    ______ ____
ROOT
ATOM      1  S   UNL     1       7.358   0.319   0.000  0.00  0.00    +0.000 S 
ATOM      2  O   UNL     1       5.160  -1.349   0.000  0.00  0.00    +0.000 OA
ATOM      3  N   UNL     1       6.574  -0.761   0.000  0.00  0.00    +0.000 N 
ATOM      4  C   UNL     1       6.574   0.064   0.000  0.00  0.00    +0.000 C 
ATOM      5  C   UNL     1       7.843  -0.348   0.000  0.00  0.00    +0.000 C 
ATOM      6  CA  UNL     1       7.358  -1.016   0.000  0.00  0.00    +0.000 C 
ATOM      7  CA  UNL     1       5.742   0.068   0.000  0.00  0.00    +0.000 C 
ATOM      8  C   UNL     1       5.742  -0.764   0.000  0.00  0.00    +0.000 C 
ATOM      9  C   UNL     1       8.511  -0.833   0.000  0.00  0.00    +0.000 C 
ATOM     10  C   UNL     1       8.511   0.137   0.000  0.00  0.00    +0.000 C 
ENDROOT
BRANCH   6  13
ATOM     11  O   UNL     1       7.061  -2.413   0.000  0.00  0.00    +0.000 OA
ATOM     12  OXT UNL     1       8.420  -1.972   0.000  0.00  0.00    +0.000 OA
ATOM     13  C   UNL     1       7.613  -1.800   0.000  0.00  0.00    +0.000 C 
ENDBRANCH   6  13
BRANCH   7  15
ATOM     14  O   UNL     1       4.147  -0.356   0.000  0.00  0.00    +0.000 OA
ATOM     15  N   UNL     1       5.160   0.652   0.000  0.00  0.00    +0.000 NA
ATOM     16  C   UNL     1       4.362   0.440   0.000  0.00  0.00    +0.000 C 
BRANCH  16  17
ATOM     17  C   UNL     1       3.780   1.025   0.000  0.00  0.00    +0.000 C 
BRANCH  17  19
ATOM     18  S   UNL     1       1.862   0.088   0.000  0.00  0.00    +0.000 S 
ATOM     19  C   UNL     1       2.983   0.813   0.000  0.00  0.00    +0.000 A 
ATOM     20  C   UNL     1       2.343   1.334   0.000  0.00  0.00    +0.000 A 
ATOM     21  C   UNL     1       2.686   0.043   0.000  0.00  0.00    +0.000 A 
ATOM     22  C   UNL     1       1.650   0.886   0.000  0.00  0.00    +0.000 A 
ENDBRANCH  17  19
BRANCH  17  25
ATOM     23  O   UNL     1       3.413   2.406   0.000  0.00  0.00    +0.000 OA
ATOM     24  O   UNL     1       4.793   2.033   0.000  0.00  0.00    +0.000 OA
ATOM     25  C   UNL     1       3.995   1.821   0.000  0.00  0.00    +0.000 C 
ENDBRANCH  17  25
ENDBRANCH  16  17
ENDBRANCH   7  15
TORSDOF 5
