REMARK  Name = 1608
REMARK  5 active torsions:
REMARK  status: ('A' for Active; 'I' for Inactive)
REMARK    1  A    between atoms: N_3  and  C_11
REMARK    2  A    between atoms: N_4  and  C_13
REMARK    3  A    between atoms: C_11  and  C_12
REMARK    4  A    between atoms: C_12  and  C_13
REMARK    5  A    between atoms: C_22  and  C_26
REMARK                            x       y       z     vdW  Elec       q    Type
REMARK                         _______ _______ _______ _____ _____    ______ ____
ROOT
ATOM      1  S   UNL     1       5.222  -2.922   0.000  0.00  0.00    +0.000 S 
ATOM      2  N   UNL     1       5.222  -1.272   0.000  0.00  0.00    +0.000 N 
ATOM      3  C   UNL     1       5.936  -1.685   0.000  0.00  0.00    +0.000 A 
ATOM      4  C   UNL     1       4.507  -1.685   0.000  0.00  0.00    +0.000 A 
ATOM      5  C   UNL     1       5.936  -2.510   0.000  0.00  0.00    +0.000 A 
ATOM      6  C   UNL     1       4.507  -2.510   0.000  0.00  0.00    +0.000 A 
ATOM      7  C   UNL     1       6.673  -1.244   0.000  0.00  0.00    +0.000 A 
ATOM      8  C   UNL     1       3.770  -1.244   0.000  0.00  0.00    +0.000 A 
ATOM      9  C   UNL     1       6.673  -2.951   0.000  0.00  0.00    +0.000 A 
ATOM     10  C   UNL     1       3.770  -2.951   0.000  0.00  0.00    +0.000 A 
ATOM     11  C   UNL     1       7.421  -1.668   0.000  0.00  0.00    +0.000 A 
ATOM     12  C   UNL     1       3.022  -1.668   0.000  0.00  0.00    +0.000 A 
ATOM     13  C   UNL     1       7.421  -2.527   0.000  0.00  0.00    +0.000 A 
ATOM     14  C   UNL     1       3.022  -2.527   0.000  0.00  0.00    +0.000 A 
ENDROOT
BRANCH  11  16
ATOM     15  N   UNL     1       8.846  -0.837   0.000  0.00  0.00    +0.000 NA
ATOM     16  C   UNL     1       8.134  -1.253   0.000  0.00  0.00    +0.000 C 
ENDBRANCH  11  16
BRANCH   2  17
ATOM     17  C   UNL     1       5.222  -0.448   0.000  0.00  0.00    +0.000 C 
BRANCH  17  18
ATOM     18  C   UNL     1       4.507  -0.035   0.000  0.00  0.00    +0.000 C 
BRANCH  18  19
ATOM     19  C   UNL     1       4.507   0.790   0.000  0.00  0.00    +0.000 C 
BRANCH  19  21
ATOM     20  O   UNL     1       1.650   2.439   0.000  0.00  0.00    +0.000 OA
ATOM     21  N   UNL     1       3.793   1.202   0.000  0.00  0.00    +0.000 NA
ATOM     22  C   UNL     1       3.079   0.790   0.000  0.00  0.00    +0.000 C 
ATOM     23  C   UNL     1       3.793   2.027   0.000  0.00  0.00    +0.000 C 
ATOM     24  C   UNL     1       2.364   2.027   0.000  0.00  0.00    +0.000 C 
ATOM     25  C   UNL     1       2.364   1.202   0.000  0.00  0.00    +0.000 C 
ATOM     26  C   UNL     1       3.079   2.439   0.000  0.00  0.00    +0.000 C 
ENDBRANCH  19  21
ENDBRANCH  18  19
ENDBRANCH  17  18
ENDBRANCH   2  17
TORSDOF 5
