REMARK  Name = 161
REMARK  10 active torsions:
REMARK  status: ('A' for Active; 'I' for Inactive)
REMARK    1  A    between atoms: C_2  and  C_4
REMARK    2  A    between atoms: C_4  and  C_5
REMARK    3  A    between atoms: C_4  and  N_9
REMARK    4  A    between atoms: C_5  and  C_6
REMARK    5  A    between atoms: C_10  and  C_12
REMARK    6  A    between atoms: C_17  and  C_18
REMARK    7  A    between atoms: C_18  and  N_19
REMARK    8  A    between atoms: N_19  and  S_20
REMARK    9  A    between atoms: S_20  and  C_23
REMARK   10  A    between atoms: C_29  and  C_30
REMARK                            x       y       z     vdW  Elec       q    Type
REMARK                         _______ _______ _______ _____ _____    ______ ____
ROOT
ATOM      1  C   UNL     1      -0.730   1.072   0.000  0.00  0.00    +0.000 A 
ATOM      2  C   UNL     1      -0.015   1.485   0.000  0.00  0.00    +0.000 A 
ATOM      3  C   UNL     1       0.699   1.072   0.000  0.00  0.00    +0.000 A 
ATOM      4  C   UNL     1      -0.730   0.247   0.000  0.00  0.00    +0.000 A 
ATOM      5  C   UNL     1      -0.015  -0.165   0.000  0.00  0.00    +0.000 A 
ATOM      6  C   UNL     1       0.699   0.247   0.000  0.00  0.00    +0.000 A 
ENDROOT
BRANCH   1   8
ATOM      7  N   UNL     1      -2.159   1.072   0.000  0.00  0.00    +0.000 NA
ATOM      8  C   UNL     1      -1.444   1.485   0.000  0.00  0.00    +0.000 C 
ATOM      9  O   UNL     1      -1.444   2.310   0.000  0.00  0.00    +0.000 OA
BRANCH   7  10
ATOM     10  C   UNL     1      -2.873   1.485   0.000  0.00  0.00    +0.000 C 
BRANCH  10  12
ATOM     11  C   UNL     1      -2.159   2.722   0.000  0.00  0.00    +0.000 C 
ATOM     12  C   UNL     1      -2.873   2.310   0.000  0.00  0.00    +0.000 C 
ATOM     13  O   UNL     1      -3.588   2.722   0.000  0.00  0.00    +0.000 OA
ENDBRANCH  10  12
BRANCH  10  14
ATOM     14  C   UNL     1      -3.588   1.072   0.000  0.00  0.00    +0.000 C 
BRANCH  14  15
ATOM     15  C   UNL     1      -4.302   1.485   0.000  0.00  0.00    +0.000 C 
ATOM     16  O   UNL     1      -5.016   1.072   0.000  0.00  0.00    +0.000 OA
ATOM     17  O   UNL     1      -4.302   2.310   0.000  0.00  0.00    +0.000 OA
ENDBRANCH  14  15
ENDBRANCH  10  14
ENDBRANCH   7  10
ENDBRANCH   1   8
BRANCH   6  18
ATOM     18  C   UNL     1       1.414  -0.165   0.000  0.00  0.00    +0.000 C 
BRANCH  18  19
ATOM     19  N   UNL     1       1.414  -0.990   0.000  0.00  0.00    +0.000 NA
BRANCH  19  20
ATOM     20  S   UNL     1       2.128  -1.403   0.000  0.00  0.00    +0.000 S 
ATOM     21  O   UNL     1       1.716  -2.117   0.000  0.00  0.00    +0.000 OA
ATOM     22  O   UNL     1       2.541  -0.688   0.000  0.00  0.00    +0.000 OA
BRANCH  20  23
ATOM     23  C   UNL     1       2.843  -1.815   0.000  0.00  0.00    +0.000 A 
ATOM     24  C   UNL     1       3.557  -1.403   0.000  0.00  0.00    +0.000 A 
ATOM     25  C   UNL     1       2.843  -2.640   0.000  0.00  0.00    +0.000 A 
ATOM     26  C   UNL     1       3.557  -3.053   0.000  0.00  0.00    +0.000 A 
ATOM     27  C   UNL     1       4.272  -2.640   0.000  0.00  0.00    +0.000 A 
ATOM     28  O   UNL     1       4.986  -3.053   0.000  0.00  0.00    +0.000 OA
ATOM     29  C   UNL     1       4.272  -1.815   0.000  0.00  0.00    +0.000 A 
BRANCH  29  30
ATOM     30  C   UNL     1       4.986  -1.403   0.000  0.00  0.00    +0.000 C 
ATOM     31  O   UNL     1       5.701  -1.815   0.000  0.00  0.00    +0.000 OA
ATOM     32  O   UNL     1       4.986  -0.578   0.000  0.00  0.00    +0.000 OA
ENDBRANCH  29  30
ENDBRANCH  20  23
ENDBRANCH  19  20
ENDBRANCH  18  19
ENDBRANCH   6  18
TORSDOF 10
