REMARK  Name = 1610
REMARK  9 active torsions:
REMARK  status: ('A' for Active; 'I' for Inactive)
REMARK    1  A    between atoms: O_1  and  C_14
REMARK    2  A    between atoms: O_1  and  C_19
REMARK    3  A    between atoms: O_2  and  C_15
REMARK    4  A    between atoms: O_2  and  C_18
REMARK    5  A    between atoms: N_6  and  C_19
REMARK    6  A    between atoms: C_12  and  C_13
REMARK    7  A    between atoms: C_13  and  C_18
REMARK    8  A    between atoms: C_14  and  C_15
REMARK    9  A    between atoms: C_14  and  C_20
REMARK                            x       y       z     vdW  Elec       q    Type
REMARK                         _______ _______ _______ _____ _____    ______ ____
ROOT
ATOM      1  O   UNL     1       6.081  -0.262   0.000  0.00  0.00    +0.000 OA
ENDROOT
BRANCH   1   2
ATOM      2  C   UNL     1       6.337   0.522   0.000  0.00  0.00    +0.000 C 
BRANCH   2   4
ATOM      3  O   UNL     1       6.042   1.920   0.000  0.00  0.00    +0.000 OA
ATOM      4  C   UNL     1       5.786   1.136   0.000  0.00  0.00    +0.000 C 
ENDBRANCH   2   4
BRANCH   2   5
ATOM      5  C   UNL     1       7.144   0.692   0.000  0.00  0.00    +0.000 C 
BRANCH   5   6
ATOM      6  O   UNL     1       7.401   1.476   0.000  0.00  0.00    +0.000 OA
BRANCH   6   8
ATOM      7  O   UNL     1       8.759   1.032   0.000  0.00  0.00    +0.000 OA
ATOM      8  C   UNL     1       8.208   1.646   0.000  0.00  0.00    +0.000 C 
BRANCH   8  10
ATOM      9  N   UNL     1       7.913   3.045   0.000  0.00  0.00    +0.000 NA
ATOM     10  C   UNL     1       8.464   2.430   0.000  0.00  0.00    +0.000 C 
BRANCH  10  11
ATOM     11  C   UNL     1       9.271   2.600   0.000  0.00  0.00    +0.000 C 
ATOM     12  C   UNL     1       9.822   1.986   0.000  0.00  0.00    +0.000 C 
ATOM     13  C   UNL     1       9.528   3.385   0.000  0.00  0.00    +0.000 C 
ENDBRANCH  10  11
ENDBRANCH   8  10
ENDBRANCH   6   8
ENDBRANCH   5   6
ENDBRANCH   2   5
ENDBRANCH   1   2
BRANCH   1  14
ATOM     14  C   UNL     1       5.273  -0.433   0.000  0.00  0.00    +0.000 C 
BRANCH  14  16
ATOM     15  O   UNL     1       3.522  -3.531   0.000  0.00  0.00    +0.000 OA
ATOM     16  N   UNL     1       5.017  -1.217   0.000  0.00  0.00    +0.000 N 
ATOM     17  N   UNL     1       3.522  -1.056   0.000  0.00  0.00    +0.000 NA
ATOM     18  N   UNL     1       5.017  -2.545   0.000  0.00  0.00    +0.000 NA
ATOM     19  N   UNL     1       2.808  -2.293   0.000  0.00  0.00    +0.000 NA
ATOM     20  N   UNL     1       2.093  -1.056   0.000  0.00  0.00    +0.000 NA
ATOM     21  C   UNL     1       4.237  -1.468   0.000  0.00  0.00    +0.000 A 
ATOM     22  C   UNL     1       4.237  -2.293   0.000  0.00  0.00    +0.000 A 
ATOM     23  C   UNL     1       5.499  -1.881   0.000  0.00  0.00    +0.000 A 
ATOM     24  C   UNL     1       3.522  -2.706   0.000  0.00  0.00    +0.000 A 
ATOM     25  C   UNL     1       2.808  -1.468   0.000  0.00  0.00    +0.000 A 
ENDBRANCH  14  16
ENDBRANCH   1  14
TORSDOF 9
