REMARK  Name = 1611
REMARK  9 active torsions:
REMARK  status: ('A' for Active; 'I' for Inactive)
REMARK    1  A    between atoms: N_3  and  C_9
REMARK    2  A    between atoms: N_3  and  C_10
REMARK    3  A    between atoms: N_3  and  C_12
REMARK    4  A    between atoms: N_4  and  C_8
REMARK    5  A    between atoms: N_4  and  C_13
REMARK    6  A    between atoms: C_6  and  C_7
REMARK    7  A    between atoms: C_6  and  C_8
REMARK    8  A    between atoms: C_7  and  C_9
REMARK    9  A    between atoms: C_10  and  C_14
REMARK                            x       y       z     vdW  Elec       q    Type
REMARK                         _______ _______ _______ _____ _____    ______ ____
ROOT
ATOM      1  N   UNL     1       5.222   1.351   0.000  0.00  0.00    +0.000 NA
ENDROOT
BRANCH   1   4
ATOM      2 CL   UNL     1       8.135   3.846   0.000  0.00  0.00    +0.000 Cl
ATOM      3  N   UNL     1       5.222   3.826   0.000  0.00  0.00    +0.000 NA
ATOM      4  C   UNL     1       5.222   2.176   0.000  0.00  0.00    +0.000 A 
ATOM      5  C   UNL     1       5.937   2.589   0.000  0.00  0.00    +0.000 A 
ATOM      6  C   UNL     1       4.508   2.589   0.000  0.00  0.00    +0.000 A 
ATOM      7  C   UNL     1       5.937   3.414   0.000  0.00  0.00    +0.000 A 
ATOM      8  C   UNL     1       6.674   2.147   0.000  0.00  0.00    +0.000 A 
ATOM      9  C   UNL     1       4.508   3.414   0.000  0.00  0.00    +0.000 A 
ATOM     10  C   UNL     1       6.674   3.855   0.000  0.00  0.00    +0.000 A 
ATOM     11  C   UNL     1       7.422   2.571   0.000  0.00  0.00    +0.000 A 
ATOM     12  C   UNL     1       7.422   3.431   0.000  0.00  0.00    +0.000 A 
ENDBRANCH   1   4
BRANCH   1  13
ATOM     13  C   UNL     1       4.508   0.939   0.000  0.00  0.00    +0.000 C 
ATOM     14  C   UNL     1       3.793   1.351   0.000  0.00  0.00    +0.000 C 
BRANCH  13  15
ATOM     15  C   UNL     1       4.508   0.114   0.000  0.00  0.00    +0.000 C 
BRANCH  15  16
ATOM     16  C   UNL     1       3.793  -0.299   0.000  0.00  0.00    +0.000 C 
BRANCH  16  17
ATOM     17  C   UNL     1       3.793  -1.124   0.000  0.00  0.00    +0.000 C 
BRANCH  17  18
ATOM     18  N   UNL     1       3.079  -1.536   0.000  0.00  0.00    +0.000 NA
BRANCH  18  19
ATOM     19  C   UNL     1       2.365  -1.124   0.000  0.00  0.00    +0.000 C 
ATOM     20  C   UNL     1       1.650  -1.536   0.000  0.00  0.00    +0.000 C 
ENDBRANCH  18  19
BRANCH  18  21
ATOM     21  C   UNL     1       3.079  -2.361   0.000  0.00  0.00    +0.000 C 
BRANCH  21  23
ATOM     22  O   UNL     1       2.365  -3.599   0.000  0.00  0.00    +0.000 OA
ATOM     23  C   UNL     1       2.365  -2.774   0.000  0.00  0.00    +0.000 C 
ENDBRANCH  21  23
ENDBRANCH  18  21
ENDBRANCH  17  18
ENDBRANCH  16  17
ENDBRANCH  15  16
ENDBRANCH  13  15
ENDBRANCH   1  13
TORSDOF 9
