REMARK  Name = 1616
REMARK  9 active torsions:
REMARK  status: ('A' for Active; 'I' for Inactive)
REMARK    1  A    between atoms: N_1  and  C_2
REMARK    2  A    between atoms: N_1  and  C_3
REMARK    3  A    between atoms: N_1  and  C_6
REMARK    4  A    between atoms: C_2  and  C_4
REMARK    5  A    between atoms: C_3  and  C_5
REMARK    6  A    between atoms: C_4  and  C_7
REMARK    7  A    between atoms: C_5  and  C_8
REMARK    8  A    between atoms: C_7  and  C_10
REMARK    9  A    between atoms: C_8  and  C_11
REMARK                            x       y       z     vdW  Elec       q    Type
REMARK                         _______ _______ _______ _____ _____    ______ ____
ROOT
ATOM      1  N   UNL     1       3.793   0.206   0.000  0.00  0.00    +0.000 NA
ENDROOT
BRANCH   1   2
ATOM      2  C   UNL     1       4.508  -0.206   0.000  0.00  0.00    +0.000 C 
ATOM      3  C   UNL     1       5.222   0.206   0.000  0.00  0.00    +0.000 C 
ENDBRANCH   1   2
BRANCH   1   4
ATOM      4  C   UNL     1       3.079  -0.206   0.000  0.00  0.00    +0.000 C 
BRANCH   4   5
ATOM      5  C   UNL     1       3.079  -1.031   0.000  0.00  0.00    +0.000 C 
BRANCH   5   6
ATOM      6  C   UNL     1       2.365  -1.444   0.000  0.00  0.00    +0.000 C 
BRANCH   6   7
ATOM      7  C   UNL     1       2.365  -2.269   0.000  0.00  0.00    +0.000 A 
ATOM      8  C   UNL     1       3.079  -2.681   0.000  0.00  0.00    +0.000 A 
ATOM      9  C   UNL     1       1.650  -2.681   0.000  0.00  0.00    +0.000 A 
ATOM     10  C   UNL     1       3.079  -3.506   0.000  0.00  0.00    +0.000 A 
ATOM     11  C   UNL     1       1.650  -3.506   0.000  0.00  0.00    +0.000 A 
ATOM     12  C   UNL     1       2.365  -3.919   0.000  0.00  0.00    +0.000 A 
ENDBRANCH   6   7
ENDBRANCH   5   6
ENDBRANCH   4   5
ENDBRANCH   1   4
BRANCH   1  13
ATOM     13  C   UNL     1       3.793   1.031   0.000  0.00  0.00    +0.000 C 
BRANCH  13  14
ATOM     14  C   UNL     1       4.508   1.444   0.000  0.00  0.00    +0.000 C 
BRANCH  14  15
ATOM     15  C   UNL     1       4.508   2.269   0.000  0.00  0.00    +0.000 C 
BRANCH  15  16
ATOM     16  C   UNL     1       5.222   2.681   0.000  0.00  0.00    +0.000 A 
ATOM     17  C   UNL     1       5.222   3.506   0.000  0.00  0.00    +0.000 A 
ATOM     18  C   UNL     1       5.937   2.269   0.000  0.00  0.00    +0.000 A 
ATOM     19  C   UNL     1       5.937   3.919   0.000  0.00  0.00    +0.000 A 
ATOM     20  C   UNL     1       6.652   2.681   0.000  0.00  0.00    +0.000 A 
ATOM     21  C   UNL     1       6.652   3.506   0.000  0.00  0.00    +0.000 A 
ENDBRANCH  15  16
ENDBRANCH  14  15
ENDBRANCH  13  14
ENDBRANCH   1  13
TORSDOF 9
