REMARK  Name = 1618
REMARK  3 active torsions:
REMARK  status: ('A' for Active; 'I' for Inactive)
REMARK    1  A    between atoms: N_3  and  C_7
REMARK    2  A    between atoms: C_5  and  C_7
REMARK    3  A    between atoms: C_12  and  C_18
REMARK                            x       y       z     vdW  Elec       q    Type
REMARK                         _______ _______ _______ _____ _____    ______ ____
ROOT
ATOM      1  O   UNL     1       5.222   1.400   0.000  0.00  0.00    +0.000 OA
ATOM      2  N   UNL     1       6.718  -0.914   0.000  0.00  0.00    +0.000 NA
ATOM      3  C   UNL     1       4.508   0.163   0.000  0.00  0.00    +0.000 C 
ATOM      4  C   UNL     1       4.508  -0.662   0.000  0.00  0.00    +0.000 C 
ATOM      5  C   UNL     1       5.222  -1.075   0.000  0.00  0.00    +0.000 C 
ATOM      6  C   UNL     1       5.937   0.163   0.000  0.00  0.00    +0.000 A 
ATOM      7  C   UNL     1       5.937  -0.662   0.000  0.00  0.00    +0.000 A 
ATOM      8  C   UNL     1       5.222   0.575   0.000  0.00  0.00    +0.000 C 
ATOM      9  C   UNL     1       6.718   0.414   0.000  0.00  0.00    +0.000 A 
ATOM     10  C   UNL     1       7.199  -0.250   0.000  0.00  0.00    +0.000 A 
ATOM     11  C   UNL     1       8.024  -0.250   0.000  0.00  0.00    +0.000 C 
ENDROOT
BRANCH   9  12
ATOM     12  C   UNL     1       6.974   1.198   0.000  0.00  0.00    +0.000 C 
ATOM     13  C   UNL     1       7.781   1.368   0.000  0.00  0.00    +0.000 C 
ENDBRANCH   9  12
BRANCH   3  14
ATOM     14  C   UNL     1       3.793   0.575   0.000  0.00  0.00    +0.000 C 
BRANCH  14  16
ATOM     15  O   UNL     1       1.650  -0.662   0.000  0.00  0.00    +0.000 OA
ATOM     16  N   UNL     1       3.079   0.163   0.000  0.00  0.00    +0.000 NA
ATOM     17  C   UNL     1       2.365   0.575   0.000  0.00  0.00    +0.000 C 
ATOM     18  C   UNL     1       3.079  -0.662   0.000  0.00  0.00    +0.000 C 
ATOM     19  C   UNL     1       1.650   0.163   0.000  0.00  0.00    +0.000 C 
ATOM     20  C   UNL     1       2.365  -1.075   0.000  0.00  0.00    +0.000 C 
ENDBRANCH  14  16
ENDBRANCH   3  14
TORSDOF 3
