REMARK  Name = 1619
REMARK  1 active torsions:
REMARK  status: ('A' for Active; 'I' for Inactive)
REMARK    1  A    between atoms: C_2  and  C_10
REMARK                            x       y       z     vdW  Elec       q    Type
REMARK                         _______ _______ _______ _____ _____    ______ ____
ROOT
ATOM      1  N   UNL     1       5.820  -1.206   0.000  0.00  0.00    +0.000 NA
ATOM      2  C   UNL     1       3.735  -0.279   0.000  0.00  0.00    +0.000 C 
ATOM      3  C   UNL     1       4.402  -0.764   0.000  0.00  0.00    +0.000 C 
ATOM      4  C   UNL     1       4.147  -1.548   0.000  0.00  0.00    +0.000 C 
ATOM      5  C   UNL     1       5.240  -0.572   0.000  0.00  0.00    +0.000 C 
ATOM      6  C   UNL     1       3.067  -0.764   0.000  0.00  0.00    +0.000 A 
ATOM      7  C   UNL     1       4.713  -2.196   0.000  0.00  0.00    +0.000 C 
ATOM      8  C   UNL     1       3.322  -1.548   0.000  0.00  0.00    +0.000 A 
ATOM      9  C   UNL     1       5.554  -2.024   0.000  0.00  0.00    +0.000 C 
ATOM     10  C   UNL     1       2.230  -0.572   0.000  0.00  0.00    +0.000 A 
ATOM     11  C   UNL     1       2.757  -2.196   0.000  0.00  0.00    +0.000 A 
ATOM     12  C   UNL     1       6.626  -1.032   0.000  0.00  0.00    +0.000 C 
ATOM     13  C   UNL     1       1.650  -1.206   0.000  0.00  0.00    +0.000 A 
ATOM     14  C   UNL     1       1.915  -2.024   0.000  0.00  0.00    +0.000 A 
ENDROOT
BRANCH   2  15
ATOM     15  C   UNL     1       3.735   0.546   0.000  0.00  0.00    +0.000 A 
ATOM     16  C   UNL     1       3.021   0.958   0.000  0.00  0.00    +0.000 A 
ATOM     17  C   UNL     1       4.449   0.958   0.000  0.00  0.00    +0.000 A 
ATOM     18  C   UNL     1       3.021   1.783   0.000  0.00  0.00    +0.000 A 
ATOM     19  C   UNL     1       4.449   1.783   0.000  0.00  0.00    +0.000 A 
ATOM     20  C   UNL     1       3.735   2.196   0.000  0.00  0.00    +0.000 A 
ENDBRANCH   2  15
TORSDOF 1
