REMARK  Name = 1620
REMARK  5 active torsions:
REMARK  status: ('A' for Active; 'I' for Inactive)
REMARK    1  A    between atoms: N_1  and  C_5
REMARK    2  A    between atoms: C_3  and  C_4
REMARK    3  A    between atoms: C_3  and  C_6
REMARK    4  A    between atoms: C_3  and  C_7
REMARK    5  A    between atoms: C_4  and  C_5
REMARK                            x       y       z     vdW  Elec       q    Type
REMARK                         _______ _______ _______ _____ _____    ______ ____
ROOT
ATOM      1  C   UNL     1       3.793   0.000   0.000  0.00  0.00    +0.000 C 
ENDROOT
BRANCH   1   3
ATOM      2  N   UNL     1       5.222   0.000   0.000  0.00  0.00    +0.000 NA
ATOM      3  C   UNL     1       4.508   0.412   0.000  0.00  0.00    +0.000 A 
ATOM      4  C   UNL     1       4.508   1.238   0.000  0.00  0.00    +0.000 A 
ATOM      5  C   UNL     1       5.222   1.650   0.000  0.00  0.00    +0.000 A 
ATOM      6  C   UNL     1       5.937   0.412   0.000  0.00  0.00    +0.000 A 
ATOM      7  C   UNL     1       5.937   1.238   0.000  0.00  0.00    +0.000 A 
ENDBRANCH   1   3
BRANCH   1   8
ATOM      8  C   UNL     1       3.793  -0.825   0.000  0.00  0.00    +0.000 A 
ATOM      9  C   UNL     1       4.508  -1.238   0.000  0.00  0.00    +0.000 A 
ATOM     10  C   UNL     1       3.079  -1.238   0.000  0.00  0.00    +0.000 A 
ATOM     11  C   UNL     1       4.508  -2.062   0.000  0.00  0.00    +0.000 A 
ATOM     12  C   UNL     1       3.079  -2.062   0.000  0.00  0.00    +0.000 A 
ATOM     13  C   UNL     1       3.793  -2.475   0.000  0.00  0.00    +0.000 A 
ENDBRANCH   1   8
BRANCH   1  14
ATOM     14  C   UNL     1       3.079   0.412   0.000  0.00  0.00    +0.000 C 
BRANCH  14  15
ATOM     15  C   UNL     1       3.079   1.238   0.000  0.00  0.00    +0.000 C 
BRANCH  15  16
ATOM     16  N   UNL     1       2.365   1.650   0.000  0.00  0.00    +0.000 NA
ATOM     17  C   UNL     1       2.365   2.475   0.000  0.00  0.00    +0.000 C 
ATOM     18  C   UNL     1       1.650   1.238   0.000  0.00  0.00    +0.000 C 
ENDBRANCH  15  16
ENDBRANCH  14  15
ENDBRANCH   1  14
TORSDOF 5
