REMARK  Name = 1621
REMARK  8 active torsions:
REMARK  status: ('A' for Active; 'I' for Inactive)
REMARK    1  A    between atoms: S_2  and  N_8
REMARK    2  A    between atoms: S_2  and  C_24
REMARK    3  A    between atoms: N_6  and  C_15
REMARK    4  A    between atoms: N_7  and  C_18
REMARK    5  A    between atoms: C_9  and  C_14
REMARK    6  A    between atoms: C_14  and  C_17
REMARK    7  A    between atoms: C_15  and  C_16
REMARK    8  A    between atoms: C_16  and  C_18
REMARK                            x       y       z     vdW  Elec       q    Type
REMARK                         _______ _______ _______ _____ _____    ______ ____
ROOT
ATOM      1  S   UNL     1       5.936  -3.541   0.000  0.00  0.00    +0.000 S 
ATOM      2  N   UNL     1       5.936  -1.891   0.000  0.00  0.00    +0.000 N 
ATOM      3  C   UNL     1       6.650  -2.304   0.000  0.00  0.00    +0.000 A 
ATOM      4  C   UNL     1       5.222  -2.304   0.000  0.00  0.00    +0.000 A 
ATOM      5  C   UNL     1       6.650  -3.129   0.000  0.00  0.00    +0.000 A 
ATOM      6  C   UNL     1       5.222  -3.129   0.000  0.00  0.00    +0.000 A 
ATOM      7  C   UNL     1       7.388  -1.863   0.000  0.00  0.00    +0.000 A 
ATOM      8  C   UNL     1       8.135  -2.287   0.000  0.00  0.00    +0.000 A 
ATOM      9  C   UNL     1       4.484  -1.863   0.000  0.00  0.00    +0.000 A 
ATOM     10  C   UNL     1       7.388  -3.570   0.000  0.00  0.00    +0.000 A 
ATOM     11  C   UNL     1       8.135  -3.146   0.000  0.00  0.00    +0.000 A 
ATOM     12  C   UNL     1       4.484  -3.570   0.000  0.00  0.00    +0.000 A 
ATOM     13  C   UNL     1       3.737  -2.287   0.000  0.00  0.00    +0.000 A 
ATOM     14  C   UNL     1       3.737  -3.146   0.000  0.00  0.00    +0.000 A 
ENDROOT
BRANCH   8  15
ATOM     15  S   UNL     1       8.848  -1.871   0.000  0.00  0.00    +0.000 S 
ATOM     16  O   UNL     1       8.433  -1.158   0.000  0.00  0.00    +0.000 OA
ATOM     17  O   UNL     1       9.263  -2.584   0.000  0.00  0.00    +0.000 OA
BRANCH  15  18
ATOM     18  N   UNL     1       9.561  -1.456   0.000  0.00  0.00    +0.000 NA
ATOM     19  C   UNL     1      10.277  -1.866   0.000  0.00  0.00    +0.000 C 
ATOM     20  C   UNL     1       9.558  -0.631   0.000  0.00  0.00    +0.000 C 
ENDBRANCH  15  18
ENDBRANCH   8  15
BRANCH   2  21
ATOM     21  C   UNL     1       5.936  -1.066   0.000  0.00  0.00    +0.000 C 
BRANCH  21  22
ATOM     22  C   UNL     1       5.222  -0.654   0.000  0.00  0.00    +0.000 C 
BRANCH  22  23
ATOM     23  C   UNL     1       5.222   0.171   0.000  0.00  0.00    +0.000 C 
BRANCH  23  24
ATOM     24  N   UNL     1       4.507   0.583   0.000  0.00  0.00    +0.000 NA
ATOM     25  C   UNL     1       3.079   1.408   0.000  0.00  0.00    +0.000 C 
ATOM     26  C   UNL     1       3.793   1.821   0.000  0.00  0.00    +0.000 C 
ATOM     27  C   UNL     1       3.079   0.583   0.000  0.00  0.00    +0.000 C 
ATOM     28  C   UNL     1       4.507   1.408   0.000  0.00  0.00    +0.000 C 
ATOM     29  C   UNL     1       3.793   0.171   0.000  0.00  0.00    +0.000 C 
BRANCH  25  30
ATOM     30  C   UNL     1       2.364   1.821   0.000  0.00  0.00    +0.000 C 
BRANCH  30  32
ATOM     31  O   UNL     1       1.650   3.058   0.000  0.00  0.00    +0.000 OA
ATOM     32  C   UNL     1       2.364   2.646   0.000  0.00  0.00    +0.000 C 
ENDBRANCH  30  32
ENDBRANCH  25  30
ENDBRANCH  23  24
ENDBRANCH  22  23
ENDBRANCH  21  22
ENDBRANCH   2  21
TORSDOF 8
