REMARK  Name = 1622
REMARK  6 active torsions:
REMARK  status: ('A' for Active; 'I' for Inactive)
REMARK    1  A    between atoms: S_2  and  N_8
REMARK    2  A    between atoms: S_2  and  C_22
REMARK    3  A    between atoms: N_5  and  C_11
REMARK    4  A    between atoms: N_7  and  C_15
REMARK    5  A    between atoms: C_11  and  C_14
REMARK    6  A    between atoms: C_14  and  C_15
REMARK                            x       y       z     vdW  Elec       q    Type
REMARK                         _______ _______ _______ _____ _____    ______ ____
ROOT
ATOM      1  S   UNL     1       5.222  -2.667   0.000  0.00  0.00    +0.000 S 
ATOM      2  N   UNL     1       5.222  -1.017   0.000  0.00  0.00    +0.000 N 
ATOM      3  C   UNL     1       5.936  -1.429   0.000  0.00  0.00    +0.000 A 
ATOM      4  C   UNL     1       4.507  -1.429   0.000  0.00  0.00    +0.000 A 
ATOM      5  C   UNL     1       5.936  -2.254   0.000  0.00  0.00    +0.000 A 
ATOM      6  C   UNL     1       4.507  -2.254   0.000  0.00  0.00    +0.000 A 
ATOM      7  C   UNL     1       6.673  -0.988   0.000  0.00  0.00    +0.000 A 
ATOM      8  C   UNL     1       7.421  -1.412   0.000  0.00  0.00    +0.000 A 
ATOM      9  C   UNL     1       3.770  -0.988   0.000  0.00  0.00    +0.000 A 
ATOM     10  C   UNL     1       6.673  -2.695   0.000  0.00  0.00    +0.000 A 
ATOM     11  C   UNL     1       7.421  -2.271   0.000  0.00  0.00    +0.000 A 
ATOM     12  C   UNL     1       3.770  -2.695   0.000  0.00  0.00    +0.000 A 
ATOM     13  C   UNL     1       3.022  -1.412   0.000  0.00  0.00    +0.000 A 
ATOM     14  C   UNL     1       3.022  -2.271   0.000  0.00  0.00    +0.000 A 
ENDROOT
BRANCH   8  15
ATOM     15  S   UNL     1       8.134  -0.997   0.000  0.00  0.00    +0.000 S 
ATOM     16  O   UNL     1       7.718  -0.284   0.000  0.00  0.00    +0.000 OA
ATOM     17  O   UNL     1       8.549  -1.710   0.000  0.00  0.00    +0.000 OA
BRANCH  15  18
ATOM     18  N   UNL     1       8.846  -0.582   0.000  0.00  0.00    +0.000 NA
ATOM     19  C   UNL     1       8.843   0.243   0.000  0.00  0.00    +0.000 C 
ATOM     20  C   UNL     1       9.562  -0.991   0.000  0.00  0.00    +0.000 C 
ENDBRANCH  15  18
ENDBRANCH   8  15
BRANCH   2  21
ATOM     21  C   UNL     1       5.222  -0.192   0.000  0.00  0.00    +0.000 C 
BRANCH  21  22
ATOM     22  C   UNL     1       4.507   0.221   0.000  0.00  0.00    +0.000 C 
BRANCH  22  23
ATOM     23  C   UNL     1       4.507   1.045   0.000  0.00  0.00    +0.000 C 
BRANCH  23  24
ATOM     24  N   UNL     1       3.793   1.458   0.000  0.00  0.00    +0.000 NA
ATOM     25  N   UNL     1       2.364   2.283   0.000  0.00  0.00    +0.000 NA
ATOM     26  C   UNL     1       3.079   1.045   0.000  0.00  0.00    +0.000 C 
ATOM     27  C   UNL     1       3.793   2.283   0.000  0.00  0.00    +0.000 C 
ATOM     28  C   UNL     1       2.364   1.458   0.000  0.00  0.00    +0.000 C 
ATOM     29  C   UNL     1       3.079   2.695   0.000  0.00  0.00    +0.000 C 
ATOM     30  C   UNL     1       1.650   2.695   0.000  0.00  0.00    +0.000 C 
ENDBRANCH  23  24
ENDBRANCH  22  23
ENDBRANCH  21  22
ENDBRANCH   2  21
TORSDOF 6
