REMARK  Name = 1623
REMARK  5 active torsions:
REMARK  status: ('A' for Active; 'I' for Inactive)
REMARK    1  A    between atoms: S_1  and  N_7
REMARK    2  A    between atoms: S_1  and  C_22
REMARK    3  A    between atoms: N_5  and  C_12
REMARK    4  A    between atoms: C_12  and  C_13
REMARK    5  A    between atoms: C_13  and  C_15
REMARK                            x       y       z     vdW  Elec       q    Type
REMARK                         _______ _______ _______ _____ _____    ______ ____
ROOT
ATOM      1  S   UNL     1       3.849  -2.667   0.000  0.00  0.00    +0.000 S 
ATOM      2  C   UNL     1       3.849  -0.192   0.000  0.00  0.00    +0.000 C 
ATOM      3  C   UNL     1       3.849  -1.017   0.000  0.00  0.00    +0.000 C 
ATOM      4  C   UNL     1       4.564  -1.429   0.000  0.00  0.00    +0.000 A 
ATOM      5  C   UNL     1       3.135  -1.429   0.000  0.00  0.00    +0.000 A 
ATOM      6  C   UNL     1       4.564  -2.255   0.000  0.00  0.00    +0.000 A 
ATOM      7  C   UNL     1       5.301  -0.988   0.000  0.00  0.00    +0.000 A 
ATOM      8  C   UNL     1       3.135  -2.255   0.000  0.00  0.00    +0.000 A 
ATOM      9  C   UNL     1       6.049  -1.412   0.000  0.00  0.00    +0.000 A 
ATOM     10  C   UNL     1       5.301  -2.696   0.000  0.00  0.00    +0.000 A 
ATOM     11  C   UNL     1       2.397  -0.988   0.000  0.00  0.00    +0.000 A 
ATOM     12  C   UNL     1       6.049  -2.272   0.000  0.00  0.00    +0.000 A 
ATOM     13  C   UNL     1       2.397  -2.696   0.000  0.00  0.00    +0.000 A 
ATOM     14  C   UNL     1       1.650  -1.412   0.000  0.00  0.00    +0.000 A 
ATOM     15  C   UNL     1       1.650  -2.272   0.000  0.00  0.00    +0.000 A 
ENDROOT
BRANCH   9  16
ATOM     16  S   UNL     1       6.762  -0.997   0.000  0.00  0.00    +0.000 S 
ATOM     17  O   UNL     1       6.347  -0.284   0.000  0.00  0.00    +0.000 OA
ATOM     18  O   UNL     1       7.177  -1.710   0.000  0.00  0.00    +0.000 OA
BRANCH  16  19
ATOM     19  N   UNL     1       7.475  -0.582   0.000  0.00  0.00    +0.000 NA
ATOM     20  C   UNL     1       8.191  -0.992   0.000  0.00  0.00    +0.000 C 
ATOM     21  C   UNL     1       7.471   0.243   0.000  0.00  0.00    +0.000 C 
ENDBRANCH  16  19
ENDBRANCH   9  16
BRANCH   2  22
ATOM     22  C   UNL     1       4.564   0.221   0.000  0.00  0.00    +0.000 C 
BRANCH  22  23
ATOM     23  C   UNL     1       4.564   1.046   0.000  0.00  0.00    +0.000 C 
BRANCH  23  24
ATOM     24  N   UNL     1       5.278   1.458   0.000  0.00  0.00    +0.000 NA
ATOM     25  N   UNL     1       6.707   2.283   0.000  0.00  0.00    +0.000 NA
ATOM     26  C   UNL     1       5.993   1.046   0.000  0.00  0.00    +0.000 C 
ATOM     27  C   UNL     1       5.278   2.283   0.000  0.00  0.00    +0.000 C 
ATOM     28  C   UNL     1       6.707   1.458   0.000  0.00  0.00    +0.000 C 
ATOM     29  C   UNL     1       5.993   2.696   0.000  0.00  0.00    +0.000 C 
ATOM     30  C   UNL     1       7.422   2.696   0.000  0.00  0.00    +0.000 C 
ENDBRANCH  23  24
ENDBRANCH  22  23
ENDBRANCH   2  22
TORSDOF 5
