REMARK  Name = 1625
REMARK  8 active torsions:
REMARK  status: ('A' for Active; 'I' for Inactive)
REMARK    1  A    between atoms: N_2  and  C_4
REMARK    2  A    between atoms: N_2  and  C_5
REMARK    3  A    between atoms: N_2  and  C_6
REMARK    4  A    between atoms: C_4  and  C_7
REMARK    5  A    between atoms: C_7  and  C_9
REMARK    6  A    between atoms: C_9  and  C_14
REMARK    7  A    between atoms: C_9  and  C_15
REMARK    8  A    between atoms: C_9  and  C_16
REMARK                            x       y       z     vdW  Elec       q    Type
REMARK                         _______ _______ _______ _____ _____    ______ ____
ROOT
ATOM      1  C   UNL     1       4.950   0.000   0.000  0.00  0.00    +0.000 C 
ENDROOT
BRANCH   1   2
ATOM      2  C   UNL     1       4.950  -0.825   0.000  0.00  0.00    +0.000 A 
ATOM      3  C   UNL     1       5.665  -1.238   0.000  0.00  0.00    +0.000 A 
ATOM      4  C   UNL     1       4.236  -1.238   0.000  0.00  0.00    +0.000 A 
ATOM      5  C   UNL     1       5.665  -2.062   0.000  0.00  0.00    +0.000 A 
ATOM      6  C   UNL     1       4.236  -2.062   0.000  0.00  0.00    +0.000 A 
ATOM      7  C   UNL     1       4.950  -2.475   0.000  0.00  0.00    +0.000 A 
ENDBRANCH   1   2
BRANCH   1   8
ATOM      8  C   UNL     1       4.950   0.825   0.000  0.00  0.00    +0.000 A 
ATOM      9  C   UNL     1       4.236   1.238   0.000  0.00  0.00    +0.000 A 
ATOM     10  C   UNL     1       5.665   1.238   0.000  0.00  0.00    +0.000 A 
ATOM     11  C   UNL     1       4.236   2.062   0.000  0.00  0.00    +0.000 A 
ATOM     12  C   UNL     1       5.665   2.062   0.000  0.00  0.00    +0.000 A 
ATOM     13  C   UNL     1       4.950   2.475   0.000  0.00  0.00    +0.000 A 
ENDBRANCH   1   8
BRANCH   1  16
ATOM     14  O   UNL     1       6.188   0.715   0.000  0.00  0.00    +0.000 OA
ATOM     15  N   UNL     1       6.490  -0.412   0.000  0.00  0.00    +0.000 NA
ATOM     16  C   UNL     1       5.775   0.000   0.000  0.00  0.00    +0.000 C 
ENDBRANCH   1  16
BRANCH   1  17
ATOM     17  C   UNL     1       4.125   0.000   0.000  0.00  0.00    +0.000 C 
BRANCH  17  18
ATOM     18  C   UNL     1       3.713   0.715   0.000  0.00  0.00    +0.000 C 
BRANCH  18  19
ATOM     19  N   UNL     1       2.888   0.715   0.000  0.00  0.00    +0.000 N 
ATOM     20  C   UNL     1       2.888  -0.111   0.000  0.00  0.00    +0.000 C 
BRANCH  19  21
ATOM     21  C   UNL     1       2.888   1.540   0.000  0.00  0.00    +0.000 C 
ATOM     22  C   UNL     1       2.173   1.952   0.000  0.00  0.00    +0.000 C 
ATOM     23  C   UNL     1       3.602   1.952   0.000  0.00  0.00    +0.000 C 
ENDBRANCH  19  21
BRANCH  19  24
ATOM     24  C   UNL     1       2.062   0.715   0.000  0.00  0.00    +0.000 C 
ATOM     25  C   UNL     1       1.650   1.429   0.000  0.00  0.00    +0.000 C 
ATOM     26  C   UNL     1       1.650   0.000   0.000  0.00  0.00    +0.000 C 
ENDBRANCH  19  24
ENDBRANCH  18  19
ENDBRANCH  17  18
ENDBRANCH   1  17
TORSDOF 8
