REMARK  Name = 1626
REMARK  4 active torsions:
REMARK  status: ('A' for Active; 'I' for Inactive)
REMARK    1  A    between atoms: N_1  and  C_2
REMARK    2  A    between atoms: N_1  and  C_4
REMARK    3  A    between atoms: C_2  and  C_3
REMARK    4  A    between atoms: C_4  and  C_11
REMARK                            x       y       z     vdW  Elec       q    Type
REMARK                         _______ _______ _______ _____ _____    ______ ____
ROOT
ATOM      1  C   UNL     1       2.365   0.078   0.000  0.00  0.00    +0.000 C 
ENDROOT
BRANCH   1   2
ATOM      2  C   UNL     1       2.365  -0.747   0.000  0.00  0.00    +0.000 A 
ATOM      3  C   UNL     1       3.079  -1.159   0.000  0.00  0.00    +0.000 A 
ATOM      4  C   UNL     1       1.650  -1.159   0.000  0.00  0.00    +0.000 A 
ATOM      5  C   UNL     1       3.079  -1.984   0.000  0.00  0.00    +0.000 A 
ATOM      6  C   UNL     1       1.650  -1.984   0.000  0.00  0.00    +0.000 A 
ATOM      7  C   UNL     1       2.365  -2.397   0.000  0.00  0.00    +0.000 A 
ENDBRANCH   1   2
BRANCH   1   8
ATOM      8  N   UNL     1       3.079   0.491   0.000  0.00  0.00    +0.000 NA
ATOM      9  C   UNL     1       3.793   0.078   0.000  0.00  0.00    +0.000 C 
BRANCH   8  10
ATOM     10  C   UNL     1       3.079   1.316   0.000  0.00  0.00    +0.000 C 
BRANCH  10  11
ATOM     11  C   UNL     1       3.793   1.728   0.000  0.00  0.00    +0.000 C 
ATOM     12  C   UNL     1       4.508   2.141   0.000  0.00  0.00    +0.000 C 
ENDBRANCH  10  11
ENDBRANCH   8  10
ENDBRANCH   1   8
TORSDOF 4
