REMARK  Name = 1628
REMARK  3 active torsions:
REMARK  status: ('A' for Active; 'I' for Inactive)
REMARK    1  A    between atoms: S_2  and  C_9
REMARK    2  A    between atoms: C_7  and  C_8
REMARK    3  A    between atoms: C_10  and  C_15
REMARK                            x       y       z     vdW  Elec       q    Type
REMARK                         _______ _______ _______ _____ _____    ______ ____
ROOT
ATOM      1 CL   UNL     1       6.651  -2.888   0.000  0.00  0.00    +0.000 Cl
ATOM      2  N   UNL     1       4.508  -2.475   0.000  0.00  0.00    +0.000 NA
ATOM      3  C   UNL     1       5.222  -1.238   0.000  0.00  0.00    +0.000 A 
ATOM      4  C   UNL     1       4.508  -1.650   0.000  0.00  0.00    +0.000 A 
ATOM      5  C   UNL     1       5.937  -1.650   0.000  0.00  0.00    +0.000 A 
ATOM      6  C   UNL     1       5.937  -2.475   0.000  0.00  0.00    +0.000 A 
ATOM      7  C   UNL     1       5.222  -2.888   0.000  0.00  0.00    +0.000 A 
ENDROOT
BRANCH   4   9
ATOM      8  N   UNL     1       3.079   0.000   0.000  0.00  0.00    +0.000 NA
ATOM      9  C   UNL     1       3.793  -1.238   0.000  0.00  0.00    +0.000 A 
ATOM     10  C   UNL     1       3.079  -1.650   0.000  0.00  0.00    +0.000 A 
ATOM     11  C   UNL     1       3.793  -0.412   0.000  0.00  0.00    +0.000 A 
ATOM     12  C   UNL     1       2.364  -1.238   0.000  0.00  0.00    +0.000 A 
ATOM     13  C   UNL     1       2.364  -0.412   0.000  0.00  0.00    +0.000 A 
ATOM     14  C   UNL     1       1.650   0.000   0.000  0.00  0.00    +0.000 C 
ENDBRANCH   4   9
BRANCH   3  15
ATOM     15  C   UNL     1       5.222  -0.412   0.000  0.00  0.00    +0.000 A 
ATOM     16  C   UNL     1       5.222   1.238   0.000  0.00  0.00    +0.000 A 
ATOM     17  C   UNL     1       4.508   0.000   0.000  0.00  0.00    +0.000 A 
ATOM     18  C   UNL     1       5.937   0.000   0.000  0.00  0.00    +0.000 A 
ATOM     19  C   UNL     1       4.508   0.825   0.000  0.00  0.00    +0.000 A 
ATOM     20  C   UNL     1       5.937   0.825   0.000  0.00  0.00    +0.000 A 
BRANCH  16  21
ATOM     21  S   UNL     1       5.222   2.062   0.000  0.00  0.00    +0.000 S 
ATOM     22  O   UNL     1       4.397   2.062   0.000  0.00  0.00    +0.000 OA
ATOM     23  O   UNL     1       6.047   2.062   0.000  0.00  0.00    +0.000 OA
ATOM     24  C   UNL     1       5.222   2.888   0.000  0.00  0.00    +0.000 C 
ENDBRANCH  16  21
ENDBRANCH   3  15
TORSDOF 3
