REMARK  Name = 163
REMARK  12 active torsions:
REMARK  status: ('A' for Active; 'I' for Inactive)
REMARK    1  A    between atoms: C_3  and  C_4
REMARK    2  A    between atoms: C_4  and  C_6
REMARK    3  A    between atoms: C_6  and  C_8
REMARK    4  A    between atoms: C_7  and  C_8
REMARK    5  A    between atoms: C_7  and  C_10
REMARK    6  A    between atoms: C_10  and  C_13
REMARK    7  A    between atoms: C_13  and  C_15
REMARK    8  A    between atoms: C_15  and  C_16
REMARK    9  A    between atoms: C_16  and  C_18
REMARK   10  A    between atoms: C_18  and  C_21
REMARK   11  A    between atoms: C_21  and  C_25
REMARK   12  A    between atoms: C_25  and  C_26
REMARK                            x       y       z     vdW  Elec       q    Type
REMARK                         _______ _______ _______ _____ _____    ______ ____
ROOT
ATOM      1  C   UNL     1       6.546  -1.880   0.000  0.00  0.00    +0.000 C 
ENDROOT
BRANCH   1   4
ATOM      2  O   UNL     1       4.974  -2.301   0.000  0.00  0.00    +0.000 OA
ATOM      3  O   UNL     1       2.093  -0.622   0.000  0.00  0.00    +0.000 OA
ATOM      4  C   UNL     1       5.721  -1.877   0.000  0.00  0.00    +0.000 C 
ATOM      5  C   UNL     1       5.721  -1.018   0.000  0.00  0.00    +0.000 C 
ATOM      6  C   UNL     1       4.974  -0.594   0.000  0.00  0.00    +0.000 C 
ATOM      7  C   UNL     1       6.131  -2.593   0.000  0.00  0.00    +0.000 C 
ATOM      8  C   UNL     1       4.237  -1.035   0.000  0.00  0.00    +0.000 A 
ATOM      9  C   UNL     1       4.237  -1.860   0.000  0.00  0.00    +0.000 A 
ATOM     10  C   UNL     1       3.522  -0.622   0.000  0.00  0.00    +0.000 A 
ATOM     11  C   UNL     1       3.522  -2.272   0.000  0.00  0.00    +0.000 A 
ATOM     12  C   UNL     1       2.808  -1.860   0.000  0.00  0.00    +0.000 A 
ATOM     13  C   UNL     1       2.808  -1.035   0.000  0.00  0.00    +0.000 A 
ATOM     14  C   UNL     1       3.522   0.203   0.000  0.00  0.00    +0.000 C 
ATOM     15  C   UNL     1       3.522  -3.097   0.000  0.00  0.00    +0.000 C 
ATOM     16  C   UNL     1       2.093  -2.272   0.000  0.00  0.00    +0.000 C 
ENDBRANCH   1   4
BRANCH   1  17
ATOM     17  C   UNL     1       6.962  -1.167   0.000  0.00  0.00    +0.000 C 
BRANCH  17  18
ATOM     18  C   UNL     1       7.787  -1.171   0.000  0.00  0.00    +0.000 C 
BRANCH  18  19
ATOM     19  C   UNL     1       8.202  -0.458   0.000  0.00  0.00    +0.000 C 
ATOM     20  C   UNL     1       7.792   0.259   0.000  0.00  0.00    +0.000 C 
BRANCH  19  21
ATOM     21  C   UNL     1       9.027  -0.461   0.000  0.00  0.00    +0.000 C 
BRANCH  21  22
ATOM     22  C   UNL     1       9.442   0.252   0.000  0.00  0.00    +0.000 C 
BRANCH  22  23
ATOM     23  C   UNL     1      10.267   0.249   0.000  0.00  0.00    +0.000 C 
BRANCH  23  24
ATOM     24  C   UNL     1      10.683   0.962   0.000  0.00  0.00    +0.000 C 
ATOM     25  C   UNL     1      10.273   1.678   0.000  0.00  0.00    +0.000 C 
BRANCH  24  26
ATOM     26  C   UNL     1      11.508   0.959   0.000  0.00  0.00    +0.000 C 
BRANCH  26  27
ATOM     27  C   UNL     1      11.923   1.672   0.000  0.00  0.00    +0.000 C 
BRANCH  27  28
ATOM     28  C   UNL     1      12.748   1.668   0.000  0.00  0.00    +0.000 C 
BRANCH  28  29
ATOM     29  C   UNL     1      13.163   2.381   0.000  0.00  0.00    +0.000 C 
ATOM     30  C   UNL     1      12.753   3.097   0.000  0.00  0.00    +0.000 C 
ATOM     31  C   UNL     1      13.988   2.378   0.000  0.00  0.00    +0.000 C 
ENDBRANCH  28  29
ENDBRANCH  27  28
ENDBRANCH  26  27
ENDBRANCH  24  26
ENDBRANCH  23  24
ENDBRANCH  22  23
ENDBRANCH  21  22
ENDBRANCH  19  21
ENDBRANCH  18  19
ENDBRANCH  17  18
ENDBRANCH   1  17
TORSDOF 12
