REMARK  Name = 164
REMARK  5 active torsions:
REMARK  status: ('A' for Active; 'I' for Inactive)
REMARK    1  A    between atoms: C_2  and  C_4
REMARK    2  A    between atoms: C_10  and  C_11
REMARK    3  A    between atoms: C_11  and  C_13
REMARK    4  A    between atoms: C_13  and  C_14
REMARK    5  A    between atoms: C_14  and  C_15
REMARK                            x       y       z     vdW  Elec       q    Type
REMARK                         _______ _______ _______ _____ _____    ______ ____
ROOT
ATOM      1  C   UNL     1      -0.974   0.411   0.000  0.00  0.00    +0.000 C 
ATOM      2  C   UNL     1      -0.974   1.236   0.000  0.00  0.00    +0.000 C 
ATOM      3  C   UNL     1      -0.260   1.648   0.000  0.00  0.00    +0.000 C 
ATOM      4  C   UNL     1       0.455   1.236   0.000  0.00  0.00    +0.000 C 
ATOM      5  C   UNL     1       0.455   0.411   0.000  0.00  0.00    +0.000 C 
ATOM      6  O   UNL     1      -1.689   1.648   0.000  0.00  0.00    +0.000 OA
ATOM      7  C   UNL     1      -0.260  -0.002   0.000  0.00  0.00    +0.000 C 
ENDROOT
BRANCH   1   9
ATOM      8  O   UNL     1      -2.403   0.411   0.000  0.00  0.00    +0.000 OA
ATOM      9  C   UNL     1      -1.689  -0.002   0.000  0.00  0.00    +0.000 C 
ATOM     10  O   UNL     1      -1.689  -0.827   0.000  0.00  0.00    +0.000 OA
ENDBRANCH   1   9
BRANCH   7  11
ATOM     11  C   UNL     1      -0.260  -0.827   0.000  0.00  0.00    +0.000 C 
ATOM     12  O   UNL     1      -0.974  -1.239   0.000  0.00  0.00    +0.000 OA
BRANCH  11  13
ATOM     13  C   UNL     1       0.455  -1.239   0.000  0.00  0.00    +0.000 C 
BRANCH  13  14
ATOM     14  C   UNL     1       1.169  -0.827   0.000  0.00  0.00    +0.000 C 
BRANCH  14  15
ATOM     15  C   UNL     1       1.883  -1.239   0.000  0.00  0.00    +0.000 C 
ATOM     16  O   UNL     1       2.598  -0.827   0.000  0.00  0.00    +0.000 OA
ATOM     17  O   UNL     1       1.883  -2.064   0.000  0.00  0.00    +0.000 OA
ENDBRANCH  14  15
ENDBRANCH  13  14
ENDBRANCH  11  13
ENDBRANCH   7  11
TORSDOF 5
