REMARK  Name = 1656
REMARK  7 active torsions:
REMARK  status: ('A' for Active; 'I' for Inactive)
REMARK    1  A    between atoms: O_5  and  C_13
REMARK    2  A    between atoms: O_5  and  C_14
REMARK    3  A    between atoms: O_6  and  C_15
REMARK    4  A    between atoms: O_6  and  C_22
REMARK    5  A    between atoms: N_8  and  C_21
REMARK    6  A    between atoms: C_10  and  C_13
REMARK    7  A    between atoms: C_17  and  C_20
REMARK                            x       y       z     vdW  Elec       q    Type
REMARK                         _______ _______ _______ _____ _____    ______ ____
ROOT
ATOM      1  C   UNL     1       4.619  -1.238   0.000  0.00  0.00    +0.000 A 
ATOM      2  C   UNL     1       5.333  -1.650   0.000  0.00  0.00    +0.000 A 
ATOM      3  C   UNL     1       4.619  -0.412   0.000  0.00  0.00    +0.000 A 
ATOM      4  C   UNL     1       5.333   0.000   0.000  0.00  0.00    +0.000 A 
ATOM      5  C   UNL     1       6.048  -1.238   0.000  0.00  0.00    +0.000 A 
ATOM      6  C   UNL     1       6.048  -0.412   0.000  0.00  0.00    +0.000 A 
ENDROOT
BRANCH   4   9
ATOM      7  O   UNL     1       4.619   1.238   0.000  0.00  0.00    +0.000 OA
ATOM      8  N   UNL     1       6.048   1.238   0.000  0.00  0.00    +0.000 NA
ATOM      9  C   UNL     1       5.333   0.825   0.000  0.00  0.00    +0.000 C 
BRANCH   8  13
ATOM     10 CL   UNL     1       7.476   2.062   0.000  0.00  0.00    +0.000 Cl
ATOM     11 CL   UNL     1       4.619   2.062   0.000  0.00  0.00    +0.000 Cl
ATOM     12  N   UNL     1       6.048   3.713   0.000  0.00  0.00    +0.000 NA
ATOM     13  C   UNL     1       6.048   2.062   0.000  0.00  0.00    +0.000 A 
ATOM     14  C   UNL     1       6.762   2.475   0.000  0.00  0.00    +0.000 A 
ATOM     15  C   UNL     1       5.333   2.475   0.000  0.00  0.00    +0.000 A 
ATOM     16  C   UNL     1       6.762   3.300   0.000  0.00  0.00    +0.000 A 
ATOM     17  C   UNL     1       5.333   3.300   0.000  0.00  0.00    +0.000 A 
ENDBRANCH   8  13
ENDBRANCH   4   9
BRANCH   1  18
ATOM     18  O   UNL     1       3.904  -1.650   0.000  0.00  0.00    +0.000 OA
BRANCH  18  19
ATOM     19  C   UNL     1       3.189  -1.238   0.000  0.00  0.00    +0.000 C 
BRANCH  19  20
ATOM     20  C   UNL     1       2.475  -1.650   0.000  0.00  0.00    +0.000 C 
ATOM     21  C   UNL     1       2.062  -2.365   0.000  0.00  0.00    +0.000 C 
ATOM     22  C   UNL     1       1.650  -1.650   0.000  0.00  0.00    +0.000 C 
ENDBRANCH  19  20
ENDBRANCH  18  19
ENDBRANCH   1  18
BRANCH   2  23
ATOM     23  O   UNL     1       5.333  -2.475   0.000  0.00  0.00    +0.000 OA
BRANCH  23  26
ATOM     24  F   UNL     1       6.762  -2.475   0.000  0.00  0.00    +0.000 F 
ATOM     25  F   UNL     1       6.048  -3.713   0.000  0.00  0.00    +0.000 F 
ATOM     26  C   UNL     1       6.048  -2.888   0.000  0.00  0.00    +0.000 C 
ENDBRANCH  23  26
ENDBRANCH   2  23
TORSDOF 7
