REMARK  Name = 166
REMARK  8 active torsions:
REMARK  status: ('A' for Active; 'I' for Inactive)
REMARK    1  A    between atoms: C_1  and  C_2
REMARK    2  A    between atoms: C_1  and  C_27
REMARK    3  A    between atoms: C_2  and  C_3
REMARK    4  A    between atoms: C_3  and  C_4
REMARK    5  A    between atoms: C_4  and  C_5
REMARK    6  A    between atoms: C_11  and  C_27
REMARK    7  A    between atoms: C_17  and  C_20
REMARK    8  A    between atoms: C_27  and  C_28
REMARK                            x       y       z     vdW  Elec       q    Type
REMARK                         _______ _______ _______ _____ _____    ______ ____
ROOT
ATOM      1  O   UNL     1      -0.860  -1.931   0.000  0.00  0.00    +0.000 OA
ATOM      2  C   UNL     1       0.087  -0.807   0.000  0.00  0.00    +0.000 C 
ATOM      3  C   UNL     1       1.230  -1.496   0.000  0.00  0.00    +0.000 A 
ATOM      4  C   UNL     1       0.909  -0.736   0.000  0.00  0.00    +0.000 A 
ATOM      5  C   UNL     1      -0.100  -1.610   0.000  0.00  0.00    +0.000 C 
ATOM      6  C   UNL     1       0.606  -2.036   0.000  0.00  0.00    +0.000 C 
ATOM      7  C   UNL     1       1.407  -0.078   0.000  0.00  0.00    +0.000 A 
ATOM      8  C   UNL     1       2.225  -0.180   0.000  0.00  0.00    +0.000 A 
ATOM      9  C   UNL     1       2.546  -0.940   0.000  0.00  0.00    +0.000 A 
ATOM     10  C   UNL     1       2.049  -1.598   0.000  0.00  0.00    +0.000 A 
ENDROOT
BRANCH   8  11
ATOM     11  C   UNL     1       2.723   0.477   0.000  0.00  0.00    +0.000 A 
ATOM     12  C   UNL     1       2.402   1.238   0.000  0.00  0.00    +0.000 A 
ATOM     13  C   UNL     1       2.900   1.895   0.000  0.00  0.00    +0.000 A 
ATOM     14  C   UNL     1       3.719   1.793   0.000  0.00  0.00    +0.000 A 
ATOM     15  C   UNL     1       4.040   1.033   0.000  0.00  0.00    +0.000 A 
ATOM     16  C   UNL     1       3.542   0.376   0.000  0.00  0.00    +0.000 A 
ATOM     17  O   UNL     1       4.216   2.451   0.000  0.00  0.00    +0.000 OA
ENDBRANCH   8  11
BRANCH   2  18
ATOM     18  C   UNL     1      -0.453  -0.183   0.000  0.00  0.00    +0.000 C 
BRANCH  18  21
ATOM     19  O   UNL     1      -0.723   1.220   0.000  0.00  0.00    +0.000 OA
ATOM     20  O   UNL     1       0.627   0.752   0.000  0.00  0.00    +0.000 OA
ATOM     21  C   UNL     1      -0.183   0.597   0.000  0.00  0.00    +0.000 C 
ENDBRANCH  18  21
BRANCH  18  22
ATOM     22  C   UNL     1      -1.263  -0.339   0.000  0.00  0.00    +0.000 C 
BRANCH  22  23
ATOM     23  C   UNL     1      -1.803   0.285   0.000  0.00  0.00    +0.000 C 
BRANCH  23  24
ATOM     24  C   UNL     1      -2.613   0.129   0.000  0.00  0.00    +0.000 C 
BRANCH  24  25
ATOM     25  C   UNL     1      -3.154   0.752   0.000  0.00  0.00    +0.000 C 
BRANCH  25  26
ATOM     26  C   UNL     1      -3.964   0.597   0.000  0.00  0.00    +0.000 C 
ATOM     27  N   UNL     1      -4.504   1.220   0.000  0.00  0.00    +0.000 NA
ATOM     28  N   UNL     1      -4.234  -0.183   0.000  0.00  0.00    +0.000 NA
ENDBRANCH  25  26
ENDBRANCH  24  25
ENDBRANCH  23  24
ENDBRANCH  22  23
ENDBRANCH  18  22
ENDBRANCH   2  18
TORSDOF 8
