REMARK  Name = 167
REMARK  9 active torsions:
REMARK  status: ('A' for Active; 'I' for Inactive)
REMARK    1  A    between atoms: C_1  and  C_2
REMARK    2  A    between atoms: C_1  and  C_28
REMARK    3  A    between atoms: C_2  and  C_3
REMARK    4  A    between atoms: C_3  and  C_4
REMARK    5  A    between atoms: C_4  and  C_5
REMARK    6  A    between atoms: C_11  and  C_28
REMARK    7  A    between atoms: C_18  and  C_20
REMARK    8  A    between atoms: C_22  and  O_27
REMARK    9  A    between atoms: C_28  and  C_29
REMARK                            x       y       z     vdW  Elec       q    Type
REMARK                         _______ _______ _______ _____ _____    ______ ____
ROOT
ATOM      1  O   UNL     1      -1.499  -1.628   0.000  0.00  0.00    +0.000 OA
ATOM      2  C   UNL     1      -0.552  -0.504   0.000  0.00  0.00    +0.000 C 
ATOM      3  C   UNL     1       0.591  -1.193   0.000  0.00  0.00    +0.000 A 
ATOM      4  C   UNL     1       0.270  -0.433   0.000  0.00  0.00    +0.000 A 
ATOM      5  C   UNL     1      -0.739  -1.307   0.000  0.00  0.00    +0.000 C 
ATOM      6  C   UNL     1      -0.033  -1.733   0.000  0.00  0.00    +0.000 C 
ATOM      7  C   UNL     1       0.768   0.225   0.000  0.00  0.00    +0.000 A 
ATOM      8  C   UNL     1       1.586   0.123   0.000  0.00  0.00    +0.000 A 
ATOM      9  C   UNL     1       1.907  -0.637   0.000  0.00  0.00    +0.000 A 
ATOM     10  C   UNL     1       1.409  -1.295   0.000  0.00  0.00    +0.000 A 
ENDROOT
BRANCH   9  11
ATOM     11  C   UNL     1       2.726  -0.739   0.000  0.00  0.00    +0.000 A 
ATOM     12  C   UNL     1       3.224  -0.082   0.000  0.00  0.00    +0.000 A 
ATOM     13  C   UNL     1       4.042  -0.183   0.000  0.00  0.00    +0.000 A 
ATOM     14  C   UNL     1       4.363  -0.944   0.000  0.00  0.00    +0.000 A 
ATOM     15  C   UNL     1       3.865  -1.601   0.000  0.00  0.00    +0.000 A 
ATOM     16  C   UNL     1       3.047  -1.499   0.000  0.00  0.00    +0.000 A 
BRANCH  13  18
ATOM     17  C   UNL     1       4.219   1.234   0.000  0.00  0.00    +0.000 C 
ATOM     18  O   UNL     1       4.540   0.474   0.000  0.00  0.00    +0.000 OA
ENDBRANCH  13  18
ENDBRANCH   9  11
BRANCH   2  19
ATOM     19  C   UNL     1      -1.092   0.120   0.000  0.00  0.00    +0.000 C 
BRANCH  19  22
ATOM     20  O   UNL     1      -1.362   1.523   0.000  0.00  0.00    +0.000 OA
ATOM     21  O   UNL     1      -0.012   1.056   0.000  0.00  0.00    +0.000 OA
ATOM     22  C   UNL     1      -0.822   0.900   0.000  0.00  0.00    +0.000 C 
ENDBRANCH  19  22
BRANCH  19  23
ATOM     23  C   UNL     1      -1.902  -0.036   0.000  0.00  0.00    +0.000 C 
BRANCH  23  24
ATOM     24  C   UNL     1      -2.442   0.588   0.000  0.00  0.00    +0.000 C 
BRANCH  24  25
ATOM     25  C   UNL     1      -3.253   0.432   0.000  0.00  0.00    +0.000 C 
BRANCH  25  26
ATOM     26  C   UNL     1      -3.793   1.056   0.000  0.00  0.00    +0.000 C 
BRANCH  26  27
ATOM     27  C   UNL     1      -4.603   0.900   0.000  0.00  0.00    +0.000 C 
ATOM     28  N   UNL     1      -5.143   1.523   0.000  0.00  0.00    +0.000 NA
ATOM     29  N   UNL     1      -4.873   0.120   0.000  0.00  0.00    +0.000 NA
ENDBRANCH  26  27
ENDBRANCH  25  26
ENDBRANCH  24  25
ENDBRANCH  23  24
ENDBRANCH  19  23
ENDBRANCH   2  19
TORSDOF 9
