REMARK  Name = 167
REMARK  3 active torsions:
REMARK  status: ('A' for Active; 'I' for Inactive)
REMARK    1  A    between atoms: CB_4  and  CA_5
REMARK    2  A    between atoms: CB_4  and  CG1_6
REMARK    3  A    between atoms: CA_5  and  C_9
REMARK                            x       y       z     vdW  Elec       q    Type
REMARK                         _______ _______ _______ _____ _____    ______ ____
ROOT
ATOM      1  N   ILE A   1       3.793  -0.903   0.000  0.00  0.00    +0.000 NA
ATOM      2  CA  ILE A   1       3.793  -0.078   0.000  0.00  0.00    +0.000 C 
ENDROOT
BRANCH   2   5
ATOM      3  O   ILE A   1       5.222  -0.078   0.000  0.00  0.00    +0.000 OA
ATOM      4  OXT ILE A   1       4.508   1.159   0.000  0.00  0.00    +0.000 OA
ATOM      5  C   ILE A   1       4.508   0.334   0.000  0.00  0.00    +0.000 C 
ENDBRANCH   2   5
BRANCH   2   6
ATOM      6  CB  ILE A   1       3.079   0.334   0.000  0.00  0.00    +0.000 C 
ATOM      7  CG2 ILE A   1       3.079   1.159   0.000  0.00  0.00    +0.000 C 
BRANCH   6   8
ATOM      8  CG1 ILE A   1       2.365  -0.078   0.000  0.00  0.00    +0.000 C 
ATOM      9  CD1 ILE A   1       1.650   0.334   0.000  0.00  0.00    +0.000 C 
ENDBRANCH   6   8
ENDBRANCH   2   6
TORSDOF 3
