REMARK  Name = 16750094
REMARK  4 active torsions:
REMARK  status: ('A' for Active; 'I' for Inactive)
REMARK    1  A    between atoms: O_1  and  C_16
REMARK    2  A    between atoms: C_8  and  C_11
REMARK    3  A    between atoms: C_12  and  C_14
REMARK    4  A    between atoms: C_19  and  C_24
REMARK                            x       y       z     vdW  Elec       q    Type
REMARK                         _______ _______ _______ _____ _____    ______ ____
ROOT
ATOM      1  N   UNL     1       6.718  -2.151   0.000  0.00  0.00    +0.000 NA
ATOM      2  N   UNL     1       5.222  -2.312   0.000  0.00  0.00    +0.000 NA
ATOM      3  C   UNL     1       5.937  -1.075   0.000  0.00  0.00    +0.000 A 
ATOM      4  C   UNL     1       6.718  -0.824   0.000  0.00  0.00    +0.000 A 
ATOM      5  C   UNL     1       5.937  -1.900   0.000  0.00  0.00    +0.000 A 
ATOM      6  C   UNL     1       5.222  -0.662   0.000  0.00  0.00    +0.000 A 
ATOM      7  C   UNL     1       4.508  -1.075   0.000  0.00  0.00    +0.000 A 
ATOM      8  C   UNL     1       7.199  -1.488   0.000  0.00  0.00    +0.000 A 
ATOM      9  C   UNL     1       4.508  -1.900   0.000  0.00  0.00    +0.000 A 
ENDROOT
BRANCH   7  11
ATOM     10  N   UNL     1       2.365  -0.662   0.000  0.00  0.00    +0.000 NA
ATOM     11  C   UNL     1       3.793  -0.662   0.000  0.00  0.00    +0.000 A 
ATOM     12  C   UNL     1       3.793   0.163   0.000  0.00  0.00    +0.000 A 
ATOM     13  C   UNL     1       3.079   0.575   0.000  0.00  0.00    +0.000 A 
ATOM     14  C   UNL     1       3.079  -1.075   0.000  0.00  0.00    +0.000 A 
ATOM     15  C   UNL     1       2.365   0.163   0.000  0.00  0.00    +0.000 A 
BRANCH  13  18
ATOM     16  O   UNL     1       3.793   1.813   0.000  0.00  0.00    +0.000 OA
ATOM     17  N   UNL     1       2.365   1.813   0.000  0.00  0.00    +0.000 N 
ATOM     18  C   UNL     1       3.079   1.400   0.000  0.00  0.00    +0.000 C 
ATOM     19  C   UNL     1       2.365   2.638   0.000  0.00  0.00    +0.000 C 
ATOM     20  C   UNL     1       1.650   1.400   0.000  0.00  0.00    +0.000 C 
ENDBRANCH  13  18
ENDBRANCH   7  11
BRANCH   4  21
ATOM     21  C   UNL     1       6.974  -0.039   0.000  0.00  0.00    +0.000 A 
ATOM     22  C   UNL     1       7.781   0.131   0.000  0.00  0.00    +0.000 A 
ATOM     23  C   UNL     1       6.423   0.575   0.000  0.00  0.00    +0.000 A 
ATOM     24  C   UNL     1       8.037   0.915   0.000  0.00  0.00    +0.000 A 
ATOM     25  C   UNL     1       6.679   1.359   0.000  0.00  0.00    +0.000 A 
ATOM     26  C   UNL     1       7.487   1.529   0.000  0.00  0.00    +0.000 A 
BRANCH  22  27
ATOM     27  O   UNL     1       8.332  -0.483   0.000  0.00  0.00    +0.000 OA
ATOM     28  C   UNL     1       9.139  -0.313   0.000  0.00  0.00    +0.000 C 
ENDBRANCH  22  27
ENDBRANCH   4  21
TORSDOF 4
