REMARK  Name = 1694
REMARK  0 active torsions:
REMARK  status: ('A' for Active; 'I' for Inactive)
REMARK                            x       y       z     vdW  Elec       q    Type
REMARK                         _______ _______ _______ _____ _____    ______ ____
ROOT
ATOM      1 BR   UNL     1       3.844   1.650   0.000  0.00  0.00    +0.000 Br
ATOM      2 BR   UNL     1       3.844  -1.650   0.000  0.00  0.00    +0.000 Br
ATOM      3 BR   UNL     1       2.415   0.825   0.000  0.00  0.00    +0.000 Br
ATOM      4 BR   UNL     1       2.415  -0.825   0.000  0.00  0.00    +0.000 Br
ATOM      5  N   UNL     1       5.339   0.664   0.000  0.00  0.00    +0.000 NA
ATOM      6  N   UNL     1       5.339  -0.664   0.000  0.00  0.00    +0.000 NA
ATOM      7  N   UNL     1       5.821   0.000   0.000  0.00  0.00    +0.000 N 
ATOM      8  C   UNL     1       4.559   0.412   0.000  0.00  0.00    +0.000 A 
ATOM      9  C   UNL     1       4.559  -0.412   0.000  0.00  0.00    +0.000 A 
ATOM     10  C   UNL     1       3.844   0.825   0.000  0.00  0.00    +0.000 A 
ATOM     11  C   UNL     1       3.844  -0.825   0.000  0.00  0.00    +0.000 A 
ATOM     12  C   UNL     1       3.130   0.412   0.000  0.00  0.00    +0.000 A 
ATOM     13  C   UNL     1       3.130  -0.412   0.000  0.00  0.00    +0.000 A 
ATOM     14  H   UNL     1       6.332   0.000   0.000  0.00  0.00    +0.000 HD
ENDROOT
TORSDOF 0
