REMARK  Name = 16U
REMARK  6 active torsions:
REMARK  status: ('A' for Active; 'I' for Inactive)
REMARK    1  A    between atoms: C_1  and  C_2
REMARK    2  A    between atoms: C_1  and  C_6
REMARK    3  A    between atoms: C_6  and  C_7
REMARK    4  A    between atoms: C_13  and  C_14
REMARK    5  A    between atoms: N_15  and  C_16
REMARK    6  A    between atoms: C_16  and  C_17
REMARK                            x       y       z     vdW  Elec       q    Type
REMARK                         _______ _______ _______ _____ _____    ______ ____
ROOT
ATOM      1  C   UNL     1      -0.609   0.618   0.000  0.00  0.00    +0.000 C 
ATOM      2  O   UNL     1      -0.609  -0.207   0.000  0.00  0.00    +0.000 OA
ATOM      3  N   UNL     1       0.106   1.031   0.000  0.00  0.00    +0.000 N 
ATOM      4  C   UNL     1       0.192   1.851   0.000  0.00  0.00    +0.000 C 
ATOM      5  C   UNL     1       0.999   2.023   0.000  0.00  0.00    +0.000 C 
ATOM      6  C   UNL     1       1.412   1.308   0.000  0.00  0.00    +0.000 C 
ATOM      7  C   UNL     1       0.860   0.695   0.000  0.00  0.00    +0.000 C 
ENDROOT
BRANCH   7   8
ATOM      8  C   UNL     1       1.031  -0.112   0.000  0.00  0.00    +0.000 C 
ATOM      9  N   UNL     1       0.418  -0.664   0.000  0.00  0.00    +0.000 NA
ATOM     10  O   UNL     1       1.816  -0.367   0.000  0.00  0.00    +0.000 OA
BRANCH   9  11
ATOM     11  C   UNL     1       0.590  -1.471   0.000  0.00  0.00    +0.000 C 
BRANCH  11  13
ATOM     12 CL   UNL     1      -0.294  -4.189   0.000  0.00  0.00    +0.000 Cl
ATOM     13  C   UNL     1      -0.024  -2.023   0.000  0.00  0.00    +0.000 A 
ATOM     14  C   UNL     1       0.148  -2.830   0.000  0.00  0.00    +0.000 A 
ATOM     15  C   UNL     1      -0.465  -3.382   0.000  0.00  0.00    +0.000 A 
ATOM     16  C   UNL     1      -1.250  -3.127   0.000  0.00  0.00    +0.000 A 
ATOM     17  C   UNL     1      -1.421  -2.320   0.000  0.00  0.00    +0.000 A 
ATOM     18  C   UNL     1      -0.808  -1.768   0.000  0.00  0.00    +0.000 A 
ENDBRANCH  11  13
ENDBRANCH   9  11
ENDBRANCH   7   8
BRANCH   1  19
ATOM     19  C   UNL     1      -1.323   1.031   0.000  0.00  0.00    +0.000 C 
BRANCH  19  20
ATOM     20  C   UNL     1      -2.038   0.618   0.000  0.00  0.00    +0.000 C 
BRANCH  20  21
ATOM     21  C   UNL     1      -2.752   1.031   0.000  0.00  0.00    +0.000 C 
ATOM     22  C   UNL     1      -3.466   0.618   0.000  0.00  0.00    +0.000 C 
ATOM     23  C   UNL     1      -2.752   1.856   0.000  0.00  0.00    +0.000 C 
ENDBRANCH  20  21
ENDBRANCH  19  20
ENDBRANCH   1  19
TORSDOF 6
