REMARK  Name = 170
REMARK  0 active torsions:
REMARK  status: ('A' for Active; 'I' for Inactive)
REMARK                            x       y       z     vdW  Elec       q    Type
REMARK                         _______ _______ _______ _____ _____    ______ ____
ROOT
ATOM      1  O   UNL     1       3.079  -1.650   0.000  0.00  0.00    +0.000 OA
ATOM      2  O   UNL     1       3.079   1.650   0.000  0.00  0.00    +0.000 OA
ATOM      3  C   UNL     1       3.793  -0.412   0.000  0.00  0.00    +0.000 A 
ATOM      4  C   UNL     1       3.793   0.412   0.000  0.00  0.00    +0.000 A 
ATOM      5  C   UNL     1       2.364  -0.412   0.000  0.00  0.00    +0.000 C 
ATOM      6  C   UNL     1       3.079  -0.825   0.000  0.00  0.00    +0.000 C 
ATOM      7  C   UNL     1       3.079   0.825   0.000  0.00  0.00    +0.000 C 
ATOM      8  C   UNL     1       2.364   0.412   0.000  0.00  0.00    +0.000 C 
ATOM      9  C   UNL     1       4.530  -0.854   0.000  0.00  0.00    +0.000 A 
ATOM     10  C   UNL     1       4.530   0.854   0.000  0.00  0.00    +0.000 A 
ATOM     11  C   UNL     1       1.650  -0.825   0.000  0.00  0.00    +0.000 C 
ATOM     12  C   UNL     1       5.278  -0.430   0.000  0.00  0.00    +0.000 A 
ATOM     13  C   UNL     1       5.278   0.430   0.000  0.00  0.00    +0.000 A 
ENDROOT
TORSDOF 0
