REMARK  Name = 171
REMARK  4 active torsions:
REMARK  status: ('A' for Active; 'I' for Inactive)
REMARK    1  A    between atoms: C_3  and  N_5
REMARK    2  A    between atoms: N_5  and  C_6
REMARK    3  A    between atoms: C_6  and  C_7
REMARK    4  A    between atoms: C_7  and  S_8
REMARK                            x       y       z     vdW  Elec       q    Type
REMARK                         _______ _______ _______ _____ _____    ______ ____
ROOT
ATOM      1  N   UNL     1      -0.435   0.507   0.000  0.00  0.00    +0.000 NA
ENDROOT
BRANCH   1   4
ATOM      2  C   UNL     1      -2.579   0.095   0.000  0.00  0.00    +0.000 A 
ATOM      3  C   UNL     1      -1.864   0.507   0.000  0.00  0.00    +0.000 A 
ATOM      4  C   UNL     1      -1.149   0.095   0.000  0.00  0.00    +0.000 A 
ATOM      5  C   UNL     1      -1.149  -0.730   0.000  0.00  0.00    +0.000 A 
ATOM      6  C   UNL     1      -1.864  -1.143   0.000  0.00  0.00    +0.000 A 
ATOM      7  C   UNL     1      -2.579  -0.730   0.000  0.00  0.00    +0.000 A 
ENDBRANCH   1   4
BRANCH   1   8
ATOM      8  C   UNL     1       0.279   0.095   0.000  0.00  0.00    +0.000 C 
BRANCH   8   9
ATOM      9  C   UNL     1       0.994   0.507   0.000  0.00  0.00    +0.000 C 
BRANCH   9  10
ATOM     10  S   UNL     1       1.708   0.095   0.000  0.00  0.00    +0.000 S 
ATOM     11  O   UNL     1       2.423  -0.318   0.000  0.00  0.00    +0.000 OA
ATOM     12  O   UNL     1       2.121   0.809   0.000  0.00  0.00    +0.000 OA
ATOM     13  O   UNL     1       1.296  -0.620   0.000  0.00  0.00    +0.000 OA
ENDBRANCH   9  10
ENDBRANCH   8   9
ENDBRANCH   1   8
TORSDOF 4
