REMARK  Name = 173
REMARK  0 active torsions:
REMARK  status: ('A' for Active; 'I' for Inactive)
REMARK                            x       y       z     vdW  Elec       q    Type
REMARK                         _______ _______ _______ _____ _____    ______ ____
ROOT
ATOM      1  N   UNL     1       3.860   0.123   0.000  0.00  0.00    +0.000 NA
ATOM      2  N   UNL     1       3.860  -1.204   0.000  0.00  0.00    +0.000 NA
ATOM      3  N   UNL     1       2.365  -1.365   0.000  0.00  0.00    +0.000 NA
ATOM      4  N   UNL     1       1.650  -0.128   0.000  0.00  0.00    +0.000 NA
ATOM      5  N   UNL     1       2.365   1.110   0.000  0.00  0.00    +0.000 NA
ATOM      6  C   UNL     1       3.079  -0.128   0.000  0.00  0.00    +0.000 A 
ATOM      7  C   UNL     1       3.079  -0.953   0.000  0.00  0.00    +0.000 A 
ATOM      8  C   UNL     1       2.365   0.285   0.000  0.00  0.00    +0.000 A 
ATOM      9  C   UNL     1       4.341  -0.540   0.000  0.00  0.00    +0.000 A 
ATOM     10  C   UNL     1       1.650  -0.953   0.000  0.00  0.00    +0.000 A 
ENDROOT
TORSDOF 0
