REMARK  Name = 175
REMARK  11 active torsions:
REMARK  status: ('A' for Active; 'I' for Inactive)
REMARK    1  A    between atoms: O_1  and  C_10
REMARK    2  A    between atoms: O_1  and  C_23
REMARK    3  A    between atoms: C_9  and  C_12
REMARK    4  A    between atoms: C_12  and  C_17
REMARK    5  A    between atoms: C_17  and  C_21
REMARK    6  A    between atoms: C_21  and  C_22
REMARK    7  A    between atoms: C_22  and  C_24
REMARK    8  A    between atoms: C_23  and  C_25
REMARK    9  A    between atoms: C_24  and  C_26
REMARK   10  A    between atoms: C_25  and  C_27
REMARK   11  A    between atoms: C_26  and  C_30
REMARK                            x       y       z     vdW  Elec       q    Type
REMARK                         _______ _______ _______ _____ _____    ______ ____
ROOT
ATOM      1  O   UNL     1       1.650   3.331   0.000  0.00  0.00    +0.000 OA
ATOM      2  C   UNL     1       3.793   2.093   0.000  0.00  0.00    +0.000 C 
ATOM      3  C   UNL     1       4.531   1.652   0.000  0.00  0.00    +0.000 C 
ATOM      4  C   UNL     1       3.079   1.681   0.000  0.00  0.00    +0.000 C 
ATOM      5  C   UNL     1       5.279   2.076   0.000  0.00  0.00    +0.000 C 
ATOM      6  C   UNL     1       3.793   2.918   0.000  0.00  0.00    +0.000 C 
ATOM      7  C   UNL     1       2.365   2.093   0.000  0.00  0.00    +0.000 C 
ATOM      8  C   UNL     1       2.365   2.918   0.000  0.00  0.00    +0.000 C 
ATOM      9  C   UNL     1       5.279   2.935   0.000  0.00  0.00    +0.000 C 
ATOM     10  C   UNL     1       3.079   3.331   0.000  0.00  0.00    +0.000 C 
ATOM     11  C   UNL     1       4.531   3.359   0.000  0.00  0.00    +0.000 C 
ATOM     12  C   UNL     1       5.991   1.661   0.000  0.00  0.00    +0.000 C 
ENDROOT
BRANCH   4  13
ATOM     13  O   UNL     1       3.079   0.856   0.000  0.00  0.00    +0.000 OA
BRANCH  13  15
ATOM     14  O   UNL     1       1.650   0.856   0.000  0.00  0.00    +0.000 OA
ATOM     15  C   UNL     1       2.365   0.443   0.000  0.00  0.00    +0.000 C 
BRANCH  15  16
ATOM     16  C   UNL     1       2.365  -0.382   0.000  0.00  0.00    +0.000 C 
ATOM     17  C   UNL     1       3.079  -0.794   0.000  0.00  0.00    +0.000 C 
BRANCH  16  18
ATOM     18  C   UNL     1       1.650  -0.794   0.000  0.00  0.00    +0.000 C 
ATOM     19  C   UNL     1       1.650  -1.619   0.000  0.00  0.00    +0.000 C 
ENDBRANCH  16  18
ENDBRANCH  15  16
ENDBRANCH  13  15
ENDBRANCH   4  13
BRANCH   3  20
ATOM     20  C   UNL     1       4.521   0.827   0.000  0.00  0.00    +0.000 C 
BRANCH  20  21
ATOM     21  C   UNL     1       5.231   0.406   0.000  0.00  0.00    +0.000 C 
BRANCH  21  23
ATOM     22  O   UNL     1       4.502  -0.823   0.000  0.00  0.00    +0.000 OA
ATOM     23  C   UNL     1       5.221  -0.419   0.000  0.00  0.00    +0.000 C 
BRANCH  23  24
ATOM     24  C   UNL     1       5.931  -0.839   0.000  0.00  0.00    +0.000 C 
BRANCH  24  26
ATOM     25  O   UNL     1       5.202  -2.068   0.000  0.00  0.00    +0.000 OA
ATOM     26  C   UNL     1       5.922  -1.664   0.000  0.00  0.00    +0.000 C 
BRANCH  26  27
ATOM     27  C   UNL     1       6.631  -2.085   0.000  0.00  0.00    +0.000 C 
BRANCH  27  30
ATOM     28  O   UNL     1       7.331  -3.331   0.000  0.00  0.00    +0.000 OA
ATOM     29  O   UNL     1       5.903  -3.314   0.000  0.00  0.00    +0.000 OA
ATOM     30  C   UNL     1       6.622  -2.910   0.000  0.00  0.00    +0.000 C 
ENDBRANCH  27  30
ENDBRANCH  26  27
ENDBRANCH  24  26
ENDBRANCH  23  24
ENDBRANCH  21  23
ENDBRANCH  20  21
ENDBRANCH   3  20
TORSDOF 11
