REMARK  Name = 177
REMARK  9 active torsions:
REMARK  status: ('A' for Active; 'I' for Inactive)
REMARK    1  A    between atoms: C_1  and  C_10
REMARK    2  A    between atoms: C_7  and  C_10
REMARK    3  A    between atoms: C_13  and  C_16
REMARK    4  A    between atoms: N_18  and  C_19
REMARK    5  A    between atoms: C_19  and  C_20
REMARK    6  A    between atoms: C_21  and  O_27
REMARK    7  A    between atoms: O_27  and  C_28
REMARK    8  A    between atoms: C_28  and  C_29
REMARK    9  A    between atoms: N_31  and  C_32
REMARK                            x       y       z     vdW  Elec       q    Type
REMARK                         _______ _______ _______ _____ _____    ______ ____
ROOT
ATOM      1  C   UNL     1       0.820  -0.091   0.000  0.00  0.00    +0.000 C 
ATOM      2  O   UNL     1       1.534  -0.504   0.000  0.00  0.00    +0.000 OA
ATOM      3  N   UNL     1       0.105  -0.504   0.000  0.00  0.00    +0.000 NA
ENDROOT
BRANCH   1   8
ATOM      4  C   UNL     1      -0.632   0.964   0.000  0.00  0.00    +0.000 C 
ATOM      5  O   UNL     1      -0.804   0.157   0.000  0.00  0.00    +0.000 OA
ATOM      6  N   UNL     1       0.152   1.219   0.000  0.00  0.00    +0.000 N 
ATOM      7  C   UNL     1       0.407   2.003   0.000  0.00  0.00    +0.000 C 
ATOM      8  C   UNL     1       0.820   0.734   0.000  0.00  0.00    +0.000 C 
ATOM      9  C   UNL     1       1.487   1.219   0.000  0.00  0.00    +0.000 C 
ATOM     10  C   UNL     1       1.232   2.003   0.000  0.00  0.00    +0.000 C 
BRANCH   4  12
ATOM     11  N   UNL     1      -1.074   2.323   0.000  0.00  0.00    +0.000 NA
ATOM     12  C   UNL     1      -1.245   1.516   0.000  0.00  0.00    +0.000 C 
BRANCH  12  13
ATOM     13  C   UNL     1      -2.030   1.261   0.000  0.00  0.00    +0.000 C 
ATOM     14  C   UNL     1      -2.201   0.454   0.000  0.00  0.00    +0.000 C 
ATOM     15  C   UNL     1      -2.643   1.813   0.000  0.00  0.00    +0.000 C 
ATOM     16  C   UNL     1      -2.986   0.199   0.000  0.00  0.00    +0.000 C 
ATOM     17  C   UNL     1      -3.428   1.558   0.000  0.00  0.00    +0.000 C 
ATOM     18  C   UNL     1      -3.599   0.751   0.000  0.00  0.00    +0.000 C 
ENDBRANCH  12  13
ENDBRANCH   4  12
ENDBRANCH   1   8
BRANCH   3  19
ATOM     19  C   UNL     1       0.105  -1.329   0.000  0.00  0.00    +0.000 C 
BRANCH  19  20
ATOM     20  C   UNL     1      -0.609  -1.741   0.000  0.00  0.00    +0.000 A 
ATOM     21  C   UNL     1      -0.609  -2.566   0.000  0.00  0.00    +0.000 A 
ATOM     22  C   UNL     1      -1.324  -2.979   0.000  0.00  0.00    +0.000 A 
ATOM     23  C   UNL     1      -2.038  -2.566   0.000  0.00  0.00    +0.000 A 
ATOM     24  C   UNL     1      -2.038  -1.741   0.000  0.00  0.00    +0.000 A 
ATOM     25  C   UNL     1      -1.324  -1.329   0.000  0.00  0.00    +0.000 A 
ATOM     26 CL   UNL     1      -2.753  -1.329   0.000  0.00  0.00    +0.000 Cl
BRANCH  21  27
ATOM     27  O   UNL     1       0.105  -2.979   0.000  0.00  0.00    +0.000 OA
BRANCH  27  28
ATOM     28  C   UNL     1       0.820  -2.566   0.000  0.00  0.00    +0.000 C 
BRANCH  28  29
ATOM     29  C   UNL     1       1.534  -2.979   0.000  0.00  0.00    +0.000 C 
ATOM     30  O   UNL     1       1.534  -3.804   0.000  0.00  0.00    +0.000 OA
ATOM     31  N   UNL     1       2.249  -2.566   0.000  0.00  0.00    +0.000 NA
BRANCH  31  32
ATOM     32  C   UNL     1       2.963  -2.979   0.000  0.00  0.00    +0.000 C 
ATOM     33  C   UNL     1       3.678  -2.566   0.000  0.00  0.00    +0.000 C 
ENDBRANCH  31  32
ENDBRANCH  28  29
ENDBRANCH  27  28
ENDBRANCH  21  27
ENDBRANCH  19  20
ENDBRANCH   3  19
TORSDOF 9
