REMARK  Name = 177
REMARK  10 active torsions:
REMARK  status: ('A' for Active; 'I' for Inactive)
REMARK    1  A    between atoms: N_4  and  C_9
REMARK    2  A    between atoms: N_4  and  C_11
REMARK    3  A    between atoms: C_9  and  C_10
REMARK    4  A    between atoms: C_9  and  C_16
REMARK    5  A    between atoms: C_11  and  C_17
REMARK    6  A    between atoms: C_12  and  C_15
REMARK    7  A    between atoms: C_15  and  C_18
REMARK    8  A    between atoms: C_18  and  C_19
REMARK    9  A    between atoms: C_22  and  C_26
REMARK   10  A    between atoms: C_27  and  C_31
REMARK                            x       y       z     vdW  Elec       q    Type
REMARK                         _______ _______ _______ _____ _____    ______ ____
ROOT
ATOM      1  C   UNL     1       5.665   0.808   0.000  0.00  0.00    +0.000 A 
ATOM      2  C   UNL     1       6.380   1.221   0.000  0.00  0.00    +0.000 A 
ATOM      3  C   UNL     1       5.665  -0.017   0.000  0.00  0.00    +0.000 A 
ATOM      4  C   UNL     1       7.094  -0.017   0.000  0.00  0.00    +0.000 A 
ATOM      5  C   UNL     1       7.094   0.808   0.000  0.00  0.00    +0.000 A 
ATOM      6  C   UNL     1       6.380  -0.429   0.000  0.00  0.00    +0.000 A 
ENDROOT
BRANCH   4   7
ATOM      7  C   UNL     1       7.809  -0.429   0.000  0.00  0.00    +0.000 A 
ATOM      8  C   UNL     1       8.523  -0.017   0.000  0.00  0.00    +0.000 A 
ATOM      9  C   UNL     1       7.809  -1.254   0.000  0.00  0.00    +0.000 A 
ATOM     10  C   UNL     1       9.238  -0.429   0.000  0.00  0.00    +0.000 A 
ATOM     11  C   UNL     1       8.523  -1.667   0.000  0.00  0.00    +0.000 A 
ATOM     12  C   UNL     1       9.238  -1.254   0.000  0.00  0.00    +0.000 A 
BRANCH   8  17
ATOM     13  N   UNL     1       7.856   1.293   0.000  0.00  0.00    +0.000 NA
ATOM     14  N   UNL     1       9.191   1.293   0.000  0.00  0.00    +0.000 NA
ATOM     15  N   UNL     1       8.111   2.078   0.000  0.00  0.00    +0.000 NA
ATOM     16  N   UNL     1       8.936   2.078   0.000  0.00  0.00    +0.000 NA
ATOM     17  C   UNL     1       8.523   0.808   0.000  0.00  0.00    +0.000 A 
ENDBRANCH   8  17
ENDBRANCH   4   7
BRANCH   1  18
ATOM     18  C   UNL     1       4.951   1.221   0.000  0.00  0.00    +0.000 C 
BRANCH  18  20
ATOM     19  O   UNL     1       4.951  -0.429   0.000  0.00  0.00    +0.000 OA
ATOM     20  N   UNL     1       4.237   0.808   0.000  0.00  0.00    +0.000 N 
ATOM     21  C   UNL     1       4.237  -0.017   0.000  0.00  0.00    +0.000 C 
BRANCH  21  22
ATOM     22  C   UNL     1       3.522  -0.429   0.000  0.00  0.00    +0.000 C 
BRANCH  22  23
ATOM     23  C   UNL     1       3.522  -1.254   0.000  0.00  0.00    +0.000 C 
BRANCH  23  24
ATOM     24  C   UNL     1       2.808  -1.667   0.000  0.00  0.00    +0.000 C 
ATOM     25  C   UNL     1       2.808  -2.492   0.000  0.00  0.00    +0.000 C 
ENDBRANCH  23  24
ENDBRANCH  22  23
ENDBRANCH  21  22
BRANCH  20  26
ATOM     26  C   UNL     1       3.522   1.221   0.000  0.00  0.00    +0.000 C 
BRANCH  26  29
ATOM     27  O   UNL     1       2.093   1.221   0.000  0.00  0.00    +0.000 OA
ATOM     28  O   UNL     1       2.808  -0.017   0.000  0.00  0.00    +0.000 OA
ATOM     29  C   UNL     1       2.808   0.808   0.000  0.00  0.00    +0.000 C 
ENDBRANCH  26  29
BRANCH  26  30
ATOM     30  C   UNL     1       3.522   2.046   0.000  0.00  0.00    +0.000 C 
ATOM     31  C   UNL     1       2.808   2.458   0.000  0.00  0.00    +0.000 C 
ATOM     32  C   UNL     1       4.237   2.458   0.000  0.00  0.00    +0.000 C 
ENDBRANCH  26  30
ENDBRANCH  20  26
ENDBRANCH  18  20
ENDBRANCH   1  18
TORSDOF 10
