REMARK  Name = 1775
REMARK  2 active torsions:
REMARK  status: ('A' for Active; 'I' for Inactive)
REMARK    1  A    between atoms: C_5  and  C_6
REMARK    2  A    between atoms: C_5  and  C_7
REMARK                            x       y       z     vdW  Elec       q    Type
REMARK                         _______ _______ _______ _____ _____    ______ ____
ROOT
ATOM      1  O   UNL     1       3.502   1.779   0.000  0.00  0.00    +0.000 OA
ATOM      2  O   UNL     1       6.231   0.785   0.000  0.00  0.00    +0.000 OA
ATOM      3  N   UNL     1       4.899   0.164   0.000  0.00  0.00    +0.000 NA
ATOM      4  N   UNL     1       4.945   1.498   0.000  0.00  0.00    +0.000 NA
ATOM      5  C   UNL     1       4.123   0.446   0.000  0.00  0.00    +0.000 C 
ATOM      6  C   UNL     1       4.152   1.271   0.000  0.00  0.00    +0.000 C 
ATOM      7  C   UNL     1       5.407   0.814   0.000  0.00  0.00    +0.000 C 
ENDROOT
BRANCH   5   8
ATOM      8  C   UNL     1       3.841  -0.329   0.000  0.00  0.00    +0.000 A 
ATOM      9  C   UNL     1       3.127  -0.741   0.000  0.00  0.00    +0.000 A 
ATOM     10  C   UNL     1       4.556  -0.741   0.000  0.00  0.00    +0.000 A 
ATOM     11  C   UNL     1       3.127  -1.566   0.000  0.00  0.00    +0.000 A 
ATOM     12  C   UNL     1       4.556  -1.566   0.000  0.00  0.00    +0.000 A 
ATOM     13  C   UNL     1       3.841  -1.979   0.000  0.00  0.00    +0.000 A 
ENDBRANCH   5   8
BRANCH   5  14
ATOM     14  C   UNL     1       3.299   0.475   0.000  0.00  0.00    +0.000 A 
ATOM     15  C   UNL     1       2.912   1.204   0.000  0.00  0.00    +0.000 A 
ATOM     16  C   UNL     1       2.862  -0.224   0.000  0.00  0.00    +0.000 A 
ATOM     17  C   UNL     1       2.087   1.232   0.000  0.00  0.00    +0.000 A 
ATOM     18  C   UNL     1       2.037  -0.196   0.000  0.00  0.00    +0.000 A 
ATOM     19  C   UNL     1       1.650   0.533   0.000  0.00  0.00    +0.000 A 
ENDBRANCH   5  14
TORSDOF 2
