REMARK  Name = 179
REMARK  5 active torsions:
REMARK  status: ('A' for Active; 'I' for Inactive)
REMARK    1  A    between atoms: C_5  and  C_6
REMARK    2  A    between atoms: C_5  and  C_7
REMARK    3  A    between atoms: C_6  and  C_8
REMARK    4  A    between atoms: C_7  and  C_11
REMARK    5  A    between atoms: C_8  and  C_12
REMARK                            x       y       z     vdW  Elec       q    Type
REMARK                         _______ _______ _______ _____ _____    ______ ____
ROOT
ATOM      1  C   UNL     1       5.665  -0.206   0.000  0.00  0.00    +0.000 C 
ATOM      2  C   UNL     1       6.380   0.206   0.000  0.00  0.00    +0.000 C 
ENDROOT
BRANCH   1   3
ATOM      3  C   UNL     1       4.951   0.206   0.000  0.00  0.00    +0.000 C 
ATOM      4  C   UNL     1       4.237  -0.206   0.000  0.00  0.00    +0.000 C 
BRANCH   3   5
ATOM      5  C   UNL     1       4.951   1.031   0.000  0.00  0.00    +0.000 C 
BRANCH   5   8
ATOM      6  O   UNL     1       3.522   3.506   0.000  0.00  0.00    +0.000 OA
ATOM      7  O   UNL     1       2.093   2.681   0.000  0.00  0.00    +0.000 OA
ATOM      8  C   UNL     1       4.237   1.444   0.000  0.00  0.00    +0.000 A 
ATOM      9  C   UNL     1       4.237   2.269   0.000  0.00  0.00    +0.000 A 
ATOM     10  C   UNL     1       3.522   1.031   0.000  0.00  0.00    +0.000 A 
ATOM     11  C   UNL     1       3.522   2.681   0.000  0.00  0.00    +0.000 A 
ATOM     12  C   UNL     1       2.808   1.444   0.000  0.00  0.00    +0.000 A 
ATOM     13  C   UNL     1       2.808   2.269   0.000  0.00  0.00    +0.000 A 
ENDBRANCH   5   8
ENDBRANCH   3   5
ENDBRANCH   1   3
BRANCH   1  14
ATOM     14  C   UNL     1       5.665  -1.031   0.000  0.00  0.00    +0.000 C 
BRANCH  14  17
ATOM     15  O   UNL     1       7.094  -3.506   0.000  0.00  0.00    +0.000 OA
ATOM     16  O   UNL     1       8.523  -2.681   0.000  0.00  0.00    +0.000 OA
ATOM     17  C   UNL     1       6.380  -1.444   0.000  0.00  0.00    +0.000 A 
ATOM     18  C   UNL     1       6.380  -2.269   0.000  0.00  0.00    +0.000 A 
ATOM     19  C   UNL     1       7.094  -1.031   0.000  0.00  0.00    +0.000 A 
ATOM     20  C   UNL     1       7.094  -2.681   0.000  0.00  0.00    +0.000 A 
ATOM     21  C   UNL     1       7.809  -1.444   0.000  0.00  0.00    +0.000 A 
ATOM     22  C   UNL     1       7.809  -2.269   0.000  0.00  0.00    +0.000 A 
ENDBRANCH  14  17
ENDBRANCH   1  14
TORSDOF 5
