REMARK  Name = 17M
REMARK  0 active torsions:
REMARK  status: ('A' for Active; 'I' for Inactive)
REMARK                            x       y       z     vdW  Elec       q    Type
REMARK                         _______ _______ _______ _____ _____    ______ ____
ROOT
ATOM      1  C   UNL     1      -1.027   1.053   0.000  0.00  0.00    +0.000 C 
ATOM      2  C   UNL     1      -0.667   0.310   0.000  0.00  0.00    +0.000 C 
ATOM      3  C   UNL     1      -0.135   0.941   0.000  0.00  0.00    +0.000 C 
ATOM      4  C   UNL     1       0.677   0.796   0.000  0.00  0.00    +0.000 C 
ATOM      5  C   UNL     1       0.957   0.020   0.000  0.00  0.00    +0.000 A 
ATOM      6  C   UNL     1       1.770  -0.125   0.000  0.00  0.00    +0.000 A 
ATOM      7  C   UNL     1       2.301   0.506   0.000  0.00  0.00    +0.000 A 
ATOM      8  C   UNL     1       3.114   0.360   0.000  0.00  0.00    +0.000 A 
ATOM      9  C   UNL     1       3.394  -0.416   0.000  0.00  0.00    +0.000 A 
ATOM     10  O   UNL     1       4.206  -0.561   0.000  0.00  0.00    +0.000 OA
ATOM     11  C   UNL     1       2.862  -1.046   0.000  0.00  0.00    +0.000 A 
ATOM     12  C   UNL     1       2.050  -0.901   0.000  0.00  0.00    +0.000 A 
ATOM     13  C   UNL     1       1.518  -1.532   0.000  0.00  0.00    +0.000 A 
ATOM     14  C   UNL     1       0.706  -1.387   0.000  0.00  0.00    +0.000 A 
ATOM     15  C   UNL     1       0.426  -0.611   0.000  0.00  0.00    +0.000 A 
ATOM     16  C   UNL     1      -0.387  -0.465   0.000  0.00  0.00    +0.000 C 
ATOM     17  C   UNL     1      -1.038  -0.972   0.000  0.00  0.00    +0.000 C 
ATOM     18  C   UNL     1      -1.721  -0.509   0.000  0.00  0.00    +0.000 C 
ATOM     19  C   UNL     1      -1.491   0.284   0.000  0.00  0.00    +0.000 C 
ATOM     20  C   UNL     1      -1.613   1.100   0.000  0.00  0.00    +0.000 C 
ATOM     21  O   UNL     1      -2.252   0.603   0.000  0.00  0.00    +0.000 OA
ENDROOT
TORSDOF 0
