REMARK  Name = 181
REMARK  6 active torsions:
REMARK  status: ('A' for Active; 'I' for Inactive)
REMARK    1  A    between atoms: C_2  and  C_3
REMARK    2  A    between atoms: C_3  and  O_4
REMARK    3  A    between atoms: O_4  and  C_5
REMARK    4  A    between atoms: C_5  and  N_6
REMARK    5  A    between atoms: C_13  and  S_14
REMARK    6  A    between atoms: S_14  and  C_15
REMARK                            x       y       z     vdW  Elec       q    Type
REMARK                         _______ _______ _______ _____ _____    ______ ____
ROOT
ATOM      1  N   UNL     1      -0.702  -0.567   0.000  0.00  0.00    +0.000 N 
ATOM      2  C   UNL     1      -0.702   0.258   0.000  0.00  0.00    +0.000 A 
ATOM      3  O   UNL     1      -1.417   0.670   0.000  0.00  0.00    +0.000 OA
ATOM      4  N   UNL     1       0.012   0.670   0.000  0.00  0.00    +0.000 NA
ATOM      5  C   UNL     1       0.727   0.258   0.000  0.00  0.00    +0.000 A 
ATOM      6  O   UNL     1       1.441   0.670   0.000  0.00  0.00    +0.000 OA
ATOM      7  C   UNL     1       0.012  -0.980   0.000  0.00  0.00    +0.000 A 
ATOM      8  C   UNL     1       0.727  -0.567   0.000  0.00  0.00    +0.000 A 
ENDROOT
BRANCH   8   9
ATOM      9  S   UNL     1       1.441  -0.980   0.000  0.00  0.00    +0.000 S 
BRANCH   9  10
ATOM     10  C   UNL     1       2.156  -0.567   0.000  0.00  0.00    +0.000 A 
ATOM     11  C   UNL     1       2.156   0.258   0.000  0.00  0.00    +0.000 A 
ATOM     12  C   UNL     1       2.870   0.670   0.000  0.00  0.00    +0.000 A 
ATOM     13  C   UNL     1       3.585   0.258   0.000  0.00  0.00    +0.000 A 
ATOM     14  C   UNL     1       3.585  -0.567   0.000  0.00  0.00    +0.000 A 
ATOM     15  C   UNL     1       2.870  -0.980   0.000  0.00  0.00    +0.000 A 
ENDBRANCH   9  10
ENDBRANCH   8   9
BRANCH   1  16
ATOM     16  C   UNL     1      -1.417  -0.980   0.000  0.00  0.00    +0.000 C 
BRANCH  16  17
ATOM     17  O   UNL     1      -2.131  -0.567   0.000  0.00  0.00    +0.000 OA
BRANCH  17  18
ATOM     18  C   UNL     1      -2.845  -0.980   0.000  0.00  0.00    +0.000 C 
BRANCH  18  20
ATOM     19  O   UNL     1      -4.274  -0.980   0.000  0.00  0.00    +0.000 OA
ATOM     20  C   UNL     1      -3.560  -0.567   0.000  0.00  0.00    +0.000 C 
ENDBRANCH  18  20
ENDBRANCH  17  18
ENDBRANCH  16  17
ENDBRANCH   1  16
TORSDOF 6
