REMARK  Name = 181
REMARK  4 active torsions:
REMARK  status: ('A' for Active; 'I' for Inactive)
REMARK    1  A    between atoms: C_5  and  C_6
REMARK    2  A    between atoms: C_5  and  C_7
REMARK    3  A    between atoms: C_5  and  C_8
REMARK    4  A    between atoms: C_7  and  C_11
REMARK                            x       y       z     vdW  Elec       q    Type
REMARK                         _______ _______ _______ _____ _____    ______ ____
ROOT
ATOM      1  C   UNL     1       3.522   0.569   0.000  0.00  0.00    +0.000 C 
ENDROOT
BRANCH   1   3
ATOM      2 CL   UNL     1       3.522  -2.731   0.000  0.00  0.00    +0.000 Cl
ATOM      3  C   UNL     1       3.522  -0.256   0.000  0.00  0.00    +0.000 A 
ATOM      4  C   UNL     1       4.237  -0.668   0.000  0.00  0.00    +0.000 A 
ATOM      5  C   UNL     1       2.808  -0.668   0.000  0.00  0.00    +0.000 A 
ATOM      6  C   UNL     1       4.237  -1.493   0.000  0.00  0.00    +0.000 A 
ATOM      7  C   UNL     1       2.808  -1.493   0.000  0.00  0.00    +0.000 A 
ATOM      8  C   UNL     1       3.522  -1.906   0.000  0.00  0.00    +0.000 A 
ENDBRANCH   1   3
BRANCH   1  10
ATOM      9  N   UNL     1       2.093   0.569   0.000  0.00  0.00    +0.000 NA
ATOM     10  C   UNL     1       2.808   0.982   0.000  0.00  0.00    +0.000 C 
ENDBRANCH   1  10
BRANCH   1  11
ATOM     11  C   UNL     1       4.237   0.982   0.000  0.00  0.00    +0.000 C 
BRANCH  11  14
ATOM     12  O   UNL     1       4.951   2.219   0.000  0.00  0.00    +0.000 OA
ATOM     13  O   UNL     1       3.522   2.219   0.000  0.00  0.00    +0.000 OA
ATOM     14  C   UNL     1       4.237   1.807   0.000  0.00  0.00    +0.000 C 
ENDBRANCH  11  14
ENDBRANCH   1  11
TORSDOF 4
