REMARK  Name = 183
REMARK  9 active torsions:
REMARK  status: ('A' for Active; 'I' for Inactive)
REMARK    1  A    between atoms: C_2  and  C_3
REMARK    2  A    between atoms: C_3  and  O_4
REMARK    3  A    between atoms: O_4  and  C_5
REMARK    4  A    between atoms: C_5  and  N_6
REMARK    5  A    between atoms: C_13  and  C_14
REMARK    6  A    between atoms: C_14  and  C_15
REMARK    7  A    between atoms: C_20  and  O_21
REMARK    8  A    between atoms: O_21  and  C_22
REMARK    9  A    between atoms: C_22  and  C_23
REMARK                            x       y       z     vdW  Elec       q    Type
REMARK                         _______ _______ _______ _____ _____    ______ ____
ROOT
ATOM      1  C   UNL     1      -0.593  -0.397   0.000  0.00  0.00    +0.000 C 
ENDROOT
BRANCH   1   9
ATOM      2  N   UNL     1      -2.736   0.016   0.000  0.00  0.00    +0.000 N 
ATOM      3  C   UNL     1      -2.736   0.841   0.000  0.00  0.00    +0.000 A 
ATOM      4  O   UNL     1      -3.451   1.253   0.000  0.00  0.00    +0.000 OA
ATOM      5  N   UNL     1      -2.022   1.253   0.000  0.00  0.00    +0.000 NA
ATOM      6  C   UNL     1      -1.307   0.841   0.000  0.00  0.00    +0.000 A 
ATOM      7  O   UNL     1      -0.593   1.253   0.000  0.00  0.00    +0.000 OA
ATOM      8  C   UNL     1      -2.022  -0.397   0.000  0.00  0.00    +0.000 A 
ATOM      9  C   UNL     1      -1.307   0.016   0.000  0.00  0.00    +0.000 A 
BRANCH   2  10
ATOM     10  C   UNL     1      -3.451  -0.397   0.000  0.00  0.00    +0.000 C 
BRANCH  10  11
ATOM     11  O   UNL     1      -4.165   0.016   0.000  0.00  0.00    +0.000 OA
BRANCH  11  12
ATOM     12  C   UNL     1      -4.880  -0.397   0.000  0.00  0.00    +0.000 C 
BRANCH  12  14
ATOM     13  O   UNL     1      -6.309  -0.397   0.000  0.00  0.00    +0.000 OA
ATOM     14  C   UNL     1      -5.594   0.016   0.000  0.00  0.00    +0.000 C 
ENDBRANCH  12  14
ENDBRANCH  11  12
ENDBRANCH  10  11
ENDBRANCH   2  10
ENDBRANCH   1   9
BRANCH   1  15
ATOM     15  C   UNL     1       0.122   0.016   0.000  0.00  0.00    +0.000 A 
ATOM     16  C   UNL     1       0.122   0.841   0.000  0.00  0.00    +0.000 A 
ATOM     17  C   UNL     1       0.836   1.253   0.000  0.00  0.00    +0.000 A 
ATOM     18  C   UNL     1       1.551   0.841   0.000  0.00  0.00    +0.000 A 
ATOM     19  C   UNL     1       0.836  -0.397   0.000  0.00  0.00    +0.000 A 
ATOM     20  C   UNL     1       1.551   0.016   0.000  0.00  0.00    +0.000 A 
BRANCH  20  21
ATOM     21  O   UNL     1       2.265  -0.397   0.000  0.00  0.00    +0.000 OA
BRANCH  21  22
ATOM     22  C   UNL     1       2.980   0.016   0.000  0.00  0.00    +0.000 C 
BRANCH  22  23
ATOM     23  C   UNL     1       3.694  -0.397   0.000  0.00  0.00    +0.000 A 
ATOM     24  C   UNL     1       4.409   0.016   0.000  0.00  0.00    +0.000 A 
ATOM     25  C   UNL     1       5.123  -0.397   0.000  0.00  0.00    +0.000 A 
ATOM     26  C   UNL     1       5.123  -1.222   0.000  0.00  0.00    +0.000 A 
ATOM     27  C   UNL     1       4.409  -1.634   0.000  0.00  0.00    +0.000 A 
ATOM     28  C   UNL     1       3.694  -1.222   0.000  0.00  0.00    +0.000 A 
ENDBRANCH  22  23
ENDBRANCH  21  22
ENDBRANCH  20  21
ENDBRANCH   1  15
TORSDOF 9
