REMARK  Name = 185
REMARK  6 active torsions:
REMARK  status: ('A' for Active; 'I' for Inactive)
REMARK    1  A    between atoms: C_1  and  O_2
REMARK    2  A    between atoms: O_2  and  C_10
REMARK    3  A    between atoms: C_6  and  C_26
REMARK    4  A    between atoms: N_13  and  C_18
REMARK    5  A    between atoms: CA_15  and  C_16
REMARK    6  A    between atoms: C_21  and  C_24
REMARK                            x       y       z     vdW  Elec       q    Type
REMARK                         _______ _______ _______ _____ _____    ______ ____
ROOT
ATOM      1  C   UNL     1       0.882   0.635   0.000  0.00  0.00    +0.000 A 
ATOM      2  N   UNL     1       0.167   0.223   0.000  0.00  0.00    +0.000 NA
ATOM      3  C   UNL     1      -0.547   0.635   0.000  0.00  0.00    +0.000 A 
ATOM      4  N   UNL     1      -1.262   0.223   0.000  0.00  0.00    +0.000 NA
ATOM      5  N   UNL     1      -0.547   1.460   0.000  0.00  0.00    +0.000 NA
ATOM      6  CA  UNL     1       0.167   1.873   0.000  0.00  0.00    +0.000 A 
ATOM      7  C   UNL     1       0.882   1.460   0.000  0.00  0.00    +0.000 A 
ATOM      8 BR   UNL     1       1.596   1.873   0.000  0.00  0.00    +0.000 Br
ENDROOT
BRANCH   4   9
ATOM      9  C   UNL     1      -1.976   0.635   0.000  0.00  0.00    +0.000 A 
ATOM     10  C   UNL     1      -2.691   0.223   0.000  0.00  0.00    +0.000 A 
ATOM     11  C   UNL     1      -3.405   0.635   0.000  0.00  0.00    +0.000 A 
ATOM     12  C   UNL     1      -3.405   1.460   0.000  0.00  0.00    +0.000 A 
ATOM     13  C   UNL     1      -2.691   1.873   0.000  0.00  0.00    +0.000 A 
ATOM     14  C   UNL     1      -1.976   1.460   0.000  0.00  0.00    +0.000 A 
BRANCH  12  15
ATOM     15  C   UNL     1      -4.120   1.873   0.000  0.00  0.00    +0.000 C 
ATOM     16  N   UNL     1      -4.834   2.285   0.000  0.00  0.00    +0.000 NA
ENDBRANCH  12  15
ENDBRANCH   4   9
BRANCH   6  17
ATOM     17  C   UNL     1       0.167   2.698   0.000  0.00  0.00    +0.000 C 
ATOM     18  O   UNL     1       0.882   3.110   0.000  0.00  0.00    +0.000 OA
ENDBRANCH   6  17
BRANCH   1  19
ATOM     19  O   UNL     1       1.596   0.223   0.000  0.00  0.00    +0.000 OA
BRANCH  19  20
ATOM     20  C   UNL     1       1.596  -0.602   0.000  0.00  0.00    +0.000 A 
ATOM     21  C   UNL     1       2.311  -1.015   0.000  0.00  0.00    +0.000 A 
ATOM     22  C   UNL     1       3.025  -0.602   0.000  0.00  0.00    +0.000 C 
ATOM     23  C   UNL     1       2.311  -1.840   0.000  0.00  0.00    +0.000 A 
ATOM     24  C   UNL     1       1.596  -2.252   0.000  0.00  0.00    +0.000 A 
ATOM     25  C   UNL     1       0.882  -1.840   0.000  0.00  0.00    +0.000 A 
ATOM     26  C   UNL     1       0.882  -1.015   0.000  0.00  0.00    +0.000 A 
ATOM     27  C   UNL     1       0.167  -0.602   0.000  0.00  0.00    +0.000 C 
BRANCH  24  28
ATOM     28  C   UNL     1       1.596  -3.077   0.000  0.00  0.00    +0.000 C 
ATOM     29  N   UNL     1       1.596  -3.902   0.000  0.00  0.00    +0.000 NA
ENDBRANCH  24  28
ENDBRANCH  19  20
ENDBRANCH   1  19
TORSDOF 6
