REMARK  Name = 186
REMARK  11 active torsions:
REMARK  status: ('A' for Active; 'I' for Inactive)
REMARK    1  A    between atoms: C_2  and  O_3
REMARK    2  A    between atoms: O_3  and  C_4
REMARK    3  A    between atoms: C_4  and  C_5
REMARK    4  A    between atoms: N_11  and  C_12
REMARK    5  A    between atoms: C_12  and  C_13
REMARK    6  A    between atoms: C_12  and  C_20
REMARK    7  A    between atoms: C_13  and  C_14
REMARK    8  A    between atoms: N_22  and  C_23
REMARK    9  A    between atoms: C_23  and  C_25
REMARK   10  A    between atoms: C_26  and  C_27
REMARK   11  A    between atoms: C_27  and  C_29
REMARK                            x       y       z     vdW  Elec       q    Type
REMARK                         _______ _______ _______ _____ _____    ______ ____
ROOT
ATOM      1  C   UNL     1       0.059  -0.019   0.000  0.00  0.00    +0.000 C 
ENDROOT
BRANCH   1   4
ATOM      2  O   UNL     1      -1.370   0.806   0.000  0.00  0.00    +0.000 OA
ATOM      3  C   UNL     1      -1.370  -0.019   0.000  0.00  0.00    +0.000 C 
ATOM      4  N   UNL     1      -0.656  -0.432   0.000  0.00  0.00    +0.000 NA
BRANCH   3   5
ATOM      5  O   UNL     1      -2.085  -0.432   0.000  0.00  0.00    +0.000 OA
BRANCH   5   6
ATOM      6  C   UNL     1      -2.799  -0.019   0.000  0.00  0.00    +0.000 C 
BRANCH   6   7
ATOM      7  C   UNL     1      -3.514  -0.432   0.000  0.00  0.00    +0.000 A 
ATOM      8  C   UNL     1      -3.514  -1.257   0.000  0.00  0.00    +0.000 A 
ATOM      9  C   UNL     1      -4.228  -1.669   0.000  0.00  0.00    +0.000 A 
ATOM     10  C   UNL     1      -4.943  -1.257   0.000  0.00  0.00    +0.000 A 
ATOM     11  C   UNL     1      -4.943  -0.432   0.000  0.00  0.00    +0.000 A 
ATOM     12  C   UNL     1      -4.228  -0.019   0.000  0.00  0.00    +0.000 A 
ENDBRANCH   6   7
ENDBRANCH   5   6
ENDBRANCH   3   5
ENDBRANCH   1   4
BRANCH   1  13
ATOM     13  C   UNL     1       0.773  -0.432   0.000  0.00  0.00    +0.000 C 
ATOM     14  O   UNL     1       0.773  -1.257   0.000  0.00  0.00    +0.000 OA
ATOM     15  N   UNL     1       1.488  -0.019   0.000  0.00  0.00    +0.000 NA
BRANCH  15  16
ATOM     16  C   UNL     1       2.202  -0.432   0.000  0.00  0.00    +0.000 C 
ATOM     17  C   UNL     1       2.202  -1.257   0.000  0.00  0.00    +0.000 C 
BRANCH  16  18
ATOM     18  C   UNL     1       2.917  -0.019   0.000  0.00  0.00    +0.000 C 
ATOM     19  C   UNL     1       3.631  -0.432   0.000  0.00  0.00    +0.000 C 
BRANCH  19  20
ATOM     20  C   UNL     1       4.346  -0.019   0.000  0.00  0.00    +0.000 C 
ATOM     21  O   UNL     1       4.346   0.806   0.000  0.00  0.00    +0.000 OA
BRANCH  20  22
ATOM     22  C   UNL     1       5.060  -0.432   0.000  0.00  0.00    +0.000 C 
ATOM     23  O   UNL     1       5.774  -0.019   0.000  0.00  0.00    +0.000 OA
ENDBRANCH  20  22
ENDBRANCH  19  20
ENDBRANCH  16  18
ENDBRANCH  15  16
ENDBRANCH   1  13
BRANCH   1  24
ATOM     24  C   UNL     1       0.059   0.806   0.000  0.00  0.00    +0.000 C 
BRANCH  24  25
ATOM     25  C   UNL     1       0.773   1.218   0.000  0.00  0.00    +0.000 A 
ATOM     26  C   UNL     1       0.773   2.043   0.000  0.00  0.00    +0.000 A 
ATOM     27  C   UNL     1       1.488   2.456   0.000  0.00  0.00    +0.000 A 
ATOM     28  C   UNL     1       2.202   2.043   0.000  0.00  0.00    +0.000 A 
ATOM     29  C   UNL     1       2.202   1.218   0.000  0.00  0.00    +0.000 A 
ATOM     30  C   UNL     1       1.488   0.806   0.000  0.00  0.00    +0.000 A 
ENDBRANCH  24  25
ENDBRANCH   1  24
TORSDOF 11
