REMARK  Name = 186
REMARK  1 active torsions:
REMARK  status: ('A' for Active; 'I' for Inactive)
REMARK    1  A    between atoms: C_8  and  C_10
REMARK                            x       y       z     vdW  Elec       q    Type
REMARK                         _______ _______ _______ _____ _____    ______ ____
ROOT
ATOM      1 CL   UNL     1       2.547  -2.378   0.000  0.00  0.00    +0.000 Cl
ATOM      2  O   UNL     1       3.881   2.340   0.000  0.00  0.00    +0.000 OA
ATOM      3  O   UNL     1       2.340   2.340   0.000  0.00  0.00    +0.000 OA
ATOM      4  N   UNL     1       2.184   0.952   0.000  0.00  0.00    +0.000 NA
ATOM      5  N   UNL     1       4.037   0.952   0.000  0.00  0.00    +0.000 NA
ATOM      6  C   UNL     1       3.111  -0.210   0.000  0.00  0.00    +0.000 A 
ATOM      7  C   UNL     1       3.854   0.147   0.000  0.00  0.00    +0.000 C 
ATOM      8  C   UNL     1       2.367   0.147   0.000  0.00  0.00    +0.000 A 
ATOM      9  C   UNL     1       3.523   1.597   0.000  0.00  0.00    +0.000 C 
ATOM     10  C   UNL     1       3.188  -1.066   0.000  0.00  0.00    +0.000 A 
ATOM     11  C   UNL     1       2.698   1.597   0.000  0.00  0.00    +0.000 C 
ATOM     12  C   UNL     1       1.650  -0.326   0.000  0.00  0.00    +0.000 A 
ATOM     13  C   UNL     1       2.482  -1.556   0.000  0.00  0.00    +0.000 A 
ATOM     14  C   UNL     1       1.708  -1.183   0.000  0.00  0.00    +0.000 A 
ENDROOT
BRANCH   7  16
ATOM     15 CL   UNL     1       3.608  -1.484   0.000  0.00  0.00    +0.000 Cl
ATOM     16  C   UNL     1       4.499  -0.367   0.000  0.00  0.00    +0.000 A 
ATOM     17  C   UNL     1       4.376  -1.183   0.000  0.00  0.00    +0.000 A 
ATOM     18  C   UNL     1       5.267  -0.066   0.000  0.00  0.00    +0.000 A 
ATOM     19  C   UNL     1       5.021  -1.697   0.000  0.00  0.00    +0.000 A 
ATOM     20  C   UNL     1       5.912  -0.580   0.000  0.00  0.00    +0.000 A 
ATOM     21  C   UNL     1       5.789  -1.396   0.000  0.00  0.00    +0.000 A 
ENDBRANCH   7  16
TORSDOF 1
