REMARK  Name = 187
REMARK  10 active torsions:
REMARK  status: ('A' for Active; 'I' for Inactive)
REMARK    1  A    between atoms: O_1  and  C_9
REMARK    2  A    between atoms: O_1  and  C_14
REMARK    3  A    between atoms: O_3  and  C_20
REMARK    4  A    between atoms: N_5  and  C_7
REMARK    5  A    between atoms: N_5  and  C_8
REMARK    6  A    between atoms: C_6  and  C_7
REMARK    7  A    between atoms: C_6  and  C_9
REMARK    8  A    between atoms: C_12  and  C_13
REMARK    9  A    between atoms: C_13  and  C_19
REMARK   10  A    between atoms: C_19  and  C_20
REMARK                            x       y       z     vdW  Elec       q    Type
REMARK                         _______ _______ _______ _____ _____    ______ ____
ROOT
ATOM      1  C   UNL     1       3.079  -1.444   0.000  0.00  0.00    +0.000 A 
ATOM      2  C   UNL     1       3.079   0.206   0.000  0.00  0.00    +0.000 A 
ATOM      3  C   UNL     1       2.364  -1.031   0.000  0.00  0.00    +0.000 A 
ATOM      4  C   UNL     1       3.793  -1.031   0.000  0.00  0.00    +0.000 A 
ATOM      5  C   UNL     1       2.364  -0.206   0.000  0.00  0.00    +0.000 A 
ATOM      6  C   UNL     1       3.793  -0.206   0.000  0.00  0.00    +0.000 A 
ENDROOT
BRANCH   2   7
ATOM      7  O   UNL     1       3.079   1.031   0.000  0.00  0.00    +0.000 OA
BRANCH   7   8
ATOM      8  C   UNL     1       3.793   1.444   0.000  0.00  0.00    +0.000 C 
BRANCH   8  10
ATOM      9  O   UNL     1       3.079   2.681   0.000  0.00  0.00    +0.000 OA
ATOM     10  C   UNL     1       3.793   2.269   0.000  0.00  0.00    +0.000 C 
BRANCH  10  11
ATOM     11  C   UNL     1       4.508   2.681   0.000  0.00  0.00    +0.000 C 
BRANCH  11  12
ATOM     12  N   UNL     1       4.508   3.506   0.000  0.00  0.00    +0.000 NA
BRANCH  12  13
ATOM     13  C   UNL     1       5.222   3.919   0.000  0.00  0.00    +0.000 C 
ATOM     14  C   UNL     1       5.222   4.744   0.000  0.00  0.00    +0.000 C 
ATOM     15  C   UNL     1       5.937   3.506   0.000  0.00  0.00    +0.000 C 
ENDBRANCH  12  13
ENDBRANCH  11  12
ENDBRANCH  10  11
ENDBRANCH   8  10
ENDBRANCH   7   8
ENDBRANCH   2   7
BRANCH   1  16
ATOM     16  C   UNL     1       3.079  -2.269   0.000  0.00  0.00    +0.000 C 
BRANCH  16  17
ATOM     17  C   UNL     1       2.364  -2.681   0.000  0.00  0.00    +0.000 C 
BRANCH  17  19
ATOM     18  O   UNL     1       3.079  -3.919   0.000  0.00  0.00    +0.000 OA
ATOM     19  C   UNL     1       2.364  -3.506   0.000  0.00  0.00    +0.000 C 
BRANCH  19  20
ATOM     20  O   UNL     1       1.650  -3.919   0.000  0.00  0.00    +0.000 OA
ATOM     21  C   UNL     1       1.650  -4.744   0.000  0.00  0.00    +0.000 C 
ENDBRANCH  19  20
ENDBRANCH  17  19
ENDBRANCH  16  17
ENDBRANCH   1  16
TORSDOF 10
