REMARK  Name = 191
REMARK  2 active torsions:
REMARK  status: ('A' for Active; 'I' for Inactive)
REMARK    1  A    between atoms: C_2  and  C_3
REMARK    2  A    between atoms: C_3  and  C_6
REMARK                            x       y       z     vdW  Elec       q    Type
REMARK                         _______ _______ _______ _____ _____    ______ ____
ROOT
ATOM      1  C   UNL     1       2.365  -0.256   0.000  0.00  0.00    +0.000 A 
ATOM      2  C   UNL     1       3.079  -0.668   0.000  0.00  0.00    +0.000 A 
ATOM      3  C   UNL     1       1.650  -0.668   0.000  0.00  0.00    +0.000 A 
ATOM      4  C   UNL     1       3.079  -1.493   0.000  0.00  0.00    +0.000 A 
ATOM      5  C   UNL     1       1.650  -1.493   0.000  0.00  0.00    +0.000 A 
ATOM      6  C   UNL     1       2.365  -1.906   0.000  0.00  0.00    +0.000 A 
ENDROOT
BRANCH   1   7
ATOM      7  C   UNL     1       2.365   0.569   0.000  0.00  0.00    +0.000 C 
BRANCH   7   9
ATOM      8  N   UNL     1       3.793   1.394   0.000  0.00  0.00    +0.000 NA
ATOM      9  C   UNL     1       3.079   0.982   0.000  0.00  0.00    +0.000 C 
ATOM     10  C   UNL     1       2.667   1.696   0.000  0.00  0.00    +0.000 C 
ATOM     11  C   UNL     1       3.492   0.267   0.000  0.00  0.00    +0.000 C 
ENDBRANCH   7   9
ENDBRANCH   1   7
TORSDOF 2
