REMARK  Name = 192
REMARK  6 active torsions:
REMARK  status: ('A' for Active; 'I' for Inactive)
REMARK    1  A    between atoms: N_2  and  C_12
REMARK    2  A    between atoms: N_2  and  C_21
REMARK    3  A    between atoms: C_4  and  C_5
REMARK    4  A    between atoms: C_4  and  C_11
REMARK    5  A    between atoms: C_5  and  C_10
REMARK    6  A    between atoms: C_10  and  C_12
REMARK                            x       y       z     vdW  Elec       q    Type
REMARK                         _______ _______ _______ _____ _____    ______ ____
ROOT
ATOM      1  C   UNL     1       5.566  -0.333   0.000  0.00  0.00    +0.000 C 
ATOM      2  C   UNL     1       6.234  -0.818   0.000  0.00  0.00    +0.000 A 
ATOM      3  C   UNL     1       4.899  -0.818   0.000  0.00  0.00    +0.000 A 
ATOM      4  C   UNL     1       5.979  -1.603   0.000  0.00  0.00    +0.000 A 
ATOM      5  C   UNL     1       5.154  -1.603   0.000  0.00  0.00    +0.000 A 
ATOM      6  C   UNL     1       7.071  -0.627   0.000  0.00  0.00    +0.000 A 
ATOM      7  C   UNL     1       4.061  -0.627   0.000  0.00  0.00    +0.000 A 
ATOM      8  C   UNL     1       6.544  -2.250   0.000  0.00  0.00    +0.000 A 
ATOM      9  C   UNL     1       4.589  -2.250   0.000  0.00  0.00    +0.000 A 
ATOM     10  C   UNL     1       7.651  -1.261   0.000  0.00  0.00    +0.000 A 
ATOM     11  C   UNL     1       3.481  -1.261   0.000  0.00  0.00    +0.000 A 
ATOM     12  C   UNL     1       7.386  -2.078   0.000  0.00  0.00    +0.000 A 
ATOM     13  C   UNL     1       3.747  -2.078   0.000  0.00  0.00    +0.000 A 
ENDROOT
BRANCH   1  16
ATOM     14  O   UNL     1       6.872   0.248   0.000  0.00  0.00    +0.000 OA
ATOM     15  N   UNL     1       5.716   1.088   0.000  0.00  0.00    +0.000 NA
ATOM     16  C   UNL     1       6.051   0.334   0.000  0.00  0.00    +0.000 C 
ENDBRANCH   1  16
BRANCH   1  17
ATOM     17  C   UNL     1       5.081   0.334   0.000  0.00  0.00    +0.000 C 
BRANCH  17  18
ATOM     18  C   UNL     1       4.261   0.248   0.000  0.00  0.00    +0.000 C 
BRANCH  18  19
ATOM     19  C   UNL     1       3.776   0.915   0.000  0.00  0.00    +0.000 C 
BRANCH  19  20
ATOM     20  N   UNL     1       2.955   0.829   0.000  0.00  0.00    +0.000 NA
BRANCH  20  21
ATOM     21  C   UNL     1       2.470   1.497   0.000  0.00  0.00    +0.000 C 
ATOM     22  C   UNL     1       1.650   1.410   0.000  0.00  0.00    +0.000 C 
ATOM     23  C   UNL     1       2.806   2.250   0.000  0.00  0.00    +0.000 C 
ENDBRANCH  20  21
ENDBRANCH  19  20
ENDBRANCH  18  19
ENDBRANCH  17  18
ENDBRANCH   1  17
TORSDOF 6
