REMARK  Name = 194
REMARK  7 active torsions:
REMARK  status: ('A' for Active; 'I' for Inactive)
REMARK    1  A    between atoms: C_3  and  O_13
REMARK    2  A    between atoms: C_5  and  C_10
REMARK    3  A    between atoms: C_6  and  C_7
REMARK    4  A    between atoms: O_13  and  C_14
REMARK    5  A    between atoms: C_15  and  N_20
REMARK    6  A    between atoms: C_21  and  C_23
REMARK    7  A    between atoms: C_25  and  N_29
REMARK                            x       y       z     vdW  Elec       q    Type
REMARK                         _______ _______ _______ _____ _____    ______ ____
ROOT
ATOM      1  C   UNL     1      -0.164  -1.036   0.000  0.00  0.00    +0.000 A 
ATOM      2  C   UNL     1       0.550  -1.449   0.000  0.00  0.00    +0.000 A 
ATOM      3  C   UNL     1       0.550  -2.274   0.000  0.00  0.00    +0.000 A 
ATOM      4  C   UNL     1      -0.164  -2.687   0.000  0.00  0.00    +0.000 A 
ATOM      5  C   UNL     1      -0.879  -2.274   0.000  0.00  0.00    +0.000 A 
ATOM      6  C   UNL     1      -0.879  -1.449   0.000  0.00  0.00    +0.000 A 
ENDROOT
BRANCH   2   7
ATOM      7  N   UNL     1       1.265  -1.036   0.000  0.00  0.00    +0.000 NA
ATOM      8  C   UNL     1       1.265  -0.211   0.000  0.00  0.00    +0.000 C 
ATOM      9  O   UNL     1       0.550   0.201   0.000  0.00  0.00    +0.000 OA
BRANCH   8  10
ATOM     10  C   UNL     1       1.979   0.201   0.000  0.00  0.00    +0.000 A 
ATOM     11  C   UNL     1       1.979   1.026   0.000  0.00  0.00    +0.000 A 
ATOM     12  C   UNL     1       2.693   1.438   0.000  0.00  0.00    +0.000 A 
ATOM     13  C   UNL     1       3.408   1.026   0.000  0.00  0.00    +0.000 A 
ATOM     14  C   UNL     1       3.408   0.201   0.000  0.00  0.00    +0.000 A 
ATOM     15  C   UNL     1       2.693  -0.211   0.000  0.00  0.00    +0.000 A 
BRANCH  12  16
ATOM     16  N   UNL     1       2.693   2.264   0.000  0.00  0.00    +0.000 N 
ATOM     17  O   UNL     1       3.408   2.676   0.000  0.00  0.00    +0.000 OA
ATOM     18  O   UNL     1       1.979   2.676   0.000  0.00  0.00    +0.000 OA
ENDBRANCH  12  16
ENDBRANCH   8  10
ENDBRANCH   2   7
BRANCH   1  19
ATOM     19  O   UNL     1      -0.164  -0.211   0.000  0.00  0.00    +0.000 OA
BRANCH  19  22
ATOM     20  C   UNL     1      -1.593   1.438   0.000  0.00  0.00    +0.000 A 
ATOM     21  C   UNL     1      -0.879   1.026   0.000  0.00  0.00    +0.000 A 
ATOM     22  C   UNL     1      -0.879   0.201   0.000  0.00  0.00    +0.000 A 
ATOM     23  C   UNL     1      -1.593  -0.211   0.000  0.00  0.00    +0.000 A 
ATOM     24  C   UNL     1      -2.308   0.201   0.000  0.00  0.00    +0.000 A 
ATOM     25  C   UNL     1      -2.308   1.026   0.000  0.00  0.00    +0.000 A 
BRANCH  24  26
ATOM     26  C   UNL     1      -3.022  -0.211   0.000  0.00  0.00    +0.000 C 
ATOM     27  O   UNL     1      -3.737   0.201   0.000  0.00  0.00    +0.000 OA
ATOM     28  O   UNL     1      -3.022  -1.036   0.000  0.00  0.00    +0.000 OA
ENDBRANCH  24  26
BRANCH  25  29
ATOM     29  C   UNL     1      -3.022   1.438   0.000  0.00  0.00    +0.000 C 
ATOM     30  O   UNL     1      -3.737   1.026   0.000  0.00  0.00    +0.000 OA
ATOM     31  O   UNL     1      -3.022   2.264   0.000  0.00  0.00    +0.000 OA
ENDBRANCH  25  29
ENDBRANCH  19  22
ENDBRANCH   1  19
TORSDOF 7
