REMARK  Name = 19529
REMARK  5 active torsions:
REMARK  status: ('A' for Active; 'I' for Inactive)
REMARK    1  A    between atoms: O_3  and  C_11
REMARK    2  A    between atoms: O_3  and  C_18
REMARK    3  A    between atoms: N_7  and  C_8
REMARK    4  A    between atoms: C_15  and  C_16
REMARK    5  A    between atoms: C_17  and  C_18
REMARK                            x       y       z     vdW  Elec       q    Type
REMARK                         _______ _______ _______ _____ _____    ______ ____
ROOT
ATOM      1  C   UNL     1       3.079   1.254   0.000  0.00  0.00    +0.000 A 
ATOM      2  C   UNL     1       3.793   0.841   0.000  0.00  0.00    +0.000 A 
ATOM      3  C   UNL     1       2.365   0.841   0.000  0.00  0.00    +0.000 A 
ATOM      4  C   UNL     1       3.079  -0.397   0.000  0.00  0.00    +0.000 A 
ATOM      5  C   UNL     1       3.793   0.016   0.000  0.00  0.00    +0.000 A 
ATOM      6  C   UNL     1       2.365   0.016   0.000  0.00  0.00    +0.000 A 
ENDROOT
BRANCH   1   8
ATOM      7  O   UNL     1       4.508   2.079   0.000  0.00  0.00    +0.000 OA
ATOM      8  N   UNL     1       3.079   2.079   0.000  0.00  0.00    +0.000 N 
ATOM      9  C   UNL     1       2.365   2.491   0.000  0.00  0.00    +0.000 C 
ATOM     10  C   UNL     1       3.793   2.491   0.000  0.00  0.00    +0.000 C 
BRANCH  10  13
ATOM     11 CL   UNL     1       4.508   3.728   0.000  0.00  0.00    +0.000 Cl
ATOM     12 CL   UNL     1       3.079   3.728   0.000  0.00  0.00    +0.000 Cl
ATOM     13  C   UNL     1       3.793   3.316   0.000  0.00  0.00    +0.000 C 
ENDBRANCH  10  13
ENDBRANCH   1   8
BRANCH   4  14
ATOM     14  O   UNL     1       3.079  -1.222   0.000  0.00  0.00    +0.000 OA
BRANCH  14  16
ATOM     15  O   UNL     1       1.650  -1.222   0.000  0.00  0.00    +0.000 OA
ATOM     16  C   UNL     1       2.365  -1.634   0.000  0.00  0.00    +0.000 C 
BRANCH  16  18
ATOM     17  O   UNL     1       1.697  -2.944   0.000  0.00  0.00    +0.000 OA
ATOM     18  C   UNL     1       2.365  -2.459   0.000  0.00  0.00    +0.000 A 
ATOM     19  C   UNL     1       3.032  -2.944   0.000  0.00  0.00    +0.000 A 
ATOM     20  C   UNL     1       2.777  -3.728   0.000  0.00  0.00    +0.000 A 
ATOM     21  C   UNL     1       1.952  -3.728   0.000  0.00  0.00    +0.000 A 
ENDBRANCH  16  18
ENDBRANCH  14  16
ENDBRANCH   4  14
TORSDOF 5
