REMARK  Name = 196
REMARK  5 active torsions:
REMARK  status: ('A' for Active; 'I' for Inactive)
REMARK    1  A    between atoms: N_4  and  C_11
REMARK    2  A    between atoms: N_5  and  C_12
REMARK    3  A    between atoms: C_10  and  C_11
REMARK    4  A    between atoms: C_10  and  C_12
REMARK    5  A    between atoms: C_10  and  C_13
REMARK                            x       y       z     vdW  Elec       q    Type
REMARK                         _______ _______ _______ _____ _____    ______ ____
ROOT
ATOM      1  O   UNL     1       2.254   0.535   0.000  0.00  0.00    +0.000 OA
ATOM      2  C   UNL     1       3.079   0.535   0.000  0.00  0.00    +0.000 C 
ENDROOT
BRANCH   2   5
ATOM      3  F   UNL     1       1.650  -0.290   0.000  0.00  0.00    +0.000 F 
ATOM      4  F   UNL     1       3.079  -2.765   0.000  0.00  0.00    +0.000 F 
ATOM      5  C   UNL     1       3.079  -0.290   0.000  0.00  0.00    +0.000 A 
ATOM      6  C   UNL     1       2.364  -0.702   0.000  0.00  0.00    +0.000 A 
ATOM      7  C   UNL     1       3.793  -0.702   0.000  0.00  0.00    +0.000 A 
ATOM      8  C   UNL     1       2.364  -1.527   0.000  0.00  0.00    +0.000 A 
ATOM      9  C   UNL     1       3.793  -1.527   0.000  0.00  0.00    +0.000 A 
ATOM     10  C   UNL     1       3.079  -1.940   0.000  0.00  0.00    +0.000 A 
ENDBRANCH   2   5
BRANCH   2  11
ATOM     11  C   UNL     1       3.079   1.360   0.000  0.00  0.00    +0.000 C 
BRANCH  11  12
ATOM     12  N   UNL     1       3.793   1.773   0.000  0.00  0.00    +0.000 N 
ATOM     13  N   UNL     1       4.547   1.437   0.000  0.00  0.00    +0.000 NA
ATOM     14  N   UNL     1       4.687   2.765   0.000  0.00  0.00    +0.000 NA
ATOM     15  C   UNL     1       3.880   2.593   0.000  0.00  0.00    +0.000 A 
ATOM     16  C   UNL     1       5.099   2.050   0.000  0.00  0.00    +0.000 A 
ENDBRANCH  11  12
ENDBRANCH   2  11
BRANCH   2  17
ATOM     17  C   UNL     1       3.904   0.535   0.000  0.00  0.00    +0.000 C 
BRANCH  17  18
ATOM     18  N   UNL     1       4.618   0.123   0.000  0.00  0.00    +0.000 N 
ATOM     19  N   UNL     1       5.372   0.458   0.000  0.00  0.00    +0.000 NA
ATOM     20  N   UNL     1       5.512  -0.869   0.000  0.00  0.00    +0.000 NA
ATOM     21  C   UNL     1       4.705  -0.698   0.000  0.00  0.00    +0.000 A 
ATOM     22  C   UNL     1       5.924  -0.155   0.000  0.00  0.00    +0.000 A 
ENDBRANCH  17  18
ENDBRANCH   2  17
TORSDOF 5
