REMARK  Name = 197
REMARK  5 active torsions:
REMARK  status: ('A' for Active; 'I' for Inactive)
REMARK    1  A    between atoms: O_3  and  C_13
REMARK    2  A    between atoms: O_3  and  C_22
REMARK    3  A    between atoms: C_8  and  C_13
REMARK    4  A    between atoms: C_23  and  C_26
REMARK    5  A    between atoms: C_26  and  C_27
REMARK                            x       y       z     vdW  Elec       q    Type
REMARK                         _______ _______ _______ _____ _____    ______ ____
ROOT
ATOM      1  C   UNL     1       6.546  -1.005   0.000  0.00  0.00    +0.000 C 
ENDROOT
BRANCH   1   4
ATOM      2  O   UNL     1       4.974  -1.425   0.000  0.00  0.00    +0.000 OA
ATOM      3  O   UNL     1       2.093   0.253   0.000  0.00  0.00    +0.000 OA
ATOM      4  C   UNL     1       5.721  -1.002   0.000  0.00  0.00    +0.000 C 
ATOM      5  C   UNL     1       5.721  -0.142   0.000  0.00  0.00    +0.000 C 
ATOM      6  C   UNL     1       4.974   0.282   0.000  0.00  0.00    +0.000 C 
ATOM      7  C   UNL     1       4.236  -0.159   0.000  0.00  0.00    +0.000 A 
ATOM      8  C   UNL     1       4.236  -0.984   0.000  0.00  0.00    +0.000 A 
ATOM      9  C   UNL     1       6.131  -1.718   0.000  0.00  0.00    +0.000 C 
ATOM     10  C   UNL     1       3.522   0.253   0.000  0.00  0.00    +0.000 A 
ATOM     11  C   UNL     1       3.522  -1.397   0.000  0.00  0.00    +0.000 A 
ATOM     12  C   UNL     1       2.808  -0.984   0.000  0.00  0.00    +0.000 A 
ATOM     13  C   UNL     1       2.808  -0.159   0.000  0.00  0.00    +0.000 A 
ATOM     14  C   UNL     1       3.522   1.078   0.000  0.00  0.00    +0.000 C 
ATOM     15  C   UNL     1       3.522  -2.222   0.000  0.00  0.00    +0.000 C 
ATOM     16  C   UNL     1       2.093  -1.397   0.000  0.00  0.00    +0.000 C 
ENDBRANCH   1   4
BRANCH   1  17
ATOM     17  O   UNL     1       6.962  -0.292   0.000  0.00  0.00    +0.000 OA
BRANCH  17  18
ATOM     18  C   UNL     1       7.787  -0.295   0.000  0.00  0.00    +0.000 A 
ATOM     19  C   UNL     1       9.437  -0.301   0.000  0.00  0.00    +0.000 A 
ATOM     20  C   UNL     1       8.196  -1.011   0.000  0.00  0.00    +0.000 A 
ATOM     21  C   UNL     1       8.202   0.418   0.000  0.00  0.00    +0.000 A 
ATOM     22  C   UNL     1       9.021  -1.014   0.000  0.00  0.00    +0.000 A 
ATOM     23  C   UNL     1       9.027   0.415   0.000  0.00  0.00    +0.000 A 
BRANCH  19  24
ATOM     24  C   UNL     1      10.262  -0.305   0.000  0.00  0.00    +0.000 C 
BRANCH  24  29
ATOM     25  S   UNL     1      11.498   0.491   0.000  0.00  0.00    +0.000 S 
ATOM     26  O   UNL     1       9.538   1.338   0.000  0.00  0.00    +0.000 OA
ATOM     27  O   UNL     1      12.427   1.630   0.000  0.00  0.00    +0.000 OA
ATOM     28  N   UNL     1      10.960   1.713   0.000  0.00  0.00    +0.000 NA
ATOM     29  C   UNL     1      10.677   0.408   0.000  0.00  0.00    +0.000 C 
ATOM     30  C   UNL     1      10.344   1.163   0.000  0.00  0.00    +0.000 C 
ATOM     31  C   UNL     1      11.672   1.298   0.000  0.00  0.00    +0.000 C 
ENDBRANCH  24  29
ENDBRANCH  19  24
ENDBRANCH  17  18
ENDBRANCH   1  17
TORSDOF 5
