REMARK  Name = 198
REMARK  7 active torsions:
REMARK  status: ('A' for Active; 'I' for Inactive)
REMARK    1  A    between atoms: C_7  and  S_8
REMARK    2  A    between atoms: S_8  and  C_11
REMARK    3  A    between atoms: C_11  and  C_12
REMARK    4  A    between atoms: C_12  and  C_15
REMARK    5  A    between atoms: N_17  and  C_18
REMARK    6  A    between atoms: C_22  and  C_23
REMARK    7  A    between atoms: C_25  and  C_26
REMARK                            x       y       z     vdW  Elec       q    Type
REMARK                         _______ _______ _______ _____ _____    ______ ____
ROOT
ATOM      1  C   UNL     1       0.643  -0.160   0.000  0.00  0.00    +0.000 C 
ATOM      2  O   UNL     1       0.643   0.665   0.000  0.00  0.00    +0.000 OA
ATOM      3  N   UNL     1       1.358  -0.573   0.000  0.00  0.00    +0.000 NA
ENDROOT
BRANCH   3   4
ATOM      4  C   UNL     1       2.072  -0.160   0.000  0.00  0.00    +0.000 A 
ATOM      5  C   UNL     1       2.072   0.665   0.000  0.00  0.00    +0.000 A 
ATOM      6  C   UNL     1       2.787  -0.573   0.000  0.00  0.00    +0.000 A 
ATOM      7  C   UNL     1       3.501  -0.160   0.000  0.00  0.00    +0.000 A 
ATOM      8  C   UNL     1       3.501   0.665   0.000  0.00  0.00    +0.000 A 
ATOM      9  C   UNL     1       2.787   1.077   0.000  0.00  0.00    +0.000 A 
BRANCH   9  10
ATOM     10  C   UNL     1       2.787   1.902   0.000  0.00  0.00    +0.000 C 
ATOM     11  F   UNL     1       2.787   2.727   0.000  0.00  0.00    +0.000 F 
ATOM     12  F   UNL     1       3.612   1.902   0.000  0.00  0.00    +0.000 F 
ATOM     13  F   UNL     1       1.962   1.902   0.000  0.00  0.00    +0.000 F 
ENDBRANCH   9  10
BRANCH   8  14
ATOM     14  C   UNL     1       4.215   1.077   0.000  0.00  0.00    +0.000 C 
ATOM     15  N   UNL     1       4.930   1.490   0.000  0.00  0.00    +0.000 NA
ENDBRANCH   8  14
ENDBRANCH   3   4
BRANCH   1  16
ATOM     16  C   UNL     1      -0.071  -0.573   0.000  0.00  0.00    +0.000 C 
ATOM     17  O   UNL     1       0.341  -1.287   0.000  0.00  0.00    +0.000 OA
ATOM     18  C   UNL     1      -0.484   0.142   0.000  0.00  0.00    +0.000 C 
BRANCH  16  19
ATOM     19  C   UNL     1      -0.786  -0.985   0.000  0.00  0.00    +0.000 C 
BRANCH  19  20
ATOM     20  S   UNL     1      -1.500  -0.573   0.000  0.00  0.00    +0.000 S 
ATOM     21  O   UNL     1      -1.913  -1.287   0.000  0.00  0.00    +0.000 OA
ATOM     22  O   UNL     1      -1.088   0.142   0.000  0.00  0.00    +0.000 OA
BRANCH  20  29
ATOM     23  C   UNL     1      -2.929  -0.573   0.000  0.00  0.00    +0.000 A 
ATOM     24  C   UNL     1      -3.644  -0.160   0.000  0.00  0.00    +0.000 A 
ATOM     25  C   UNL     1      -3.644   0.665   0.000  0.00  0.00    +0.000 A 
ATOM     26  F   UNL     1      -4.358   1.077   0.000  0.00  0.00    +0.000 F 
ATOM     27  C   UNL     1      -2.929   1.077   0.000  0.00  0.00    +0.000 A 
ATOM     28  C   UNL     1      -2.215   0.665   0.000  0.00  0.00    +0.000 A 
ATOM     29  C   UNL     1      -2.215  -0.160   0.000  0.00  0.00    +0.000 A 
ENDBRANCH  20  29
ENDBRANCH  19  20
ENDBRANCH  16  19
ENDBRANCH   1  16
TORSDOF 7
