REMARK  Name = 199
REMARK  4 active torsions:
REMARK  status: ('A' for Active; 'I' for Inactive)
REMARK    1  A    between atoms: C_2  and  C_15
REMARK    2  A    between atoms: C_8  and  N_10
REMARK    3  A    between atoms: C_12  and  N_30
REMARK    4  A    between atoms: C_17  and  C_23
REMARK                            x       y       z     vdW  Elec       q    Type
REMARK                         _______ _______ _______ _____ _____    ______ ____
ROOT
ATOM      1  C   UNL     1      -0.537  -1.119   0.000  0.00  0.00    +0.000 A 
ATOM      2  C   UNL     1       0.177  -1.532   0.000  0.00  0.00    +0.000 A 
ATOM      3  C   UNL     1       0.177  -2.357   0.000  0.00  0.00    +0.000 A 
ATOM      4  N   UNL     1      -0.537  -2.769   0.000  0.00  0.00    +0.000 NA
ATOM      5  C   UNL     1      -1.251  -2.357   0.000  0.00  0.00    +0.000 A 
ATOM      6  N   UNL     1      -2.036  -2.612   0.000  0.00  0.00    +0.000 NA
ATOM      7  C   UNL     1      -2.521  -1.944   0.000  0.00  0.00    +0.000 A 
ATOM      8  C   UNL     1      -2.036  -1.277   0.000  0.00  0.00    +0.000 A 
ATOM      9  C   UNL     1      -1.251  -1.532   0.000  0.00  0.00    +0.000 A 
ENDROOT
BRANCH   2  14
ATOM     10  C   UNL     1       1.607   0.118   0.000  0.00  0.00    +0.000 A 
ATOM     11  C   UNL     1       2.321  -0.294   0.000  0.00  0.00    +0.000 A 
ATOM     12  C   UNL     1       2.321  -1.119   0.000  0.00  0.00    +0.000 A 
ATOM     13  C   UNL     1       1.607  -1.532   0.000  0.00  0.00    +0.000 A 
ATOM     14  C   UNL     1       0.892  -1.119   0.000  0.00  0.00    +0.000 A 
ATOM     15  C   UNL     1       0.892  -0.294   0.000  0.00  0.00    +0.000 A 
BRANCH  11  21
ATOM     16  C   UNL     1       3.035   0.943   0.000  0.00  0.00    +0.000 C 
ATOM     17  C   UNL     1       3.750   1.356   0.000  0.00  0.00    +0.000 C 
ATOM     18  N   UNL     1       4.464   0.943   0.000  0.00  0.00    +0.000 NA
ATOM     19  C   UNL     1       4.464   0.118   0.000  0.00  0.00    +0.000 C 
ATOM     20  C   UNL     1       3.750  -0.294   0.000  0.00  0.00    +0.000 C 
ATOM     21  N   UNL     1       3.035   0.118   0.000  0.00  0.00    +0.000 N 
ATOM     22  C   UNL     1       5.179   1.356   0.000  0.00  0.00    +0.000 C 
ENDBRANCH  11  21
ENDBRANCH   2  14
BRANCH   8  23
ATOM     23  N   UNL     1      -2.291  -0.492   0.000  0.00  0.00    +0.000 NA
ATOM     24  C   UNL     1      -3.098  -0.321   0.000  0.00  0.00    +0.000 C 
ATOM     25  O   UNL     1      -3.650  -0.934   0.000  0.00  0.00    +0.000 OA
BRANCH  24  30
ATOM     26  C   UNL     1      -4.415   1.420   0.000  0.00  0.00    +0.000 A 
ATOM     27  C   UNL     1      -3.863   2.033   0.000  0.00  0.00    +0.000 A 
ATOM     28  N   UNL     1      -3.056   1.862   0.000  0.00  0.00    +0.000 NA
ATOM     29  C   UNL     1      -2.801   1.077   0.000  0.00  0.00    +0.000 A 
ATOM     30  C   UNL     1      -3.353   0.464   0.000  0.00  0.00    +0.000 A 
ATOM     31  C   UNL     1      -4.160   0.636   0.000  0.00  0.00    +0.000 A 
ENDBRANCH  24  30
ENDBRANCH   8  23
TORSDOF 4
