REMARK  Name = 19A
REMARK  3 active torsions:
REMARK  status: ('A' for Active; 'I' for Inactive)
REMARK    1  A    between atoms: C_4  and  C_6
REMARK    2  A    between atoms: C_8  and  C_11
REMARK    3  A    between atoms: C_15  and  C_16
REMARK                            x       y       z     vdW  Elec       q    Type
REMARK                         _______ _______ _______ _____ _____    ______ ____
ROOT
ATOM      1  C   UNL     1       0.148  -0.699   0.000  0.00  0.00    +0.000 A 
ATOM      2  N   UNL     1       0.403  -1.484   0.000  0.00  0.00    +0.000 NA
ATOM      3  N   UNL     1      -0.265  -1.968   0.000  0.00  0.00    +0.000 NA
ATOM      4  C   UNL     1      -0.932  -1.484   0.000  0.00  0.00    +0.000 A 
ATOM      5  C   UNL     1      -0.677  -0.699   0.000  0.00  0.00    +0.000 A 
ENDROOT
BRANCH   5   6
ATOM      6  C   UNL     1      -1.162  -0.031   0.000  0.00  0.00    +0.000 A 
ATOM      7  C   UNL     1      -1.983  -0.118   0.000  0.00  0.00    +0.000 A 
ATOM      8  C   UNL     1      -2.468   0.550   0.000  0.00  0.00    +0.000 A 
ATOM      9  C   UNL     1      -2.132   1.304   0.000  0.00  0.00    +0.000 A 
ATOM     10  C   UNL     1      -1.312   1.390   0.000  0.00  0.00    +0.000 A 
ATOM     11  C   UNL     1      -0.827   0.722   0.000  0.00  0.00    +0.000 A 
ENDBRANCH   5   6
BRANCH   1  14
ATOM     12  C   UNL     1       1.045   1.238   0.000  0.00  0.00    +0.000 A 
ATOM     13  C   UNL     1       0.378   0.753   0.000  0.00  0.00    +0.000 A 
ATOM     14  C   UNL     1       0.632  -0.031   0.000  0.00  0.00    +0.000 A 
ATOM     15  C   UNL     1       1.458  -0.031   0.000  0.00  0.00    +0.000 A 
ATOM     16  N   UNL     1       1.712   0.753   0.000  0.00  0.00    +0.000 NA
BRANCH  12  20
ATOM     17  C   UNL     1       1.760   3.301   0.000  0.00  0.00    +0.000 C 
ATOM     18  N   UNL     1       1.760   2.476   0.000  0.00  0.00    +0.000 N 
ATOM     19  C   UNL     1       2.474   2.063   0.000  0.00  0.00    +0.000 C 
ATOM     20  C   UNL     1       1.045   2.063   0.000  0.00  0.00    +0.000 C 
ATOM     21  O   UNL     1       0.331   2.476   0.000  0.00  0.00    +0.000 OA
ENDBRANCH  12  20
ENDBRANCH   1  14
TORSDOF 3
