REMARK  Name = 19U
REMARK  5 active torsions:
REMARK  status: ('A' for Active; 'I' for Inactive)
REMARK    1  A    between atoms: C_3  and  C_15
REMARK    2  A    between atoms: C_4  and  C_9
REMARK    3  A    between atoms: C_4  and  C_11
REMARK    4  A    between atoms: C_6  and  N_16
REMARK    5  A    between atoms: C_6  and  C_17
REMARK                            x       y       z     vdW  Elec       q    Type
REMARK                         _______ _______ _______ _____ _____    ______ ____
ROOT
ATOM      1  C   UNL     1      -0.092   0.177   0.000  0.00  0.00    +0.000 C 
ATOM      2  N   UNL     1       0.623   0.590   0.000  0.00  0.00    +0.000 NA
ATOM      3  O   UNL     1      -0.806   0.590   0.000  0.00  0.00    +0.000 OA
ENDROOT
BRANCH   1  10
ATOM      4  N   UNL     1       0.575  -1.133   0.000  0.00  0.00    +0.000 N 
ATOM      5  C   UNL     1       0.321  -1.917   0.000  0.00  0.00    +0.000 C 
ATOM      6  C   UNL     1       1.360  -0.877   0.000  0.00  0.00    +0.000 C 
ATOM      7  O   UNL     1       1.532  -0.071   0.000  0.00  0.00    +0.000 OA
ATOM      8  C   UNL     1      -0.504  -1.917   0.000  0.00  0.00    +0.000 C 
ATOM      9  C   UNL     1      -0.759  -1.133   0.000  0.00  0.00    +0.000 C 
ATOM     10  C   UNL     1      -0.092  -0.647   0.000  0.00  0.00    +0.000 C 
BRANCH   6  11
ATOM     11  C   UNL     1       1.973  -1.430   0.000  0.00  0.00    +0.000 C 
ATOM     12  N   UNL     1       1.802  -2.236   0.000  0.00  0.00    +0.000 NA
BRANCH  11  14
ATOM     13  C   UNL     1       3.371  -1.727   0.000  0.00  0.00    +0.000 C 
ATOM     14  C   UNL     1       2.758  -1.175   0.000  0.00  0.00    +0.000 C 
ENDBRANCH  11  14
ENDBRANCH   6  11
ENDBRANCH   1  10
BRANCH   2  15
ATOM     15  C   UNL     1       0.623   1.415   0.000  0.00  0.00    +0.000 C 
BRANCH  15  18
ATOM     16  C   UNL     1      -0.092   2.652   0.000  0.00  0.00    +0.000 A 
ATOM     17  C   UNL     1      -1.521   2.652   0.000  0.00  0.00    +0.000 A 
ATOM     18  C   UNL     1      -0.092   1.827   0.000  0.00  0.00    +0.000 A 
ATOM     19  C   UNL     1      -0.806   1.415   0.000  0.00  0.00    +0.000 A 
ATOM     20  C   UNL     1      -1.521   1.827   0.000  0.00  0.00    +0.000 A 
ATOM     21  C   UNL     1      -0.806   3.065   0.000  0.00  0.00    +0.000 A 
ATOM     22 CL   UNL     1      -2.235   1.415   0.000  0.00  0.00    +0.000 Cl
ENDBRANCH  15  18
ENDBRANCH   2  15
TORSDOF 5
