REMARK  Name = 1A2
REMARK  3 active torsions:
REMARK  status: ('A' for Active; 'I' for Inactive)
REMARK    1  A    between atoms: C_1  and  N_10
REMARK    2  A    between atoms: C_19  and  C_22
REMARK    3  A    between atoms: C_25  and  C_28
REMARK                            x       y       z     vdW  Elec       q    Type
REMARK                         _______ _______ _______ _____ _____    ______ ____
ROOT
ATOM      1  C   UNL     1      -1.574  -0.844   0.000  0.00  0.00    +0.000 C 
ATOM      2  N   UNL     1      -0.773  -0.646   0.000  0.00  0.00    +0.000 NA
ATOM      3  C   UNL     1      -3.290   0.940   0.000  0.00  0.00    +0.000 A 
ATOM      4  C   UNL     1      -2.947  -0.447   0.000  0.00  0.00    +0.000 A 
ATOM      5  C   UNL     1      -2.489   1.138   0.000  0.00  0.00    +0.000 A 
ATOM      6  C   UNL     1      -3.519   0.147   0.000  0.00  0.00    +0.000 A 
ATOM      7  C   UNL     1      -2.146  -0.249   0.000  0.00  0.00    +0.000 A 
ATOM      8  C   UNL     1      -0.544   0.147   0.000  0.00  0.00    +0.000 C 
ATOM      9  N   UNL     1      -1.116   0.742   0.000  0.00  0.00    +0.000 N 
ATOM     10  C   UNL     1      -1.917   0.543   0.000  0.00  0.00    +0.000 A 
ATOM     11  F   UNL     1      -3.176  -1.240   0.000  0.00  0.00    +0.000 F 
ATOM     12  F   UNL     1      -2.260   1.931   0.000  0.00  0.00    +0.000 F 
ATOM     13  C   UNL     1      -0.315   0.940   0.000  0.00  0.00    +0.000 C 
ATOM     14  C   UNL     1       0.485   1.138   0.000  0.00  0.00    +0.000 C 
ATOM     15  N   UNL     1       1.058   0.543   0.000  0.00  0.00    +0.000 N 
ATOM     16  C   UNL     1       0.829  -0.249   0.000  0.00  0.00    +0.000 C 
ATOM     17  C   UNL     1       0.028  -0.447   0.000  0.00  0.00    +0.000 C 
ATOM     18  C   UNL     1       1.858   0.742   0.000  0.00  0.00    +0.000 C 
ATOM     19  O   UNL     1       2.087   1.534   0.000  0.00  0.00    +0.000 OA
ATOM     20  N   UNL     1      -1.803  -1.636   0.000  0.00  0.00    +0.000 NA
ENDROOT
BRANCH  18  21
ATOM     21  C   UNL     1       2.430   0.147   0.000  0.00  0.00    +0.000 C 
ATOM     22  C   UNL     1       3.231   0.345   0.000  0.00  0.00    +0.000 C 
ATOM     23  N   UNL     1       3.803  -0.249   0.000  0.00  0.00    +0.000 NA
ATOM     24  C   UNL     1       3.575  -1.042   0.000  0.00  0.00    +0.000 C 
ATOM     25  C   UNL     1       2.774  -1.240   0.000  0.00  0.00    +0.000 C 
ATOM     26  C   UNL     1       2.202  -0.646   0.000  0.00  0.00    +0.000 C 
BRANCH  24  27
ATOM     27  C   UNL     1       4.146  -1.636   0.000  0.00  0.00    +0.000 C 
ATOM     28  N   UNL     1       4.718  -2.231   0.000  0.00  0.00    +0.000 NA
ENDBRANCH  24  27
ENDBRANCH  18  21
BRANCH   9  29
ATOM     29  C   UNL     1      -0.887   1.534   0.000  0.00  0.00    +0.000 C 
ATOM     30  C   UNL     1      -1.459   2.129   0.000  0.00  0.00    +0.000 C 
ENDBRANCH   9  29
TORSDOF 3
