REMARK  Name = 1AD
REMARK  4 active torsions:
REMARK  status: ('A' for Active; 'I' for Inactive)
REMARK    1  A    between atoms: C_1  and  C_5
REMARK    2  A    between atoms: C_2  and  C_7
REMARK    3  A    between atoms: C_3  and  C_8
REMARK    4  A    between atoms: C_8  and  C_13
REMARK                            x       y       z     vdW  Elec       q    Type
REMARK                         _______ _______ _______ _____ _____    ______ ____
ROOT
ATOM      1  C   UNL     1       1.547   0.369   0.000  0.00  0.00    +0.000 C 
ATOM      2  C   UNL     1       1.134  -0.901   0.000  0.00  0.00    +0.000 C 
ATOM      3  C   UNL     1       0.095   0.139   0.000  0.00  0.00    +0.000 C 
ATOM      4  C   UNL     1       2.214  -0.116   0.000  0.00  0.00    +0.000 C 
ATOM      5  C   UNL     1       1.959  -0.901   0.000  0.00  0.00    +0.000 C 
ATOM      6  N   UNL     1       0.879  -0.116   0.000  0.00  0.00    +0.000 N 
ATOM      7  O   UNL     1      -0.077   0.946   0.000  0.00  0.00    +0.000 OA
ENDROOT
BRANCH   1   8
ATOM      8  C   UNL     1       1.547   1.194   0.000  0.00  0.00    +0.000 C 
ATOM      9  C   UNL     1       1.547   2.019   0.000  0.00  0.00    +0.000 C 
ATOM     10  C   UNL     1       1.547   2.844   0.000  0.00  0.00    +0.000 C 
ENDBRANCH   1   8
BRANCH   2  11
ATOM     11  C   UNL     1       0.649  -1.568   0.000  0.00  0.00    +0.000 C 
ATOM     12  N   UNL     1       0.985  -2.322   0.000  0.00  0.00    +0.000 NA
ENDBRANCH   2  11
BRANCH   3  13
ATOM     13  C   UNL     1      -0.518  -0.413   0.000  0.00  0.00    +0.000 C 
ATOM     14  N   UNL     1      -0.347  -1.220   0.000  0.00  0.00    +0.000 NA
BRANCH  13  15
ATOM     15  C   UNL     1      -1.303  -0.158   0.000  0.00  0.00    +0.000 C 
ATOM     16  C   UNL     1      -1.971  -0.643   0.000  0.00  0.00    +0.000 C 
ATOM     17  C   UNL     1      -1.558   0.626   0.000  0.00  0.00    +0.000 C 
ATOM     18  C   UNL     1      -2.638  -0.158   0.000  0.00  0.00    +0.000 C 
ATOM     19  C   UNL     1      -2.383   0.626   0.000  0.00  0.00    +0.000 C 
ENDBRANCH  13  15
ENDBRANCH   3  13
TORSDOF 4
