REMARK  Name = 1AE
REMARK  5 active torsions:
REMARK  status: ('A' for Active; 'I' for Inactive)
REMARK    1  A    between atoms: C_2  and  C_3
REMARK    2  A    between atoms: C_3  and  C_4
REMARK    3  A    between atoms: C_4  and  C_6
REMARK    4  A    between atoms: C_8  and  O_9
REMARK    5  A    between atoms: O_9  and  P_10
REMARK                            x       y       z     vdW  Elec       q    Type
REMARK                         _______ _______ _______ _____ _____    ______ ____
ROOT
ATOM      1  C   UNL     1       1.153   1.225   0.000  0.00  0.00    +0.000 C 
ATOM      2  O   UNL     1       1.566   0.511   0.000  0.00  0.00    +0.000 OA
ATOM      3  C   UNL     1       0.328   1.225   0.000  0.00  0.00    +0.000 C 
ENDROOT
BRANCH   1   4
ATOM      4  C   UNL     1       1.566   1.940   0.000  0.00  0.00    +0.000 C 
ATOM      5  O   UNL     1       1.153   2.654   0.000  0.00  0.00    +0.000 OA
BRANCH   4   6
ATOM      6  C   UNL     1       2.391   1.940   0.000  0.00  0.00    +0.000 C 
BRANCH   6   8
ATOM      7  C   UNL     1       3.628   2.654   0.000  0.00  0.00    +0.000 C 
ATOM      8  C   UNL     1       2.803   2.654   0.000  0.00  0.00    +0.000 C 
ENDBRANCH   6   8
ENDBRANCH   4   6
ENDBRANCH   1   4
BRANCH   3   9
ATOM      9  O   UNL     1      -0.084   0.511   0.000  0.00  0.00    +0.000 OA
BRANCH   9  10
ATOM     10  P   UNL     1       0.328  -0.204   0.000  0.00  0.00    +0.000 P 
ATOM     11  O   UNL     1       0.741  -0.918   0.000  0.00  0.00    +0.000 OA
ATOM     12  O   UNL     1      -0.386  -0.616   0.000  0.00  0.00    +0.000 OA
ATOM     13  O   UNL     1       1.043   0.209   0.000  0.00  0.00    +0.000 OA
ENDBRANCH   9  10
ENDBRANCH   3   9
TORSDOF 5
