REMARK  Name = 1AU
REMARK  4 active torsions:
REMARK  status: ('A' for Active; 'I' for Inactive)
REMARK    1  A    between atoms: C_10  and  N_11
REMARK    2  A    between atoms: N_14  and  C_15
REMARK    3  A    between atoms: C_17  and  C_18
REMARK    4  A    between atoms: N_23  and  C_24
REMARK                            x       y       z     vdW  Elec       q    Type
REMARK                         _______ _______ _______ _____ _____    ______ ____
ROOT
ATOM      1  C   UNL     1       0.271   0.697   0.000  0.00  0.00    +0.000 A 
ATOM      2  C   UNL     1       1.024   0.361   0.000  0.00  0.00    +0.000 A 
ATOM      3  C   UNL     1       1.576   0.974   0.000  0.00  0.00    +0.000 A 
ATOM      4  N   UNL     1       1.164   1.689   0.000  0.00  0.00    +0.000 NA
ATOM      5  N   UNL     1       0.357   1.517   0.000  0.00  0.00    +0.000 N 
ENDROOT
BRANCH   5   6
ATOM      6  C   UNL     1      -0.256   2.069   0.000  0.00  0.00    +0.000 A 
ATOM      7  C   UNL     1      -0.085   2.876   0.000  0.00  0.00    +0.000 A 
ATOM      8  C   UNL     1      -1.041   1.814   0.000  0.00  0.00    +0.000 A 
ATOM      9  C   UNL     1      -1.654   2.366   0.000  0.00  0.00    +0.000 A 
ATOM     10  C   UNL     1      -1.483   3.173   0.000  0.00  0.00    +0.000 A 
ATOM     11  C   UNL     1      -0.698   3.428   0.000  0.00  0.00    +0.000 A 
ATOM     12  N   UNL     1      -0.526   4.235   0.000  0.00  0.00    +0.000 NA
ENDBRANCH   5   6
BRANCH   1  16
ATOM     13  N   UNL     1      -1.159  -0.953   0.000  0.00  0.00    +0.000 NA
ATOM     14  C   UNL     1      -0.444  -0.541   0.000  0.00  0.00    +0.000 C 
ATOM     15  O   UNL     1       0.271  -0.953   0.000  0.00  0.00    +0.000 OA
ATOM     16  N   UNL     1      -0.444   0.284   0.000  0.00  0.00    +0.000 NA
BRANCH  13  26
ATOM     17  C   UNL     1      -1.873  -2.191   0.000  0.00  0.00    +0.000 A 
ATOM     18  C   UNL     1      -2.587  -1.778   0.000  0.00  0.00    +0.000 A 
ATOM     19  C   UNL     1      -3.302  -2.191   0.000  0.00  0.00    +0.000 A 
ATOM     20  C   UNL     1      -3.302  -3.016   0.000  0.00  0.00    +0.000 A 
ATOM     21  C   UNL     1      -2.587  -3.428   0.000  0.00  0.00    +0.000 A 
ATOM     22  C   UNL     1      -1.873  -3.016   0.000  0.00  0.00    +0.000 A 
ATOM     23  C   UNL     1      -1.159  -3.428   0.000  0.00  0.00    +0.000 A 
ATOM     24  C   UNL     1      -0.444  -3.016   0.000  0.00  0.00    +0.000 A 
ATOM     25  C   UNL     1      -0.444  -2.191   0.000  0.00  0.00    +0.000 A 
ATOM     26  C   UNL     1      -1.159  -1.778   0.000  0.00  0.00    +0.000 A 
ENDBRANCH  13  26
ENDBRANCH   1  16
BRANCH   3  27
ATOM     27  C   UNL     1       2.397   0.888   0.000  0.00  0.00    +0.000 C 
ATOM     28  C   UNL     1       2.483   1.708   0.000  0.00  0.00    +0.000 C 
ATOM     29  C   UNL     1       2.310   0.068   0.000  0.00  0.00    +0.000 C 
ATOM     30  C   UNL     1       3.217   0.802   0.000  0.00  0.00    +0.000 C 
ENDBRANCH   3  27
TORSDOF 4
