REMARK  Name = 1AW
REMARK  4 active torsions:
REMARK  status: ('A' for Active; 'I' for Inactive)
REMARK    1  A    between atoms: C_6  and  N_7
REMARK    2  A    between atoms: N_10  and  C_11
REMARK    3  A    between atoms: C_13  and  C_14
REMARK    4  A    between atoms: N_19  and  C_20
REMARK                            x       y       z     vdW  Elec       q    Type
REMARK                         _______ _______ _______ _____ _____    ______ ____
ROOT
ATOM      1  C   UNL     1       0.116  -0.314   0.000  0.00  0.00    +0.000 A 
ATOM      2  C   UNL     1      -0.552  -0.799   0.000  0.00  0.00    +0.000 A 
ATOM      3  C   UNL     1      -0.297  -1.584   0.000  0.00  0.00    +0.000 A 
ATOM      4  N   UNL     1       0.528  -1.584   0.000  0.00  0.00    +0.000 NA
ATOM      5  N   UNL     1       0.783  -0.799   0.000  0.00  0.00    +0.000 N 
ENDROOT
BRANCH   5   6
ATOM      6  C   UNL     1       1.568  -0.544   0.000  0.00  0.00    +0.000 A 
ATOM      7  C   UNL     1       2.181  -1.096   0.000  0.00  0.00    +0.000 A 
ATOM      8  C   UNL     1       1.739   0.263   0.000  0.00  0.00    +0.000 A 
ATOM      9  C   UNL     1       2.524   0.518   0.000  0.00  0.00    +0.000 A 
ATOM     10  C   UNL     1       3.137  -0.034   0.000  0.00  0.00    +0.000 A 
ATOM     11  C   UNL     1       2.965  -0.841   0.000  0.00  0.00    +0.000 A 
ATOM     12  N   UNL     1       3.579  -1.393   0.000  0.00  0.00    +0.000 NA
ENDBRANCH   5   6
BRANCH   1  16
ATOM     13  N   UNL     1      -0.599   1.748   0.000  0.00  0.00    +0.000 NA
ATOM     14  C   UNL     1      -0.599   0.923   0.000  0.00  0.00    +0.000 C 
ATOM     15  O   UNL     1      -1.313   0.511   0.000  0.00  0.00    +0.000 OA
ATOM     16  N   UNL     1       0.116   0.511   0.000  0.00  0.00    +0.000 NA
BRANCH  13  22
ATOM     17  C   UNL     1      -1.313   2.986   0.000  0.00  0.00    +0.000 A 
ATOM     18  C   UNL     1      -2.028   3.398   0.000  0.00  0.00    +0.000 A 
ATOM     19  C   UNL     1      -2.742   2.986   0.000  0.00  0.00    +0.000 A 
ATOM     20  C   UNL     1      -2.742   2.161   0.000  0.00  0.00    +0.000 A 
ATOM     21  C   UNL     1      -2.028   1.748   0.000  0.00  0.00    +0.000 A 
ATOM     22  C   UNL     1      -1.313   2.161   0.000  0.00  0.00    +0.000 A 
ENDBRANCH  13  22
ENDBRANCH   1  16
BRANCH   3  23
ATOM     23  C   UNL     1      -0.782  -2.251   0.000  0.00  0.00    +0.000 C 
ATOM     24  C   UNL     1      -0.114  -2.736   0.000  0.00  0.00    +0.000 C 
ATOM     25  C   UNL     1      -1.267  -2.919   0.000  0.00  0.00    +0.000 C 
ATOM     26  C   UNL     1      -1.449  -1.766   0.000  0.00  0.00    +0.000 C 
ENDBRANCH   3  23
TORSDOF 4
