REMARK  Name = 1BA
REMARK  5 active torsions:
REMARK  status: ('A' for Active; 'I' for Inactive)
REMARK    1  A    between atoms: N_1  and  C_6
REMARK    2  A    between atoms: N_1  and  N_14
REMARK    3  A    between atoms: C_2  and  C_12
REMARK    4  A    between atoms: C_5  and  C_6
REMARK    5  A    between atoms: C_7  and  C_15
REMARK                            x       y       z     vdW  Elec       q    Type
REMARK                         _______ _______ _______ _____ _____    ______ ____
ROOT
ATOM      1  N   UNL     1       0.971   0.169   0.000  0.00  0.00    +0.000 NA
ENDROOT
BRANCH   1   2
ATOM      2  N   UNL     1       1.686   0.581   0.000  0.00  0.00    +0.000 NA
ATOM      3  C   UNL     1       2.400   0.169   0.000  0.00  0.00    +0.000 C 
ATOM      4  O   UNL     1       2.400  -0.656   0.000  0.00  0.00    +0.000 OA
BRANCH   3   5
ATOM      5  C   UNL     1       3.115   0.581   0.000  0.00  0.00    +0.000 A 
ATOM      6  C   UNL     1       4.544   1.406   0.000  0.00  0.00    +0.000 A 
ATOM      7  C   UNL     1       3.115   1.406   0.000  0.00  0.00    +0.000 A 
ATOM      8  C   UNL     1       3.829   0.169   0.000  0.00  0.00    +0.000 A 
ATOM      9  C   UNL     1       4.544   0.581   0.000  0.00  0.00    +0.000 A 
ATOM     10  O   UNL     1       5.258   1.819   0.000  0.00  0.00    +0.000 OA
ATOM     11  C   UNL     1       3.829   1.819   0.000  0.00  0.00    +0.000 A 
ENDBRANCH   3   5
ENDBRANCH   1   2
BRANCH   1  12
ATOM     12  C   UNL     1       0.257   0.581   0.000  0.00  0.00    +0.000 C 
BRANCH  12  16
ATOM     13  C   UNL     1      -1.887  -0.656   0.000  0.00  0.00    +0.000 A 
ATOM     14  C   UNL     1      -1.887   0.169   0.000  0.00  0.00    +0.000 A 
ATOM     15  C   UNL     1      -1.172   0.581   0.000  0.00  0.00    +0.000 A 
ATOM     16  C   UNL     1      -0.458   0.169   0.000  0.00  0.00    +0.000 A 
ATOM     17  C   UNL     1      -1.172  -1.069   0.000  0.00  0.00    +0.000 A 
ATOM     18  C   UNL     1      -0.458  -0.656   0.000  0.00  0.00    +0.000 A 
BRANCH  13  20
ATOM     19  C   UNL     1      -2.601  -1.894   0.000  0.00  0.00    +0.000 C 
ATOM     20  C   UNL     1      -2.601  -1.069   0.000  0.00  0.00    +0.000 C 
ATOM     21  C   UNL     1      -3.316  -0.656   0.000  0.00  0.00    +0.000 C 
ENDBRANCH  13  20
ENDBRANCH  12  16
ENDBRANCH   1  12
TORSDOF 5
