REMARK  Name = 1BD
REMARK  6 active torsions:
REMARK  status: ('A' for Active; 'I' for Inactive)
REMARK    1  A    between atoms: C_3  and  C_7
REMARK    2  A    between atoms: C_4  and  C_15
REMARK    3  A    between atoms: N_8  and  O_9
REMARK    4  A    between atoms: O_9  and  C_10
REMARK    5  A    between atoms: C_10  and  C_11
REMARK    6  A    between atoms: C_11  and  C_12
REMARK                            x       y       z     vdW  Elec       q    Type
REMARK                         _______ _______ _______ _____ _____    ______ ____
ROOT
ATOM      1  C   UNL     1      -1.761  -1.093   0.000  0.00  0.00    +0.000 A 
ATOM      2  C   UNL     1      -1.046  -0.680   0.000  0.00  0.00    +0.000 A 
ATOM      3  C   UNL     1      -1.046   0.144   0.000  0.00  0.00    +0.000 A 
ATOM      4  C   UNL     1      -1.761   0.557   0.000  0.00  0.00    +0.000 A 
ATOM      5  C   UNL     1      -2.475   0.144   0.000  0.00  0.00    +0.000 A 
ATOM      6  C   UNL     1      -2.475  -0.680   0.000  0.00  0.00    +0.000 A 
ENDROOT
BRANCH   4   7
ATOM      7  C   UNL     1      -1.761   1.382   0.000  0.00  0.00    +0.000 C 
ATOM      8  F   UNL     1      -2.586   1.382   0.000  0.00  0.00    +0.000 F 
ATOM      9  F   UNL     1      -1.761   2.207   0.000  0.00  0.00    +0.000 F 
ATOM     10  F   UNL     1      -0.936   1.382   0.000  0.00  0.00    +0.000 F 
ENDBRANCH   4   7
BRANCH   3  11
ATOM     11  C   UNL     1      -0.332   0.557   0.000  0.00  0.00    +0.000 C 
ATOM     12  N   UNL     1       0.383   0.144   0.000  0.00  0.00    +0.000 NA
BRANCH  12  13
ATOM     13  O   UNL     1       1.097   0.557   0.000  0.00  0.00    +0.000 OA
BRANCH  13  14
ATOM     14  C   UNL     1       1.812   0.144   0.000  0.00  0.00    +0.000 C 
BRANCH  14  15
ATOM     15  C   UNL     1       2.526   0.557   0.000  0.00  0.00    +0.000 C 
BRANCH  15  16
ATOM     16  C   UNL     1       3.241   0.144   0.000  0.00  0.00    +0.000 C 
ATOM     17  O   UNL     1       3.955   0.557   0.000  0.00  0.00    +0.000 OA
ATOM     18  O   UNL     1       3.241  -0.680   0.000  0.00  0.00    +0.000 OA
ENDBRANCH  15  16
ENDBRANCH  14  15
ENDBRANCH  13  14
ENDBRANCH  12  13
ENDBRANCH   3  11
TORSDOF 6
