REMARK  Name = 1BH
REMARK  10 active torsions:
REMARK  status: ('A' for Active; 'I' for Inactive)
REMARK    1  A    between atoms: C_1  and  C_8
REMARK    2  A    between atoms: C_1  and  O_30
REMARK    3  A    between atoms: C_2  and  O_30
REMARK    4  A    between atoms: C_5  and  C_18
REMARK    5  A    between atoms: C_6  and  C_7
REMARK    6  A    between atoms: C_6  and  N_21
REMARK    7  A    between atoms: C_6  and  C_22
REMARK    8  A    between atoms: N_11  and  C_12
REMARK    9  A    between atoms: C_12  and  C_14
REMARK   10  A    between atoms: C_22  and  C_23
REMARK                            x       y       z     vdW  Elec       q    Type
REMARK                         _______ _______ _______ _____ _____    ______ ____
ROOT
ATOM      1  C   UNL     1      -0.482   0.463   0.000  0.00  0.00    +0.000 C 
ATOM      2  O   UNL     1      -0.482  -0.362   0.000  0.00  0.00    +0.000 OA
ATOM      3  N   UNL     1       0.233   0.875   0.000  0.00  0.00    +0.000 N 
ATOM      4  C   UNL     1       0.319   1.696   0.000  0.00  0.00    +0.000 C 
ATOM      5  C   UNL     1       0.986   0.540   0.000  0.00  0.00    +0.000 C 
ATOM      6  C   UNL     1       1.538   1.153   0.000  0.00  0.00    +0.000 C 
ATOM      7  C   UNL     1       1.126   1.867   0.000  0.00  0.00    +0.000 C 
ENDROOT
BRANCH   5   9
ATOM      8  O   UNL     1       0.545  -0.819   0.000  0.00  0.00    +0.000 OA
ATOM      9  C   UNL     1       1.158  -0.267   0.000  0.00  0.00    +0.000 C 
ATOM     10  N   UNL     1       1.942  -0.522   0.000  0.00  0.00    +0.000 NA
BRANCH  10  11
ATOM     11  C   UNL     1       2.114  -1.329   0.000  0.00  0.00    +0.000 C 
BRANCH  11  13
ATOM     12  O   UNL     1       1.672  -2.688   0.000  0.00  0.00    +0.000 OA
ATOM     13  C   UNL     1       1.501  -1.881   0.000  0.00  0.00    +0.000 C 
ATOM     14  C   UNL     1       0.716  -1.626   0.000  0.00  0.00    +0.000 C 
ENDBRANCH  11  13
BRANCH  11  15
ATOM     15  C   UNL     1       2.898  -1.584   0.000  0.00  0.00    +0.000 C 
BRANCH  15  16
ATOM     16  C   UNL     1       3.070  -2.391   0.000  0.00  0.00    +0.000 A 
ATOM     17  C   UNL     1       3.855  -2.646   0.000  0.00  0.00    +0.000 A 
ATOM     18  C   UNL     1       2.457  -2.943   0.000  0.00  0.00    +0.000 A 
ATOM     19  C   UNL     1       4.026  -3.453   0.000  0.00  0.00    +0.000 A 
ATOM     20  C   UNL     1       2.628  -3.750   0.000  0.00  0.00    +0.000 A 
ATOM     21  C   UNL     1       3.413  -4.005   0.000  0.00  0.00    +0.000 A 
ENDBRANCH  15  16
ENDBRANCH  11  15
ENDBRANCH  10  11
ENDBRANCH   5   9
BRANCH   1  22
ATOM     22  C   UNL     1      -1.196   0.875   0.000  0.00  0.00    +0.000 C 
ATOM     23  C   UNL     1      -1.196   1.700   0.000  0.00  0.00    +0.000 C 
BRANCH  22  25
ATOM     24  C   UNL     1      -2.625   0.875   0.000  0.00  0.00    +0.000 C 
ATOM     25  N   UNL     1      -1.911   0.463   0.000  0.00  0.00    +0.000 NA
ATOM     26  O   UNL     1      -2.625   1.700   0.000  0.00  0.00    +0.000 OA
BRANCH  24  27
ATOM     27  O   UNL     1      -3.340   0.463   0.000  0.00  0.00    +0.000 OA
BRANCH  27  28
ATOM     28  C   UNL     1      -4.054   0.875   0.000  0.00  0.00    +0.000 C 
BRANCH  28  29
ATOM     29  C   UNL     1      -4.054   1.700   0.000  0.00  0.00    +0.000 A 
ATOM     30  C   UNL     1      -4.769   2.113   0.000  0.00  0.00    +0.000 A 
ATOM     31  C   UNL     1      -4.054   3.350   0.000  0.00  0.00    +0.000 A 
ATOM     32  C   UNL     1      -3.340   2.113   0.000  0.00  0.00    +0.000 A 
ATOM     33  C   UNL     1      -4.769   2.938   0.000  0.00  0.00    +0.000 A 
ATOM     34  C   UNL     1      -3.340   2.938   0.000  0.00  0.00    +0.000 A 
ENDBRANCH  28  29
ENDBRANCH  27  28
ENDBRANCH  24  27
ENDBRANCH  22  25
ENDBRANCH   1  22
TORSDOF 10
