REMARK  Name = 1CD
REMARK  0 active torsions:
REMARK  status: ('A' for Active; 'I' for Inactive)
REMARK                            x       y       z     vdW  Elec       q    Type
REMARK                         _______ _______ _______ _____ _____    ______ ____
ROOT
ATOM      1  C   UNL     1       5.704   3.131   0.000  0.00  0.00    +0.000 C 
ATOM      2  N   UNL     1       4.298   2.699   0.000  0.00  0.00    +0.000 NA
ATOM      3  C   UNL     1       3.911   1.970   0.000  0.00  0.00    +0.000 C 
ATOM      4  C   UNL     1       4.485   1.378   0.000  0.00  0.00    +0.000 C 
ATOM      5  C   UNL     1       5.226   1.740   0.000  0.00  0.00    +0.000 C 
ATOM      6  C   UNL     1       5.111   2.557   0.000  0.00  0.00    +0.000 C 
ATOM      7  C   UNL     1       2.594  -0.084   0.000  0.00  0.00    +0.000 A 
ATOM      8  C   UNL     1       3.419  -0.063   0.000  0.00  0.00    +0.000 A 
ATOM      9  C   UNL     1       2.200  -0.808   0.000  0.00  0.00    +0.000 A 
ATOM     10  N   UNL     1       2.163   0.620   0.000  0.00  0.00    +0.000 NA
ATOM     11  C   UNL     1       3.849  -0.767   0.000  0.00  0.00    +0.000 A 
ATOM     12  O   UNL     1       4.104   0.396   0.000  0.00  0.00    +0.000 OA
ATOM     13  C   UNL     1       2.630  -1.512   0.000  0.00  0.00    +0.000 A 
ATOM     14  N   UNL     1       1.375  -0.829   0.000  0.00  0.00    +0.000 NA
ATOM     15  C   UNL     1       1.339   0.599   0.000  0.00  0.00    +0.000 A 
ATOM     16  C   UNL     1       3.455  -1.491   0.000  0.00  0.00    +0.000 A 
ATOM     17  C   UNL     1       0.945  -0.125   0.000  0.00  0.00    +0.000 A 
ATOM     18  C   UNL     1       0.921   1.409   0.000  0.00  0.00    +0.000 A 
ATOM     19  O   UNL     1       0.120  -0.146   0.000  0.00  0.00    +0.000 OA
ATOM     20  C   UNL     1       1.245   2.168   0.000  0.00  0.00    +0.000 A 
ATOM     21  C   UNL     1       0.102   1.310   0.000  0.00  0.00    +0.000 A 
ATOM     22  C   UNL     1       0.750   2.828   0.000  0.00  0.00    +0.000 A 
ATOM     23  N   UNL     1       2.026   2.435   0.000  0.00  0.00    +0.000 NA
ATOM     24  C   UNL     1      -0.393   1.970   0.000  0.00  0.00    +0.000 A 
ATOM     25  C   UNL     1       1.224   3.503   0.000  0.00  0.00    +0.000 A 
ATOM     26  C   UNL     1      -0.069   2.728   0.000  0.00  0.00    +0.000 A 
ATOM     27  N   UNL     1       2.013   3.260   0.000  0.00  0.00    +0.000 N 
ATOM     28  C   UNL     1       2.912   3.516   0.000  0.00  0.00    +0.000 C 
ATOM     29  O   UNL     1       0.957   4.283   0.000  0.00  0.00    +0.000 OA
ATOM     30  C   UNL     1       3.698   3.266   0.000  0.00  0.00    +0.000 C 
ENDROOT
TORSDOF 0
