REMARK  Name = 1CE
REMARK  2 active torsions:
REMARK  status: ('A' for Active; 'I' for Inactive)
REMARK    1  A    between atoms: N_3  and  C_4
REMARK    2  A    between atoms: C_4  and  C_5
REMARK                            x       y       z     vdW  Elec       q    Type
REMARK                         _______ _______ _______ _____ _____    ______ ____
ROOT
ATOM      1  O   UNL     1      -0.398   0.972   0.000  0.00  0.00    +0.000 OA
ATOM      2  C   UNL     1      -0.653   0.187   0.000  0.00  0.00    +0.000 A 
ATOM      3  N   UNL     1      -1.460   0.016   0.000  0.00  0.00    +0.000 N 
ATOM      4  C   UNL     1      -0.101  -0.426   0.000  0.00  0.00    +0.000 A 
ATOM      5  C   UNL     1       0.724  -0.426   0.000  0.00  0.00    +0.000 A 
ATOM      6  C   UNL     1       1.276   0.187   0.000  0.00  0.00    +0.000 C 
ATOM      7  C   UNL     1       2.083   0.016   0.000  0.00  0.00    +0.000 C 
ATOM      8  C   UNL     1       2.338  -0.769   0.000  0.00  0.00    +0.000 C 
ATOM      9  C   UNL     1       1.786  -1.382   0.000  0.00  0.00    +0.000 C 
ATOM     10  C   UNL     1       0.979  -1.211   0.000  0.00  0.00    +0.000 A 
ATOM     11  S   UNL     1       0.312  -1.696   0.000  0.00  0.00    +0.000 S 
ATOM     12  C   UNL     1      -0.356  -1.211   0.000  0.00  0.00    +0.000 A 
ATOM     13  N   UNL     1      -1.163  -1.382   0.000  0.00  0.00    +0.000 NA
ATOM     14  C   UNL     1      -1.715  -0.769   0.000  0.00  0.00    +0.000 A 
ENDROOT
BRANCH   3  15
ATOM     15  C   UNL     1      -2.012   0.629   0.000  0.00  0.00    +0.000 C 
BRANCH  15  16
ATOM     16  C   UNL     1      -2.819   0.457   0.000  0.00  0.00    +0.000 A 
ATOM     17  N   UNL     1      -3.155  -0.296   0.000  0.00  0.00    +0.000 NA
ATOM     18  N   UNL     1      -3.432   1.009   0.000  0.00  0.00    +0.000 NA
ATOM     19  N   UNL     1      -4.146   0.597   0.000  0.00  0.00    +0.000 NA
ATOM     20  N   UNL     1      -3.975  -0.210   0.000  0.00  0.00    +0.000 NA
ENDBRANCH  15  16
ENDBRANCH   3  15
TORSDOF 2
