REMARK  Name = 1CM
REMARK  4 active torsions:
REMARK  status: ('A' for Active; 'I' for Inactive)
REMARK    1  A    between atoms: C_2  and  C_3
REMARK    2  A    between atoms: C_3  and  C_4
REMARK    3  A    between atoms: C_3  and  C_7
REMARK    4  A    between atoms: N_10  and  C_11
REMARK                            x       y       z     vdW  Elec       q    Type
REMARK                         _______ _______ _______ _____ _____    ______ ____
ROOT
ATOM      1  O   UNL     1       0.390  -0.838   0.000  0.00  0.00    +0.000 OA
ATOM      2  C   UNL     1       0.390  -0.013   0.000  0.00  0.00    +0.000 C 
ATOM      3  N   UNL     1       1.105   0.400   0.000  0.00  0.00    +0.000 NA
ENDROOT
BRANCH   3   4
ATOM      4  C   UNL     1       1.819  -0.013   0.000  0.00  0.00    +0.000 A 
ATOM      5  C   UNL     1       2.534   0.400   0.000  0.00  0.00    +0.000 A 
ATOM      6  C   UNL     1       3.248  -0.013   0.000  0.00  0.00    +0.000 A 
ATOM      7  N   UNL     1       3.248  -0.838   0.000  0.00  0.00    +0.000 NA
ATOM      8  C   UNL     1       2.534  -1.250   0.000  0.00  0.00    +0.000 A 
ATOM      9  C   UNL     1       1.819  -0.838   0.000  0.00  0.00    +0.000 A 
ENDBRANCH   3   4
BRANCH   2  10
ATOM     10  C   UNL     1      -0.324   0.400   0.000  0.00  0.00    +0.000 C 
BRANCH  10  12
ATOM     11  C   UNL     1      -1.753   0.400   0.000  0.00  0.00    +0.000 A 
ATOM     12  C   UNL     1      -1.039  -0.013   0.000  0.00  0.00    +0.000 A 
ATOM     13  C   UNL     1      -1.753  -1.250   0.000  0.00  0.00    +0.000 A 
ATOM     14  C   UNL     1      -2.468  -0.838   0.000  0.00  0.00    +0.000 A 
ATOM     15  C   UNL     1      -2.468  -0.013   0.000  0.00  0.00    +0.000 A 
ATOM     16  C   UNL     1      -1.039  -0.838   0.000  0.00  0.00    +0.000 A 
ENDBRANCH  10  12
BRANCH  10  17
ATOM     17  C   UNL     1      -0.324   1.225   0.000  0.00  0.00    +0.000 C 
ATOM     18  C   UNL     1       0.390   1.637   0.000  0.00  0.00    +0.000 C 
ENDBRANCH  10  17
ENDBRANCH   2  10
TORSDOF 4
