REMARK  Name = 1CN
REMARK  3 active torsions:
REMARK  status: ('A' for Active; 'I' for Inactive)
REMARK    1  A    between atoms: S_1  and  C_8
REMARK    2  A    between atoms: N_10  and  S_11
REMARK    3  A    between atoms: S_11  and  C_19
REMARK                            x       y       z     vdW  Elec       q    Type
REMARK                         _______ _______ _______ _____ _____    ______ ____
ROOT
ATOM      1  S   UNL     1      -0.028  -0.745   0.000  0.00  0.00    +0.000 S 
ATOM      2  O   UNL     1       0.058   0.075   0.000  0.00  0.00    +0.000 OA
ATOM      3  O   UNL     1      -0.114  -1.565   0.000  0.00  0.00    +0.000 OA
ENDROOT
BRANCH   1   9
ATOM      4  C   UNL     1      -1.333  -1.326   0.000  0.00  0.00    +0.000 A 
ATOM      5  C   UNL     1      -1.184   0.095   0.000  0.00  0.00    +0.000 A 
ATOM      6  C   UNL     1      -2.154  -1.240   0.000  0.00  0.00    +0.000 A 
ATOM      7  C   UNL     1      -2.489  -0.486   0.000  0.00  0.00    +0.000 A 
ATOM      8  C   UNL     1      -2.005   0.181   0.000  0.00  0.00    +0.000 A 
ATOM      9  C   UNL     1      -0.848  -0.659   0.000  0.00  0.00    +0.000 A 
ATOM     10  F   UNL     1      -2.639  -1.907   0.000  0.00  0.00    +0.000 F 
ATOM     11 CL   UNL     1      -2.340   0.935   0.000  0.00  0.00    +0.000 Cl
ATOM     12  N   UNL     1      -3.310  -0.400   0.000  0.00  0.00    +0.000 NA
ENDBRANCH   1   9
BRANCH   1  18
ATOM     13  N   UNL     1       2.357   0.621   0.000  0.00  0.00    +0.000 NA
ATOM     14  N   UNL     1       2.103  -0.164   0.000  0.00  0.00    +0.000 NA
ATOM     15  S   UNL     1       1.022   0.621   0.000  0.00  0.00    +0.000 S 
ATOM     16  C   UNL     1       1.690   1.106   0.000  0.00  0.00    +0.000 A 
ATOM     17  C   UNL     1       1.278  -0.164   0.000  0.00  0.00    +0.000 A 
ATOM     18  N   UNL     1       0.792  -0.831   0.000  0.00  0.00    +0.000 NA
BRANCH  16  19
ATOM     19  S   UNL     1       1.690   1.931   0.000  0.00  0.00    +0.000 S 
ATOM     20  O   UNL     1       1.690   2.756   0.000  0.00  0.00    +0.000 OA
ATOM     21  O   UNL     1       0.865   1.931   0.000  0.00  0.00    +0.000 OA
ATOM     22  N   UNL     1       2.515   1.931   0.000  0.00  0.00    +0.000 NA
ENDBRANCH  16  19
ENDBRANCH   1  18
TORSDOF 3
