REMARK  Name = 1CX
REMARK  5 active torsions:
REMARK  status: ('A' for Active; 'I' for Inactive)
REMARK    1  A    between atoms: N_1  and  C_12
REMARK    2  A    between atoms: C_5  and  C_8
REMARK    3  A    between atoms: C_9  and  C_23
REMARK    4  A    between atoms: N_21  and  O_22
REMARK    5  A    between atoms: O_22  and  C_23
REMARK                            x       y       z     vdW  Elec       q    Type
REMARK                         _______ _______ _______ _____ _____    ______ ____
ROOT
ATOM      1  N   UNL     1       0.795   0.125   0.000  0.00  0.00    +0.000 NA
ATOM      2  C   UNL     1       0.080  -1.113   0.000  0.00  0.00    +0.000 C 
ATOM      3  C   UNL     1      -0.634  -1.525   0.000  0.00  0.00    +0.000 C 
ATOM      4  C   UNL     1      -1.349  -0.288   0.000  0.00  0.00    +0.000 C 
ATOM      5  C   UNL     1      -1.349  -1.113   0.000  0.00  0.00    +0.000 C 
ATOM      6  C   UNL     1      -0.634   0.125   0.000  0.00  0.00    +0.000 C 
ATOM      7  C   UNL     1       0.080  -0.288   0.000  0.00  0.00    +0.000 C 
ATOM      8  F   UNL     1      -2.063   0.125   0.000  0.00  0.00    +0.000 F 
ATOM      9  F   UNL     1      -0.634   0.950   0.000  0.00  0.00    +0.000 F 
ENDROOT
BRANCH   1  15
ATOM     10  C   UNL     1       0.080   1.362   0.000  0.00  0.00    +0.000 A 
ATOM     11  C   UNL     1       0.080   2.187   0.000  0.00  0.00    +0.000 A 
ATOM     12  C   UNL     1       0.795   2.600   0.000  0.00  0.00    +0.000 A 
ATOM     13  C   UNL     1       1.509   2.187   0.000  0.00  0.00    +0.000 A 
ATOM     14  C   UNL     1       1.509   1.362   0.000  0.00  0.00    +0.000 A 
ATOM     15  C   UNL     1       0.795   0.950   0.000  0.00  0.00    +0.000 A 
ATOM     16  I   UNL     1       0.795   3.425   0.000  0.00  0.00    +0.000 I 
ATOM     17  F   UNL     1       2.224   0.950   0.000  0.00  0.00    +0.000 F 
ENDBRANCH   1  15
BRANCH   2  18
ATOM     18  C   UNL     1       0.795  -1.525   0.000  0.00  0.00    +0.000 C 
ATOM     19  O   UNL     1       0.795  -2.350   0.000  0.00  0.00    +0.000 OA
ATOM     20  N   UNL     1       1.509  -1.113   0.000  0.00  0.00    +0.000 NA
BRANCH  20  21
ATOM     21  O   UNL     1       2.224  -1.525   0.000  0.00  0.00    +0.000 OA
BRANCH  21  22
ATOM     22  C   UNL     1       2.938  -1.113   0.000  0.00  0.00    +0.000 C 
BRANCH  22  23
ATOM     23  C   UNL     1       3.653  -1.525   0.000  0.00  0.00    +0.000 C 
ATOM     24  O   UNL     1       4.367  -1.113   0.000  0.00  0.00    +0.000 OA
ENDBRANCH  22  23
ENDBRANCH  21  22
ENDBRANCH  20  21
ENDBRANCH   2  18
TORSDOF 5
