REMARK  Name = 1FN
REMARK  5 active torsions:
REMARK  status: ('A' for Active; 'I' for Inactive)
REMARK    1  A    between atoms: C_2  and  C_3
REMARK    2  A    between atoms: C_8  and  N_24
REMARK    3  A    between atoms: C_18  and  O_19
REMARK    4  A    between atoms: O_19  and  C_20
REMARK    5  A    between atoms: N_26  and  C_28
REMARK                            x       y       z     vdW  Elec       q    Type
REMARK                         _______ _______ _______ _____ _____    ______ ____
ROOT
ATOM      1  C   UNL     1       1.773   0.681   0.000  0.00  0.00    +0.000 A 
ATOM      2  C   UNL     1       0.344   0.681   0.000  0.00  0.00    +0.000 A 
ATOM      3  C   UNL     1       1.058   0.269   0.000  0.00  0.00    +0.000 A 
ATOM      4  C   UNL     1       1.773   1.506   0.000  0.00  0.00    +0.000 A 
ATOM      5  C   UNL     1       1.058   1.919   0.000  0.00  0.00    +0.000 A 
ATOM      6  C   UNL     1       0.344   1.506   0.000  0.00  0.00    +0.000 A 
ATOM      7  F   UNL     1       2.487   0.269   0.000  0.00  0.00    +0.000 F 
ENDROOT
BRANCH   2   9
ATOM      8  C   UNL     1      -0.370  -0.556   0.000  0.00  0.00    +0.000 C 
ATOM      9  N   UNL     1      -0.370   0.269   0.000  0.00  0.00    +0.000 NA
ATOM     10  O   UNL     1       0.344  -0.969   0.000  0.00  0.00    +0.000 OA
BRANCH   8  11
ATOM     11  C   UNL     1      -1.085  -0.969   0.000  0.00  0.00    +0.000 A 
ATOM     12  C   UNL     1      -1.085  -1.794   0.000  0.00  0.00    +0.000 A 
ATOM     13  C   UNL     1      -2.514  -1.794   0.000  0.00  0.00    +0.000 A 
ATOM     14  C   UNL     1      -2.514  -0.969   0.000  0.00  0.00    +0.000 A 
ATOM     15  C   UNL     1      -1.799  -0.556   0.000  0.00  0.00    +0.000 A 
ATOM     16  N   UNL     1      -1.799  -2.206   0.000  0.00  0.00    +0.000 N 
ATOM     17  O   UNL     1      -0.370  -2.206   0.000  0.00  0.00    +0.000 OA
BRANCH  16  20
ATOM     18  C   UNL     1      -1.085  -3.444   0.000  0.00  0.00    +0.000 A 
ATOM     19  C   UNL     1      -1.085  -4.269   0.000  0.00  0.00    +0.000 A 
ATOM     20  C   UNL     1      -1.799  -3.031   0.000  0.00  0.00    +0.000 A 
ATOM     21  C   UNL     1      -2.514  -3.444   0.000  0.00  0.00    +0.000 A 
ATOM     22  C   UNL     1      -2.514  -4.269   0.000  0.00  0.00    +0.000 A 
ATOM     23  C   UNL     1      -1.799  -4.681   0.000  0.00  0.00    +0.000 A 
ATOM     24  F   UNL     1      -1.799  -5.506   0.000  0.00  0.00    +0.000 F 
ENDBRANCH  16  20
ENDBRANCH   8  11
ENDBRANCH   2   9
BRANCH   4  25
ATOM     25  O   UNL     1       2.487   1.919   0.000  0.00  0.00    +0.000 OA
BRANCH  25  32
ATOM     26  C   UNL     1       0.988   2.901   0.000  0.00  0.00    +0.000 A 
ATOM     27  C   UNL     1       1.773   3.156   0.000  0.00  0.00    +0.000 A 
ATOM     28  C   UNL     1       1.773   3.981   0.000  0.00  0.00    +0.000 A 
ATOM     29  N   UNL     1       2.487   4.394   0.000  0.00  0.00    +0.000 NA
ATOM     30  C   UNL     1       3.202   3.981   0.000  0.00  0.00    +0.000 A 
ATOM     31  C   UNL     1       3.202   3.156   0.000  0.00  0.00    +0.000 A 
ATOM     32  C   UNL     1       2.487   2.744   0.000  0.00  0.00    +0.000 A 
ATOM     33  C   UNL     1       0.503   3.569   0.000  0.00  0.00    +0.000 A 
ATOM     34  N   UNL     1       0.988   4.236   0.000  0.00  0.00    +0.000 NA
ENDBRANCH  25  32
ENDBRANCH   4  25
TORSDOF 5
