REMARK  Name = 1FR
REMARK  7 active torsions:
REMARK  status: ('A' for Active; 'I' for Inactive)
REMARK    1  A    between atoms: C_5  and  C_6
REMARK    2  A    between atoms: C_6  and  N_27
REMARK    3  A    between atoms: C_7  and  C_11
REMARK    4  A    between atoms: C_7  and  C_21
REMARK    5  A    between atoms: C_13  and  C_14
REMARK    6  A    between atoms: C_19  and  N_27
REMARK    7  A    between atoms: C_21  and  C_22
REMARK                            x       y       z     vdW  Elec       q    Type
REMARK                         _______ _______ _______ _____ _____    ______ ____
ROOT
ATOM      1  C   UNL     1      -2.081   0.794   0.000  0.00  0.00    +0.000 A 
ATOM      2  C   UNL     1      -1.297   1.049   0.000  0.00  0.00    +0.000 A 
ATOM      3  C   UNL     1      -1.297   1.874   0.000  0.00  0.00    +0.000 A 
ATOM      4  C   UNL     1      -0.582   2.287   0.000  0.00  0.00    +0.000 A 
ATOM      5  C   UNL     1      -0.582   0.637   0.000  0.00  0.00    +0.000 A 
ATOM      6  C   UNL     1       0.132   1.049   0.000  0.00  0.00    +0.000 A 
ATOM      7  O   UNL     1      -2.081   2.129   0.000  0.00  0.00    +0.000 OA
ATOM      8  N   UNL     1      -2.566   1.462   0.000  0.00  0.00    +0.000 NA
ATOM      9  N   UNL     1       0.132   1.874   0.000  0.00  0.00    +0.000 NA
ENDROOT
BRANCH   1  15
ATOM     10  C   UNL     1      -1.784  -0.604   0.000  0.00  0.00    +0.000 A 
ATOM     11  C   UNL     1      -3.398  -0.947   0.000  0.00  0.00    +0.000 A 
ATOM     12  C   UNL     1      -2.846  -1.560   0.000  0.00  0.00    +0.000 A 
ATOM     13  C   UNL     1      -2.039  -1.388   0.000  0.00  0.00    +0.000 A 
ATOM     14  C   UNL     1      -3.143  -0.162   0.000  0.00  0.00    +0.000 A 
ATOM     15  C   UNL     1      -2.336   0.010   0.000  0.00  0.00    +0.000 A 
ATOM     16 CL   UNL     1      -4.205  -1.118   0.000  0.00  0.00    +0.000 Cl
BRANCH  13  17
ATOM     17  C   UNL     1      -1.487  -2.001   0.000  0.00  0.00    +0.000 C 
BRANCH  17  18
ATOM     18  C   UNL     1      -0.680  -1.830   0.000  0.00  0.00    +0.000 C 
BRANCH  18  19
ATOM     19  C   UNL     1      -0.128  -2.443   0.000  0.00  0.00    +0.000 C 
ATOM     20  O   UNL     1      -0.383  -3.227   0.000  0.00  0.00    +0.000 OA
ENDBRANCH  18  19
ENDBRANCH  17  18
ENDBRANCH  13  17
ENDBRANCH   1  15
BRANCH   6  21
ATOM     21  N   UNL     1       0.847   0.637   0.000  0.00  0.00    +0.000 NA
BRANCH  21  22
ATOM     22  C   UNL     1       1.561   1.049   0.000  0.00  0.00    +0.000 C 
ATOM     23  C   UNL     1       1.561   1.874   0.000  0.00  0.00    +0.000 C 
BRANCH  22  28
ATOM     24  C   UNL     1       2.990   1.049   0.000  0.00  0.00    +0.000 A 
ATOM     25  C   UNL     1       3.705   0.637   0.000  0.00  0.00    +0.000 A 
ATOM     26  C   UNL     1       3.705  -0.188   0.000  0.00  0.00    +0.000 A 
ATOM     27  C   UNL     1       2.276  -0.188   0.000  0.00  0.00    +0.000 A 
ATOM     28  C   UNL     1       2.276   0.637   0.000  0.00  0.00    +0.000 A 
ATOM     29  C   UNL     1       2.990  -0.601   0.000  0.00  0.00    +0.000 A 
ENDBRANCH  22  28
ENDBRANCH  21  22
ENDBRANCH   6  21
TORSDOF 7
