REMARK  Name = 1HP
REMARK  1 active torsions:
REMARK  status: ('A' for Active; 'I' for Inactive)
REMARK    1  A    between atoms: C_11  and  C_12
REMARK                            x       y       z     vdW  Elec       q    Type
REMARK                         _______ _______ _______ _____ _____    ______ ____
ROOT
ATOM      1  C   UNL     1      -0.310   0.136   0.000  0.00  0.00    +0.000 A 
ATOM      2  C   UNL     1      -1.024   0.548   0.000  0.00  0.00    +0.000 A 
ATOM      3  N   UNL     1      -1.809   0.293   0.000  0.00  0.00    +0.000 N 
ATOM      4  C   UNL     1      -2.064  -0.491   0.000  0.00  0.00    +0.000 C 
ATOM      5  C   UNL     1      -2.294   0.961   0.000  0.00  0.00    +0.000 A 
ATOM      6  N   UNL     1      -3.119   0.961   0.000  0.00  0.00    +0.000 NA
ATOM      7  N   UNL     1      -1.809   1.628   0.000  0.00  0.00    +0.000 NA
ATOM      8  C   UNL     1      -1.024   1.373   0.000  0.00  0.00    +0.000 A 
ATOM      9  N   UNL     1      -0.310   1.786   0.000  0.00  0.00    +0.000 NA
ATOM     10  C   UNL     1       0.405   1.373   0.000  0.00  0.00    +0.000 A 
ATOM     11  C   UNL     1       0.405   0.548   0.000  0.00  0.00    +0.000 A 
ENDROOT
BRANCH  11  12
ATOM     12  C   UNL     1       1.119   0.136   0.000  0.00  0.00    +0.000 A 
ATOM     13  C   UNL     1       1.119  -0.689   0.000  0.00  0.00    +0.000 A 
ATOM     14  C   UNL     1       1.833  -1.102   0.000  0.00  0.00    +0.000 A 
ATOM     15  C   UNL     1       2.548  -0.689   0.000  0.00  0.00    +0.000 A 
ATOM     16  O   UNL     1       3.263  -1.102   0.000  0.00  0.00    +0.000 OA
ATOM     17  C   UNL     1       2.548   0.136   0.000  0.00  0.00    +0.000 A 
ATOM     18  C   UNL     1       1.833   0.548   0.000  0.00  0.00    +0.000 A 
ENDBRANCH  11  12
TORSDOF 1
