REMARK  Name = 1IG
REMARK  5 active torsions:
REMARK  status: ('A' for Active; 'I' for Inactive)
REMARK    1  A    between atoms: C_5  and  C_9
REMARK    2  A    between atoms: C_6  and  C_16
REMARK    3  A    between atoms: N_20  and  C_21
REMARK    4  A    between atoms: C_21  and  C_22
REMARK    5  A    between atoms: C_22  and  N_23
REMARK                            x       y       z     vdW  Elec       q    Type
REMARK                         _______ _______ _______ _____ _____    ______ ____
ROOT
ATOM      1  C   UNL     1      -1.940   0.490   0.000  0.00  0.00    +0.000 A 
ATOM      2  C   UNL     1      -1.940  -0.335   0.000  0.00  0.00    +0.000 A 
ATOM      3  C   UNL     1      -1.226  -0.747   0.000  0.00  0.00    +0.000 A 
ATOM      4  C   UNL     1      -0.511  -0.335   0.000  0.00  0.00    +0.000 A 
ATOM      5  C   UNL     1      -0.511   0.490   0.000  0.00  0.00    +0.000 A 
ATOM      6  C   UNL     1      -1.226   0.903   0.000  0.00  0.00    +0.000 A 
ATOM      7  S   UNL     1      -1.226  -1.572   0.000  0.00  0.00    +0.000 S 
ATOM      8  C   UNL     1      -0.511  -1.985   0.000  0.00  0.00    +0.000 C 
ATOM      9  C   UNL     1       0.203  -1.572   0.000  0.00  0.00    +0.000 C 
ATOM     10  N   UNL     1       0.203  -0.747   0.000  0.00  0.00    +0.000 N 
ATOM     11  C   UNL     1      -0.899  -2.713   0.000  0.00  0.00    +0.000 C 
ATOM     12  C   UNL     1      -0.124  -2.713   0.000  0.00  0.00    +0.000 C 
ATOM     13  O   UNL     1       0.917  -1.985   0.000  0.00  0.00    +0.000 OA
ENDROOT
BRANCH   6  19
ATOM     14  C   UNL     1      -1.940   2.140   0.000  0.00  0.00    +0.000 A 
ATOM     15  N   UNL     1      -1.940   2.965   0.000  0.00  0.00    +0.000 NA
ATOM     16  C   UNL     1      -1.226   3.378   0.000  0.00  0.00    +0.000 A 
ATOM     17  N   UNL     1      -0.511   2.965   0.000  0.00  0.00    +0.000 NA
ATOM     18  C   UNL     1      -0.511   2.140   0.000  0.00  0.00    +0.000 A 
ATOM     19  C   UNL     1      -1.226   1.728   0.000  0.00  0.00    +0.000 A 
ATOM     20  N   UNL     1      -2.655   1.728   0.000  0.00  0.00    +0.000 NA
ATOM     21  N   UNL     1      -1.226   4.203   0.000  0.00  0.00    +0.000 NA
BRANCH  18  22
ATOM     22  C   UNL     1       0.203   1.728   0.000  0.00  0.00    +0.000 C 
ATOM     23  C   UNL     1       0.203   0.903   0.000  0.00  0.00    +0.000 C 
ENDBRANCH  18  22
ENDBRANCH   6  19
BRANCH  10  24
ATOM     24  C   UNL     1       0.917  -0.335   0.000  0.00  0.00    +0.000 C 
BRANCH  24  25
ATOM     25  C   UNL     1       1.632  -0.747   0.000  0.00  0.00    +0.000 C 
BRANCH  25  26
ATOM     26  N   UNL     1       2.346  -0.335   0.000  0.00  0.00    +0.000 NA
ATOM     27  C   UNL     1       3.061  -0.747   0.000  0.00  0.00    +0.000 C 
ATOM     28  C   UNL     1       3.775  -0.335   0.000  0.00  0.00    +0.000 C 
ATOM     29  O   UNL     1       3.061  -1.572   0.000  0.00  0.00    +0.000 OA
ENDBRANCH  25  26
ENDBRANCH  24  25
ENDBRANCH  10  24
TORSDOF 5
