REMARK  Name = 1NB
REMARK  4 active torsions:
REMARK  status: ('A' for Active; 'I' for Inactive)
REMARK    1  A    between atoms: C_1  and  C_2
REMARK    2  A    between atoms: C_1  and  C_9
REMARK    3  A    between atoms: C_1  and  C_12
REMARK    4  A    between atoms: C_4  and  C_9
REMARK                            x       y       z     vdW  Elec       q    Type
REMARK                         _______ _______ _______ _____ _____    ______ ____
ROOT
ATOM      1  C   UNL     1       0.461   0.468   0.000  0.00  0.00    +0.000 C 
ENDROOT
BRANCH   1   2
ATOM      2  C   UNL     1       0.461  -0.357   0.000  0.00  0.00    +0.000 C 
ATOM      3  C   UNL     1       1.129  -0.842   0.000  0.00  0.00    +0.000 C 
ATOM      4  O   UNL     1      -0.991  -0.587   0.000  0.00  0.00    +0.000 OA
ATOM      5  C   UNL     1       0.874  -1.626   0.000  0.00  0.00    +0.000 C 
ATOM      6  C   UNL     1      -0.206  -0.842   0.000  0.00  0.00    +0.000 C 
ATOM      7  C   UNL     1       0.049  -1.626   0.000  0.00  0.00    +0.000 C 
ENDBRANCH   1   2
BRANCH   1   9
ATOM      8  O   UNL     1       1.890   0.468   0.000  0.00  0.00    +0.000 OA
ATOM      9  C   UNL     1       1.176   0.881   0.000  0.00  0.00    +0.000 C 
ENDBRANCH   1   9
BRANCH   1  10
ATOM     10  C   UNL     1      -0.253   0.881   0.000  0.00  0.00    +0.000 C 
BRANCH  10  11
ATOM     11  C   UNL     1      -0.253   1.706   0.000  0.00  0.00    +0.000 C 
ATOM     12  C   UNL     1      -0.968   2.118   0.000  0.00  0.00    +0.000 C 
ENDBRANCH  10  11
ENDBRANCH   1  10
TORSDOF 4
