REMARK  Name = 1OH
REMARK  2 active torsions:
REMARK  status: ('A' for Active; 'I' for Inactive)
REMARK    1  A    between atoms: C_7  and  C_8
REMARK    2  A    between atoms: C_8  and  C_11
REMARK                            x       y       z     vdW  Elec       q    Type
REMARK                         _______ _______ _______ _____ _____    ______ ____
ROOT
ATOM      1  C   UNL     1       0.110  -0.009   0.000  0.00  0.00    +0.000 C 
ATOM      2  C   UNL     1       0.935  -0.009   0.000  0.00  0.00    +0.000 C 
ATOM      3  C   UNL     1      -0.715  -0.009   0.000  0.00  0.00    +0.000 C 
ENDROOT
BRANCH   1  10
ATOM      4  O   UNL     1       0.110   3.291   0.000  0.00  0.00    +0.000 OA
ATOM      5  C   UNL     1       0.110   2.466   0.000  0.00  0.00    +0.000 A 
ATOM      6  C   UNL     1       0.825   2.053   0.000  0.00  0.00    +0.000 A 
ATOM      7  C   UNL     1       0.825   1.228   0.000  0.00  0.00    +0.000 A 
ATOM      8  C   UNL     1      -0.604   2.053   0.000  0.00  0.00    +0.000 A 
ATOM      9  C   UNL     1      -0.604   1.228   0.000  0.00  0.00    +0.000 A 
ATOM     10  C   UNL     1       0.110   0.816   0.000  0.00  0.00    +0.000 A 
ENDBRANCH   1  10
BRANCH   1  11
ATOM     11  C   UNL     1       0.110  -0.834   0.000  0.00  0.00    +0.000 A 
ATOM     12  C   UNL     1      -0.604  -1.247   0.000  0.00  0.00    +0.000 A 
ATOM     13  C   UNL     1      -0.604  -2.072   0.000  0.00  0.00    +0.000 A 
ATOM     14  C   UNL     1       0.110  -2.484   0.000  0.00  0.00    +0.000 A 
ATOM     15  C   UNL     1       0.825  -2.072   0.000  0.00  0.00    +0.000 A 
ATOM     16  C   UNL     1       0.825  -1.247   0.000  0.00  0.00    +0.000 A 
ENDBRANCH   1  11
TORSDOF 2
