REMARK  Name = 1PL
REMARK  1 active torsions:
REMARK  status: ('A' for Active; 'I' for Inactive)
REMARK    1  A    between atoms: C_14  and  C_15
REMARK                            x       y       z     vdW  Elec       q    Type
REMARK                         _______ _______ _______ _____ _____    ______ ____
ROOT
ATOM      1  C   UNL     1       0.420  -1.140   0.000  0.00  0.00    +0.000 C 
ATOM      2  C   UNL     1      -0.065  -0.473   0.000  0.00  0.00    +0.000 C 
ATOM      3  C   UNL     1      -0.890  -0.473   0.000  0.00  0.00    +0.000 C 
ATOM      4  C   UNL     1      -1.145   0.312   0.000  0.00  0.00    +0.000 C 
ATOM      5  C   UNL     1      -0.477   0.797   0.000  0.00  0.00    +0.000 C 
ATOM      6  C   UNL     1       0.190   0.312   0.000  0.00  0.00    +0.000 C 
ATOM      7  C   UNL     1       0.445  -0.473   0.000  0.00  0.00    +0.000 C 
ATOM      8  C   UNL     1       1.270  -0.473   0.000  0.00  0.00    +0.000 C 
ATOM      9  C   UNL     1       2.077  -0.644   0.000  0.00  0.00    +0.000 C 
ATOM     10  C   UNL     1       1.184  -1.293   0.000  0.00  0.00    +0.000 C 
ATOM     11  C   UNL     1       1.525   0.312   0.000  0.00  0.00    +0.000 C 
ATOM     12  C   UNL     1       0.858   0.797   0.000  0.00  0.00    +0.000 C 
ATOM     13  C   UNL     1       0.603   1.582   0.000  0.00  0.00    +0.000 C 
ATOM     14  C   UNL     1      -0.223   1.582   0.000  0.00  0.00    +0.000 C 
ENDROOT
BRANCH  14  15
ATOM     15  C   UNL     1      -0.707   2.249   0.000  0.00  0.00    +0.000 C 
ATOM     16  O   UNL     1      -1.528   2.163   0.000  0.00  0.00    +0.000 OA
ATOM     17  O   UNL     1      -0.372   3.003   0.000  0.00  0.00    +0.000 OA
ENDBRANCH  14  15
TORSDOF 1
