REMARK  Name = 1PU
REMARK  2 active torsions:
REMARK  status: ('A' for Active; 'I' for Inactive)
REMARK    1  A    between atoms: C_6  and  N_10
REMARK    2  A    between atoms: N_16  and  C_18
REMARK                            x       y       z     vdW  Elec       q    Type
REMARK                         _______ _______ _______ _____ _____    ______ ____
ROOT
ATOM      1  C   UNL     1       1.147   0.863   0.000  0.00  0.00    +0.000 A 
ATOM      2  C   UNL     1       0.323   0.846   0.000  0.00  0.00    +0.000 C 
ATOM      3  C   UNL     1       1.387   1.652   0.000  0.00  0.00    +0.000 A 
ATOM      4  C   UNL     1       0.710   2.124   0.000  0.00  0.00    +0.000 C 
ATOM      5  C   UNL     1      -0.335   0.348   0.000  0.00  0.00    +0.000 C 
ATOM      6  C   UNL     1       1.711   0.260   0.000  0.00  0.00    +0.000 A 
ATOM      7  N   UNL     1       0.052   1.626   0.000  0.00  0.00    +0.000 N 
ATOM      8  C   UNL     1       2.190   1.839   0.000  0.00  0.00    +0.000 A 
ATOM      9  C   UNL     1       2.515   0.448   0.000  0.00  0.00    +0.000 A 
ATOM     10  C   UNL     1      -0.773   1.609   0.000  0.00  0.00    +0.000 C 
ATOM     11  C   UNL     1      -1.012   0.820   0.000  0.00  0.00    +0.000 C 
ATOM     12  O   UNL     1       0.694   2.949   0.000  0.00  0.00    +0.000 OA
ATOM     13  C   UNL     1       2.754   1.237   0.000  0.00  0.00    +0.000 A 
ENDROOT
BRANCH   6  14
ATOM     14  N   UNL     1       1.472  -0.529   0.000  0.00  0.00    +0.000 NA
ATOM     15  C   UNL     1       0.668  -0.717   0.000  0.00  0.00    +0.000 C 
ATOM     16  N   UNL     1       0.429  -1.506   0.000  0.00  0.00    +0.000 NA
ATOM     17  O   UNL     1       0.104  -0.114   0.000  0.00  0.00    +0.000 OA
BRANCH  16  18
ATOM     18  C   UNL     1      -0.374  -1.693   0.000  0.00  0.00    +0.000 A 
ATOM     19  C   UNL     1      -0.614  -2.483   0.000  0.00  0.00    +0.000 A 
ATOM     20  N   UNL     1      -0.938  -1.091   0.000  0.00  0.00    +0.000 NA
ATOM     21  C   UNL     1      -1.417  -2.670   0.000  0.00  0.00    +0.000 A 
ATOM     22  C   UNL     1      -1.742  -1.279   0.000  0.00  0.00    +0.000 A 
ATOM     23  C   UNL     1      -1.981  -2.068   0.000  0.00  0.00    +0.000 A 
ENDBRANCH  16  18
ENDBRANCH   6  14
TORSDOF 2
