REMARK  Name = 1ZN
REMARK  9 active torsions:
REMARK  status: ('A' for Active; 'I' for Inactive)
REMARK    1  A    between atoms: O_2  and  C_3
REMARK    2  A    between atoms: C_3  and  C_4
REMARK    3  A    between atoms: C_3  and  C_11
REMARK    4  A    between atoms: C_4  and  C_5
REMARK    5  A    between atoms: C_11  and  C_13
REMARK    6  A    between atoms: C_14  and  C_16
REMARK    7  A    between atoms: C_17  and  C_18
REMARK    8  A    between atoms: C_18  and  C_20
REMARK    9  A    between atoms: C_20  and  C_22
REMARK                            x       y       z     vdW  Elec       q    Type
REMARK                         _______ _______ _______ _____ _____    ______ ____
ROOT
ATOM      1  C   UNL     1       0.033  -0.814   0.000  0.00  0.00    +0.000 C 
ATOM      2  C   UNL     1       0.748  -1.226   0.000  0.00  0.00    +0.000 C 
ENDROOT
BRANCH   1   3
ATOM      3  C   UNL     1       0.033   0.011   0.000  0.00  0.00    +0.000 C 
ATOM      4  C   UNL     1       0.748   0.424   0.000  0.00  0.00    +0.000 C 
ATOM      5  C   UNL     1       1.462   0.011   0.000  0.00  0.00    +0.000 C 
BRANCH   4   6
ATOM      6  C   UNL     1       0.748   1.249   0.000  0.00  0.00    +0.000 C 
ATOM      7  C   UNL     1       1.462   1.661   0.000  0.00  0.00    +0.000 C 
BRANCH   7   8
ATOM      8  C   UNL     1       1.462   2.486   0.000  0.00  0.00    +0.000 C 
ATOM      9  N   UNL     1       2.176   2.899   0.000  0.00  0.00    +0.000 NA
BRANCH   8  10
ATOM     10  C   UNL     1       0.748   2.899   0.000  0.00  0.00    +0.000 C 
ATOM     11  C   UNL     1       0.033   2.486   0.000  0.00  0.00    +0.000 C 
BRANCH  10  12
ATOM     12  C   UNL     1       0.748   3.724   0.000  0.00  0.00    +0.000 C 
ATOM     13  O   UNL     1       0.033   4.136   0.000  0.00  0.00    +0.000 OA
ATOM     14  O   UNL     1       1.462   4.136   0.000  0.00  0.00    +0.000 OA
ENDBRANCH  10  12
ENDBRANCH   8  10
ENDBRANCH   7   8
ENDBRANCH   4   6
ENDBRANCH   1   3
BRANCH   1  15
ATOM     15  C   UNL     1      -0.681  -1.226   0.000  0.00  0.00    +0.000 C 
BRANCH  15  17
ATOM     16  C   UNL     1      -1.396   0.011   0.000  0.00  0.00    +0.000 C 
ATOM     17  O   UNL     1      -1.396  -0.814   0.000  0.00  0.00    +0.000 OA
ENDBRANCH  15  17
BRANCH  15  18
ATOM     18  C   UNL     1      -0.681  -2.051   0.000  0.00  0.00    +0.000 C 
BRANCH  18  19
ATOM     19  C   UNL     1      -1.396  -2.464   0.000  0.00  0.00    +0.000 A 
ATOM     20  C   UNL     1      -1.396  -3.289   0.000  0.00  0.00    +0.000 A 
ATOM     21  C   UNL     1      -2.110  -3.701   0.000  0.00  0.00    +0.000 A 
ATOM     22  C   UNL     1      -2.825  -3.289   0.000  0.00  0.00    +0.000 A 
ATOM     23  C   UNL     1      -2.825  -2.464   0.000  0.00  0.00    +0.000 A 
ATOM     24  C   UNL     1      -2.110  -2.051   0.000  0.00  0.00    +0.000 A 
ENDBRANCH  18  19
ENDBRANCH  15  18
ENDBRANCH   1  15
TORSDOF 9
