REMARK  Name = 201
REMARK  4 active torsions:
REMARK  status: ('A' for Active; 'I' for Inactive)
REMARK    1  A    between atoms: C_1  and  C_19
REMARK    2  A    between atoms: C_3  and  C_7
REMARK    3  A    between atoms: C_5  and  C_20
REMARK    4  A    between atoms: C_10  and  C_13
REMARK                            x       y       z     vdW  Elec       q    Type
REMARK                         _______ _______ _______ _____ _____    ______ ____
ROOT
ATOM      1  C   UNL     1      -1.755   1.760   0.000  0.00  0.00    +0.000 A 
ATOM      2  C   UNL     1      -1.041   1.347   0.000  0.00  0.00    +0.000 A 
ATOM      3  C   UNL     1      -1.041   0.522   0.000  0.00  0.00    +0.000 A 
ATOM      4  C   UNL     1      -1.755   0.110   0.000  0.00  0.00    +0.000 A 
ATOM      5  C   UNL     1      -2.470   0.522   0.000  0.00  0.00    +0.000 A 
ATOM      6  C   UNL     1      -2.470   1.347   0.000  0.00  0.00    +0.000 A 
ENDROOT
BRANCH   3   7
ATOM      7  C   UNL     1      -0.326   0.110   0.000  0.00  0.00    +0.000 A 
ATOM      8  C   UNL     1       0.388   0.522   0.000  0.00  0.00    +0.000 A 
ATOM      9  C   UNL     1       1.103   0.110   0.000  0.00  0.00    +0.000 A 
ATOM     10  C   UNL     1       1.103  -0.715   0.000  0.00  0.00    +0.000 A 
ATOM     11  C   UNL     1       0.388  -1.128   0.000  0.00  0.00    +0.000 A 
ATOM     12  C   UNL     1      -0.326  -0.715   0.000  0.00  0.00    +0.000 A 
BRANCH  10  13
ATOM     13  C   UNL     1       1.817  -1.128   0.000  0.00  0.00    +0.000 A 
ATOM     14  C   UNL     1       2.532  -0.715   0.000  0.00  0.00    +0.000 A 
ATOM     15  C   UNL     1       3.246  -1.128   0.000  0.00  0.00    +0.000 A 
ATOM     16  C   UNL     1       3.246  -1.953   0.000  0.00  0.00    +0.000 A 
ATOM     17  C   UNL     1       2.532  -2.365   0.000  0.00  0.00    +0.000 A 
ATOM     18  C   UNL     1       1.817  -1.953   0.000  0.00  0.00    +0.000 A 
ENDBRANCH  10  13
ENDBRANCH   3   7
BRANCH   1  19
ATOM     19  C   UNL     1      -1.755   2.585   0.000  0.00  0.00    +0.000 C 
ATOM     20  O   UNL     1      -2.470   2.997   0.000  0.00  0.00    +0.000 OA
ATOM     21  O   UNL     1      -1.041   2.997   0.000  0.00  0.00    +0.000 OA
ENDBRANCH   1  19
BRANCH   5  22
ATOM     22  C   UNL     1      -3.184   0.110   0.000  0.00  0.00    +0.000 C 
ATOM     23  O   UNL     1      -3.184  -0.715   0.000  0.00  0.00    +0.000 OA
ATOM     24  N   UNL     1      -3.898   0.522   0.000  0.00  0.00    +0.000 NA
ENDBRANCH   5  22
TORSDOF 4
