REMARK  Name = 201
REMARK  0 active torsions:
REMARK  status: ('A' for Active; 'I' for Inactive)
REMARK                            x       y       z     vdW  Elec       q    Type
REMARK                         _______ _______ _______ _____ _____    ______ ____
ROOT
ATOM      1  O   UNL     1       3.079   1.650   0.000  0.00  0.00    +0.000 OA
ATOM      2  O   UNL     1       1.650  -0.825   0.000  0.00  0.00    +0.000 OA
ATOM      3  N   UNL     1       3.079  -0.825   0.000  0.00  0.00    +0.000 N 
ATOM      4  N   UNL     1       4.574   0.664   0.000  0.00  0.00    +0.000 N 
ATOM      5  N   UNL     1       2.365   0.412   0.000  0.00  0.00    +0.000 N 
ATOM      6  N   UNL     1       4.574  -0.664   0.000  0.00  0.00    +0.000 NA
ATOM      7  C   UNL     1       3.793   0.412   0.000  0.00  0.00    +0.000 A 
ATOM      8  C   UNL     1       3.793  -0.412   0.000  0.00  0.00    +0.000 A 
ATOM      9  C   UNL     1       3.079   0.825   0.000  0.00  0.00    +0.000 A 
ATOM     10  C   UNL     1       2.365  -0.412   0.000  0.00  0.00    +0.000 A 
ATOM     11  C   UNL     1       5.056   0.000   0.000  0.00  0.00    +0.000 A 
ATOM     12  C   UNL     1       3.079  -1.650   0.000  0.00  0.00    +0.000 C 
ATOM     13  C   UNL     1       4.830   1.448   0.000  0.00  0.00    +0.000 C 
ATOM     14  C   UNL     1       1.650   0.825   0.000  0.00  0.00    +0.000 C 
ENDROOT
TORSDOF 0
