REMARK  Name = 202
REMARK  11 active torsions:
REMARK  status: ('A' for Active; 'I' for Inactive)
REMARK    1  A    between atoms: O_1  and  C_15
REMARK    2  A    between atoms: O_1  and  C_19
REMARK    3  A    between atoms: O_2  and  C_16
REMARK    4  A    between atoms: O_2  and  C_20
REMARK    5  A    between atoms: N_5  and  C_7
REMARK    6  A    between atoms: N_6  and  C_8
REMARK    7  A    between atoms: C_7  and  C_15
REMARK    8  A    between atoms: C_8  and  C_16
REMARK    9  A    between atoms: C_17  and  C_18
REMARK   10  A    between atoms: C_17  and  C_19
REMARK   11  A    between atoms: C_18  and  C_20
REMARK                            x       y       z     vdW  Elec       q    Type
REMARK                         _______ _______ _______ _____ _____    ______ ____
ROOT
ATOM      1  C   UNL     1       5.937   0.206   0.000  0.00  0.00    +0.000 C 
ENDROOT
BRANCH   1   3
ATOM      2  O   UNL     1       5.222  -1.031   0.000  0.00  0.00    +0.000 OA
ATOM      3  C   UNL     1       5.222  -0.206   0.000  0.00  0.00    +0.000 C 
BRANCH   3   4
ATOM      4  O   UNL     1       4.508   0.206   0.000  0.00  0.00    +0.000 OA
BRANCH   4   5
ATOM      5  C   UNL     1       3.793  -0.206   0.000  0.00  0.00    +0.000 C 
BRANCH   5   6
ATOM      6  C   UNL     1       3.079   0.206   0.000  0.00  0.00    +0.000 C 
BRANCH   6   7
ATOM      7  N   UNL     1       2.364  -0.206   0.000  0.00  0.00    +0.000 N 
ATOM      8  C   UNL     1       2.777  -0.921   0.000  0.00  0.00    +0.000 C 
ATOM      9  C   UNL     1       1.952   0.508   0.000  0.00  0.00    +0.000 C 
ATOM     10  C   UNL     1       1.650  -0.619   0.000  0.00  0.00    +0.000 C 
ENDBRANCH   6   7
ENDBRANCH   5   6
ENDBRANCH   4   5
ENDBRANCH   3   4
ENDBRANCH   1   3
BRANCH   1  11
ATOM     11  C   UNL     1       6.651  -0.206   0.000  0.00  0.00    +0.000 C 
BRANCH  11  13
ATOM     12  O   UNL     1       7.365   1.031   0.000  0.00  0.00    +0.000 OA
ATOM     13  C   UNL     1       7.365   0.206   0.000  0.00  0.00    +0.000 C 
BRANCH  13  14
ATOM     14  O   UNL     1       8.080  -0.206   0.000  0.00  0.00    +0.000 OA
BRANCH  14  15
ATOM     15  C   UNL     1       8.794   0.206   0.000  0.00  0.00    +0.000 C 
BRANCH  15  16
ATOM     16  C   UNL     1       9.509  -0.206   0.000  0.00  0.00    +0.000 C 
BRANCH  16  17
ATOM     17  N   UNL     1      10.223   0.206   0.000  0.00  0.00    +0.000 N 
ATOM     18  C   UNL     1      10.636  -0.508   0.000  0.00  0.00    +0.000 C 
ATOM     19  C   UNL     1       9.811   0.921   0.000  0.00  0.00    +0.000 C 
ATOM     20  C   UNL     1      10.938   0.619   0.000  0.00  0.00    +0.000 C 
ENDBRANCH  16  17
ENDBRANCH  15  16
ENDBRANCH  14  15
ENDBRANCH  13  14
ENDBRANCH  11  13
ENDBRANCH   1  11
TORSDOF 11
