REMARK  Name = 204
REMARK  11 active torsions:
REMARK  status: ('A' for Active; 'I' for Inactive)
REMARK    1  A    between atoms: S_1  and  N_9
REMARK    2  A    between atoms: S_2  and  N_10
REMARK    3  A    between atoms: O_3  and  C_15
REMARK    4  A    between atoms: O_3  and  C_22
REMARK    5  A    between atoms: N_8  and  C_11
REMARK    6  A    between atoms: N_8  and  C_13
REMARK    7  A    between atoms: N_9  and  C_19
REMARK    8  A    between atoms: N_10  and  C_23
REMARK    9  A    between atoms: C_11  and  C_12
REMARK   10  A    between atoms: C_12  and  C_14
REMARK   11  A    between atoms: C_13  and  C_15
REMARK                            x       y       z     vdW  Elec       q    Type
REMARK                         _______ _______ _______ _____ _____    ______ ____
ROOT
ATOM      1  N   UNL     1       4.508   0.206   0.000  0.00  0.00    +0.000 NA
ATOM      2  C   UNL     1       5.222  -0.206   0.000  0.00  0.00    +0.000 C 
ENDROOT
BRANCH   1   3
ATOM      3  C   UNL     1       3.793  -0.206   0.000  0.00  0.00    +0.000 C 
BRANCH   3   4
ATOM      4  C   UNL     1       3.793  -1.031   0.000  0.00  0.00    +0.000 C 
BRANCH   4   5
ATOM      5  O   UNL     1       3.079  -1.444   0.000  0.00  0.00    +0.000 OA
BRANCH   5   6
ATOM      6  C   UNL     1       3.079  -2.269   0.000  0.00  0.00    +0.000 A 
ATOM      7  C   UNL     1       3.079  -3.919   0.000  0.00  0.00    +0.000 A 
ATOM      8  C   UNL     1       2.365  -2.681   0.000  0.00  0.00    +0.000 A 
ATOM      9  C   UNL     1       3.793  -2.681   0.000  0.00  0.00    +0.000 A 
ATOM     10  C   UNL     1       2.365  -3.506   0.000  0.00  0.00    +0.000 A 
ATOM     11  C   UNL     1       3.793  -3.506   0.000  0.00  0.00    +0.000 A 
BRANCH   7  12
ATOM     12  N   UNL     1       3.079  -4.744   0.000  0.00  0.00    +0.000 NA
BRANCH  12  13
ATOM     13  S   UNL     1       2.365  -5.156   0.000  0.00  0.00    +0.000 S 
ATOM     14  O   UNL     1       1.952  -4.442   0.000  0.00  0.00    +0.000 OA
ATOM     15  O   UNL     1       2.777  -5.871   0.000  0.00  0.00    +0.000 OA
ATOM     16  C   UNL     1       1.650  -5.569   0.000  0.00  0.00    +0.000 C 
ENDBRANCH  12  13
ENDBRANCH   7  12
ENDBRANCH   5   6
ENDBRANCH   4   5
ENDBRANCH   3   4
ENDBRANCH   1   3
BRANCH   1  17
ATOM     17  C   UNL     1       4.508   1.031   0.000  0.00  0.00    +0.000 C 
BRANCH  17  18
ATOM     18  C   UNL     1       5.222   1.444   0.000  0.00  0.00    +0.000 C 
BRANCH  18  19
ATOM     19  C   UNL     1       5.222   2.269   0.000  0.00  0.00    +0.000 A 
ATOM     20  C   UNL     1       4.508   2.681   0.000  0.00  0.00    +0.000 A 
ATOM     21  C   UNL     1       5.937   2.681   0.000  0.00  0.00    +0.000 A 
ATOM     22  C   UNL     1       5.222   3.919   0.000  0.00  0.00    +0.000 A 
ATOM     23  C   UNL     1       4.508   3.506   0.000  0.00  0.00    +0.000 A 
ATOM     24  C   UNL     1       5.937   3.506   0.000  0.00  0.00    +0.000 A 
BRANCH  22  25
ATOM     25  N   UNL     1       5.222   4.744   0.000  0.00  0.00    +0.000 NA
BRANCH  25  26
ATOM     26  S   UNL     1       5.937   5.156   0.000  0.00  0.00    +0.000 S 
ATOM     27  O   UNL     1       6.349   4.442   0.000  0.00  0.00    +0.000 OA
ATOM     28  O   UNL     1       5.524   5.871   0.000  0.00  0.00    +0.000 OA
ATOM     29  C   UNL     1       6.652   5.569   0.000  0.00  0.00    +0.000 C 
ENDBRANCH  25  26
ENDBRANCH  22  25
ENDBRANCH  18  19
ENDBRANCH  17  18
ENDBRANCH   1  17
TORSDOF 11
