REMARK  Name = 205
REMARK  2 active torsions:
REMARK  status: ('A' for Active; 'I' for Inactive)
REMARK    1  A    between atoms: C_4  and  C_14
REMARK    2  A    between atoms: C_8  and  C_9
REMARK                            x       y       z     vdW  Elec       q    Type
REMARK                         _______ _______ _______ _____ _____    ______ ____
ROOT
ATOM      1  C   UNL     1       1.365  -1.024   0.000  0.00  0.00    +0.000 A 
ATOM      2  C   UNL     1       0.650  -0.611   0.000  0.00  0.00    +0.000 A 
ATOM      3  C   UNL     1       2.079  -0.611   0.000  0.00  0.00    +0.000 A 
ATOM      4  C   UNL     1       2.079   0.214   0.000  0.00  0.00    +0.000 A 
ATOM      5  C   UNL     1       1.365   0.626   0.000  0.00  0.00    +0.000 A 
ATOM      6  C   UNL     1       0.650   0.214   0.000  0.00  0.00    +0.000 A 
ATOM      7  C   UNL     1      -0.620  -0.199   0.000  0.00  0.00    +0.000 A 
ATOM      8  O   UNL     1      -0.135   0.469   0.000  0.00  0.00    +0.000 OA
ATOM      9  N   UNL     1      -0.135  -0.866   0.000  0.00  0.00    +0.000 NA
ENDROOT
BRANCH   7  11
ATOM     10  C   UNL     1      -1.857   0.516   0.000  0.00  0.00    +0.000 A 
ATOM     11  C   UNL     1      -1.445  -0.199   0.000  0.00  0.00    +0.000 A 
ATOM     12  C   UNL     1      -2.682   0.516   0.000  0.00  0.00    +0.000 A 
ATOM     13  C   UNL     1      -2.682  -0.913   0.000  0.00  0.00    +0.000 A 
ATOM     14  C   UNL     1      -3.095  -0.199   0.000  0.00  0.00    +0.000 A 
ATOM     15  C   UNL     1      -1.857  -0.913   0.000  0.00  0.00    +0.000 A 
ATOM     16 CL   UNL     1      -1.445  -1.627   0.000  0.00  0.00    +0.000 Cl
ATOM     17 CL   UNL     1      -1.445   1.230   0.000  0.00  0.00    +0.000 Cl
ENDBRANCH   7  11
BRANCH   4  18
ATOM     18  C   UNL     1       2.793   0.626   0.000  0.00  0.00    +0.000 C 
ATOM     19  O   UNL     1       2.793   1.451   0.000  0.00  0.00    +0.000 OA
ATOM     20  O   UNL     1       3.508   0.214   0.000  0.00  0.00    +0.000 OA
ENDBRANCH   4  18
TORSDOF 2
