REMARK  Name = 205
REMARK  2 active torsions:
REMARK  status: ('A' for Active; 'I' for Inactive)
REMARK    1  A    between atoms: C_6  and  C_9
REMARK    2  A    between atoms: C_7  and  C_8
REMARK                            x       y       z     vdW  Elec       q    Type
REMARK                         _______ _______ _______ _____ _____    ______ ____
ROOT
ATOM      1  N   UNL     1       4.237  -1.522   0.000  0.00  0.00    +0.000 NA
ATOM      2  N   UNL     1       2.808  -1.522   0.000  0.00  0.00    +0.000 NA
ATOM      3  N   UNL     1       2.093  -0.285   0.000  0.00  0.00    +0.000 NA
ATOM      4  N   UNL     1       3.522  -2.760   0.000  0.00  0.00    +0.000 NA
ATOM      5  C   UNL     1       3.522  -0.285   0.000  0.00  0.00    +0.000 A 
ATOM      6  C   UNL     1       4.237  -0.697   0.000  0.00  0.00    +0.000 A 
ATOM      7  C   UNL     1       2.808  -0.697   0.000  0.00  0.00    +0.000 A 
ATOM      8  C   UNL     1       3.522  -1.935   0.000  0.00  0.00    +0.000 A 
ENDROOT
BRANCH   5  10
ATOM      9 CL   UNL     1       3.522   3.015   0.000  0.00  0.00    +0.000 Cl
ATOM     10  C   UNL     1       3.522   0.540   0.000  0.00  0.00    +0.000 A 
ATOM     11  C   UNL     1       2.808   0.953   0.000  0.00  0.00    +0.000 A 
ATOM     12  C   UNL     1       4.237   0.953   0.000  0.00  0.00    +0.000 A 
ATOM     13  C   UNL     1       2.808   1.778   0.000  0.00  0.00    +0.000 A 
ATOM     14  C   UNL     1       4.237   1.778   0.000  0.00  0.00    +0.000 A 
ATOM     15  C   UNL     1       3.522   2.190   0.000  0.00  0.00    +0.000 A 
ENDBRANCH   5  10
BRANCH   6  16
ATOM     16  C   UNL     1       4.951  -0.285   0.000  0.00  0.00    +0.000 C 
ATOM     17  C   UNL     1       5.665  -0.697   0.000  0.00  0.00    +0.000 C 
ENDBRANCH   6  16
TORSDOF 2
