REMARK  Name = 207
REMARK  3 active torsions:
REMARK  status: ('A' for Active; 'I' for Inactive)
REMARK    1  A    between atoms: C_6  and  O_7
REMARK    2  A    between atoms: O_7  and  C_8
REMARK    3  A    between atoms: C_8  and  C_13
REMARK                            x       y       z     vdW  Elec       q    Type
REMARK                         _______ _______ _______ _____ _____    ______ ____
ROOT
ATOM      1  N   UNL     1       1.333  -1.418   0.000  0.00  0.00    +0.000 NA
ATOM      2  C   UNL     1       1.333  -2.243   0.000  0.00  0.00    +0.000 A 
ATOM      3  C   UNL     1       0.619  -2.655   0.000  0.00  0.00    +0.000 A 
ATOM      4  C   UNL     1      -0.096  -2.243   0.000  0.00  0.00    +0.000 A 
ATOM      5  C   UNL     1      -0.096  -1.418   0.000  0.00  0.00    +0.000 A 
ATOM      6  C   UNL     1       0.619  -1.005   0.000  0.00  0.00    +0.000 A 
ATOM      7  N   UNL     1      -0.880  -1.163   0.000  0.00  0.00    +0.000 NA
ATOM      8  C   UNL     1      -1.365  -1.830   0.000  0.00  0.00    +0.000 A 
ATOM      9  N   UNL     1      -0.880  -2.498   0.000  0.00  0.00    +0.000 NA
ATOM     10  N   UNL     1       2.047  -2.655   0.000  0.00  0.00    +0.000 NA
ENDROOT
BRANCH   6  11
ATOM     11  O   UNL     1       0.619  -0.180   0.000  0.00  0.00    +0.000 OA
BRANCH  11  12
ATOM     12  C   UNL     1      -0.096   0.232   0.000  0.00  0.00    +0.000 C 
BRANCH  12  13
ATOM     13  C   UNL     1      -0.096   1.057   0.000  0.00  0.00    +0.000 C 
ATOM     14  C   UNL     1      -0.810   1.470   0.000  0.00  0.00    +0.000 C 
ATOM     15  C   UNL     1      -0.810   2.295   0.000  0.00  0.00    +0.000 C 
ATOM     16  C   UNL     1      -0.096   2.707   0.000  0.00  0.00    +0.000 C 
ATOM     17  C   UNL     1       0.619   2.295   0.000  0.00  0.00    +0.000 C 
ATOM     18  C   UNL     1       0.619   1.470   0.000  0.00  0.00    +0.000 C 
ENDBRANCH  12  13
ENDBRANCH  11  12
ENDBRANCH   6  11
TORSDOF 3
