REMARK  Name = 208
REMARK  8 active torsions:
REMARK  status: ('A' for Active; 'I' for Inactive)
REMARK    1  A    between atoms: C_2  and  O_3
REMARK    2  A    between atoms: O_3  and  C_4
REMARK    3  A    between atoms: C_4  and  C_5
REMARK    4  A    between atoms: C_4  and  C_8
REMARK    5  A    between atoms: C_8  and  C_9
REMARK    6  A    between atoms: N_17  and  C_18
REMARK    7  A    between atoms: C_18  and  C_19
REMARK    8  A    between atoms: C_24  and  C_25
REMARK                            x       y       z     vdW  Elec       q    Type
REMARK                         _______ _______ _______ _____ _____    ______ ____
ROOT
ATOM      1  C   UNL     1       1.514   1.093   0.000  0.00  0.00    +0.000 A 
ATOM      2  C   UNL     1       1.514   0.268   0.000  0.00  0.00    +0.000 A 
ATOM      3  C   UNL     1       0.799   1.506   0.000  0.00  0.00    +0.000 A 
ATOM      4  C   UNL     1       0.085   1.093   0.000  0.00  0.00    +0.000 A 
ATOM      5  C   UNL     1      -0.700   1.348   0.000  0.00  0.00    +0.000 A 
ATOM      6  C   UNL     1      -1.185   0.681   0.000  0.00  0.00    +0.000 A 
ATOM      7  C   UNL     1       0.085   0.268   0.000  0.00  0.00    +0.000 A 
ATOM      8  C   UNL     1       0.799  -0.144   0.000  0.00  0.00    +0.000 A 
ATOM      9  N   UNL     1      -0.700   0.013   0.000  0.00  0.00    +0.000 N 
ENDROOT
BRANCH   9  10
ATOM     10  C   UNL     1      -0.955  -0.771   0.000  0.00  0.00    +0.000 C 
BRANCH  10  11
ATOM     11  C   UNL     1      -1.762  -0.943   0.000  0.00  0.00    +0.000 A 
ATOM     12  C   UNL     1      -2.097  -1.696   0.000  0.00  0.00    +0.000 A 
ATOM     13  C   UNL     1      -1.685  -2.411   0.000  0.00  0.00    +0.000 C 
ATOM     14  O   UNL     1      -2.918  -1.610   0.000  0.00  0.00    +0.000 OA
ATOM     15  N   UNL     1      -2.375  -0.391   0.000  0.00  0.00    +0.000 NA
ATOM     16  C   UNL     1      -3.089  -0.803   0.000  0.00  0.00    +0.000 A 
BRANCH  16  17
ATOM     17  C   UNL     1      -3.843  -0.468   0.000  0.00  0.00    +0.000 A 
ATOM     18  C   UNL     1      -4.510  -0.953   0.000  0.00  0.00    +0.000 A 
ATOM     19 CL   UNL     1      -4.424  -1.773   0.000  0.00  0.00    +0.000 Cl
ATOM     20  C   UNL     1      -5.264  -0.617   0.000  0.00  0.00    +0.000 A 
ATOM     21  C   UNL     1      -5.350   0.203   0.000  0.00  0.00    +0.000 A 
ATOM     22  C   UNL     1      -4.683   0.688   0.000  0.00  0.00    +0.000 A 
ATOM     23  C   UNL     1      -3.929   0.353   0.000  0.00  0.00    +0.000 A 
ENDBRANCH  16  17
ENDBRANCH  10  11
ENDBRANCH   9  10
BRANCH   1  24
ATOM     24  C   UNL     1       2.228   1.506   0.000  0.00  0.00    +0.000 C 
BRANCH  24  25
ATOM     25  C   UNL     1       2.943   1.093   0.000  0.00  0.00    +0.000 C 
BRANCH  25  26
ATOM     26  C   UNL     1       2.943   0.268   0.000  0.00  0.00    +0.000 C 
ATOM     27  O   UNL     1       2.228  -0.144   0.000  0.00  0.00    +0.000 OA
ATOM     28  O   UNL     1       3.657  -0.144   0.000  0.00  0.00    +0.000 OA
ENDBRANCH  25  26
BRANCH  25  29
ATOM     29  O   UNL     1       3.657   1.506   0.000  0.00  0.00    +0.000 OA
BRANCH  29  31
ATOM     30  C   UNL     1       5.086   1.506   0.000  0.00  0.00    +0.000 C 
ATOM     31  C   UNL     1       4.372   1.093   0.000  0.00  0.00    +0.000 C 
ENDBRANCH  29  31
ENDBRANCH  25  29
ENDBRANCH  24  25
ENDBRANCH   1  24
TORSDOF 8
