REMARK  Name = 208
REMARK  2 active torsions:
REMARK  status: ('A' for Active; 'I' for Inactive)
REMARK    1  A    between atoms: N_3  and  C_9
REMARK    2  A    between atoms: C_9  and  C_10
REMARK                            x       y       z     vdW  Elec       q    Type
REMARK                         _______ _______ _______ _____ _____    ______ ____
ROOT
ATOM      1  S   UNL     1       6.718  -1.076   0.000  0.00  0.00    +0.000 S 
ATOM      2  N   UNL     1       4.508   0.000   0.000  0.00  0.00    +0.000 NA
ATOM      3  C   UNL     1       4.508  -0.825   0.000  0.00  0.00    +0.000 C 
ATOM      4  C   UNL     1       5.222   0.412   0.000  0.00  0.00    +0.000 C 
ATOM      5  C   UNL     1       5.222  -1.238   0.000  0.00  0.00    +0.000 C 
ATOM      6  C   UNL     1       5.937   0.000   0.000  0.00  0.00    +0.000 A 
ATOM      7  C   UNL     1       5.937  -0.825   0.000  0.00  0.00    +0.000 A 
ATOM      8  C   UNL     1       6.718   0.251   0.000  0.00  0.00    +0.000 A 
ATOM      9  C   UNL     1       7.199  -0.412   0.000  0.00  0.00    +0.000 A 
ENDROOT
BRANCH   2  10
ATOM     10  C   UNL     1       3.793   0.412   0.000  0.00  0.00    +0.000 C 
BRANCH  10  12
ATOM     11 CL   UNL     1       2.365   1.238   0.000  0.00  0.00    +0.000 Cl
ATOM     12  C   UNL     1       3.079   0.000   0.000  0.00  0.00    +0.000 A 
ATOM     13  C   UNL     1       2.365   0.412   0.000  0.00  0.00    +0.000 A 
ATOM     14  C   UNL     1       3.079  -0.825   0.000  0.00  0.00    +0.000 A 
ATOM     15  C   UNL     1       1.650   0.000   0.000  0.00  0.00    +0.000 A 
ATOM     16  C   UNL     1       2.365  -1.238   0.000  0.00  0.00    +0.000 A 
ATOM     17  C   UNL     1       1.650  -0.825   0.000  0.00  0.00    +0.000 A 
ENDBRANCH  10  12
ENDBRANCH   2  10
TORSDOF 2
