REMARK  Name = 20A
REMARK  6 active torsions:
REMARK  status: ('A' for Active; 'I' for Inactive)
REMARK    1  A    between atoms: C_2  and  C_11
REMARK    2  A    between atoms: N_3  and  C_4
REMARK    3  A    between atoms: C_4  and  C_5
REMARK    4  A    between atoms: N_15  and  C_16
REMARK    5  A    between atoms: C_21  and  N_22
REMARK    6  A    between atoms: N_22  and  C_23
REMARK                            x       y       z     vdW  Elec       q    Type
REMARK                         _______ _______ _______ _____ _____    ______ ____
ROOT
ATOM      1  C   UNL     1       0.784  -1.133   0.000  0.00  0.00    +0.000 A 
ATOM      2  C   UNL     1       0.784  -1.958   0.000  0.00  0.00    +0.000 A 
ATOM      3  N   UNL     1       0.070  -2.370   0.000  0.00  0.00    +0.000 NA
ATOM      4  C   UNL     1      -0.645  -1.958   0.000  0.00  0.00    +0.000 A 
ATOM      5  N   UNL     1      -1.429  -2.213   0.000  0.00  0.00    +0.000 N 
ATOM      6  N   UNL     1      -1.914  -1.545   0.000  0.00  0.00    +0.000 NA
ATOM      7  C   UNL     1      -0.645  -1.133   0.000  0.00  0.00    +0.000 A 
ATOM      8  C   UNL     1      -1.429  -0.878   0.000  0.00  0.00    +0.000 A 
ATOM      9  C   UNL     1       0.070  -0.720   0.000  0.00  0.00    +0.000 A 
ENDROOT
BRANCH   1  11
ATOM     10  O   UNL     1       2.213  -1.133   0.000  0.00  0.00    +0.000 OA
ATOM     11  C   UNL     1       1.499  -0.720   0.000  0.00  0.00    +0.000 C 
ATOM     12  N   UNL     1       1.499   0.105   0.000  0.00  0.00    +0.000 NA
BRANCH  12  13
ATOM     13  C   UNL     1       2.213   0.517   0.000  0.00  0.00    +0.000 C 
BRANCH  13  14
ATOM     14  C   UNL     1       2.213   1.342   0.000  0.00  0.00    +0.000 A 
ATOM     15  C   UNL     1       2.928   1.755   0.000  0.00  0.00    +0.000 A 
ATOM     16  C   UNL     1       2.928   2.580   0.000  0.00  0.00    +0.000 A 
ATOM     17  C   UNL     1       2.213   2.992   0.000  0.00  0.00    +0.000 A 
ATOM     18  C   UNL     1       1.499   2.580   0.000  0.00  0.00    +0.000 A 
ATOM     19  C   UNL     1       1.499   1.755   0.000  0.00  0.00    +0.000 A 
ENDBRANCH  13  14
ENDBRANCH  12  13
ENDBRANCH   1  11
BRANCH   5  20
ATOM     20  C   UNL     1      -1.684  -2.997   0.000  0.00  0.00    +0.000 C 
ATOM     21  C   UNL     1      -2.491  -3.169   0.000  0.00  0.00    +0.000 C 
ENDBRANCH   5  20
BRANCH   9  22
ATOM     22  N   UNL     1       0.070   0.105   0.000  0.00  0.00    +0.000 NA
BRANCH  22  23
ATOM     23  C   UNL     1      -0.645   0.517   0.000  0.00  0.00    +0.000 C 
ATOM     24  C   UNL     1      -1.359   0.105   0.000  0.00  0.00    +0.000 C 
ATOM     25  C   UNL     1      -2.074   0.517   0.000  0.00  0.00    +0.000 C 
ATOM     26  O   UNL     1      -2.074   1.342   0.000  0.00  0.00    +0.000 OA
ATOM     27  C   UNL     1      -1.359   1.755   0.000  0.00  0.00    +0.000 C 
ATOM     28  C   UNL     1      -0.645   1.342   0.000  0.00  0.00    +0.000 C 
ENDBRANCH  22  23
ENDBRANCH   9  22
TORSDOF 6
