REMARK  Name = 210
REMARK  4 active torsions:
REMARK  status: ('A' for Active; 'I' for Inactive)
REMARK    1  A    between atoms: O_1  and  C_15
REMARK    2  A    between atoms: C_4  and  C_14
REMARK    3  A    between atoms: C_17  and  C_20
REMARK    4  A    between atoms: C_30  and  C_31
REMARK                            x       y       z     vdW  Elec       q    Type
REMARK                         _______ _______ _______ _____ _____    ______ ____
ROOT
ATOM      1  C   UNL     1       3.457  -2.875   0.000  0.00  0.00    +0.000 A 
ATOM      2  C   UNL     1       2.660  -3.088   0.000  0.00  0.00    +0.000 A 
ATOM      3  C   UNL     1       3.671  -2.078   0.000  0.00  0.00    +0.000 A 
ATOM      4  C   UNL     1       3.087  -1.494   0.000  0.00  0.00    +0.000 A 
ATOM      5  C   UNL     1       2.077  -2.505   0.000  0.00  0.00    +0.000 A 
ATOM      6  C   UNL     1       2.291  -1.708   0.000  0.00  0.00    +0.000 A 
ENDROOT
BRANCH   1   7
ATOM      7  C   UNL     1       4.041  -3.458   0.000  0.00  0.00    +0.000 C 
ATOM      8  C   UNL     1       4.160  -3.817   0.000  0.00  0.00    +0.000 C 
ATOM      9  C   UNL     1       5.420  -3.458   0.000  0.00  0.00    +0.000 C 
ATOM     10  C   UNL     1       4.731  -2.263   0.000  0.00  0.00    +0.000 C 
ATOM     11  C   UNL     1       3.350  -3.856   0.000  0.00  0.00    +0.000 C 
ATOM     12  C   UNL     1       4.731  -3.708   0.000  0.00  0.00    +0.000 C 
ATOM     13  C   UNL     1       4.041  -2.662   0.000  0.00  0.00    +0.000 C 
ATOM     14  C   UNL     1       4.908  -4.210   0.000  0.00  0.00    +0.000 C 
ATOM     15  C   UNL     1       4.160  -2.955   0.000  0.00  0.00    +0.000 C 
ATOM     16  C   UNL     1       5.420  -2.662   0.000  0.00  0.00    +0.000 C 
ENDBRANCH   1   7
BRANCH   4  17
ATOM     17  C   UNL     1       3.301  -0.698   0.000  0.00  0.00    +0.000 A 
ATOM     18  C   UNL     1       2.718  -0.114   0.000  0.00  0.00    +0.000 A 
ATOM     19  C   UNL     1       4.098  -0.484   0.000  0.00  0.00    +0.000 A 
ATOM     20  C   UNL     1       2.931   0.683   0.000  0.00  0.00    +0.000 A 
ATOM     21  C   UNL     1       4.311   0.313   0.000  0.00  0.00    +0.000 A 
ATOM     22  C   UNL     1       3.728   0.896   0.000  0.00  0.00    +0.000 A 
ATOM     23  C   UNL     1       2.314   1.281   0.000  0.00  0.00    +0.000 A 
ATOM     24  C   UNL     1       3.963   1.723   0.000  0.00  0.00    +0.000 A 
ATOM     25  C   UNL     1       2.530   2.113   0.000  0.00  0.00    +0.000 A 
ATOM     26  C   UNL     1       3.360   2.335   0.000  0.00  0.00    +0.000 A 
BRANCH  26  29
ATOM     27  O   UNL     1       2.996   3.717   0.000  0.00  0.00    +0.000 OA
ATOM     28  O   UNL     1       4.375   3.342   0.000  0.00  0.00    +0.000 OA
ATOM     29  C   UNL     1       3.577   3.131   0.000  0.00  0.00    +0.000 C 
ENDBRANCH  26  29
ENDBRANCH   4  17
BRANCH   2  30
ATOM     30  O   UNL     1       2.447  -3.885   0.000  0.00  0.00    +0.000 OA
ATOM     31  C   UNL     1       1.650  -4.099   0.000  0.00  0.00    +0.000 C 
ENDBRANCH   2  30
TORSDOF 4
