REMARK  Name = 211
REMARK  6 active torsions:
REMARK  status: ('A' for Active; 'I' for Inactive)
REMARK    1  A    between atoms: C_1  and  C_4
REMARK    2  A    between atoms: C_2  and  O_6
REMARK    3  A    between atoms: C_4  and  C_8
REMARK    4  A    between atoms: C_7  and  O_12
REMARK    5  A    between atoms: C_8  and  N_13
REMARK    6  A    between atoms: C_15  and  C_16
REMARK                            x       y       z     vdW  Elec       q    Type
REMARK                         _______ _______ _______ _____ _____    ______ ____
ROOT
ATOM      1  C   UNL     1      -1.429  -0.027   0.000  0.00  0.00    +0.000 A 
ATOM      2  C   UNL     1      -2.143  -0.439   0.000  0.00  0.00    +0.000 A 
ATOM      3  C   UNL     1      -1.429   0.798   0.000  0.00  0.00    +0.000 A 
ATOM      4  C   UNL     1      -2.858  -0.026   0.000  0.00  0.00    +0.000 A 
ATOM      5  C   UNL     1      -2.143   1.211   0.000  0.00  0.00    +0.000 A 
ATOM      6  C   UNL     1      -2.858   0.798   0.000  0.00  0.00    +0.000 A 
ENDROOT
BRANCH   2   7
ATOM      7  O   UNL     1      -2.143  -1.264   0.000  0.00  0.00    +0.000 OA
ATOM      8  C   UNL     1      -2.858  -1.677   0.000  0.00  0.00    +0.000 C 
ENDBRANCH   2   7
BRANCH   5   9
ATOM      9  O   UNL     1      -2.143   2.036   0.000  0.00  0.00    +0.000 OA
ATOM     10  C   UNL     1      -2.857   2.448   0.000  0.00  0.00    +0.000 C 
ENDBRANCH   5   9
BRANCH   1  11
ATOM     11  C   UNL     1      -0.714  -0.439   0.000  0.00  0.00    +0.000 C 
ATOM     12  O   UNL     1      -0.714  -1.264   0.000  0.00  0.00    +0.000 OA
BRANCH  11  13
ATOM     13  C   UNL     1       0.000  -0.027   0.000  0.00  0.00    +0.000 C 
BRANCH  13  14
ATOM     14  N   UNL     1       0.715  -0.439   0.000  0.00  0.00    +0.000 NA
ATOM     15  C   UNL     1       1.429  -0.027   0.000  0.00  0.00    +0.000 C 
ATOM     16  O   UNL     1       1.429   0.798   0.000  0.00  0.00    +0.000 OA
BRANCH  15  17
ATOM     17  C   UNL     1       2.143  -0.440   0.000  0.00  0.00    +0.000 C 
ATOM     18  N   UNL     1       2.858  -0.027   0.000  0.00  0.00    +0.000 NA
ENDBRANCH  15  17
ENDBRANCH  13  14
ENDBRANCH  11  13
ENDBRANCH   1  11
TORSDOF 6
