REMARK  Name = 213
REMARK  7 active torsions:
REMARK  status: ('A' for Active; 'I' for Inactive)
REMARK    1  A    between atoms: S_1  and  C_12
REMARK    2  A    between atoms: S_1  and  C_14
REMARK    3  A    between atoms: O_4  and  C_18
REMARK    4  A    between atoms: O_5  and  C_19
REMARK    5  A    between atoms: O_5  and  C_25
REMARK    6  A    between atoms: O_7  and  C_21
REMARK    7  A    between atoms: C_14  and  C_15
REMARK                            x       y       z     vdW  Elec       q    Type
REMARK                         _______ _______ _______ _____ _____    ______ ____
ROOT
ATOM      1  S   UNL     1       7.310   0.000   0.000  0.00  0.00    +0.000 S 
ATOM      2  O   UNL     1       7.722   0.715   0.000  0.00  0.00    +0.000 OA
ENDROOT
BRANCH   1   6
ATOM      3  N   UNL     1       6.003   0.664   0.000  0.00  0.00    +0.000 NA
ATOM      4  N   UNL     1       6.003  -0.664   0.000  0.00  0.00    +0.000 NA
ATOM      5  C   UNL     1       5.222   0.412   0.000  0.00  0.00    +0.000 A 
ATOM      6  C   UNL     1       6.485   0.000   0.000  0.00  0.00    +0.000 A 
ATOM      7  C   UNL     1       5.222  -0.412   0.000  0.00  0.00    +0.000 A 
ATOM      8  C   UNL     1       4.508   0.825   0.000  0.00  0.00    +0.000 A 
ATOM      9  C   UNL     1       4.508  -0.825   0.000  0.00  0.00    +0.000 A 
ATOM     10  C   UNL     1       3.793   0.412   0.000  0.00  0.00    +0.000 A 
ATOM     11  C   UNL     1       3.793  -0.412   0.000  0.00  0.00    +0.000 A 
BRANCH  10  12
ATOM     12  O   UNL     1       3.079   0.825   0.000  0.00  0.00    +0.000 OA
BRANCH  12  15
ATOM     13  F   UNL     1       2.365  -0.412   0.000  0.00  0.00    +0.000 F 
ATOM     14  F   UNL     1       1.650   0.825   0.000  0.00  0.00    +0.000 F 
ATOM     15  C   UNL     1       2.365   0.412   0.000  0.00  0.00    +0.000 C 
ENDBRANCH  12  15
ENDBRANCH  10  12
ENDBRANCH   1   6
BRANCH   1  16
ATOM     16  C   UNL     1       7.722  -0.715   0.000  0.00  0.00    +0.000 C 
BRANCH  16  18
ATOM     17  N   UNL     1       8.960  -1.429   0.000  0.00  0.00    +0.000 NA
ATOM     18  C   UNL     1       8.547  -0.715   0.000  0.00  0.00    +0.000 A 
ATOM     19  C   UNL     1       8.960   0.000   0.000  0.00  0.00    +0.000 A 
ATOM     20  C   UNL     1       9.785   0.000   0.000  0.00  0.00    +0.000 A 
ATOM     21  C   UNL     1      10.197  -0.715   0.000  0.00  0.00    +0.000 A 
ATOM     22  C   UNL     1       9.785  -1.429   0.000  0.00  0.00    +0.000 A 
BRANCH  20  23
ATOM     23  O   UNL     1      10.197   0.715   0.000  0.00  0.00    +0.000 OA
ATOM     24  C   UNL     1      11.022   0.715   0.000  0.00  0.00    +0.000 C 
ENDBRANCH  20  23
BRANCH  19  25
ATOM     25  O   UNL     1       8.547   0.715   0.000  0.00  0.00    +0.000 OA
ATOM     26  C   UNL     1       8.960   1.429   0.000  0.00  0.00    +0.000 C 
ENDBRANCH  19  25
ENDBRANCH  16  18
ENDBRANCH   1  16
TORSDOF 7
