REMARK  Name = 214
REMARK  5 active torsions:
REMARK  status: ('A' for Active; 'I' for Inactive)
REMARK    1  A    between atoms: S_1  and  N_7
REMARK    2  A    between atoms: S_1  and  C_10
REMARK    3  A    between atoms: N_5  and  C_9
REMARK    4  A    between atoms: N_6  and  C_11
REMARK    5  A    between atoms: N_6  and  C_12
REMARK                            x       y       z     vdW  Elec       q    Type
REMARK                         _______ _______ _______ _____ _____    ______ ____
ROOT
ATOM      1  N   UNL     1       6.651  -2.475   0.000  0.00  0.00    +0.000 NA
ATOM      2  C   UNL     1       5.936  -1.237   0.000  0.00  0.00    +0.000 A 
ATOM      3  C   UNL     1       5.222  -1.650   0.000  0.00  0.00    +0.000 A 
ATOM      4  C   UNL     1       6.651  -1.650   0.000  0.00  0.00    +0.000 A 
ATOM      5  C   UNL     1       5.222  -2.475   0.000  0.00  0.00    +0.000 A 
ATOM      6  C   UNL     1       5.936  -2.887   0.000  0.00  0.00    +0.000 A 
ENDROOT
BRANCH   2   7
ATOM      7  S   UNL     1       5.936  -0.412   0.000  0.00  0.00    +0.000 S 
ATOM      8  O   UNL     1       5.111  -0.412   0.000  0.00  0.00    +0.000 OA
ATOM      9  O   UNL     1       6.761  -0.412   0.000  0.00  0.00    +0.000 OA
BRANCH   7  12
ATOM     10  O   UNL     1       7.365   0.412   0.000  0.00  0.00    +0.000 OA
ATOM     11  N   UNL     1       6.651   1.650   0.000  0.00  0.00    +0.000 NA
ATOM     12  N   UNL     1       5.936   0.412   0.000  0.00  0.00    +0.000 NA
ATOM     13  C   UNL     1       6.651   0.825   0.000  0.00  0.00    +0.000 C 
BRANCH  11  14
ATOM     14  C   UNL     1       7.365   2.062   0.000  0.00  0.00    +0.000 C 
ATOM     15  C   UNL     1       7.365   2.887   0.000  0.00  0.00    +0.000 C 
ATOM     16  C   UNL     1       8.079   1.650   0.000  0.00  0.00    +0.000 C 
ENDBRANCH  11  14
ENDBRANCH   7  12
ENDBRANCH   2   7
BRANCH   3  17
ATOM     17  N   UNL     1       4.508  -1.237   0.000  0.00  0.00    +0.000 NA
BRANCH  17  18
ATOM     18  C   UNL     1       3.793  -1.650   0.000  0.00  0.00    +0.000 A 
ATOM     19  C   UNL     1       3.079  -1.237   0.000  0.00  0.00    +0.000 A 
ATOM     20  C   UNL     1       2.364  -1.650   0.000  0.00  0.00    +0.000 A 
ATOM     21  C   UNL     1       3.793  -2.475   0.000  0.00  0.00    +0.000 A 
ATOM     22  C   UNL     1       2.364  -2.475   0.000  0.00  0.00    +0.000 A 
ATOM     23  C   UNL     1       3.079  -2.887   0.000  0.00  0.00    +0.000 A 
ATOM     24  C   UNL     1       1.650  -1.237   0.000  0.00  0.00    +0.000 C 
ENDBRANCH  17  18
ENDBRANCH   3  17
TORSDOF 5
