REMARK  Name = 2148
REMARK  3 active torsions:
REMARK  status: ('A' for Active; 'I' for Inactive)
REMARK    1  A    between atoms: N_4  and  C_13
REMARK    2  A    between atoms: C_6  and  C_7
REMARK    3  A    between atoms: C_13  and  C_14
REMARK                            x       y       z     vdW  Elec       q    Type
REMARK                         _______ _______ _______ _____ _____    ______ ____
ROOT
ATOM      1  N   UNL     1       2.365  -2.888   0.000  0.00  0.00    +0.000 NA
ATOM      2  C   UNL     1       2.365  -0.412   0.000  0.00  0.00    +0.000 A 
ATOM      3  C   UNL     1       1.650  -0.825   0.000  0.00  0.00    +0.000 A 
ATOM      4  C   UNL     1       3.079  -0.825   0.000  0.00  0.00    +0.000 A 
ATOM      5  C   UNL     1       2.365  -2.062   0.000  0.00  0.00    +0.000 A 
ATOM      6  C   UNL     1       1.650  -1.650   0.000  0.00  0.00    +0.000 A 
ATOM      7  C   UNL     1       3.079  -1.650   0.000  0.00  0.00    +0.000 A 
ENDROOT
BRANCH   2  10
ATOM      8  O   UNL     1       1.650   0.825   0.000  0.00  0.00    +0.000 OA
ATOM      9  N   UNL     1       3.079   0.825   0.000  0.00  0.00    +0.000 NA
ATOM     10  C   UNL     1       2.365   0.412   0.000  0.00  0.00    +0.000 C 
BRANCH   9  11
ATOM     11  C   UNL     1       3.079   1.650   0.000  0.00  0.00    +0.000 C 
BRANCH  11  14
ATOM     12  O   UNL     1       3.793   2.888   0.000  0.00  0.00    +0.000 OA
ATOM     13  O   UNL     1       4.508   1.650   0.000  0.00  0.00    +0.000 OA
ATOM     14  C   UNL     1       3.793   2.062   0.000  0.00  0.00    +0.000 C 
ENDBRANCH  11  14
ENDBRANCH   9  11
ENDBRANCH   2  10
TORSDOF 3
