REMARK  Name = 215
REMARK  6 active torsions:
REMARK  status: ('A' for Active; 'I' for Inactive)
REMARK    1  A    between atoms: N_3  and  C_12
REMARK    2  A    between atoms: C_5  and  C_6
REMARK    3  A    between atoms: C_5  and  C_10
REMARK    4  A    between atoms: C_6  and  C_9
REMARK    5  A    between atoms: C_9  and  C_12
REMARK    6  A    between atoms: C_18  and  C_24
REMARK                            x       y       z     vdW  Elec       q    Type
REMARK                         _______ _______ _______ _____ _____    ______ ____
ROOT
ATOM      1  O   UNL     1       5.770  -1.064   0.000  0.00  0.00    +0.000 OA
ATOM      2  C   UNL     1       5.289  -0.400   0.000  0.00  0.00    +0.000 C 
ATOM      3  C   UNL     1       4.508  -0.651   0.000  0.00  0.00    +0.000 A 
ATOM      4  C   UNL     1       4.508  -1.476   0.000  0.00  0.00    +0.000 A 
ATOM      5  C   UNL     1       5.289  -1.728   0.000  0.00  0.00    +0.000 C 
ATOM      6  C   UNL     1       3.793  -0.239   0.000  0.00  0.00    +0.000 A 
ATOM      7  C   UNL     1       3.793  -1.889   0.000  0.00  0.00    +0.000 A 
ATOM      8  C   UNL     1       3.079  -0.651   0.000  0.00  0.00    +0.000 A 
ATOM      9  C   UNL     1       3.079  -1.476   0.000  0.00  0.00    +0.000 A 
ENDROOT
BRANCH   2  11
ATOM     10  F   UNL     1       7.962   1.535   0.000  0.00  0.00    +0.000 F 
ATOM     11  C   UNL     1       5.957   0.084   0.000  0.00  0.00    +0.000 A 
ATOM     12  C   UNL     1       5.872   0.905   0.000  0.00  0.00    +0.000 A 
ATOM     13  C   UNL     1       6.710  -0.253   0.000  0.00  0.00    +0.000 A 
ATOM     14  C   UNL     1       6.540   1.388   0.000  0.00  0.00    +0.000 A 
ATOM     15  C   UNL     1       7.378   0.231   0.000  0.00  0.00    +0.000 A 
ATOM     16  C   UNL     1       7.293   1.052   0.000  0.00  0.00    +0.000 A 
ENDBRANCH   2  11
BRANCH   9  18
ATOM     17  N   UNL     1       1.650  -2.301   0.000  0.00  0.00    +0.000 NA
ATOM     18  C   UNL     1       2.365  -1.889   0.000  0.00  0.00    +0.000 C 
ENDBRANCH   9  18
BRANCH   2  19
ATOM     19  C   UNL     1       5.035   0.385   0.000  0.00  0.00    +0.000 C 
BRANCH  19  20
ATOM     20  C   UNL     1       4.228   0.558   0.000  0.00  0.00    +0.000 C 
BRANCH  20  21
ATOM     21  C   UNL     1       3.975   1.343   0.000  0.00  0.00    +0.000 C 
BRANCH  21  22
ATOM     22  N   UNL     1       3.168   1.516   0.000  0.00  0.00    +0.000 NA
ATOM     23  C   UNL     1       2.914   2.301   0.000  0.00  0.00    +0.000 C 
ATOM     24  C   UNL     1       2.615   0.904   0.000  0.00  0.00    +0.000 C 
ENDBRANCH  21  22
ENDBRANCH  20  21
ENDBRANCH  19  20
ENDBRANCH   2  19
TORSDOF 6
