REMARK  Name = 216
REMARK  8 active torsions:
REMARK  status: ('A' for Active; 'I' for Inactive)
REMARK    1  A    between atoms: N_4  and  C_11
REMARK    2  A    between atoms: N_5  and  C_28
REMARK    3  A    between atoms: C_7  and  C_14
REMARK    4  A    between atoms: C_10  and  C_21
REMARK    5  A    between atoms: C_11  and  C_12
REMARK    6  A    between atoms: C_14  and  C_15
REMARK    7  A    between atoms: C_21  and  C_22
REMARK    8  A    between atoms: C_28  and  C_29
REMARK                            x       y       z     vdW  Elec       q    Type
REMARK                         _______ _______ _______ _____ _____    ______ ____
ROOT
ATOM      1  O   UNL     1      -1.251  -1.125   0.000  0.00  0.00    +0.000 OA
ATOM      2  O   UNL     1       1.610   0.826   0.000  0.00  0.00    +0.000 OA
ATOM      3  O   UNL     1       0.480   1.873   0.000  0.00  0.00    +0.000 OA
ATOM      4  N   UNL     1       0.099  -0.763   0.000  0.00  0.00    +0.000 N 
ATOM      5  N   UNL     1      -0.991   0.248   0.000  0.00  0.00    +0.000 N 
ATOM      6  C   UNL     1      -0.690  -0.520   0.000  0.00  0.00    +0.000 C 
ATOM      7  C   UNL     1       0.780  -0.299   0.000  0.00  0.00    +0.000 C 
ATOM      8  C   UNL     1       0.842   0.524   0.000  0.00  0.00    +0.000 C 
ATOM      9  C   UNL     1       0.237   1.085   0.000  0.00  0.00    +0.000 C 
ATOM     10  C   UNL     1      -0.579   0.962   0.000  0.00  0.00    +0.000 C 
ENDROOT
BRANCH   4  11
ATOM     11  C   UNL     1       0.222  -1.579   0.000  0.00  0.00    +0.000 C 
BRANCH  11  12
ATOM     12  C   UNL     1      -0.423  -2.094   0.000  0.00  0.00    +0.000 C 
ATOM     13  C   UNL     1      -1.191  -1.792   0.000  0.00  0.00    +0.000 C 
ENDBRANCH  11  12
ENDBRANCH   4  11
BRANCH   7  14
ATOM     14  C   UNL     1       1.495  -0.711   0.000  0.00  0.00    +0.000 C 
BRANCH  14  15
ATOM     15  C   UNL     1       1.495  -1.536   0.000  0.00  0.00    +0.000 A 
ATOM     16  C   UNL     1       2.209  -1.949   0.000  0.00  0.00    +0.000 A 
ATOM     17  C   UNL     1       2.209  -2.774   0.000  0.00  0.00    +0.000 A 
ATOM     18  C   UNL     1       1.495  -3.186   0.000  0.00  0.00    +0.000 A 
ATOM     19  C   UNL     1       0.780  -2.774   0.000  0.00  0.00    +0.000 A 
ATOM     20  C   UNL     1       0.780  -1.949   0.000  0.00  0.00    +0.000 A 
ENDBRANCH  14  15
ENDBRANCH   7  14
BRANCH   5  21
ATOM     21  C   UNL     1      -1.814   0.309   0.000  0.00  0.00    +0.000 C 
BRANCH  21  22
ATOM     22  C   UNL     1      -2.279  -0.372   0.000  0.00  0.00    +0.000 C 
ATOM     23  C   UNL     1      -1.921  -1.115   0.000  0.00  0.00    +0.000 C 
ENDBRANCH  21  22
ENDBRANCH   5  21
BRANCH  10  24
ATOM     24  C   UNL     1      -1.043   1.644   0.000  0.00  0.00    +0.000 C 
BRANCH  24  25
ATOM     25  C   UNL     1      -0.685   2.387   0.000  0.00  0.00    +0.000 A 
ATOM     26  C   UNL     1      -1.150   3.069   0.000  0.00  0.00    +0.000 A 
ATOM     27  C   UNL     1      -0.792   3.812   0.000  0.00  0.00    +0.000 A 
ATOM     28  C   UNL     1       0.030   3.874   0.000  0.00  0.00    +0.000 A 
ATOM     29  C   UNL     1       0.495   3.192   0.000  0.00  0.00    +0.000 A 
ATOM     30  C   UNL     1       0.137   2.449   0.000  0.00  0.00    +0.000 A 
ENDBRANCH  24  25
ENDBRANCH  10  24
TORSDOF 8
