REMARK  Name = 216235
REMARK  6 active torsions:
REMARK  status: ('A' for Active; 'I' for Inactive)
REMARK    1  A    between atoms: S_2  and  N_10
REMARK    2  A    between atoms: S_2  and  C_15
REMARK    3  A    between atoms: N_10  and  C_26
REMARK    4  A    between atoms: C_12  and  C_13
REMARK    5  A    between atoms: C_13  and  C_18
REMARK    6  A    between atoms: C_16  and  C_18
REMARK                            x       y       z     vdW  Elec       q    Type
REMARK                         _______ _______ _______ _____ _____    ______ ____
ROOT
ATOM      1  S   UNL     1       5.010   2.153   0.000  0.00  0.00    +0.000 S 
ATOM      2  C   UNL     1       4.343   0.997   0.000  0.00  0.00    +0.000 A 
ATOM      3  C   UNL     1       5.096   1.332   0.000  0.00  0.00    +0.000 A 
ATOM      4  C   UNL     1       3.791   1.610   0.000  0.00  0.00    +0.000 A 
ATOM      5  C   UNL     1       4.203   2.324   0.000  0.00  0.00    +0.000 A 
ENDROOT
BRANCH   2   6
ATOM      6  S   UNL     1       4.171   0.190   0.000  0.00  0.00    +0.000 S 
ATOM      7  O   UNL     1       3.364   0.361   0.000  0.00  0.00    +0.000 OA
ATOM      8  O   UNL     1       4.978   0.018   0.000  0.00  0.00    +0.000 OA
BRANCH   6   9
ATOM      9  N   UNL     1       4.000  -0.617   0.000  0.00  0.00    +0.000 NA
BRANCH   9  13
ATOM     10 CL   UNL     1       3.445  -2.324   0.000  0.00  0.00    +0.000 Cl
ATOM     11  O   UNL     1       2.547  -0.387   0.000  0.00  0.00    +0.000 OA
ATOM     12  N   UNL     1       1.880  -0.872   0.000  0.00  0.00    +0.000 NA
ATOM     13  C   UNL     1       3.215  -0.872   0.000  0.00  0.00    +0.000 A 
ATOM     14  C   UNL     1       2.960  -1.657   0.000  0.00  0.00    +0.000 A 
ATOM     15  C   UNL     1       2.135  -1.657   0.000  0.00  0.00    +0.000 A 
ATOM     16  C   UNL     1       1.650  -2.324   0.000  0.00  0.00    +0.000 C 
ENDBRANCH   9  13
ENDBRANCH   6   9
ENDBRANCH   2   6
BRANCH   3  18
ATOM     17  O   UNL     1       6.525   1.332   0.000  0.00  0.00    +0.000 OA
ATOM     18  C   UNL     1       5.811   0.920   0.000  0.00  0.00    +0.000 C 
BRANCH  18  19
ATOM     19  C   UNL     1       5.811   0.095   0.000  0.00  0.00    +0.000 C 
BRANCH  19  22
ATOM     20  O   UNL     1       8.735  -0.066   0.000  0.00  0.00    +0.000 OA
ATOM     21  O   UNL     1       8.735  -1.394   0.000  0.00  0.00    +0.000 OA
ATOM     22  C   UNL     1       6.525  -0.318   0.000  0.00  0.00    +0.000 A 
ATOM     23  C   UNL     1       6.525  -1.143   0.000  0.00  0.00    +0.000 A 
ATOM     24  C   UNL     1       7.240   0.095   0.000  0.00  0.00    +0.000 A 
ATOM     25  C   UNL     1       7.954  -0.318   0.000  0.00  0.00    +0.000 A 
ATOM     26  C   UNL     1       7.954  -1.143   0.000  0.00  0.00    +0.000 A 
ATOM     27  C   UNL     1       7.240  -1.555   0.000  0.00  0.00    +0.000 A 
ATOM     28  C   UNL     1       5.811  -1.555   0.000  0.00  0.00    +0.000 C 
ATOM     29  C   UNL     1       9.216  -0.730   0.000  0.00  0.00    +0.000 C 
ENDBRANCH  19  22
ENDBRANCH  18  19
ENDBRANCH   3  18
TORSDOF 6
