REMARK  Name = 218
REMARK  4 active torsions:
REMARK  status: ('A' for Active; 'I' for Inactive)
REMARK    1  A    between atoms: O_2  and  C_21
REMARK    2  A    between atoms: N_6  and  C_19
REMARK    3  A    between atoms: N_8  and  C_14
REMARK    4  A    between atoms: C_26  and  C_28
REMARK                            x       y       z     vdW  Elec       q    Type
REMARK                         _______ _______ _______ _____ _____    ______ ____
ROOT
ATOM      1  F   UNL     1       4.187   1.471   0.000  0.00  0.00    +0.000 F 
ATOM      2  O   UNL     1       7.058   2.325   0.000  0.00  0.00    +0.000 OA
ATOM      3  N   UNL     1       7.068  -0.207   0.000  0.00  0.00    +0.000 N 
ATOM      4  C   UNL     1       4.901   0.234   0.000  0.00  0.00    +0.000 A 
ATOM      5  C   UNL     1       6.330   0.234   0.000  0.00  0.00    +0.000 A 
ATOM      6  C   UNL     1       5.616  -0.179   0.000  0.00  0.00    +0.000 A 
ATOM      7  C   UNL     1       6.330   1.059   0.000  0.00  0.00    +0.000 A 
ATOM      8  C   UNL     1       4.901   1.059   0.000  0.00  0.00    +0.000 A 
ATOM      9  C   UNL     1       7.815   0.216   0.000  0.00  0.00    +0.000 A 
ATOM     10  C   UNL     1       5.616   1.471   0.000  0.00  0.00    +0.000 A 
ATOM     11  C   UNL     1       7.815   1.076   0.000  0.00  0.00    +0.000 A 
ATOM     12  C   UNL     1       7.068   1.500   0.000  0.00  0.00    +0.000 A 
ENDROOT
BRANCH   4  13
ATOM     13  N   UNL     1       4.187  -0.179   0.000  0.00  0.00    +0.000 N 
ATOM     14  N   UNL     1       2.888  -1.882   0.000  0.00  0.00    +0.000 NA
ATOM     15  C   UNL     1       2.888  -0.453   0.000  0.00  0.00    +0.000 C 
ATOM     16  C   UNL     1       3.300  -1.167   0.000  0.00  0.00    +0.000 C 
ATOM     17  C   UNL     1       3.438   0.155   0.000  0.00  0.00    +0.000 C 
ATOM     18  C   UNL     1       4.102  -0.995   0.000  0.00  0.00    +0.000 C 
ATOM     19  C   UNL     1       2.062  -0.453   0.000  0.00  0.00    +0.000 C 
ATOM     20  C   UNL     1       1.650  -1.167   0.000  0.00  0.00    +0.000 C 
ATOM     21  C   UNL     1       2.062  -1.882   0.000  0.00  0.00    +0.000 C 
ENDBRANCH   4  13
BRANCH  11  24
ATOM     22  O   UNL     1       9.244   1.081   0.000  0.00  0.00    +0.000 OA
ATOM     23  O   UNL     1       8.525   2.316   0.000  0.00  0.00    +0.000 OA
ATOM     24  C   UNL     1       8.528   1.491   0.000  0.00  0.00    +0.000 C 
ENDBRANCH  11  24
BRANCH   3  25
ATOM     25  C   UNL     1       7.058  -1.032   0.000  0.00  0.00    +0.000 C 
ATOM     26  C   UNL     1       6.638  -1.742   0.000  0.00  0.00    +0.000 C 
ATOM     27  C   UNL     1       7.463  -1.752   0.000  0.00  0.00    +0.000 C 
ENDBRANCH   3  25
BRANCH   6  28
ATOM     28  O   UNL     1       5.616  -1.004   0.000  0.00  0.00    +0.000 OA
ATOM     29  C   UNL     1       4.901  -1.417   0.000  0.00  0.00    +0.000 C 
ENDBRANCH   6  28
TORSDOF 4
