REMARK  Name = 219
REMARK  6 active torsions:
REMARK  status: ('A' for Active; 'I' for Inactive)
REMARK    1  A    between atoms: C_4  and  C_7
REMARK    2  A    between atoms: C_5  and  O_8
REMARK    3  A    between atoms: O_8  and  P_9
REMARK    4  A    between atoms: P_9  and  O_10
REMARK    5  A    between atoms: O_10  and  C_12
REMARK    6  A    between atoms: C_12  and  C_15
REMARK                            x       y       z     vdW  Elec       q    Type
REMARK                         _______ _______ _______ _____ _____    ______ ____
ROOT
ATOM      1  P   UNL     1      -0.173   0.360   0.000  0.00  0.00    +0.000 P 
ATOM      2  O   UNL     1      -0.586  -0.354   0.000  0.00  0.00    +0.000 OA
ATOM      3  O   UNL     1       0.239   1.075   0.000  0.00  0.00    +0.000 OA
ENDROOT
BRANCH   1   4
ATOM      4  O   UNL     1      -0.888   0.772   0.000  0.00  0.00    +0.000 OA
BRANCH   4   9
ATOM      5  C   UNL     1      -2.317  -0.877   0.000  0.00  0.00    +0.000 A 
ATOM      6  C   UNL     1      -3.031  -0.465   0.000  0.00  0.00    +0.000 A 
ATOM      7  C   UNL     1      -3.031   0.360   0.000  0.00  0.00    +0.000 A 
ATOM      8  C   UNL     1      -2.317   0.772   0.000  0.00  0.00    +0.000 A 
ATOM      9  C   UNL     1      -1.602   0.360   0.000  0.00  0.00    +0.000 A 
ATOM     10  C   UNL     1      -1.602  -0.465   0.000  0.00  0.00    +0.000 A 
BRANCH   8  11
ATOM     11  C   UNL     1      -2.317   1.597   0.000  0.00  0.00    +0.000 C 
ATOM     12  O   UNL     1      -1.602   2.010   0.000  0.00  0.00    +0.000 OA
ENDBRANCH   8  11
ENDBRANCH   4   9
ENDBRANCH   1   4
BRANCH   1  13
ATOM     13  O   UNL     1       0.541  -0.052   0.000  0.00  0.00    +0.000 OA
BRANCH  13  14
ATOM     14  C   UNL     1       1.256   0.360   0.000  0.00  0.00    +0.000 C 
BRANCH  14  15
ATOM     15  C   UNL     1       1.970  -0.052   0.000  0.00  0.00    +0.000 C 
ATOM     16  C   UNL     1       2.684   0.360   0.000  0.00  0.00    +0.000 C 
ATOM     17  C   UNL     1       3.399  -0.052   0.000  0.00  0.00    +0.000 C 
ATOM     18  C   UNL     1       3.399  -0.877   0.000  0.00  0.00    +0.000 C 
ATOM     19  C   UNL     1       2.684  -1.290   0.000  0.00  0.00    +0.000 C 
ATOM     20  C   UNL     1       1.970  -0.877   0.000  0.00  0.00    +0.000 C 
ENDBRANCH  14  15
ENDBRANCH  13  14
ENDBRANCH   1  13
TORSDOF 6
