REMARK  Name = 219
REMARK  9 active torsions:
REMARK  status: ('A' for Active; 'I' for Inactive)
REMARK    1  A    between atoms: O_2  and  C_14
REMARK    2  A    between atoms: O_2  and  C_17
REMARK    3  A    between atoms: N_4  and  C_13
REMARK    4  A    between atoms: N_4  and  C_15
REMARK    5  A    between atoms: N_4  and  C_16
REMARK    6  A    between atoms: C_5  and  C_8
REMARK    7  A    between atoms: C_8  and  C_12
REMARK    8  A    between atoms: C_8  and  C_14
REMARK    9  A    between atoms: C_13  and  C_17
REMARK                            x       y       z     vdW  Elec       q    Type
REMARK                         _______ _______ _______ _____ _____    ______ ____
ROOT
ATOM      1  O   UNL     1       1.906   0.096   0.000  0.00  0.00    +0.000 OA
ATOM      2  C   UNL     1       2.731   0.096   0.000  0.00  0.00    +0.000 C 
ENDROOT
BRANCH   2   3
ATOM      3  C   UNL     1       2.731  -0.729   0.000  0.00  0.00    +0.000 A 
ATOM      4  C   UNL     1       3.445  -1.142   0.000  0.00  0.00    +0.000 A 
ATOM      5  C   UNL     1       2.016  -1.142   0.000  0.00  0.00    +0.000 A 
ATOM      6  C   UNL     1       3.445  -1.967   0.000  0.00  0.00    +0.000 A 
ATOM      7  C   UNL     1       2.016  -1.967   0.000  0.00  0.00    +0.000 A 
ATOM      8  C   UNL     1       2.731  -2.379   0.000  0.00  0.00    +0.000 A 
ENDBRANCH   2   3
BRANCH   2   9
ATOM      9  C   UNL     1       2.731   0.921   0.000  0.00  0.00    +0.000 C 
ATOM     10  C   UNL     1       2.016   1.333   0.000  0.00  0.00    +0.000 C 
ATOM     11  C   UNL     1       3.445   1.333   0.000  0.00  0.00    +0.000 C 
ATOM     12  C   UNL     1       2.016   2.158   0.000  0.00  0.00    +0.000 C 
ATOM     13  C   UNL     1       3.445   2.158   0.000  0.00  0.00    +0.000 C 
ATOM     14  C   UNL     1       2.731   2.571   0.000  0.00  0.00    +0.000 C 
ENDBRANCH   2   9
BRANCH   2  16
ATOM     15  O   UNL     1       3.968   0.810   0.000  0.00  0.00    +0.000 OA
ATOM     16  C   UNL     1       3.556   0.096   0.000  0.00  0.00    +0.000 C 
BRANCH  16  17
ATOM     17  O   UNL     1       3.968  -0.619   0.000  0.00  0.00    +0.000 OA
BRANCH  17  18
ATOM     18  C   UNL     1       4.793  -0.619   0.000  0.00  0.00    +0.000 C 
BRANCH  18  19
ATOM     19  C   UNL     1       5.206  -1.333   0.000  0.00  0.00    +0.000 C 
BRANCH  19  20
ATOM     20  N   UNL     1       6.031  -1.333   0.000  0.00  0.00    +0.000 N 
ATOM     21  C   UNL     1       6.031  -0.508   0.000  0.00  0.00    +0.000 C 
BRANCH  20  22
ATOM     22  C   UNL     1       6.856  -1.333   0.000  0.00  0.00    +0.000 C 
ATOM     23  C   UNL     1       7.268  -2.048   0.000  0.00  0.00    +0.000 C 
ENDBRANCH  20  22
BRANCH  20  24
ATOM     24  C   UNL     1       6.031  -2.158   0.000  0.00  0.00    +0.000 C 
ATOM     25  C   UNL     1       5.316  -2.571   0.000  0.00  0.00    +0.000 C 
ENDBRANCH  20  24
ENDBRANCH  19  20
ENDBRANCH  18  19
ENDBRANCH  17  18
ENDBRANCH  16  17
ENDBRANCH   2  16
TORSDOF 9
