REMARK  Name = 21U
REMARK  6 active torsions:
REMARK  status: ('A' for Active; 'I' for Inactive)
REMARK    1  A    between atoms: C_1  and  C_3
REMARK    2  A    between atoms: C_1  and  C_21
REMARK    3  A    between atoms: C_3  and  C_4
REMARK    4  A    between atoms: C_10  and  C_11
REMARK    5  A    between atoms: N_12  and  C_13
REMARK    6  A    between atoms: C_13  and  C_14
REMARK                            x       y       z     vdW  Elec       q    Type
REMARK                         _______ _______ _______ _____ _____    ______ ____
ROOT
ATOM      1  C   UNL     1       1.609  -0.338   0.000  0.00  0.00    +0.000 C 
ATOM      2  O   UNL     1       1.609   0.487   0.000  0.00  0.00    +0.000 OA
ATOM      3  N   UNL     1       0.894  -0.751   0.000  0.00  0.00    +0.000 N 
ATOM      4  C   UNL     1       0.808  -1.571   0.000  0.00  0.00    +0.000 C 
ATOM      5  C   UNL     1       0.001  -1.743   0.000  0.00  0.00    +0.000 C 
ATOM      6  C   UNL     1      -0.412  -1.028   0.000  0.00  0.00    +0.000 C 
ATOM      7  C   UNL     1       0.140  -0.415   0.000  0.00  0.00    +0.000 C 
ENDROOT
BRANCH   7   8
ATOM      8  C   UNL     1      -0.031   0.392   0.000  0.00  0.00    +0.000 C 
ATOM      9  N   UNL     1      -0.816   0.647   0.000  0.00  0.00    +0.000 NA
ATOM     10  O   UNL     1       0.582   0.944   0.000  0.00  0.00    +0.000 OA
BRANCH   9  11
ATOM     11  C   UNL     1      -0.987   1.454   0.000  0.00  0.00    +0.000 C 
BRANCH  11  12
ATOM     12  C   UNL     1      -1.772   1.709   0.000  0.00  0.00    +0.000 A 
ATOM     13  C   UNL     1      -2.385   1.157   0.000  0.00  0.00    +0.000 A 
ATOM     14  C   UNL     1      -3.170   1.411   0.000  0.00  0.00    +0.000 A 
ATOM     15  C   UNL     1      -3.341   2.219   0.000  0.00  0.00    +0.000 A 
ATOM     16  C   UNL     1      -2.728   2.771   0.000  0.00  0.00    +0.000 A 
ATOM     17  C   UNL     1      -1.943   2.516   0.000  0.00  0.00    +0.000 A 
ATOM     18 CL   UNL     1      -3.783   0.860   0.000  0.00  0.00    +0.000 Cl
ENDBRANCH  11  12
ENDBRANCH   9  11
ENDBRANCH   7   8
BRANCH   1  20
ATOM     19  N   UNL     1       2.323  -1.576   0.000  0.00  0.00    +0.000 NA
ATOM     20  C   UNL     1       2.323  -0.751   0.000  0.00  0.00    +0.000 C 
BRANCH  20  21
ATOM     21  C   UNL     1       3.038  -0.338   0.000  0.00  0.00    +0.000 C 
BRANCH  21  22
ATOM     22  C   UNL     1       3.752  -0.751   0.000  0.00  0.00    +0.000 C 
ATOM     23  C   UNL     1       4.466  -0.338   0.000  0.00  0.00    +0.000 C 
ATOM     24  C   UNL     1       3.752  -1.576   0.000  0.00  0.00    +0.000 C 
ENDBRANCH  21  22
ENDBRANCH  20  21
ENDBRANCH   1  20
TORSDOF 6
