REMARK  Name = 220
REMARK  10 active torsions:
REMARK  status: ('A' for Active; 'I' for Inactive)
REMARK    1  A    between atoms: S_1  and  C_23
REMARK    2  A    between atoms: S_1  and  C_29
REMARK    3  A    between atoms: N_6  and  C_18
REMARK    4  A    between atoms: N_7  and  C_22
REMARK    5  A    between atoms: N_8  and  C_21
REMARK    6  A    between atoms: C_15  and  C_19
REMARK    7  A    between atoms: C_18  and  C_20
REMARK    8  A    between atoms: C_20  and  C_21
REMARK    9  A    between atoms: C_21  and  C_23
REMARK   10  A    between atoms: C_27  and  C_28
REMARK                            x       y       z     vdW  Elec       q    Type
REMARK                         _______ _______ _______ _____ _____    ______ ____
ROOT
ATOM      1  O   UNL     1       6.652   0.308   0.000  0.00  0.00    +0.000 OA
ATOM      2  C   UNL     1       5.937  -0.105   0.000  0.00  0.00    +0.000 C 
ENDROOT
BRANCH   2   3
ATOM      3  C   UNL     1       5.222   0.308   0.000  0.00  0.00    +0.000 C 
BRANCH   3   5
ATOM      4  O   UNL     1       3.793   1.133   0.000  0.00  0.00    +0.000 OA
ATOM      5  N   UNL     1       5.222   1.133   0.000  0.00  0.00    +0.000 NA
ATOM      6  C   UNL     1       4.508   1.545   0.000  0.00  0.00    +0.000 C 
BRANCH   6   8
ATOM      7  O   UNL     1       5.937   4.020   0.000  0.00  0.00    +0.000 OA
ATOM      8  C   UNL     1       4.508   2.370   0.000  0.00  0.00    +0.000 A 
ATOM      9  C   UNL     1       5.222   2.783   0.000  0.00  0.00    +0.000 A 
ATOM     10  C   UNL     1       3.793   2.783   0.000  0.00  0.00    +0.000 A 
ATOM     11  C   UNL     1       5.222   3.608   0.000  0.00  0.00    +0.000 A 
ATOM     12  C   UNL     1       5.937   2.370   0.000  0.00  0.00    +0.000 C 
ATOM     13  C   UNL     1       3.793   3.608   0.000  0.00  0.00    +0.000 A 
ATOM     14  C   UNL     1       4.508   4.020   0.000  0.00  0.00    +0.000 A 
ENDBRANCH   6   8
ENDBRANCH   3   5
BRANCH   3  15
ATOM     15  C   UNL     1       4.508  -0.105   0.000  0.00  0.00    +0.000 C 
BRANCH  15  16
ATOM     16  S   UNL     1       3.793   0.308   0.000  0.00  0.00    +0.000 S 
BRANCH  16  17
ATOM     17  C   UNL     1       3.079  -0.105   0.000  0.00  0.00    +0.000 A 
ATOM     18  C   UNL     1       3.079  -0.930   0.000  0.00  0.00    +0.000 A 
ATOM     19  C   UNL     1       2.365   0.308   0.000  0.00  0.00    +0.000 A 
ATOM     20  C   UNL     1       2.365  -1.342   0.000  0.00  0.00    +0.000 A 
ATOM     21  C   UNL     1       1.650  -0.105   0.000  0.00  0.00    +0.000 A 
ATOM     22  C   UNL     1       1.650  -0.930   0.000  0.00  0.00    +0.000 A 
ENDBRANCH  16  17
ENDBRANCH  15  16
ENDBRANCH   3  15
ENDBRANCH   2   3
BRANCH   2  23
ATOM     23  C   UNL     1       5.937  -0.930   0.000  0.00  0.00    +0.000 C 
BRANCH  23  24
ATOM     24  N   UNL     1       6.652  -1.342   0.000  0.00  0.00    +0.000 NA
ATOM     25  C   UNL     1       8.080  -2.167   0.000  0.00  0.00    +0.000 C 
ATOM     26  C   UNL     1       8.080  -1.342   0.000  0.00  0.00    +0.000 C 
ATOM     27  C   UNL     1       7.366  -2.580   0.000  0.00  0.00    +0.000 C 
ATOM     28  C   UNL     1       7.366  -0.930   0.000  0.00  0.00    +0.000 C 
ATOM     29  C   UNL     1       8.818  -2.608   0.000  0.00  0.00    +0.000 C 
ATOM     30  C   UNL     1       8.818  -0.901   0.000  0.00  0.00    +0.000 C 
ATOM     31  C   UNL     1       6.652  -2.167   0.000  0.00  0.00    +0.000 C 
ATOM     32  C   UNL     1       9.565  -2.184   0.000  0.00  0.00    +0.000 C 
ATOM     33  C   UNL     1       9.565  -1.325   0.000  0.00  0.00    +0.000 C 
BRANCH  31  36
ATOM     34  O   UNL     1       5.222  -2.167   0.000  0.00  0.00    +0.000 OA
ATOM     35  N   UNL     1       5.937  -3.405   0.000  0.00  0.00    +0.000 NA
ATOM     36  C   UNL     1       5.937  -2.580   0.000  0.00  0.00    +0.000 C 
BRANCH  35  37
ATOM     37  C   UNL     1       5.222  -3.817   0.000  0.00  0.00    +0.000 C 
ATOM     38  C   UNL     1       4.810  -3.103   0.000  0.00  0.00    +0.000 C 
ATOM     39  C   UNL     1       4.508  -4.230   0.000  0.00  0.00    +0.000 C 
ATOM     40  C   UNL     1       5.635  -4.532   0.000  0.00  0.00    +0.000 C 
ENDBRANCH  35  37
ENDBRANCH  31  36
ENDBRANCH  23  24
ENDBRANCH   2  23
TORSDOF 10
