REMARK  Name = 2200
REMARK  5 active torsions:
REMARK  status: ('A' for Active; 'I' for Inactive)
REMARK    1  A    between atoms: N_1  and  C_4
REMARK    2  A    between atoms: N_1  and  C_6
REMARK    3  A    between atoms: N_1  and  C_8
REMARK    4  A    between atoms: C_4  and  C_5
REMARK    5  A    between atoms: C_6  and  C_10
REMARK                            x       y       z     vdW  Elec       q    Type
REMARK                         _______ _______ _______ _____ _____    ______ ____
ROOT
ATOM      1  N   UNL     1       4.508  -0.016   0.000  0.00  0.00    +0.000 N 
ENDROOT
BRANCH   1   2
ATOM      2  C   UNL     1       4.508  -0.841   0.000  0.00  0.00    +0.000 A 
ATOM      3  C   UNL     1       5.222  -1.254   0.000  0.00  0.00    +0.000 A 
ATOM      4  C   UNL     1       3.793  -1.254   0.000  0.00  0.00    +0.000 A 
ATOM      5  C   UNL     1       5.222  -2.079   0.000  0.00  0.00    +0.000 A 
ATOM      6  C   UNL     1       3.793  -2.079   0.000  0.00  0.00    +0.000 A 
ATOM      7  C   UNL     1       4.508  -2.491   0.000  0.00  0.00    +0.000 A 
ENDBRANCH   1   2
BRANCH   1   8
ATOM      8  C   UNL     1       5.222   0.397   0.000  0.00  0.00    +0.000 C 
BRANCH   8  11
ATOM      9  N   UNL     1       4.555   1.706   0.000  0.00  0.00    +0.000 NA
ATOM     10  N   UNL     1       5.890   1.706   0.000  0.00  0.00    +0.000 NA
ATOM     11  C   UNL     1       5.222   1.222   0.000  0.00  0.00    +0.000 C 
ATOM     12  C   UNL     1       4.810   2.491   0.000  0.00  0.00    +0.000 C 
ATOM     13  C   UNL     1       5.635   2.491   0.000  0.00  0.00    +0.000 C 
ENDBRANCH   8  11
ENDBRANCH   1   8
BRANCH   1  14
ATOM     14  C   UNL     1       3.793   0.397   0.000  0.00  0.00    +0.000 C 
BRANCH  14  15
ATOM     15  C   UNL     1       3.079  -0.016   0.000  0.00  0.00    +0.000 A 
ATOM     16  C   UNL     1       3.079  -0.841   0.000  0.00  0.00    +0.000 A 
ATOM     17  C   UNL     1       2.365   0.397   0.000  0.00  0.00    +0.000 A 
ATOM     18  C   UNL     1       2.365  -1.254   0.000  0.00  0.00    +0.000 A 
ATOM     19  C   UNL     1       1.650  -0.016   0.000  0.00  0.00    +0.000 A 
ATOM     20  C   UNL     1       1.650  -0.841   0.000  0.00  0.00    +0.000 A 
ENDBRANCH  14  15
ENDBRANCH   1  14
TORSDOF 5
