REMARK  Name = 224
REMARK  5 active torsions:
REMARK  status: ('A' for Active; 'I' for Inactive)
REMARK    1  A    between atoms: N_2  and  C_6
REMARK    2  A    between atoms: C_6  and  C_7
REMARK    3  A    between atoms: C_7  and  C_12
REMARK    4  A    between atoms: C_12  and  C_13
REMARK    5  A    between atoms: C_13  and  C_14
REMARK                            x       y       z     vdW  Elec       q    Type
REMARK                         _______ _______ _______ _____ _____    ______ ____
ROOT
ATOM      1  C   UNL     1       1.934  -0.382   0.000  0.00  0.00    +0.000 C 
ATOM      2  O   UNL     1       2.719  -0.637   0.000  0.00  0.00    +0.000 OA
ATOM      3  O   UNL     1       1.934   0.443   0.000  0.00  0.00    +0.000 OA
ATOM      4  C   UNL     1       2.719   0.698   0.000  0.00  0.00    +0.000 C 
ATOM      5  C   UNL     1       3.204   0.030   0.000  0.00  0.00    +0.000 C 
ENDROOT
BRANCH   1   6
ATOM      6  C   UNL     1       1.762  -1.189   0.000  0.00  0.00    +0.000 C 
BRANCH   6   8
ATOM      7  C   UNL     1       0.310  -0.959   0.000  0.00  0.00    +0.000 A 
ATOM      8  N   UNL     1       0.978  -1.444   0.000  0.00  0.00    +0.000 N 
ATOM      9  C   UNL     1      -0.357  -1.444   0.000  0.00  0.00    +0.000 A 
ATOM     10  N   UNL     1      -0.102  -2.229   0.000  0.00  0.00    +0.000 NA
ATOM     11  C   UNL     1       0.723  -2.229   0.000  0.00  0.00    +0.000 A 
ENDBRANCH   6   8
ENDBRANCH   1   6
BRANCH   1  12
ATOM     12  C   UNL     1       1.113  -0.296   0.000  0.00  0.00    +0.000 C 
BRANCH  12  13
ATOM     13  C   UNL     1       0.778   0.458   0.000  0.00  0.00    +0.000 C 
BRANCH  13  14
ATOM     14  C   UNL     1      -0.043   0.544   0.000  0.00  0.00    +0.000 A 
ATOM     15  C   UNL     1      -0.527  -0.123   0.000  0.00  0.00    +0.000 A 
ATOM     16  C   UNL     1      -0.378   1.298   0.000  0.00  0.00    +0.000 A 
ATOM     17  C   UNL     1      -1.199   1.384   0.000  0.00  0.00    +0.000 A 
ATOM     18  C   UNL     1      -1.348  -0.037   0.000  0.00  0.00    +0.000 A 
ATOM     19  C   UNL     1      -1.683   0.716   0.000  0.00  0.00    +0.000 A 
ATOM     20 CL   UNL     1      -2.504   0.803   0.000  0.00  0.00    +0.000 Cl
ENDBRANCH  13  14
ENDBRANCH  12  13
ENDBRANCH   1  12
TORSDOF 5
