REMARK  Name = 224
REMARK  12 active torsions:
REMARK  status: ('A' for Active; 'I' for Inactive)
REMARK    1  A    between atoms: N_5  and  C_13
REMARK    2  A    between atoms: N_6  and  C_21
REMARK    3  A    between atoms: N_7  and  C_18
REMARK    4  A    between atoms: N_8  and  C_27
REMARK    5  A    between atoms: C_10  and  C_19
REMARK    6  A    between atoms: C_13  and  C_15
REMARK    7  A    between atoms: C_15  and  C_16
REMARK    8  A    between atoms: C_16  and  C_17
REMARK    9  A    between atoms: C_17  and  C_24
REMARK   10  A    between atoms: C_17  and  C_25
REMARK   11  A    between atoms: C_21  and  C_28
REMARK   12  A    between atoms: C_25  and  C_30
REMARK                            x       y       z     vdW  Elec       q    Type
REMARK                         _______ _______ _______ _____ _____    ______ ____
ROOT
ATOM      1  O   UNL     1       6.282  -0.170   0.000  0.00  0.00    +0.000 OA
ATOM      2  C   UNL     1       6.538   0.614   0.000  0.00  0.00    +0.000 C 
ENDROOT
BRANCH   2   3
ATOM      3  C   UNL     1       5.987   1.228   0.000  0.00  0.00    +0.000 C 
BRANCH   3   4
ATOM      4  C   UNL     1       5.180   1.058   0.000  0.00  0.00    +0.000 C 
BRANCH   4   7
ATOM      5  O   UNL     1       5.474  -0.340   0.000  0.00  0.00    +0.000 OA
ATOM      6  N   UNL     1       4.116   0.104   0.000  0.00  0.00    +0.000 NA
ATOM      7  C   UNL     1       4.923   0.274   0.000  0.00  0.00    +0.000 C 
BRANCH   6   9
ATOM      8  O   UNL     1       5.166  -1.345   0.000  0.00  0.00    +0.000 OA
ATOM      9  C   UNL     1       3.860  -0.681   0.000  0.00  0.00    +0.000 C 
ATOM     10  C   UNL     1       4.341  -1.345   0.000  0.00  0.00    +0.000 C 
ATOM     11  C   UNL     1       3.860  -2.008   0.000  0.00  0.00    +0.000 C 
ATOM     12  C   UNL     1       3.079  -0.932   0.000  0.00  0.00    +0.000 A 
ATOM     13  C   UNL     1       3.079  -1.757   0.000  0.00  0.00    +0.000 A 
ATOM     14  C   UNL     1       2.365  -0.519   0.000  0.00  0.00    +0.000 A 
ATOM     15  C   UNL     1       2.365  -2.170   0.000  0.00  0.00    +0.000 A 
ATOM     16  C   UNL     1       1.650  -0.932   0.000  0.00  0.00    +0.000 A 
ATOM     17  C   UNL     1       1.650  -1.757   0.000  0.00  0.00    +0.000 A 
ENDBRANCH   6   9
ENDBRANCH   4   7
BRANCH   4  18
ATOM     18  C   UNL     1       4.629   1.672   0.000  0.00  0.00    +0.000 C 
BRANCH  18  19
ATOM     19  C   UNL     1       4.885   2.456   0.000  0.00  0.00    +0.000 A 
ATOM     20  C   UNL     1       4.334   3.070   0.000  0.00  0.00    +0.000 A 
ATOM     21  C   UNL     1       5.692   2.626   0.000  0.00  0.00    +0.000 A 
ATOM     22  C   UNL     1       4.590   3.854   0.000  0.00  0.00    +0.000 A 
ATOM     23  C   UNL     1       5.949   3.411   0.000  0.00  0.00    +0.000 A 
ATOM     24  C   UNL     1       5.397   4.025   0.000  0.00  0.00    +0.000 A 
ENDBRANCH  18  19
ENDBRANCH   4  18
ENDBRANCH   3   4
ENDBRANCH   2   3
BRANCH   2  25
ATOM     25  C   UNL     1       7.345   0.784   0.000  0.00  0.00    +0.000 C 
BRANCH  25  26
ATOM     26  N   UNL     1       7.896   0.170   0.000  0.00  0.00    +0.000 NA
ATOM     27  N   UNL     1       8.998  -1.058   0.000  0.00  0.00    +0.000 NA
ATOM     28  C   UNL     1       8.703   0.340   0.000  0.00  0.00    +0.000 C 
ATOM     29  C   UNL     1       9.254  -0.274   0.000  0.00  0.00    +0.000 C 
ATOM     30  C   UNL     1       7.640  -0.614   0.000  0.00  0.00    +0.000 C 
ATOM     31  C   UNL     1       8.191  -1.228   0.000  0.00  0.00    +0.000 C 
BRANCH  28  34
ATOM     32  O   UNL     1       8.409   1.739   0.000  0.00  0.00    +0.000 OA
ATOM     33  N   UNL     1       9.767   1.295   0.000  0.00  0.00    +0.000 NA
ATOM     34  C   UNL     1       8.960   1.125   0.000  0.00  0.00    +0.000 C 
BRANCH  33  35
ATOM     35  C   UNL     1      10.318   0.681   0.000  0.00  0.00    +0.000 C 
ATOM     36  C   UNL     1       9.704   0.130   0.000  0.00  0.00    +0.000 C 
ATOM     37  C   UNL     1      10.932   1.232   0.000  0.00  0.00    +0.000 C 
ATOM     38  C   UNL     1      10.869   0.067   0.000  0.00  0.00    +0.000 C 
ENDBRANCH  33  35
ENDBRANCH  28  34
BRANCH  27  39
ATOM     39  C   UNL     1       9.549  -1.672   0.000  0.00  0.00    +0.000 C 
BRANCH  39  41
ATOM     40  N   UNL     1       9.588  -3.854   0.000  0.00  0.00    +0.000 NA
ATOM     41  C   UNL     1       9.293  -2.456   0.000  0.00  0.00    +0.000 A 
ATOM     42  C   UNL     1       8.486  -2.626   0.000  0.00  0.00    +0.000 A 
ATOM     43  C   UNL     1       9.844  -3.070   0.000  0.00  0.00    +0.000 A 
ATOM     44  C   UNL     1       8.229  -3.411   0.000  0.00  0.00    +0.000 A 
ATOM     45  C   UNL     1       8.780  -4.025   0.000  0.00  0.00    +0.000 A 
ENDBRANCH  39  41
ENDBRANCH  27  39
ENDBRANCH  25  26
ENDBRANCH   2  25
TORSDOF 12
