REMARK  Name = 22425
REMARK  7 active torsions:
REMARK  status: ('A' for Active; 'I' for Inactive)
REMARK    1  A    between atoms: O_2  and  C_14
REMARK    2  A    between atoms: O_2  and  C_15
REMARK    3  A    between atoms: O_3  and  C_16
REMARK    4  A    between atoms: O_3  and  C_21
REMARK    5  A    between atoms: N_5  and  C_13
REMARK    6  A    between atoms: C_13  and  C_14
REMARK    7  A    between atoms: C_15  and  C_16
REMARK                            x       y       z     vdW  Elec       q    Type
REMARK                         _______ _______ _______ _____ _____    ______ ____
ROOT
ATOM      1  S   UNL     1       3.849  -3.905   0.000  0.00  0.00    +0.000 S 
ATOM      2  O   UNL     1       3.135  -1.017   0.000  0.00  0.00    +0.000 OA
ATOM      3  N   UNL     1       3.849  -2.255   0.000  0.00  0.00    +0.000 N 
ATOM      4  N   UNL     1       5.301  -2.226   0.000  0.00  0.00    +0.000 NA
ATOM      5  C   UNL     1       3.135  -2.667   0.000  0.00  0.00    +0.000 A 
ATOM      6  C   UNL     1       4.564  -2.667   0.000  0.00  0.00    +0.000 A 
ATOM      7  C   UNL     1       3.135  -3.492   0.000  0.00  0.00    +0.000 A 
ATOM      8  C   UNL     1       4.564  -3.492   0.000  0.00  0.00    +0.000 A 
ATOM      9  C   UNL     1       3.849  -1.429   0.000  0.00  0.00    +0.000 C 
ATOM     10  C   UNL     1       2.397  -2.226   0.000  0.00  0.00    +0.000 A 
ATOM     11  C   UNL     1       2.397  -3.933   0.000  0.00  0.00    +0.000 A 
ATOM     12  C   UNL     1       5.301  -3.933   0.000  0.00  0.00    +0.000 A 
ATOM     13  C   UNL     1       1.650  -2.650   0.000  0.00  0.00    +0.000 A 
ATOM     14  C   UNL     1       1.650  -3.509   0.000  0.00  0.00    +0.000 A 
ATOM     15  C   UNL     1       6.049  -3.509   0.000  0.00  0.00    +0.000 A 
ATOM     16  C   UNL     1       6.049  -2.650   0.000  0.00  0.00    +0.000 A 
ENDROOT
BRANCH   9  17
ATOM     17  O   UNL     1       4.564  -1.017   0.000  0.00  0.00    +0.000 OA
BRANCH  17  18
ATOM     18  C   UNL     1       4.564  -0.192   0.000  0.00  0.00    +0.000 C 
BRANCH  18  19
ATOM     19  C   UNL     1       5.278   0.221   0.000  0.00  0.00    +0.000 C 
BRANCH  19  20
ATOM     20  O   UNL     1       5.278   1.046   0.000  0.00  0.00    +0.000 OA
BRANCH  20  21
ATOM     21  C   UNL     1       5.993   1.458   0.000  0.00  0.00    +0.000 C 
BRANCH  21  22
ATOM     22  C   UNL     1       5.993   2.283   0.000  0.00  0.00    +0.000 C 
BRANCH  22  23
ATOM     23  N   UNL     1       6.707   2.696   0.000  0.00  0.00    +0.000 NA
ATOM     24  C   UNL     1       7.422   2.283   0.000  0.00  0.00    +0.000 C 
ATOM     25  C   UNL     1       6.707   3.521   0.000  0.00  0.00    +0.000 C 
ATOM     26  C   UNL     1       8.136   2.696   0.000  0.00  0.00    +0.000 C 
ATOM     27  C   UNL     1       7.422   3.933   0.000  0.00  0.00    +0.000 C 
ATOM     28  C   UNL     1       8.136   3.521   0.000  0.00  0.00    +0.000 C 
ENDBRANCH  22  23
ENDBRANCH  21  22
ENDBRANCH  20  21
ENDBRANCH  19  20
ENDBRANCH  18  19
ENDBRANCH  17  18
ENDBRANCH   9  17
TORSDOF 7
