REMARK  Name = 226
REMARK  0 active torsions:
REMARK  status: ('A' for Active; 'I' for Inactive)
REMARK                            x       y       z     vdW  Elec       q    Type
REMARK                         _______ _______ _______ _____ _____    ______ ____
ROOT
ATOM      1  O   UNL     1       0.228  -3.351   0.000  0.00  0.00    +0.000 OA
ATOM      2  C   UNL     1       0.228  -2.526   0.000  0.00  0.00    +0.000 A 
ATOM      3  C   UNL     1       0.942  -2.113   0.000  0.00  0.00    +0.000 A 
ATOM      4  C   UNL     1       1.656  -2.526   0.000  0.00  0.00    +0.000 A 
ATOM      5  C   UNL     1       2.371  -2.113   0.000  0.00  0.00    +0.000 A 
ATOM      6  O   UNL     1       3.085  -2.526   0.000  0.00  0.00    +0.000 OA
ATOM      7  C   UNL     1       2.371  -1.288   0.000  0.00  0.00    +0.000 A 
ATOM      8  C   UNL     1       1.656  -0.876   0.000  0.00  0.00    +0.000 A 
ATOM      9  O   UNL     1       1.656  -0.051   0.000  0.00  0.00    +0.000 OA
ATOM     10  C   UNL     1       0.942  -1.288   0.000  0.00  0.00    +0.000 A 
ATOM     11  C   UNL     1       0.228  -0.876   0.000  0.00  0.00    +0.000 A 
ATOM     12  O   UNL     1       0.228  -0.051   0.000  0.00  0.00    +0.000 OA
ATOM     13  C   UNL     1      -0.487  -1.288   0.000  0.00  0.00    +0.000 A 
ATOM     14  C   UNL     1      -0.487  -2.113   0.000  0.00  0.00    +0.000 A 
ATOM     15  O   UNL     1      -1.202  -2.526   0.000  0.00  0.00    +0.000 OA
ENDROOT
TORSDOF 0
