REMARK  Name = 227
REMARK  7 active torsions:
REMARK  status: ('A' for Active; 'I' for Inactive)
REMARK    1  A    between atoms: O_1  and  C_8
REMARK    2  A    between atoms: O_1  and  C_23
REMARK    3  A    between atoms: C_7  and  C_11
REMARK    4  A    between atoms: C_11  and  C_15
REMARK    5  A    between atoms: C_15  and  C_19
REMARK    6  A    between atoms: C_23  and  C_25
REMARK    7  A    between atoms: C_25  and  C_27
REMARK                            x       y       z     vdW  Elec       q    Type
REMARK                         _______ _______ _______ _____ _____    ______ ____
ROOT
ATOM      1  C   UNL     1       3.793   1.695   0.000  0.00  0.00    +0.000 C 
ATOM      2  C   UNL     1       4.531   1.254   0.000  0.00  0.00    +0.000 C 
ATOM      3  C   UNL     1       3.079   1.283   0.000  0.00  0.00    +0.000 C 
ATOM      4  C   UNL     1       5.279   1.678   0.000  0.00  0.00    +0.000 C 
ATOM      5  C   UNL     1       3.793   2.520   0.000  0.00  0.00    +0.000 C 
ATOM      6  C   UNL     1       2.365   1.695   0.000  0.00  0.00    +0.000 C 
ATOM      7  C   UNL     1       2.365   2.520   0.000  0.00  0.00    +0.000 C 
ATOM      8  C   UNL     1       3.079   2.933   0.000  0.00  0.00    +0.000 C 
ATOM      9  C   UNL     1       5.279   2.537   0.000  0.00  0.00    +0.000 C 
ATOM     10  C   UNL     1       4.531   2.961   0.000  0.00  0.00    +0.000 C 
ATOM     11  C   UNL     1       5.991   1.263   0.000  0.00  0.00    +0.000 C 
ATOM     12  C   UNL     1       1.650   2.933   0.000  0.00  0.00    +0.000 C 
ENDROOT
BRANCH   3  13
ATOM     13  O   UNL     1       3.079   0.458   0.000  0.00  0.00    +0.000 OA
BRANCH  13  15
ATOM     14  O   UNL     1       1.650   0.458   0.000  0.00  0.00    +0.000 OA
ATOM     15  C   UNL     1       2.365   0.045   0.000  0.00  0.00    +0.000 C 
BRANCH  15  16
ATOM     16  C   UNL     1       2.365  -0.780   0.000  0.00  0.00    +0.000 C 
ATOM     17  C   UNL     1       3.079  -1.192   0.000  0.00  0.00    +0.000 C 
BRANCH  16  18
ATOM     18  C   UNL     1       1.650  -1.192   0.000  0.00  0.00    +0.000 C 
ATOM     19  C   UNL     1       1.650  -2.017   0.000  0.00  0.00    +0.000 C 
ENDBRANCH  16  18
ENDBRANCH  15  16
ENDBRANCH  13  15
ENDBRANCH   3  13
BRANCH   2  20
ATOM     20  C   UNL     1       4.521   0.429   0.000  0.00  0.00    +0.000 C 
BRANCH  20  21
ATOM     21  C   UNL     1       5.231   0.008   0.000  0.00  0.00    +0.000 C 
BRANCH  21  25
ATOM     22  O   UNL     1       5.931  -1.237   0.000  0.00  0.00    +0.000 OA
ATOM     23  O   UNL     1       3.774  -2.450   0.000  0.00  0.00    +0.000 OA
ATOM     24  O   UNL     1       6.631  -2.483   0.000  0.00  0.00    +0.000 OA
ATOM     25  C   UNL     1       5.222  -0.817   0.000  0.00  0.00    +0.000 C 
ATOM     26  C   UNL     1       4.502  -1.221   0.000  0.00  0.00    +0.000 C 
ATOM     27  C   UNL     1       4.493  -2.046   0.000  0.00  0.00    +0.000 C 
ATOM     28  C   UNL     1       5.202  -2.466   0.000  0.00  0.00    +0.000 C 
ATOM     29  C   UNL     1       5.922  -2.062   0.000  0.00  0.00    +0.000 C 
ENDBRANCH  21  25
ENDBRANCH  20  21
ENDBRANCH   2  20
TORSDOF 7
