REMARK  Name = 228
REMARK  4 active torsions:
REMARK  status: ('A' for Active; 'I' for Inactive)
REMARK    1  A    between atoms: C_9  and  C_10
REMARK    2  A    between atoms: C_10  and  C_11
REMARK    3  A    between atoms: C_11  and  N_12
REMARK    4  A    between atoms: C_13  and  C_15
REMARK                            x       y       z     vdW  Elec       q    Type
REMARK                         _______ _______ _______ _____ _____    ______ ____
ROOT
ATOM      1  C   UNL     1       1.479   1.852   0.000  0.00  0.00    +0.000 C 
ATOM      2  C   UNL     1       1.565   2.672   0.000  0.00  0.00    +0.000 C 
ATOM      3  C   UNL     1       2.372   2.844   0.000  0.00  0.00    +0.000 C 
ATOM      4  C   UNL     1       2.784   2.130   0.000  0.00  0.00    +0.000 C 
ATOM      5  N   UNL     1       2.232   1.516   0.000  0.00  0.00    +0.000 N 
ATOM      6  C   UNL     1       2.404   0.710   0.000  0.00  0.00    +0.000 A 
ATOM      7  N   UNL     1       1.791   0.157   0.000  0.00  0.00    +0.000 NA
ATOM      8  C   UNL     1       3.189   0.455   0.000  0.00  0.00    +0.000 A 
ATOM      9  C   UNL     1       3.360  -0.352   0.000  0.00  0.00    +0.000 A 
ATOM     10  C   UNL     1       4.145  -0.607   0.000  0.00  0.00    +0.000 C 
ATOM     11  N   UNL     1       2.747  -0.904   0.000  0.00  0.00    +0.000 NA
ATOM     12  C   UNL     1       1.962  -0.649   0.000  0.00  0.00    +0.000 A 
ATOM     13  N   UNL     1       1.349  -1.202   0.000  0.00  0.00    +0.000 N 
ATOM     14  C   UNL     1       1.436  -2.022   0.000  0.00  0.00    +0.000 A 
ATOM     15  C   UNL     1       0.682  -2.358   0.000  0.00  0.00    +0.000 A 
ATOM     16  N   UNL     1       0.130  -1.744   0.000  0.00  0.00    +0.000 NA
ATOM     17  C   UNL     1       0.542  -1.030   0.000  0.00  0.00    +0.000 A 
ENDROOT
BRANCH   1  19
ATOM     18  N   UNL     1       0.050   1.852   0.000  0.00  0.00    +0.000 NA
ATOM     19  C   UNL     1       0.764   1.440   0.000  0.00  0.00    +0.000 C 
ATOM     20  O   UNL     1       0.764   0.615   0.000  0.00  0.00    +0.000 OA
BRANCH  18  21
ATOM     21  C   UNL     1      -0.665   1.440   0.000  0.00  0.00    +0.000 C 
BRANCH  21  22
ATOM     22  C   UNL     1      -1.379   1.852   0.000  0.00  0.00    +0.000 C 
BRANCH  22  31
ATOM     23  C   UNL     1      -2.808   1.852   0.000  0.00  0.00    +0.000 A 
ATOM     24  C   UNL     1      -3.522   1.440   0.000  0.00  0.00    +0.000 A 
ATOM     25  O   UNL     1      -4.307   1.694   0.000  0.00  0.00    +0.000 OA
ATOM     26  C   UNL     1      -4.792   1.027   0.000  0.00  0.00    +0.000 C 
ATOM     27  O   UNL     1      -4.307   0.360   0.000  0.00  0.00    +0.000 OA
ATOM     28  C   UNL     1      -3.522   0.615   0.000  0.00  0.00    +0.000 A 
ATOM     29  C   UNL     1      -2.808   0.202   0.000  0.00  0.00    +0.000 A 
ATOM     30  C   UNL     1      -2.094   0.615   0.000  0.00  0.00    +0.000 A 
ATOM     31  C   UNL     1      -2.094   1.440   0.000  0.00  0.00    +0.000 A 
ENDBRANCH  22  31
ENDBRANCH  21  22
ENDBRANCH  18  21
ENDBRANCH   1  19
TORSDOF 4
