REMARK  Name = 228
REMARK  3 active torsions:
REMARK  status: ('A' for Active; 'I' for Inactive)
REMARK    1  A    between atoms: O_7  and  C_8
REMARK    2  A    between atoms: O_7  and  C_10
REMARK    3  A    between atoms: C_8  and  C_9
REMARK                            x       y       z     vdW  Elec       q    Type
REMARK                         _______ _______ _______ _____ _____    ______ ____
ROOT
ATOM      1  F   UNL     1       3.381   0.453   0.000  0.00  0.00    +0.000 F 
ATOM      2  F   UNL     1       4.206  -0.976   0.000  0.00  0.00    +0.000 F 
ATOM      3  C   UNL     1       3.793  -0.262   0.000  0.00  0.00    +0.000 C 
ENDROOT
BRANCH   3   6
ATOM      4 CL   UNL     1       5.222  -0.262   0.000  0.00  0.00    +0.000 Cl
ATOM      5  F   UNL     1       4.508   0.976   0.000  0.00  0.00    +0.000 F 
ATOM      6  C   UNL     1       4.508   0.151   0.000  0.00  0.00    +0.000 C 
ENDBRANCH   3   6
BRANCH   3   7
ATOM      7  O   UNL     1       3.079  -0.674   0.000  0.00  0.00    +0.000 OA
BRANCH   7  10
ATOM      8  F   UNL     1       1.650  -0.674   0.000  0.00  0.00    +0.000 F 
ATOM      9  F   UNL     1       2.365   0.564   0.000  0.00  0.00    +0.000 F 
ATOM     10  C   UNL     1       2.365  -0.262   0.000  0.00  0.00    +0.000 C 
ENDBRANCH   7  10
ENDBRANCH   3   7
TORSDOF 3
