REMARK  Name = 229
REMARK  10 active torsions:
REMARK  status: ('A' for Active; 'I' for Inactive)
REMARK    1  A    between atoms: S_2  and  C_23
REMARK    2  A    between atoms: S_2  and  C_28
REMARK    3  A    between atoms: N_9  and  CA_18
REMARK    4  A    between atoms: N_10  and  C_29
REMARK    5  A    between atoms: N_11  and  C_30
REMARK    6  A    between atoms: CA_20  and  C_24
REMARK    7  A    between atoms: C_21  and  C_23
REMARK    8  A    between atoms: C_25  and  C_26
REMARK    9  A    between atoms: C_26  and  C_27
REMARK   10  A    between atoms: C_29  and  C_30
REMARK                            x       y       z     vdW  Elec       q    Type
REMARK                         _______ _______ _______ _____ _____    ______ ____
ROOT
ATOM      1  S   UNL     1       7.174  -1.146   0.000  0.00  0.00    +0.000 S 
ATOM      2  O   UNL     1       9.303   0.679   0.000  0.00  0.00    +0.000 OA
ATOM      3  N   UNL     1       7.888   0.091   0.000  0.00  0.00    +0.000 N 
ATOM      4  C   UNL     1       7.888  -0.734   0.000  0.00  0.00    +0.000 C 
ATOM      5  CA  UNL     1       8.720  -0.737   0.000  0.00  0.00    +0.000 C 
ATOM      6  C   UNL     1       8.720   0.095   0.000  0.00  0.00    +0.000 C 
ATOM      7  CA  UNL     1       7.174   0.504   0.000  0.00  0.00    +0.000 C 
ATOM      8  C   UNL     1       6.460   0.091   0.000  0.00  0.00    +0.000 C 
ATOM      9  C   UNL     1       6.460  -0.734   0.000  0.00  0.00    +0.000 C 
ENDROOT
BRANCH   7  12
ATOM     10  O   UNL     1       6.460   1.741   0.000  0.00  0.00    +0.000 OA
ATOM     11  OXT UNL     1       7.888   1.741   0.000  0.00  0.00    +0.000 OA
ATOM     12  C   UNL     1       7.174   1.329   0.000  0.00  0.00    +0.000 C 
ENDBRANCH   7  12
BRANCH   5  14
ATOM     13  O   UNL     1      10.315  -0.313   0.000  0.00  0.00    +0.000 OA
ATOM     14  N   UNL     1       9.303  -1.322   0.000  0.00  0.00    +0.000 NA
ATOM     15  C   UNL     1      10.100  -1.110   0.000  0.00  0.00    +0.000 C 
BRANCH  15  16
ATOM     16  C   UNL     1      10.682  -1.694   0.000  0.00  0.00    +0.000 C 
BRANCH  16  20
ATOM     17  S   UNL     1      12.812  -1.555   0.000  0.00  0.00    +0.000 S 
ATOM     18  N   UNL     1      11.777  -0.713   0.000  0.00  0.00    +0.000 NA
ATOM     19  N   UNL     1      13.121  -0.118   0.000  0.00  0.00    +0.000 NA
ATOM     20  C   UNL     1      11.479  -1.483   0.000  0.00  0.00    +0.000 A 
ATOM     21  C   UNL     1      12.120  -2.003   0.000  0.00  0.00    +0.000 A 
ATOM     22  C   UNL     1      12.600  -0.758   0.000  0.00  0.00    +0.000 A 
ENDBRANCH  16  20
ENDBRANCH  15  16
ENDBRANCH   5  14
BRANCH   8  23
ATOM     23  C   UNL     1       5.745   0.504   0.000  0.00  0.00    +0.000 C 
BRANCH  23  24
ATOM     24  S   UNL     1       5.030   0.091   0.000  0.00  0.00    +0.000 S 
BRANCH  24  29
ATOM     25  N   UNL     1       3.562   0.168   0.000  0.00  0.00    +0.000 N 
ATOM     26  N   UNL     1       4.230   1.324   0.000  0.00  0.00    +0.000 NA
ATOM     27  N   UNL     1       3.010   0.781   0.000  0.00  0.00    +0.000 NA
ATOM     28  N   UNL     1       3.423   1.496   0.000  0.00  0.00    +0.000 NA
ATOM     29  C   UNL     1       4.316   0.504   0.000  0.00  0.00    +0.000 A 
BRANCH  25  30
ATOM     30  C   UNL     1       3.391  -0.639   0.000  0.00  0.00    +0.000 C 
BRANCH  30  31
ATOM     31  C   UNL     1       2.606  -0.894   0.000  0.00  0.00    +0.000 C 
BRANCH  31  32
ATOM     32  N   UNL     1       2.435  -1.701   0.000  0.00  0.00    +0.000 NA
ATOM     33  C   UNL     1       1.650  -1.956   0.000  0.00  0.00    +0.000 C 
ATOM     34  C   UNL     1       3.048  -2.253   0.000  0.00  0.00    +0.000 C 
ENDBRANCH  31  32
ENDBRANCH  30  31
ENDBRANCH  25  30
ENDBRANCH  24  29
ENDBRANCH  23  24
ENDBRANCH   8  23
TORSDOF 10
