REMARK  Name = 22M
REMARK  2 active torsions:
REMARK  status: ('A' for Active; 'I' for Inactive)
REMARK    1  A    between atoms: C_2  and  C_3
REMARK    2  A    between atoms: C_11  and  C_12
REMARK                            x       y       z     vdW  Elec       q    Type
REMARK                         _______ _______ _______ _____ _____    ______ ____
ROOT
ATOM      1  C   UNL     1       2.130   0.493   0.000  0.00  0.00    +0.000 A 
ATOM      2  C   UNL     1       2.130  -0.332   0.000  0.00  0.00    +0.000 A 
ATOM      3  C   UNL     1       1.416  -0.744   0.000  0.00  0.00    +0.000 A 
ATOM      4  C   UNL     1       0.701  -0.332   0.000  0.00  0.00    +0.000 A 
ATOM      5  C   UNL     1       0.701   0.493   0.000  0.00  0.00    +0.000 A 
ATOM      6  C   UNL     1       1.416   0.906   0.000  0.00  0.00    +0.000 A 
ATOM      7  C   UNL     1      -0.084   0.748   0.000  0.00  0.00    +0.000 A 
ATOM      8  C   UNL     1      -0.568   0.081   0.000  0.00  0.00    +0.000 A 
ATOM      9  N   UNL     1      -0.084  -0.586   0.000  0.00  0.00    +0.000 NA
ENDROOT
BRANCH   8  10
ATOM     10  C   UNL     1      -1.393   0.081   0.000  0.00  0.00    +0.000 A 
ATOM     11  C   UNL     1      -1.806  -0.633   0.000  0.00  0.00    +0.000 A 
ATOM     12  C   UNL     1      -2.631  -0.633   0.000  0.00  0.00    +0.000 A 
ATOM     13  C   UNL     1      -3.043   0.081   0.000  0.00  0.00    +0.000 A 
ATOM     14  C   UNL     1      -2.631   0.795   0.000  0.00  0.00    +0.000 A 
ATOM     15  C   UNL     1      -1.806   0.795   0.000  0.00  0.00    +0.000 A 
ATOM     16  C   UNL     1      -1.393   1.510   0.000  0.00  0.00    +0.000 C 
ENDBRANCH   8  10
BRANCH   2  17
ATOM     17  C   UNL     1       2.845  -0.744   0.000  0.00  0.00    +0.000 C 
ATOM     18  N   UNL     1       3.559  -0.332   0.000  0.00  0.00    +0.000 NA
ATOM     19  N   UNL     1       2.845  -1.569   0.000  0.00  0.00    +0.000 NA
ENDBRANCH   2  17
TORSDOF 2
