REMARK  Name = 22U
REMARK  6 active torsions:
REMARK  status: ('A' for Active; 'I' for Inactive)
REMARK    1  A    between atoms: C_1  and  C_3
REMARK    2  A    between atoms: C_1  and  C_21
REMARK    3  A    between atoms: C_3  and  C_4
REMARK    4  A    between atoms: C_10  and  C_11
REMARK    5  A    between atoms: N_12  and  C_13
REMARK    6  A    between atoms: C_13  and  C_14
REMARK                            x       y       z     vdW  Elec       q    Type
REMARK                         _______ _______ _______ _____ _____    ______ ____
ROOT
ATOM      1  C   UNL     1       1.133  -0.377   0.000  0.00  0.00    +0.000 C 
ATOM      2  O   UNL     1       1.305   0.430   0.000  0.00  0.00    +0.000 OA
ATOM      3  N   UNL     1       0.348  -0.632   0.000  0.00  0.00    +0.000 N 
ATOM      4  C   UNL     1       0.093  -1.417   0.000  0.00  0.00    +0.000 C 
ATOM      5  C   UNL     1      -0.732  -1.417   0.000  0.00  0.00    +0.000 C 
ATOM      6  C   UNL     1      -0.986  -0.632   0.000  0.00  0.00    +0.000 C 
ATOM      7  C   UNL     1      -0.319  -0.147   0.000  0.00  0.00    +0.000 C 
ENDROOT
BRANCH   7   8
ATOM      8  C   UNL     1      -0.319   0.678   0.000  0.00  0.00    +0.000 C 
ATOM      9  N   UNL     1      -1.034   1.090   0.000  0.00  0.00    +0.000 NA
ATOM     10  O   UNL     1       0.396   1.090   0.000  0.00  0.00    +0.000 OA
BRANCH   9  11
ATOM     11  C   UNL     1      -1.034   1.915   0.000  0.00  0.00    +0.000 C 
BRANCH  11  12
ATOM     12  C   UNL     1      -1.748   2.328   0.000  0.00  0.00    +0.000 A 
ATOM     13  C   UNL     1      -2.462   1.915   0.000  0.00  0.00    +0.000 A 
ATOM     14  C   UNL     1      -3.177   2.328   0.000  0.00  0.00    +0.000 A 
ATOM     15  C   UNL     1      -3.177   3.153   0.000  0.00  0.00    +0.000 A 
ATOM     16  C   UNL     1      -2.462   3.565   0.000  0.00  0.00    +0.000 A 
ATOM     17  C   UNL     1      -1.748   3.153   0.000  0.00  0.00    +0.000 A 
ATOM     18 CL   UNL     1      -3.891   1.915   0.000  0.00  0.00    +0.000 Cl
ENDBRANCH  11  12
ENDBRANCH   9  11
ENDBRANCH   7   8
BRANCH   1  20
ATOM     19  N   UNL     1       1.575  -1.736   0.000  0.00  0.00    +0.000 NA
ATOM     20  C   UNL     1       1.746  -0.929   0.000  0.00  0.00    +0.000 C 
BRANCH  20  21
ATOM     21  C   UNL     1       2.531  -0.674   0.000  0.00  0.00    +0.000 C 
BRANCH  21  22
ATOM     22  C   UNL     1       3.144  -1.226   0.000  0.00  0.00    +0.000 A 
ATOM     23  C   UNL     1       3.929  -0.972   0.000  0.00  0.00    +0.000 A 
ATOM     24  C   UNL     1       4.542  -1.524   0.000  0.00  0.00    +0.000 A 
ATOM     25  C   UNL     1       4.370  -2.330   0.000  0.00  0.00    +0.000 A 
ATOM     26  C   UNL     1       3.585  -2.586   0.000  0.00  0.00    +0.000 A 
ATOM     27  C   UNL     1       2.972  -2.034   0.000  0.00  0.00    +0.000 A 
ENDBRANCH  21  22
ENDBRANCH  20  21
ENDBRANCH   1  20
TORSDOF 6
