REMARK  Name = 230
REMARK  5 active torsions:
REMARK  status: ('A' for Active; 'I' for Inactive)
REMARK    1  A    between atoms: N_1  and  C_3
REMARK    2  A    between atoms: N_2  and  C_16
REMARK    3  A    between atoms: C_6  and  C_13
REMARK    4  A    between atoms: C_22  and  N_25
REMARK    5  A    between atoms: C_30  and  O_32
REMARK                            x       y       z     vdW  Elec       q    Type
REMARK                         _______ _______ _______ _____ _____    ______ ____
ROOT
ATOM      1  N   UNL     1      -0.347   1.485   0.000  0.00  0.00    +0.000 NA
ATOM      2  C   UNL     1      -0.519   0.678   0.000  0.00  0.00    +0.000 C 
ATOM      3  O   UNL     1       0.094   0.126   0.000  0.00  0.00    +0.000 OA
ENDROOT
BRANCH   2   5
ATOM      4  C   UNL     1      -1.971   0.908   0.000  0.00  0.00    +0.000 C 
ATOM      5  C   UNL     1      -1.303   0.423   0.000  0.00  0.00    +0.000 C 
ATOM      6  C   UNL     1      -2.383  -0.362   0.000  0.00  0.00    +0.000 C 
ATOM      7  N   UNL     1      -1.409  -1.783   0.000  0.00  0.00    +0.000 NA
ATOM      8  C   UNL     1      -2.638   0.423   0.000  0.00  0.00    +0.000 C 
ATOM      9  N   UNL     1      -1.558  -0.362   0.000  0.00  0.00    +0.000 N 
ATOM     10  C   UNL     1      -1.073  -1.029   0.000  0.00  0.00    +0.000 C 
ATOM     11  O   UNL     1      -0.253  -0.943   0.000  0.00  0.00    +0.000 OA
BRANCH   7  16
ATOM     12  C   UNL     1       0.046  -3.785   0.000  0.00  0.00    +0.000 A 
ATOM     13  C   UNL     1      -1.260  -3.204   0.000  0.00  0.00    +0.000 A 
ATOM     14  C   UNL     1       0.381  -3.031   0.000  0.00  0.00    +0.000 A 
ATOM     15  C   UNL     1      -0.775  -3.871   0.000  0.00  0.00    +0.000 A 
ATOM     16  C   UNL     1      -0.924  -2.450   0.000  0.00  0.00    +0.000 A 
ATOM     17  C   UNL     1      -0.104  -2.364   0.000  0.00  0.00    +0.000 A 
ATOM     18 CL   UNL     1       0.531  -4.452   0.000  0.00  0.00    +0.000 Cl
ENDBRANCH   7  16
BRANCH   8  20
ATOM     19  C   UNL     1      -4.036   0.126   0.000  0.00  0.00    +0.000 C 
ATOM     20  O   UNL     1      -3.423   0.678   0.000  0.00  0.00    +0.000 OA
ENDBRANCH   8  20
ENDBRANCH   2   5
BRANCH   1  21
ATOM     21  C   UNL     1       0.437   1.740   0.000  0.00  0.00    +0.000 A 
ATOM     22  C   UNL     1       1.050   1.188   0.000  0.00  0.00    +0.000 A 
ATOM     23  C   UNL     1       1.835   1.443   0.000  0.00  0.00    +0.000 A 
ATOM     24  C   UNL     1       2.007   2.250   0.000  0.00  0.00    +0.000 A 
ATOM     25  C   UNL     1       1.393   2.802   0.000  0.00  0.00    +0.000 A 
ATOM     26  C   UNL     1       0.609   2.547   0.000  0.00  0.00    +0.000 A 
ATOM     27  F   UNL     1       0.879   0.381   0.000  0.00  0.00    +0.000 F 
BRANCH  24  28
ATOM     28  N   UNL     1       2.791   2.505   0.000  0.00  0.00    +0.000 N 
ATOM     29  C   UNL     1       2.963   3.312   0.000  0.00  0.00    +0.000 A 
ATOM     30  C   UNL     1       4.361   3.015   0.000  0.00  0.00    +0.000 A 
ATOM     31  C   UNL     1       3.404   1.953   0.000  0.00  0.00    +0.000 A 
ATOM     32  C   UNL     1       3.747   3.567   0.000  0.00  0.00    +0.000 A 
ATOM     33  C   UNL     1       4.189   2.208   0.000  0.00  0.00    +0.000 A 
ATOM     34  O   UNL     1       2.350   3.864   0.000  0.00  0.00    +0.000 OA
ENDBRANCH  24  28
ENDBRANCH   1  21
TORSDOF 5
