REMARK  Name = 231
REMARK  1 active torsions:
REMARK  status: ('A' for Active; 'I' for Inactive)
REMARK    1  A    between atoms: C_8  and  C_11
REMARK                            x       y       z     vdW  Elec       q    Type
REMARK                         _______ _______ _______ _____ _____    ______ ____
ROOT
ATOM      1 CL   UNL     1       2.817  -2.378   0.000  0.00  0.00    +0.000 Cl
ATOM      2  O   UNL     1       4.152   2.340   0.000  0.00  0.00    +0.000 OA
ATOM      3  O   UNL     1       2.611   2.340   0.000  0.00  0.00    +0.000 OA
ATOM      4  N   UNL     1       2.454   0.952   0.000  0.00  0.00    +0.000 N 
ATOM      5  N   UNL     1       4.308   0.952   0.000  0.00  0.00    +0.000 NA
ATOM      6  C   UNL     1       2.638   0.147   0.000  0.00  0.00    +0.000 A 
ATOM      7  C   UNL     1       3.381  -0.210   0.000  0.00  0.00    +0.000 A 
ATOM      8  C   UNL     1       4.125   0.147   0.000  0.00  0.00    +0.000 C 
ATOM      9  C   UNL     1       3.794   1.597   0.000  0.00  0.00    +0.000 C 
ATOM     10  C   UNL     1       2.969   1.597   0.000  0.00  0.00    +0.000 C 
ATOM     11  C   UNL     1       3.459  -1.066   0.000  0.00  0.00    +0.000 A 
ATOM     12  C   UNL     1       1.921  -0.326   0.000  0.00  0.00    +0.000 A 
ATOM     13  C   UNL     1       1.650   1.135   0.000  0.00  0.00    +0.000 C 
ATOM     14  C   UNL     1       2.752  -1.556   0.000  0.00  0.00    +0.000 A 
ATOM     15  C   UNL     1       1.978  -1.183   0.000  0.00  0.00    +0.000 A 
ENDROOT
BRANCH   8  16
ATOM     16  C   UNL     1       4.769  -0.367   0.000  0.00  0.00    +0.000 A 
ATOM     17  C   UNL     1       5.537  -0.066   0.000  0.00  0.00    +0.000 A 
ATOM     18  C   UNL     1       4.646  -1.183   0.000  0.00  0.00    +0.000 A 
ATOM     19  C   UNL     1       6.182  -0.580   0.000  0.00  0.00    +0.000 A 
ATOM     20  C   UNL     1       5.292  -1.697   0.000  0.00  0.00    +0.000 A 
ATOM     21  C   UNL     1       6.059  -1.396   0.000  0.00  0.00    +0.000 A 
ENDBRANCH   8  16
TORSDOF 1
