REMARK  Name = 234
REMARK  6 active torsions:
REMARK  status: ('A' for Active; 'I' for Inactive)
REMARK    1  A    between atoms: O_2  and  C_6
REMARK    2  A    between atoms: O_2  and  C_13
REMARK    3  A    between atoms: O_3  and  C_16
REMARK    4  A    between atoms: O_3  and  C_22
REMARK    5  A    between atoms: C_5  and  C_6
REMARK    6  A    between atoms: C_6  and  C_10
REMARK                            x       y       z     vdW  Elec       q    Type
REMARK                         _______ _______ _______ _____ _____    ______ ____
ROOT
ATOM      1  C   UNL     1       4.508  -0.206   0.000  0.00  0.00    +0.000 C 
ENDROOT
BRANCH   1   4
ATOM      2  O   UNL     1       5.222  -1.444   0.000  0.00  0.00    +0.000 OA
ATOM      3  N   UNL     1       3.793  -2.269   0.000  0.00  0.00    +0.000 NA
ATOM      4  C   UNL     1       4.508  -1.031   0.000  0.00  0.00    +0.000 C 
ATOM      5  C   UNL     1       3.793  -1.444   0.000  0.00  0.00    +0.000 C 
ATOM      6  C   UNL     1       4.508  -2.681   0.000  0.00  0.00    +0.000 C 
ATOM      7  C   UNL     1       5.222  -2.269   0.000  0.00  0.00    +0.000 C 
ENDBRANCH   1   4
BRANCH   1   8
ATOM      8  C   UNL     1       5.222   0.206   0.000  0.00  0.00    +0.000 A 
ATOM      9  C   UNL     1       5.222   1.031   0.000  0.00  0.00    +0.000 A 
ATOM     10  C   UNL     1       5.937  -0.206   0.000  0.00  0.00    +0.000 A 
ATOM     11  C   UNL     1       5.937   1.444   0.000  0.00  0.00    +0.000 A 
ATOM     12  C   UNL     1       6.652   0.206   0.000  0.00  0.00    +0.000 A 
ATOM     13  C   UNL     1       6.652   1.031   0.000  0.00  0.00    +0.000 A 
ENDBRANCH   1   8
BRANCH   1  14
ATOM     14  O   UNL     1       3.793   0.206   0.000  0.00  0.00    +0.000 OA
BRANCH  14  15
ATOM     15  C   UNL     1       3.793   1.031   0.000  0.00  0.00    +0.000 A 
ATOM     16  C   UNL     1       3.079   1.444   0.000  0.00  0.00    +0.000 A 
ATOM     17  C   UNL     1       4.508   1.444   0.000  0.00  0.00    +0.000 A 
ATOM     18  C   UNL     1       3.079   2.269   0.000  0.00  0.00    +0.000 A 
ATOM     19  C   UNL     1       4.508   2.269   0.000  0.00  0.00    +0.000 A 
ATOM     20  C   UNL     1       3.793   2.681   0.000  0.00  0.00    +0.000 A 
BRANCH  16  21
ATOM     21  O   UNL     1       2.365   1.031   0.000  0.00  0.00    +0.000 OA
BRANCH  21  22
ATOM     22  C   UNL     1       1.650   1.444   0.000  0.00  0.00    +0.000 C 
ATOM     23  C   UNL     1       1.650   2.269   0.000  0.00  0.00    +0.000 C 
ENDBRANCH  21  22
ENDBRANCH  16  21
ENDBRANCH  14  15
ENDBRANCH   1  14
TORSDOF 6
