REMARK  Name = 234
REMARK  8 active torsions:
REMARK  status: ('A' for Active; 'I' for Inactive)
REMARK    1  A    between atoms: C_2  and  C_7
REMARK    2  A    between atoms: C_4  and  C_15
REMARK    3  A    between atoms: C_10  and  C_12
REMARK    4  A    between atoms: C_16  and  O_27
REMARK    5  A    between atoms: C_21  and  C_22
REMARK    6  A    between atoms: C_22  and  O_24
REMARK    7  A    between atoms: O_27  and  C_28
REMARK    8  A    between atoms: C_28  and  C_29
REMARK                            x       y       z     vdW  Elec       q    Type
REMARK                         _______ _______ _______ _____ _____    ______ ____
ROOT
ATOM      1  C   UNL     1       2.405  -1.917   0.000  0.00  0.00    +0.000 A 
ATOM      2  C   UNL     1       1.690  -2.330   0.000  0.00  0.00    +0.000 A 
ATOM      3  C   UNL     1       0.976  -1.917   0.000  0.00  0.00    +0.000 A 
ATOM      4  C   UNL     1       0.976  -1.092   0.000  0.00  0.00    +0.000 A 
ATOM      5  C   UNL     1       1.690  -0.680   0.000  0.00  0.00    +0.000 A 
ATOM      6  C   UNL     1       2.405  -1.092   0.000  0.00  0.00    +0.000 A 
ATOM      7  F   UNL     1       3.119  -2.330   0.000  0.00  0.00    +0.000 F 
ENDROOT
BRANCH   2   8
ATOM      8  C   UNL     1       1.690  -3.155   0.000  0.00  0.00    +0.000 A 
ATOM      9  O   UNL     1       2.358  -3.640   0.000  0.00  0.00    +0.000 OA
ATOM     10  N   UNL     1       2.103  -4.424   0.000  0.00  0.00    +0.000 NA
ATOM     11  C   UNL     1       1.278  -4.424   0.000  0.00  0.00    +0.000 A 
ATOM     12  C   UNL     1       1.023  -3.640   0.000  0.00  0.00    +0.000 A 
BRANCH  11  13
ATOM     13  C   UNL     1       0.793  -5.092   0.000  0.00  0.00    +0.000 C 
ATOM     14  O   UNL     1       1.129  -5.845   0.000  0.00  0.00    +0.000 OA
ATOM     15  O   UNL     1      -0.028  -5.005   0.000  0.00  0.00    +0.000 OA
ENDBRANCH  11  13
ENDBRANCH   2   8
BRANCH   4  16
ATOM     16  C   UNL     1       0.261  -0.680   0.000  0.00  0.00    +0.000 C 
ATOM     17  C   UNL     1       0.261   0.145   0.000  0.00  0.00    +0.000 C 
BRANCH  17  18
ATOM     18  C   UNL     1      -0.453   0.558   0.000  0.00  0.00    +0.000 C 
BRANCH  18  19
ATOM     19  O   UNL     1      -0.453   1.383   0.000  0.00  0.00    +0.000 OA
BRANCH  19  20
ATOM     20  C   UNL     1      -1.168   1.795   0.000  0.00  0.00    +0.000 A 
ATOM     21  C   UNL     1      -1.882   1.383   0.000  0.00  0.00    +0.000 A 
ATOM     22  C   UNL     1      -2.596   1.795   0.000  0.00  0.00    +0.000 A 
ATOM     23  C   UNL     1      -2.596   2.620   0.000  0.00  0.00    +0.000 A 
ATOM     24  C   UNL     1      -1.882   3.033   0.000  0.00  0.00    +0.000 A 
ATOM     25  C   UNL     1      -1.168   2.620   0.000  0.00  0.00    +0.000 A 
ATOM     26  O   UNL     1      -1.882   3.858   0.000  0.00  0.00    +0.000 OA
BRANCH  25  27
ATOM     27  C   UNL     1      -0.453   3.033   0.000  0.00  0.00    +0.000 C 
ATOM     28  O   UNL     1       0.261   2.620   0.000  0.00  0.00    +0.000 OA
BRANCH  27  29
ATOM     29  O   UNL     1      -0.453   3.858   0.000  0.00  0.00    +0.000 OA
ATOM     30  C   UNL     1      -1.168   4.270   0.000  0.00  0.00    +0.000 C 
ENDBRANCH  27  29
ENDBRANCH  25  27
ENDBRANCH  19  20
ENDBRANCH  18  19
ENDBRANCH  17  18
ENDBRANCH   4  16
TORSDOF 8
