REMARK  Name = 235
REMARK  10 active torsions:
REMARK  status: ('A' for Active; 'I' for Inactive)
REMARK    1  A    between atoms: C_6  and  S_7
REMARK    2  A    between atoms: S_7  and  N_10
REMARK    3  A    between atoms: N_10  and  C_11
REMARK    4  A    between atoms: C_11  and  C_12
REMARK    5  A    between atoms: C_11  and  P_15
REMARK    6  A    between atoms: P_15  and  C_18
REMARK    7  A    between atoms: C_18  and  C_19
REMARK    8  A    between atoms: C_19  and  C_20
REMARK    9  A    between atoms: C_19  and  C_23
REMARK   10  A    between atoms: C_28  and  C_29
REMARK                            x       y       z     vdW  Elec       q    Type
REMARK                         _______ _______ _______ _____ _____    ______ ____
ROOT
ATOM      1  P   UNL     1      -0.465  -0.401   0.000  0.00  0.00    +0.000 P 
ATOM      2  O   UNL     1      -0.957  -1.064   0.000  0.00  0.00    +0.000 OA
ATOM      3  O   UNL     1       0.026   0.261   0.000  0.00  0.00    +0.000 OA
ENDROOT
BRANCH   1   4
ATOM      4  C   UNL     1      -1.128   0.090   0.000  0.00  0.00    +0.000 C 
BRANCH   4   5
ATOM      5  C   UNL     1      -1.033   0.910   0.000  0.00  0.00    +0.000 C 
ATOM      6  C   UNL     1      -0.276   1.238   0.000  0.00  0.00    +0.000 C 
ATOM      7  C   UNL     1      -1.696   1.402   0.000  0.00  0.00    +0.000 C 
ENDBRANCH   4   5
BRANCH   4   8
ATOM      8  N   UNL     1      -1.885  -0.237   0.000  0.00  0.00    +0.000 NA
BRANCH   8   9
ATOM      9  S   UNL     1      -2.547   0.254   0.000  0.00  0.00    +0.000 S 
ATOM     10  O   UNL     1      -2.055   0.917   0.000  0.00  0.00    +0.000 OA
ATOM     11  O   UNL     1      -3.039  -0.408   0.000  0.00  0.00    +0.000 OA
BRANCH   9  17
ATOM     12  C   UNL     1      -3.115   1.566   0.000  0.00  0.00    +0.000 A 
ATOM     13  C   UNL     1      -3.777   2.057   0.000  0.00  0.00    +0.000 A 
ATOM     14  C   UNL     1      -4.535   1.730   0.000  0.00  0.00    +0.000 A 
ATOM     15  C   UNL     1      -4.629   0.910   0.000  0.00  0.00    +0.000 A 
ATOM     16  C   UNL     1      -3.967   0.418   0.000  0.00  0.00    +0.000 A 
ATOM     17  C   UNL     1      -3.210   0.746   0.000  0.00  0.00    +0.000 A 
ENDBRANCH   9  17
ENDBRANCH   8   9
ENDBRANCH   4   8
ENDBRANCH   1   4
BRANCH   1  18
ATOM     18  C   UNL     1       0.197  -0.893   0.000  0.00  0.00    +0.000 C 
BRANCH  18  19
ATOM     19  C   UNL     1       0.954  -0.565   0.000  0.00  0.00    +0.000 C 
BRANCH  19  20
ATOM     20  C   UNL     1       1.617  -1.057   0.000  0.00  0.00    +0.000 A 
ATOM     21  C   UNL     1       2.374  -0.729   0.000  0.00  0.00    +0.000 A 
ATOM     22  C   UNL     1       1.522  -1.876   0.000  0.00  0.00    +0.000 A 
ATOM     23  C   UNL     1       2.184  -2.368   0.000  0.00  0.00    +0.000 A 
ATOM     24  C   UNL     1       2.942  -2.040   0.000  0.00  0.00    +0.000 A 
ATOM     25  C   UNL     1       3.036  -1.221   0.000  0.00  0.00    +0.000 A 
BRANCH  25  26
ATOM     26  C   UNL     1       3.793  -0.893   0.000  0.00  0.00    +0.000 C 
ATOM     27  N   UNL     1       3.888  -0.073   0.000  0.00  0.00    +0.000 NA
ENDBRANCH  25  26
ENDBRANCH  19  20
BRANCH  19  28
ATOM     28  C   UNL     1       1.049   0.254   0.000  0.00  0.00    +0.000 C 
ATOM     29  O   UNL     1       0.387   0.746   0.000  0.00  0.00    +0.000 OA
ATOM     30  O   UNL     1       1.806   0.582   0.000  0.00  0.00    +0.000 OA
ENDBRANCH  19  28
ENDBRANCH  18  19
ENDBRANCH   1  18
TORSDOF 10
