REMARK  Name = 236
REMARK  4 active torsions:
REMARK  status: ('A' for Active; 'I' for Inactive)
REMARK    1  A    between atoms: C_11  and  C_13
REMARK    2  A    between atoms: C_12  and  C_14
REMARK    3  A    between atoms: C_13  and  C_15
REMARK    4  A    between atoms: C_14  and  C_16
REMARK                            x       y       z     vdW  Elec       q    Type
REMARK                         _______ _______ _______ _____ _____    ______ ____
ROOT
ATOM      1  O   UNL     1       3.793  -2.062   0.000  0.00  0.00    +0.000 OA
ATOM      2  O   UNL     1       2.365   2.062   0.000  0.00  0.00    +0.000 OA
ATOM      3  N   UNL     1       3.079  -0.825   0.000  0.00  0.00    +0.000 N 
ATOM      4  N   UNL     1       3.079   0.825   0.000  0.00  0.00    +0.000 N 
ATOM      5  C   UNL     1       3.793  -0.412   0.000  0.00  0.00    +0.000 C 
ATOM      6  C   UNL     1       2.365  -0.412   0.000  0.00  0.00    +0.000 C 
ATOM      7  C   UNL     1       3.793   0.412   0.000  0.00  0.00    +0.000 C 
ATOM      8  C   UNL     1       2.365   0.412   0.000  0.00  0.00    +0.000 C 
ATOM      9  C   UNL     1       3.079  -1.650   0.000  0.00  0.00    +0.000 C 
ATOM     10  C   UNL     1       3.079   1.650   0.000  0.00  0.00    +0.000 C 
ENDROOT
BRANCH   9  11
ATOM     11  C   UNL     1       2.365  -2.062   0.000  0.00  0.00    +0.000 C 
BRANCH  11  13
ATOM     12 BR   UNL     1       1.650  -3.300   0.000  0.00  0.00    +0.000 Br
ATOM     13  C   UNL     1       2.365  -2.888   0.000  0.00  0.00    +0.000 C 
ENDBRANCH  11  13
ENDBRANCH   9  11
BRANCH  10  14
ATOM     14  C   UNL     1       3.793   2.062   0.000  0.00  0.00    +0.000 C 
BRANCH  14  16
ATOM     15 BR   UNL     1       4.508   3.300   0.000  0.00  0.00    +0.000 Br
ATOM     16  C   UNL     1       3.793   2.888   0.000  0.00  0.00    +0.000 C 
ENDBRANCH  14  16
ENDBRANCH  10  14
TORSDOF 4
