REMARK  Name = 2361
REMARK  1 active torsions:
REMARK  status: ('A' for Active; 'I' for Inactive)
REMARK    1  A    between atoms: C_8  and  C_14
REMARK                            x       y       z     vdW  Elec       q    Type
REMARK                         _______ _______ _______ _____ _____    ______ ____
ROOT
ATOM      1  O   UNL     1       4.539  -0.871   0.000  0.00  0.00    +0.000 OA
ATOM      2  O   UNL     1       4.549   1.661   0.000  0.00  0.00    +0.000 OA
ATOM      3  C   UNL     1       5.277   0.395   0.000  0.00  0.00    +0.000 A 
ATOM      4  C   UNL     1       5.991   0.808   0.000  0.00  0.00    +0.000 A 
ATOM      5  C   UNL     1       5.277  -0.430   0.000  0.00  0.00    +0.000 A 
ATOM      6  C   UNL     1       6.705   0.395   0.000  0.00  0.00    +0.000 A 
ATOM      7  C   UNL     1       4.539   0.836   0.000  0.00  0.00    +0.000 A 
ATOM      8  C   UNL     1       3.792  -0.447   0.000  0.00  0.00    +0.000 A 
ATOM      9  C   UNL     1       5.991  -0.842   0.000  0.00  0.00    +0.000 A 
ATOM     10  C   UNL     1       6.705  -0.430   0.000  0.00  0.00    +0.000 A 
ATOM     11  C   UNL     1       5.978   1.667   0.000  0.00  0.00    +0.000 A 
ATOM     12  C   UNL     1       3.792   0.412   0.000  0.00  0.00    +0.000 A 
ATOM     13  C   UNL     1       7.456   0.813   0.000  0.00  0.00    +0.000 A 
ATOM     14  C   UNL     1       6.719   2.102   0.000  0.00  0.00    +0.000 A 
ATOM     15  C   UNL     1       7.463   1.673   0.000  0.00  0.00    +0.000 A 
ENDROOT
BRANCH   8  16
ATOM     16  C   UNL     1       3.079  -0.862   0.000  0.00  0.00    +0.000 A 
ATOM     17  C   UNL     1       2.363  -0.452   0.000  0.00  0.00    +0.000 A 
ATOM     18  C   UNL     1       3.082  -1.687   0.000  0.00  0.00    +0.000 A 
ATOM     19  C   UNL     1       1.650  -0.868   0.000  0.00  0.00    +0.000 A 
ATOM     20  C   UNL     1       2.369  -2.102   0.000  0.00  0.00    +0.000 A 
ATOM     21  C   UNL     1       1.653  -1.693   0.000  0.00  0.00    +0.000 A 
ENDBRANCH   8  16
TORSDOF 1
