REMARK  Name = 2375
REMARK  7 active torsions:
REMARK  status: ('A' for Active; 'I' for Inactive)
REMARK    1  A    between atoms: S_1  and  C_13
REMARK    2  A    between atoms: S_1  and  C_16
REMARK    3  A    between atoms: N_10  and  C_17
REMARK    4  A    between atoms: C_12  and  C_13
REMARK    5  A    between atoms: C_12  and  C_15
REMARK    6  A    between atoms: C_24  and  C_28
REMARK    7  A    between atoms: C_26  and  C_29
REMARK                            x       y       z     vdW  Elec       q    Type
REMARK                         _______ _______ _______ _____ _____    ______ ____
ROOT
ATOM      1  O   UNL     1       4.508  -1.690   0.000  0.00  0.00    +0.000 OA
ATOM      2  N   UNL     1       5.222  -0.453   0.000  0.00  0.00    +0.000 NA
ATOM      3  C   UNL     1       5.222  -1.278   0.000  0.00  0.00    +0.000 C 
ENDROOT
BRANCH   2   4
ATOM      4  C   UNL     1       4.508  -0.040   0.000  0.00  0.00    +0.000 A 
ATOM      5  C   UNL     1       4.508   0.785   0.000  0.00  0.00    +0.000 A 
ATOM      6  C   UNL     1       3.793  -0.453   0.000  0.00  0.00    +0.000 A 
ATOM      7  C   UNL     1       3.793   1.198   0.000  0.00  0.00    +0.000 A 
ATOM      8  C   UNL     1       3.079   0.785   0.000  0.00  0.00    +0.000 A 
ATOM      9  C   UNL     1       3.079  -0.040   0.000  0.00  0.00    +0.000 A 
BRANCH   7  13
ATOM     10  F   UNL     1       3.793   2.848   0.000  0.00  0.00    +0.000 F 
ATOM     11  F   UNL     1       4.619   2.022   0.000  0.00  0.00    +0.000 F 
ATOM     12  F   UNL     1       2.969   2.022   0.000  0.00  0.00    +0.000 F 
ATOM     13  C   UNL     1       3.793   2.022   0.000  0.00  0.00    +0.000 C 
ENDBRANCH   7  13
BRANCH   8  15
ATOM     14  N   UNL     1       1.650   1.610   0.000  0.00  0.00    +0.000 NA
ATOM     15  C   UNL     1       2.365   1.198   0.000  0.00  0.00    +0.000 C 
ENDBRANCH   8  15
ENDBRANCH   2   4
BRANCH   3  17
ATOM     16  O   UNL     1       5.524  -2.405   0.000  0.00  0.00    +0.000 OA
ATOM     17  C   UNL     1       5.937  -1.690   0.000  0.00  0.00    +0.000 C 
ATOM     18  C   UNL     1       6.349  -0.976   0.000  0.00  0.00    +0.000 C 
BRANCH  17  19
ATOM     19  C   UNL     1       6.652  -2.103   0.000  0.00  0.00    +0.000 C 
BRANCH  19  20
ATOM     20  S   UNL     1       7.366  -1.690   0.000  0.00  0.00    +0.000 S 
ATOM     21  O   UNL     1       7.778  -2.405   0.000  0.00  0.00    +0.000 OA
ATOM     22  O   UNL     1       6.953  -0.976   0.000  0.00  0.00    +0.000 OA
BRANCH  20  24
ATOM     23  F   UNL     1      10.224  -0.040   0.000  0.00  0.00    +0.000 F 
ATOM     24  C   UNL     1       8.080  -1.278   0.000  0.00  0.00    +0.000 A 
ATOM     25  C   UNL     1       8.080  -0.453   0.000  0.00  0.00    +0.000 A 
ATOM     26  C   UNL     1       8.795  -1.690   0.000  0.00  0.00    +0.000 A 
ATOM     27  C   UNL     1       8.795  -0.040   0.000  0.00  0.00    +0.000 A 
ATOM     28  C   UNL     1       9.509  -1.278   0.000  0.00  0.00    +0.000 A 
ATOM     29  C   UNL     1       9.509  -0.453   0.000  0.00  0.00    +0.000 A 
ENDBRANCH  20  24
ENDBRANCH  19  20
ENDBRANCH  17  19
ENDBRANCH   3  17
TORSDOF 7
