REMARK  Name = 238
REMARK  1 active torsions:
REMARK  status: ('A' for Active; 'I' for Inactive)
REMARK    1  A    between atoms: N_2  and  C_6
REMARK                            x       y       z     vdW  Elec       q    Type
REMARK                         _______ _______ _______ _____ _____    ______ ____
ROOT
ATOM      1  O   UNL     1       4.798   2.045   0.000  0.00  0.00    +0.000 OA
ATOM      2  N   UNL     1       4.028  -0.505   0.000  0.00  0.00    +0.000 N 
ATOM      3  N   UNL     1       3.616   1.302   0.000  0.00  0.00    +0.000 NA
ATOM      4  N   UNL     1       2.664  -0.742   0.000  0.00  0.00    +0.000 NA
ATOM      5  N   UNL     1       5.392  -0.742   0.000  0.00  0.00    +0.000 NA
ATOM      6  C   UNL     1       3.285  -0.148   0.000  0.00  0.00    +0.000 A 
ATOM      7  C   UNL     1       4.771  -0.148   0.000  0.00  0.00    +0.000 A 
ATOM      8  C   UNL     1       3.101   0.657   0.000  0.00  0.00    +0.000 A 
ATOM      9  C   UNL     1       4.955   0.657   0.000  0.00  0.00    +0.000 A 
ATOM     10  C   UNL     1       2.284   0.923   0.000  0.00  0.00    +0.000 A 
ATOM     11  C   UNL     1       4.441   1.302   0.000  0.00  0.00    +0.000 C 
ATOM     12  C   UNL     1       5.772   0.922   0.000  0.00  0.00    +0.000 A 
ATOM     13  C   UNL     1       1.650   0.343   0.000  0.00  0.00    +0.000 A 
ATOM     14  C   UNL     1       1.841  -0.495   0.000  0.00  0.00    +0.000 A 
ATOM     15  C   UNL     1       6.215  -0.495   0.000  0.00  0.00    +0.000 A 
ATOM     16  C   UNL     1       2.110   1.729   0.000  0.00  0.00    +0.000 C 
ATOM     17  C   UNL     1       6.406   0.343   0.000  0.00  0.00    +0.000 A 
ENDROOT
BRANCH   2  18
ATOM     18  C   UNL     1       4.028  -1.331   0.000  0.00  0.00    +0.000 C 
ATOM     19  C   UNL     1       3.616  -2.045   0.000  0.00  0.00    +0.000 C 
ATOM     20  C   UNL     1       4.441  -2.045   0.000  0.00  0.00    +0.000 C 
ENDBRANCH   2  18
TORSDOF 1
