REMARK  Name = 239
REMARK  4 active torsions:
REMARK  status: ('A' for Active; 'I' for Inactive)
REMARK    1  A    between atoms: C_2  and  C_4
REMARK    2  A    between atoms: C_9  and  C_14
REMARK    3  A    between atoms: N_16  and  C_17
REMARK    4  A    between atoms: C_20  and  C_23
REMARK                            x       y       z     vdW  Elec       q    Type
REMARK                         _______ _______ _______ _____ _____    ______ ____
ROOT
ATOM      1  C   UNL     1      -3.222   0.880   0.000  0.00  0.00    +0.000 A 
ATOM      2  C   UNL     1      -2.508   1.292   0.000  0.00  0.00    +0.000 A 
ATOM      3  C   UNL     1      -1.794   0.880   0.000  0.00  0.00    +0.000 A 
ATOM      4  C   UNL     1      -1.079   1.292   0.000  0.00  0.00    +0.000 A 
ATOM      5  C   UNL     1      -0.365   0.880   0.000  0.00  0.00    +0.000 A 
ATOM      6  C   UNL     1      -0.365   0.055   0.000  0.00  0.00    +0.000 A 
ATOM      7  C   UNL     1      -1.079  -0.358   0.000  0.00  0.00    +0.000 A 
ATOM      8  C   UNL     1      -1.794   0.055   0.000  0.00  0.00    +0.000 A 
ATOM      9  C   UNL     1      -2.508  -0.358   0.000  0.00  0.00    +0.000 A 
ATOM     10  C   UNL     1      -3.222   0.055   0.000  0.00  0.00    +0.000 A 
ENDROOT
BRANCH   1  12
ATOM     11  N   UNL     1      -4.651   0.880   0.000  0.00  0.00    +0.000 NA
ATOM     12  C   UNL     1      -3.937   1.292   0.000  0.00  0.00    +0.000 C 
ATOM     13  N   UNL     1      -3.937   2.117   0.000  0.00  0.00    +0.000 NA
ENDBRANCH   1  12
BRANCH   6  14
ATOM     14  C   UNL     1       0.350  -0.358   0.000  0.00  0.00    +0.000 C 
ATOM     15  O   UNL     1       0.350  -1.183   0.000  0.00  0.00    +0.000 OA
ATOM     16  N   UNL     1       1.064   0.055   0.000  0.00  0.00    +0.000 NA
BRANCH  16  17
ATOM     17  C   UNL     1       1.779  -0.358   0.000  0.00  0.00    +0.000 A 
ATOM     18  C   UNL     1       2.493   0.055   0.000  0.00  0.00    +0.000 A 
ATOM     19  C   UNL     1       3.208  -0.358   0.000  0.00  0.00    +0.000 A 
ATOM     20  C   UNL     1       3.208  -1.183   0.000  0.00  0.00    +0.000 A 
ATOM     21  C   UNL     1       2.493  -1.595   0.000  0.00  0.00    +0.000 A 
ATOM     22  C   UNL     1       1.779  -1.183   0.000  0.00  0.00    +0.000 A 
BRANCH  20  23
ATOM     23  C   UNL     1       3.922  -1.595   0.000  0.00  0.00    +0.000 C 
ATOM     24  N   UNL     1       4.637  -1.183   0.000  0.00  0.00    +0.000 NA
ENDBRANCH  20  23
ENDBRANCH  16  17
ENDBRANCH   6  14
TORSDOF 4
