REMARK  Name = 23C
REMARK  5 active torsions:
REMARK  status: ('A' for Active; 'I' for Inactive)
REMARK    1  A    between atoms: C_10  and  C_11
REMARK    2  A    between atoms: C_11  and  C_12
REMARK    3  A    between atoms: C_12  and  C_13
REMARK    4  A    between atoms: C_12  and  N_16
REMARK    5  A    between atoms: C_21  and  C_22
REMARK                            x       y       z     vdW  Elec       q    Type
REMARK                         _______ _______ _______ _____ _____    ______ ____
ROOT
ATOM      1  C   UNL     1      -0.465   0.590   0.000  0.00  0.00    +0.000 C 
ENDROOT
BRANCH   1   2
ATOM      2  N   UNL     1       0.360   0.590   0.000  0.00  0.00    +0.000 N 
ATOM      3  C   UNL     1       0.845   1.258   0.000  0.00  0.00    +0.000 C 
ATOM      4  O   UNL     1       0.590   2.042   0.000  0.00  0.00    +0.000 OA
ATOM      5  C   UNL     1       1.629   1.003   0.000  0.00  0.00    +0.000 A 
ATOM      6  C   UNL     1       2.344   1.415   0.000  0.00  0.00    +0.000 A 
ATOM      7  C   UNL     1       3.058   1.003   0.000  0.00  0.00    +0.000 A 
ATOM      8  C   UNL     1       3.058   0.178   0.000  0.00  0.00    +0.000 A 
ATOM      9  C   UNL     1       2.344  -0.235   0.000  0.00  0.00    +0.000 A 
ATOM     10  C   UNL     1       1.629   0.178   0.000  0.00  0.00    +0.000 A 
ATOM     11  C   UNL     1       0.845  -0.077   0.000  0.00  0.00    +0.000 C 
ATOM     12  O   UNL     1       0.590  -0.862   0.000  0.00  0.00    +0.000 OA
BRANCH   7  13
ATOM     13  C   UNL     1       3.773   1.415   0.000  0.00  0.00    +0.000 C 
ATOM     14  O   UNL     1       3.773   2.240   0.000  0.00  0.00    +0.000 OA
ATOM     15  O   UNL     1       4.487   1.003   0.000  0.00  0.00    +0.000 OA
ENDBRANCH   7  13
ENDBRANCH   1   2
BRANCH   1  16
ATOM     16  C   UNL     1      -0.878   1.305   0.000  0.00  0.00    +0.000 C 
ATOM     17  O   UNL     1      -0.465   2.019   0.000  0.00  0.00    +0.000 OA
ATOM     18  O   UNL     1      -1.703   1.305   0.000  0.00  0.00    +0.000 OA
ENDBRANCH   1  16
BRANCH   1  19
ATOM     19  C   UNL     1      -0.878  -0.124   0.000  0.00  0.00    +0.000 C 
BRANCH  19  29
ATOM     20  C   UNL     1      -2.115  -0.839   0.000  0.00  0.00    +0.000 A 
ATOM     21  C   UNL     1      -1.703  -1.553   0.000  0.00  0.00    +0.000 A 
ATOM     22  C   UNL     1      -2.115  -2.267   0.000  0.00  0.00    +0.000 A 
ATOM     23  C   UNL     1      -2.940  -2.267   0.000  0.00  0.00    +0.000 A 
ATOM     24  C   UNL     1      -3.353  -1.553   0.000  0.00  0.00    +0.000 A 
ATOM     25  C   UNL     1      -2.940  -0.839   0.000  0.00  0.00    +0.000 A 
ATOM     26  C   UNL     1      -3.353  -0.124   0.000  0.00  0.00    +0.000 A 
ATOM     27  C   UNL     1      -2.940   0.590   0.000  0.00  0.00    +0.000 A 
ATOM     28  C   UNL     1      -2.115   0.590   0.000  0.00  0.00    +0.000 A 
ATOM     29  C   UNL     1      -1.703  -0.124   0.000  0.00  0.00    +0.000 A 
ENDBRANCH  19  29
ENDBRANCH   1  19
TORSDOF 5
