REMARK  Name = 23M
REMARK  2 active torsions:
REMARK  status: ('A' for Active; 'I' for Inactive)
REMARK    1  A    between atoms: C_4  and  C_6
REMARK    2  A    between atoms: C_15  and  C_17
REMARK                            x       y       z     vdW  Elec       q    Type
REMARK                         _______ _______ _______ _____ _____    ______ ____
ROOT
ATOM      1  C   UNL     1       0.953  -0.308   0.000  0.00  0.00    +0.000 A 
ATOM      2  C   UNL     1       0.953   0.517   0.000  0.00  0.00    +0.000 A 
ATOM      3  N   UNL     1       0.168   0.772   0.000  0.00  0.00    +0.000 NA
ATOM      4  C   UNL     1      -0.317   0.105   0.000  0.00  0.00    +0.000 A 
ATOM      5  C   UNL     1       0.168  -0.562   0.000  0.00  0.00    +0.000 A 
ATOM      6  C   UNL     1       1.667   0.930   0.000  0.00  0.00    +0.000 A 
ATOM      7  C   UNL     1       2.382   0.517   0.000  0.00  0.00    +0.000 A 
ATOM      8  C   UNL     1       2.382  -0.308   0.000  0.00  0.00    +0.000 A 
ATOM      9  C   UNL     1       1.667  -0.720   0.000  0.00  0.00    +0.000 A 
ENDROOT
BRANCH   4  10
ATOM     10  C   UNL     1      -1.142   0.105   0.000  0.00  0.00    +0.000 A 
ATOM     11  C   UNL     1      -1.554  -0.610   0.000  0.00  0.00    +0.000 A 
ATOM     12  C   UNL     1      -2.379  -0.610   0.000  0.00  0.00    +0.000 A 
ATOM     13  C   UNL     1      -2.792   0.105   0.000  0.00  0.00    +0.000 A 
ATOM     14  C   UNL     1      -2.379   0.819   0.000  0.00  0.00    +0.000 A 
ATOM     15  C   UNL     1      -1.554   0.819   0.000  0.00  0.00    +0.000 A 
ATOM     16  C   UNL     1      -2.792   1.534   0.000  0.00  0.00    +0.000 C 
ENDBRANCH   4  10
BRANCH   8  17
ATOM     17  C   UNL     1       3.096  -0.720   0.000  0.00  0.00    +0.000 C 
ATOM     18  N   UNL     1       3.811  -0.308   0.000  0.00  0.00    +0.000 NA
ATOM     19  N   UNL     1       3.096  -1.545   0.000  0.00  0.00    +0.000 NA
ENDBRANCH   8  17
TORSDOF 2
