REMARK  Name = 23N
REMARK  5 active torsions:
REMARK  status: ('A' for Active; 'I' for Inactive)
REMARK    1  A    between atoms: C_6  and  C_7
REMARK    2  A    between atoms: C_7  and  C_8
REMARK    3  A    between atoms: C_8  and  C_9
REMARK    4  A    between atoms: C_8  and  C_12
REMARK    5  A    between atoms: C_12  and  N_13
REMARK                            x       y       z     vdW  Elec       q    Type
REMARK                         _______ _______ _______ _____ _____    ______ ____
ROOT
ATOM      1  C   UNL     1       0.611   0.223   0.000  0.00  0.00    +0.000 C 
ENDROOT
BRANCH   1   2
ATOM      2  C   UNL     1       0.611  -0.602   0.000  0.00  0.00    +0.000 C 
ATOM      3  O   UNL     1       1.326  -1.014   0.000  0.00  0.00    +0.000 OA
ATOM      4  O   UNL     1      -0.103  -1.014   0.000  0.00  0.00    +0.000 OA
ENDBRANCH   1   2
BRANCH   1   5
ATOM      5  C   UNL     1      -0.103   0.636   0.000  0.00  0.00    +0.000 C 
BRANCH   5  11
ATOM      6  C   UNL     1      -1.532   0.636   0.000  0.00  0.00    +0.000 A 
ATOM      7  C   UNL     1      -2.247   0.223   0.000  0.00  0.00    +0.000 A 
ATOM      8  C   UNL     1      -2.247  -0.602   0.000  0.00  0.00    +0.000 A 
ATOM      9  C   UNL     1      -1.532  -1.014   0.000  0.00  0.00    +0.000 A 
ATOM     10  C   UNL     1      -0.818  -0.602   0.000  0.00  0.00    +0.000 A 
ATOM     11  C   UNL     1      -0.818   0.223   0.000  0.00  0.00    +0.000 A 
ENDBRANCH   5  11
ENDBRANCH   1   5
BRANCH   1  12
ATOM     12  C   UNL     1       1.326   0.636   0.000  0.00  0.00    +0.000 C 
BRANCH  12  13
ATOM     13  N   UNL     1       2.040   0.223   0.000  0.00  0.00    +0.000 N 
ATOM     14  O   UNL     1       2.755   0.636   0.000  0.00  0.00    +0.000 OA
ATOM     15  O   UNL     1       2.040  -0.602   0.000  0.00  0.00    +0.000 OA
ENDBRANCH  12  13
ENDBRANCH   1  12
TORSDOF 5
