REMARK  Name = 241
REMARK  4 active torsions:
REMARK  status: ('A' for Active; 'I' for Inactive)
REMARK    1  A    between atoms: C_6  and  C_7
REMARK    2  A    between atoms: C_6  and  C_9
REMARK    3  A    between atoms: C_7  and  C_8
REMARK    4  A    between atoms: C_9  and  C_14
REMARK                            x       y       z     vdW  Elec       q    Type
REMARK                         _______ _______ _______ _____ _____    ______ ____
ROOT
ATOM      1  O   UNL     1       4.729   0.166   0.000  0.00  0.00    +0.000 OA
ATOM      2  O   UNL     1       1.871   0.166   0.000  0.00  0.00    +0.000 OA
ATOM      3  O   UNL     1       3.300  -2.309   0.000  0.00  0.00    +0.000 OA
ATOM      4  N   UNL     1       4.014  -1.072   0.000  0.00  0.00    +0.000 NA
ATOM      5  N   UNL     1       2.586  -1.072   0.000  0.00  0.00    +0.000 NA
ATOM      6  C   UNL     1       3.300   0.166   0.000  0.00  0.00    +0.000 C 
ATOM      7  C   UNL     1       4.014  -0.247   0.000  0.00  0.00    +0.000 C 
ATOM      8  C   UNL     1       2.586  -0.247   0.000  0.00  0.00    +0.000 C 
ATOM      9  C   UNL     1       3.300  -1.484   0.000  0.00  0.00    +0.000 C 
ENDROOT
BRANCH   6  10
ATOM     10  C   UNL     1       3.713   0.880   0.000  0.00  0.00    +0.000 C 
BRANCH  10  11
ATOM     11  C   UNL     1       3.300   1.595   0.000  0.00  0.00    +0.000 C 
ATOM     12  C   UNL     1       2.475   1.595   0.000  0.00  0.00    +0.000 C 
ATOM     13  C   UNL     1       3.713   2.309   0.000  0.00  0.00    +0.000 C 
ENDBRANCH  10  11
ENDBRANCH   6  10
BRANCH   6  14
ATOM     14  C   UNL     1       2.888   0.880   0.000  0.00  0.00    +0.000 C 
BRANCH  14  15
ATOM     15  C   UNL     1       2.062   0.880   0.000  0.00  0.00    +0.000 C 
ATOM     16  C   UNL     1       1.650   1.595   0.000  0.00  0.00    +0.000 C 
ENDBRANCH  14  15
ENDBRANCH   6  14
TORSDOF 4
