REMARK  Name = 242
REMARK  4 active torsions:
REMARK  status: ('A' for Active; 'I' for Inactive)
REMARK    1  A    between atoms: C_8  and  C_12
REMARK    2  A    between atoms: C_14  and  C_19
REMARK    3  A    between atoms: N_21  and  C_22
REMARK    4  A    between atoms: C_24  and  C_28
REMARK                            x       y       z     vdW  Elec       q    Type
REMARK                         _______ _______ _______ _____ _____    ______ ____
ROOT
ATOM      1  C   UNL     1       0.551  -0.614   0.000  0.00  0.00    +0.000 A 
ATOM      2  C   UNL     1       1.266  -1.026   0.000  0.00  0.00    +0.000 A 
ATOM      3  C   UNL     1       1.980  -0.614   0.000  0.00  0.00    +0.000 A 
ATOM      4  C   UNL     1       1.980   0.211   0.000  0.00  0.00    +0.000 A 
ATOM      5  C   UNL     1       1.266   0.624   0.000  0.00  0.00    +0.000 A 
ATOM      6  C   UNL     1       0.551   0.211   0.000  0.00  0.00    +0.000 A 
ATOM      7  C   UNL     1      -0.163   0.624   0.000  0.00  0.00    +0.000 C 
ENDROOT
BRANCH   1  15
ATOM      8  C   UNL     1      -2.307  -0.614   0.000  0.00  0.00    +0.000 A 
ATOM      9  C   UNL     1      -1.592  -1.026   0.000  0.00  0.00    +0.000 A 
ATOM     10  C   UNL     1      -1.592  -1.851   0.000  0.00  0.00    +0.000 A 
ATOM     11  N   UNL     1      -2.307  -2.264   0.000  0.00  0.00    +0.000 NA
ATOM     12  C   UNL     1      -3.021  -1.851   0.000  0.00  0.00    +0.000 A 
ATOM     13  N   UNL     1      -3.021  -1.026   0.000  0.00  0.00    +0.000 NA
ATOM     14  C   UNL     1      -0.878  -0.614   0.000  0.00  0.00    +0.000 A 
ATOM     15  C   UNL     1      -0.163  -1.026   0.000  0.00  0.00    +0.000 A 
ATOM     16  C   UNL     1      -0.163  -1.851   0.000  0.00  0.00    +0.000 A 
ATOM     17  C   UNL     1      -0.878  -2.264   0.000  0.00  0.00    +0.000 A 
ATOM     18  N   UNL     1      -3.736  -2.264   0.000  0.00  0.00    +0.000 NA
ENDBRANCH   1  15
BRANCH   3  19
ATOM     19  C   UNL     1       2.695  -1.026   0.000  0.00  0.00    +0.000 C 
ATOM     20  O   UNL     1       3.409  -0.614   0.000  0.00  0.00    +0.000 OA
ATOM     21  N   UNL     1       2.695  -1.851   0.000  0.00  0.00    +0.000 NA
BRANCH  21  22
ATOM     22  C   UNL     1       3.409  -2.264   0.000  0.00  0.00    +0.000 A 
ATOM     23  C   UNL     1       3.409  -3.089   0.000  0.00  0.00    +0.000 A 
ATOM     24  C   UNL     1       4.124  -3.501   0.000  0.00  0.00    +0.000 A 
ATOM     25  C   UNL     1       4.838  -3.089   0.000  0.00  0.00    +0.000 A 
ATOM     26  C   UNL     1       4.838  -2.264   0.000  0.00  0.00    +0.000 A 
ATOM     27  C   UNL     1       4.124  -1.851   0.000  0.00  0.00    +0.000 A 
BRANCH  24  28
ATOM     28  C   UNL     1       4.124  -4.326   0.000  0.00  0.00    +0.000 C 
ATOM     29  F   UNL     1       4.124  -5.151   0.000  0.00  0.00    +0.000 F 
ATOM     30  F   UNL     1       3.299  -4.326   0.000  0.00  0.00    +0.000 F 
ATOM     31  F   UNL     1       4.949  -4.326   0.000  0.00  0.00    +0.000 F 
ENDBRANCH  24  28
ENDBRANCH  21  22
ENDBRANCH   3  19
TORSDOF 4
