REMARK  Name = 242
REMARK  2 active torsions:
REMARK  status: ('A' for Active; 'I' for Inactive)
REMARK    1  A    between atoms: N_5  and  C1*_10
REMARK    2  A    between atoms: C4*_13  and  C5*_14
REMARK                            x       y       z     vdW  Elec       q    Type
REMARK                         _______ _______ _______ _____ _____    ______ ____
ROOT
ATOM      1 CL   UNL     1       1.650  -0.556   0.000  0.00  0.00    +0.000 Cl
ATOM      2  N   UNL     1       4.574  -0.717   0.000  0.00  0.00    +0.000 N 
ATOM      3  N   UNL     1       4.574  -2.045   0.000  0.00  0.00    +0.000 NA
ATOM      4  N   UNL     1       3.079  -0.556   0.000  0.00  0.00    +0.000 NA
ATOM      5  N   UNL     1       2.365  -1.793   0.000  0.00  0.00    +0.000 NA
ATOM      6  N   UNL     1       3.079  -3.031   0.000  0.00  0.00    +0.000 NA
ATOM      7  C   UNL     1       3.793  -0.968   0.000  0.00  0.00    +0.000 A 
ATOM      8  C   UNL     1       5.056  -1.381   0.000  0.00  0.00    +0.000 A 
ATOM      9  C   UNL     1       3.793  -1.793   0.000  0.00  0.00    +0.000 A 
ATOM     10  C   UNL     1       3.079  -2.206   0.000  0.00  0.00    +0.000 A 
ATOM     11  C   UNL     1       2.365  -0.968   0.000  0.00  0.00    +0.000 A 
ENDROOT
BRANCH   2  14
ATOM     12  O4* UNL     1       4.347   0.736   0.000  0.00  0.00    +0.000 OA
ATOM     13  O3* UNL     1       6.285   1.630   0.000  0.00  0.00    +0.000 OA
ATOM     14  C1* UNL     1       4.830   0.068   0.000  0.00  0.00    +0.000 C 
ATOM     15  C3* UNL     1       5.617   1.146   0.000  0.00  0.00    +0.000 C 
ATOM     16  C2* UNL     1       5.615   0.321   0.000  0.00  0.00    +0.000 C 
ATOM     17  C4* UNL     1       4.833   1.402   0.000  0.00  0.00    +0.000 C 
BRANCH  17  19
ATOM     18  O5* UNL     1       5.132   2.800   0.000  0.00  0.00    +0.000 OA
ATOM     19  C5* UNL     1       4.579   2.188   0.000  0.00  0.00    +0.000 C 
ENDBRANCH  17  19
ENDBRANCH   2  14
TORSDOF 2
