REMARK  Name = 24244
REMARK  4 active torsions:
REMARK  status: ('A' for Active; 'I' for Inactive)
REMARK    1  A    between atoms: O_5  and  C_33
REMARK    2  A    between atoms: O_6  and  C_35
REMARK    3  A    between atoms: O_7  and  C_36
REMARK    4  A    between atoms: O_8  and  C_46
REMARK                            x       y       z     vdW  Elec       q    Type
REMARK                         _______ _______ _______ _____ _____    ______ ____
ROOT
ATOM      1  I   UNL     1       9.137   3.717   0.000  0.00  0.00    +0.000 I 
ENDROOT
TORSDOF 0
REMARK  Name = 24244
REMARK  4 active torsions:
REMARK  status: ('A' for Active; 'I' for Inactive)
REMARK    1  A    between atoms: O_5  and  C_33
REMARK    2  A    between atoms: O_6  and  C_35
REMARK    3  A    between atoms: O_7  and  C_36
REMARK    4  A    between atoms: O_8  and  C_46
REMARK                            x       y       z     vdW  Elec       q    Type
REMARK                         _______ _______ _______ _____ _____    ______ ____
ROOT
ATOM      1  I   UNL     1       9.137   5.794   0.000  0.00  0.00    +0.000 I 
ENDROOT
TORSDOF 0
REMARK  Name = 24244
REMARK  4 active torsions:
REMARK  status: ('A' for Active; 'I' for Inactive)
REMARK    1  A    between atoms: O_5  and  C_33
REMARK    2  A    between atoms: O_6  and  C_35
REMARK    3  A    between atoms: O_7  and  C_36
REMARK    4  A    between atoms: O_8  and  C_46
REMARK                            x       y       z     vdW  Elec       q    Type
REMARK                         _______ _______ _______ _____ _____    ______ ____
ROOT
ATOM      1  O   UNL     1       3.476   6.131   0.000  0.00  0.00    +0.000 OA
ATOM      2  O   UNL     1       4.894   3.115   0.000  0.00  0.00    +0.000 OA
ATOM      3  N   UNL     1       5.405   7.341   0.000  0.00  0.00    +0.000 N 
ATOM      4  N   UNL     1       1.326   1.938   0.000  0.00  0.00    +0.000 N 
ATOM      5  C   UNL     1       4.691   6.928   0.000  0.00  0.00    +0.000 C 
ATOM      6  C   UNL     1       1.959   2.466   0.000  0.00  0.00    +0.000 C 
ATOM      7  C   UNL     1       5.405   8.166   0.000  0.00  0.00    +0.000 C 
ATOM      8  C   UNL     1       1.466   1.125   0.000  0.00  0.00    +0.000 C 
ATOM      9  C   UNL     1       3.977   7.341   0.000  0.00  0.00    +0.000 A 
ATOM     10  C   UNL     1       4.691   8.578   0.000  0.00  0.00    +0.000 C 
ATOM     11  C   UNL     1       2.734   2.182   0.000  0.00  0.00    +0.000 A 
ATOM     12  C   UNL     1       4.477   6.131   0.000  0.00  0.00    +0.000 C 
ATOM     13  C   UNL     1       3.977   8.166   0.000  0.00  0.00    +0.000 A 
ATOM     14  C   UNL     1       2.241   0.841   0.000  0.00  0.00    +0.000 C 
ATOM     15  C   UNL     1       6.236   7.341   0.000  0.00  0.00    +0.000 C 
ATOM     16  C   UNL     1       5.821   6.621   0.000  0.00  0.00    +0.000 C 
ATOM     17  C   UNL     1       1.826   3.274   0.000  0.00  0.00    +0.000 C 
ATOM     18  C   UNL     1       2.874   1.369   0.000  0.00  0.00    +0.000 A 
ATOM     19  C   UNL     1       0.507   1.796   0.000  0.00  0.00    +0.000 C 
ATOM     20  C   UNL     1       0.794   2.576   0.000  0.00  0.00    +0.000 C 
ATOM     21  C   UNL     1       3.262   6.928   0.000  0.00  0.00    +0.000 A 
ATOM     22  C   UNL     1       4.890   5.417   0.000  0.00  0.00    +0.000 A 
ATOM     23  C   UNL     1       3.367   2.710   0.000  0.00  0.00    +0.000 A 
ATOM     24  C   UNL     1       3.262   8.578   0.000  0.00  0.00    +0.000 A 
ATOM     25  C   UNL     1       2.238   3.988   0.000  0.00  0.00    +0.000 A 
ATOM     26  C   UNL     1       3.649   1.084   0.000  0.00  0.00    +0.000 A 
ATOM     27  C   UNL     1       2.548   7.341   0.000  0.00  0.00    +0.000 A 
ATOM     28  C   UNL     1       4.142   2.425   0.000  0.00  0.00    +0.000 A 
ATOM     29  C   UNL     1       2.548   8.166   0.000  0.00  0.00    +0.000 A 
ATOM     30  C   UNL     1       4.282   1.613   0.000  0.00  0.00    +0.000 A 
ATOM     31  C   UNL     1       4.477   4.702   0.000  0.00  0.00    +0.000 A 
ATOM     32  C   UNL     1       5.715   5.417   0.000  0.00  0.00    +0.000 A 
ATOM     33  C   UNL     1       1.826   4.702   0.000  0.00  0.00    +0.000 A 
ATOM     34  C   UNL     1       3.063   3.988   0.000  0.00  0.00    +0.000 A 
ATOM     35  C   UNL     1       3.063   5.417   0.000  0.00  0.00    +0.000 A 
ATOM     36  C   UNL     1       4.890   3.988   0.000  0.00  0.00    +0.000 A 
ATOM     37  C   UNL     1       2.238   5.417   0.000  0.00  0.00    +0.000 A 
ATOM     38  C   UNL     1       3.476   4.702   0.000  0.00  0.00    +0.000 A 
ATOM     39  C   UNL     1       6.127   4.702   0.000  0.00  0.00    +0.000 A 
ATOM     40  C   UNL     1       5.715   3.988   0.000  0.00  0.00    +0.000 A 
ENDROOT
BRANCH  27  41
ATOM     41  O   UNL     1       1.828   6.925   0.000  0.00  0.00    +0.000 OA
ATOM     42  C   UNL     1       1.109   7.341   0.000  0.00  0.00    +0.000 C 
ENDBRANCH  27  41
BRANCH  29  43
ATOM     43  O   UNL     1       1.828   8.581   0.000  0.00  0.00    +0.000 OA
ATOM     44  C   UNL     1       1.828   9.412   0.000  0.00  0.00    +0.000 C 
ENDBRANCH  29  43
BRANCH  30  45
ATOM     45  O   UNL     1       5.062   1.326   0.000  0.00  0.00    +0.000 OA
ATOM     46  C   UNL     1       5.204   0.507   0.000  0.00  0.00    +0.000 C 
ENDBRANCH  30  45
BRANCH  40  47
ATOM     47  O   UNL     1       6.130   3.269   0.000  0.00  0.00    +0.000 OA
ATOM     48  C   UNL     1       6.961   3.269   0.000  0.00  0.00    +0.000 C 
ENDBRANCH  40  47
TORSDOF 4
