REMARK  Name = 243
REMARK  5 active torsions:
REMARK  status: ('A' for Active; 'I' for Inactive)
REMARK    1  A    between atoms: O_2  and  C_7
REMARK    2  A    between atoms: O_2  and  C_8
REMARK    3  A    between atoms: O_3  and  C_9
REMARK    4  A    between atoms: C_5  and  C_6
REMARK    5  A    between atoms: C_6  and  C_7
REMARK                            x       y       z     vdW  Elec       q    Type
REMARK                         _______ _______ _______ _____ _____    ______ ____
ROOT
ATOM      1  C   UNL     1       8.080   3.300   0.000  0.00  0.00    +0.000 A 
ATOM      2  C   UNL     1       8.795   2.888   0.000  0.00  0.00    +0.000 A 
ATOM      3  C   UNL     1       8.080   4.125   0.000  0.00  0.00    +0.000 A 
ATOM      4  C   UNL     1       9.509   3.300   0.000  0.00  0.00    +0.000 A 
ATOM      5  C   UNL     1       8.795   4.538   0.000  0.00  0.00    +0.000 A 
ATOM      6  C   UNL     1       9.509   4.125   0.000  0.00  0.00    +0.000 A 
ENDROOT
BRANCH   2   7
ATOM      7  O   UNL     1       8.795   2.062   0.000  0.00  0.00    +0.000 OA
ATOM      8  C   UNL     1       9.509   1.650   0.000  0.00  0.00    +0.000 C 
ENDBRANCH   2   7
BRANCH   1   9
ATOM      9  O   UNL     1       7.366   2.888   0.000  0.00  0.00    +0.000 OA
BRANCH   9  10
ATOM     10  C   UNL     1       7.366   2.062   0.000  0.00  0.00    +0.000 C 
BRANCH  10  12
ATOM     11  O   UNL     1       5.937   2.062   0.000  0.00  0.00    +0.000 OA
ATOM     12  C   UNL     1       6.652   1.650   0.000  0.00  0.00    +0.000 C 
BRANCH  12  14
ATOM     13  O   UNL     1       5.937   0.412   0.000  0.00  0.00    +0.000 OA
ATOM     14  C   UNL     1       6.652   0.825   0.000  0.00  0.00    +0.000 C 
ENDBRANCH  12  14
ENDBRANCH  10  12
ENDBRANCH   9  10
ENDBRANCH   1   9
TORSDOF 5
