REMARK  Name = 243
REMARK  9 active torsions:
REMARK  status: ('A' for Active; 'I' for Inactive)
REMARK    1  A    between atoms: O_2  and  C_15
REMARK    2  A    between atoms: O_2  and  C_18
REMARK    3  A    between atoms: O_4  and  C_23
REMARK    4  A    between atoms: N_5  and  C_12
REMARK    5  A    between atoms: N_6  and  C_13
REMARK    6  A    between atoms: N_7  and  C_17
REMARK    7  A    between atoms: C_12  and  C_14
REMARK    8  A    between atoms: C_13  and  C_16
REMARK    9  A    between atoms: C_14  and  C_15
REMARK                            x       y       z     vdW  Elec       q    Type
REMARK                         _______ _______ _______ _____ _____    ______ ____
ROOT
ATOM      1  N   UNL     1       5.937   0.412   0.000  0.00  0.00    +0.000 NA
ATOM      2  N   UNL     1       4.508  -0.412   0.000  0.00  0.00    +0.000 NA
ATOM      3  C   UNL     1       5.937  -0.412   0.000  0.00  0.00    +0.000 C 
ATOM      4  C   UNL     1       5.222   0.825   0.000  0.00  0.00    +0.000 C 
ATOM      5  C   UNL     1       5.222  -0.825   0.000  0.00  0.00    +0.000 C 
ATOM      6  C   UNL     1       4.508   0.412   0.000  0.00  0.00    +0.000 C 
ENDROOT
BRANCH   2   7
ATOM      7  C   UNL     1       3.793  -0.825   0.000  0.00  0.00    +0.000 C 
BRANCH   7  10
ATOM      8  O   UNL     1       4.508  -2.062   0.000  0.00  0.00    +0.000 OA
ATOM      9  N   UNL     1       3.079  -2.062   0.000  0.00  0.00    +0.000 NA
ATOM     10  C   UNL     1       3.793  -1.650   0.000  0.00  0.00    +0.000 C 
BRANCH   9  11
ATOM     11  C   UNL     1       3.079  -2.888   0.000  0.00  0.00    +0.000 A 
ATOM     12  C   UNL     1       3.793  -3.300   0.000  0.00  0.00    +0.000 A 
ATOM     13  C   UNL     1       2.365  -3.300   0.000  0.00  0.00    +0.000 A 
ATOM     14  C   UNL     1       3.793  -4.125   0.000  0.00  0.00    +0.000 A 
ATOM     15  C   UNL     1       2.365  -4.125   0.000  0.00  0.00    +0.000 A 
ATOM     16  C   UNL     1       4.508  -2.888   0.000  0.00  0.00    +0.000 C 
ATOM     17  C   UNL     1       1.650  -2.888   0.000  0.00  0.00    +0.000 C 
ATOM     18  C   UNL     1       3.079  -4.538   0.000  0.00  0.00    +0.000 A 
ENDBRANCH   9  11
ENDBRANCH   7  10
ENDBRANCH   2   7
BRANCH   1  19
ATOM     19  C   UNL     1       6.652   0.825   0.000  0.00  0.00    +0.000 C 
BRANCH  19  21
ATOM     20  O   UNL     1       5.937   2.062   0.000  0.00  0.00    +0.000 OA
ATOM     21  C   UNL     1       6.652   1.650   0.000  0.00  0.00    +0.000 C 
BRANCH  21  22
ATOM     22  C   UNL     1       7.366   2.062   0.000  0.00  0.00    +0.000 C 
BRANCH  22  23
ATOM     23  O   UNL     1       7.366   2.888   0.000  0.00  0.00    +0.000 OA
BRANCH  23  24
ATOM     24  C   UNL     1       8.080   3.300   0.000  0.00  0.00    +0.000 A 
ATOM     25  C   UNL     1       8.795   2.888   0.000  0.00  0.00    +0.000 A 
ATOM     26  C   UNL     1       8.080   4.125   0.000  0.00  0.00    +0.000 A 
ATOM     27  C   UNL     1       9.509   3.300   0.000  0.00  0.00    +0.000 A 
ATOM     28  C   UNL     1       8.795   4.538   0.000  0.00  0.00    +0.000 A 
ATOM     29  C   UNL     1       9.509   4.125   0.000  0.00  0.00    +0.000 A 
BRANCH  25  30
ATOM     30  O   UNL     1       8.795   2.062   0.000  0.00  0.00    +0.000 OA
ATOM     31  C   UNL     1       9.509   1.650   0.000  0.00  0.00    +0.000 C 
ENDBRANCH  25  30
ENDBRANCH  23  24
ENDBRANCH  22  23
ENDBRANCH  21  22
ENDBRANCH  19  21
ENDBRANCH   1  19
TORSDOF 9
