REMARK  Name = 244
REMARK  3 active torsions:
REMARK  status: ('A' for Active; 'I' for Inactive)
REMARK    1  A    between atoms: C_2  and  C_11
REMARK    2  A    between atoms: C_8  and  C_14
REMARK    3  A    between atoms: C_11  and  C_12
REMARK                            x       y       z     vdW  Elec       q    Type
REMARK                         _______ _______ _______ _____ _____    ______ ____
ROOT
ATOM      1  C   UNL     1       2.212  -0.249   0.000  0.00  0.00    +0.000 A 
ATOM      2  C   UNL     1       1.498  -0.662   0.000  0.00  0.00    +0.000 A 
ATOM      3  C   UNL     1       0.783  -0.249   0.000  0.00  0.00    +0.000 A 
ATOM      4  C   UNL     1       0.783   0.576   0.000  0.00  0.00    +0.000 A 
ATOM      5  C   UNL     1       1.498   0.988   0.000  0.00  0.00    +0.000 A 
ATOM      6  C   UNL     1       2.212   0.576   0.000  0.00  0.00    +0.000 A 
ATOM      7  O   UNL     1      -0.001  -0.504   0.000  0.00  0.00    +0.000 OA
ATOM      8  C   UNL     1      -0.486   0.163   0.000  0.00  0.00    +0.000 A 
ATOM      9  C   UNL     1      -0.001   0.831   0.000  0.00  0.00    +0.000 A 
ATOM     10  O   UNL     1       2.927   0.988   0.000  0.00  0.00    +0.000 OA
ENDROOT
BRANCH   8  11
ATOM     11  C   UNL     1      -1.311   0.163   0.000  0.00  0.00    +0.000 A 
ATOM     12  C   UNL     1      -1.724  -0.551   0.000  0.00  0.00    +0.000 A 
ATOM     13  C   UNL     1      -2.549  -0.551   0.000  0.00  0.00    +0.000 A 
ATOM     14  C   UNL     1      -2.961   0.163   0.000  0.00  0.00    +0.000 A 
ATOM     15  C   UNL     1      -2.549   0.878   0.000  0.00  0.00    +0.000 A 
ATOM     16  C   UNL     1      -1.724   0.878   0.000  0.00  0.00    +0.000 A 
ATOM     17  O   UNL     1      -3.786   0.163   0.000  0.00  0.00    +0.000 OA
ENDBRANCH   8  11
BRANCH   2  18
ATOM     18  C   UNL     1       1.498  -1.487   0.000  0.00  0.00    +0.000 C 
BRANCH  18  19
ATOM     19  C   UNL     1       2.212  -1.899   0.000  0.00  0.00    +0.000 C 
ATOM     20  N   UNL     1       2.927  -2.312   0.000  0.00  0.00    +0.000 NA
ENDBRANCH  18  19
ENDBRANCH   2  18
TORSDOF 3
