REMARK  Name = 246
REMARK  3 active torsions:
REMARK  status: ('A' for Active; 'I' for Inactive)
REMARK    1  A    between atoms: N_4  and  C_12
REMARK    2  A    between atoms: C_12  and  C_13
REMARK    3  A    between atoms: C_13  and  C_15
REMARK                            x       y       z     vdW  Elec       q    Type
REMARK                         _______ _______ _______ _____ _____    ______ ____
ROOT
ATOM      1  S   UNL     1       1.650  -1.307   0.000  0.00  0.00    +0.000 S 
ATOM      2  N   UNL     1       5.093   0.204   0.000  0.00  0.00    +0.000 NA
ATOM      3  N   UNL     1       3.664  -0.621   0.000  0.00  0.00    +0.000 N 
ATOM      4  N   UNL     1       2.200  -0.699   0.000  0.00  0.00    +0.000 NA
ATOM      5  C   UNL     1       5.093  -0.621   0.000  0.00  0.00    +0.000 C 
ATOM      6  C   UNL     1       4.378   0.617   0.000  0.00  0.00    +0.000 C 
ATOM      7  C   UNL     1       4.378  -1.033   0.000  0.00  0.00    +0.000 C 
ATOM      8  C   UNL     1       3.664   0.204   0.000  0.00  0.00    +0.000 C 
ATOM      9  C   UNL     1       2.949  -1.033   0.000  0.00  0.00    +0.000 A 
ATOM     10  C   UNL     1       2.864  -1.849   0.000  0.00  0.00    +0.000 A 
ATOM     11  C   UNL     1       2.057  -2.019   0.000  0.00  0.00    +0.000 A 
ATOM     12  C   UNL     1       3.415  -2.463   0.000  0.00  0.00    +0.000 A 
ATOM     13  C   UNL     1       1.801  -2.803   0.000  0.00  0.00    +0.000 A 
ATOM     14  C   UNL     1       3.159  -3.247   0.000  0.00  0.00    +0.000 A 
ATOM     15  C   UNL     1       2.352  -3.417   0.000  0.00  0.00    +0.000 A 
ENDROOT
BRANCH   2  16
ATOM     16  C   UNL     1       5.807   0.617   0.000  0.00  0.00    +0.000 C 
BRANCH  16  17
ATOM     17  C   UNL     1       5.807   1.442   0.000  0.00  0.00    +0.000 C 
BRANCH  17  21
ATOM     18 CL   UNL     1       5.807   3.092   0.000  0.00  0.00    +0.000 Cl
ATOM     19  O   UNL     1      10.038   2.267   0.000  0.00  0.00    +0.000 OA
ATOM     20  N   UNL     1       8.731   2.931   0.000  0.00  0.00    +0.000 NA
ATOM     21  C   UNL     1       6.522   1.855   0.000  0.00  0.00    +0.000 A 
ATOM     22  C   UNL     1       7.951   1.855   0.000  0.00  0.00    +0.000 A 
ATOM     23  C   UNL     1       7.236   1.442   0.000  0.00  0.00    +0.000 A 
ATOM     24  C   UNL     1       7.951   2.680   0.000  0.00  0.00    +0.000 A 
ATOM     25  C   UNL     1       6.522   2.680   0.000  0.00  0.00    +0.000 A 
ATOM     26  C   UNL     1       8.731   1.603   0.000  0.00  0.00    +0.000 C 
ATOM     27  C   UNL     1       7.236   3.092   0.000  0.00  0.00    +0.000 A 
ATOM     28  C   UNL     1       9.213   2.267   0.000  0.00  0.00    +0.000 C 
ENDBRANCH  17  21
ENDBRANCH  16  17
ENDBRANCH   2  16
TORSDOF 3
