REMARK  Name = 2475
REMARK  6 active torsions:
REMARK  status: ('A' for Active; 'I' for Inactive)
REMARK    1  A    between atoms: O_3  and  C_11
REMARK    2  A    between atoms: O_3  and  C_12
REMARK    3  A    between atoms: N_4  and  C_5
REMARK    4  A    between atoms: N_4  and  C_6
REMARK    5  A    between atoms: C_6  and  C_7
REMARK    6  A    between atoms: C_7  and  C_11
REMARK                            x       y       z     vdW  Elec       q    Type
REMARK                         _______ _______ _______ _____ _____    ______ ____
ROOT
ATOM      1  O   UNL     1       3.079  -0.564   0.000  0.00  0.00    +0.000 OA
ENDROOT
BRANCH   1   3
ATOM      2 CL   UNL     1       1.650  -1.389   0.000  0.00  0.00    +0.000 Cl
ATOM      3  C   UNL     1       3.079  -1.389   0.000  0.00  0.00    +0.000 A 
ATOM      4  C   UNL     1       3.793  -1.801   0.000  0.00  0.00    +0.000 A 
ATOM      5  C   UNL     1       2.365  -1.801   0.000  0.00  0.00    +0.000 A 
ATOM      6  C   UNL     1       3.793  -2.626   0.000  0.00  0.00    +0.000 A 
ATOM      7  C   UNL     1       3.079  -3.038   0.000  0.00  0.00    +0.000 A 
ATOM      8  C   UNL     1       2.365  -2.626   0.000  0.00  0.00    +0.000 A 
ATOM      9  C   UNL     1       4.508  -3.038   0.000  0.00  0.00    +0.000 C 
ENDBRANCH   1   3
BRANCH   1  10
ATOM     10  C   UNL     1       3.793  -0.151   0.000  0.00  0.00    +0.000 C 
BRANCH  10  12
ATOM     11  O   UNL     1       3.079   1.087   0.000  0.00  0.00    +0.000 OA
ATOM     12  C   UNL     1       3.793   0.674   0.000  0.00  0.00    +0.000 C 
BRANCH  12  13
ATOM     13  C   UNL     1       4.508   1.087   0.000  0.00  0.00    +0.000 C 
BRANCH  13  14
ATOM     14  N   UNL     1       4.508   1.912   0.000  0.00  0.00    +0.000 NA
BRANCH  14  15
ATOM     15  C   UNL     1       5.222   2.324   0.000  0.00  0.00    +0.000 C 
ATOM     16  C   UNL     1       5.937   2.737   0.000  0.00  0.00    +0.000 C 
ATOM     17  C   UNL     1       4.810   3.038   0.000  0.00  0.00    +0.000 C 
ATOM     18  C   UNL     1       5.635   1.610   0.000  0.00  0.00    +0.000 C 
ENDBRANCH  14  15
ENDBRANCH  13  14
ENDBRANCH  12  13
ENDBRANCH  10  12
ENDBRANCH   1  10
TORSDOF 6
