REMARK  Name = 248
REMARK  8 active torsions:
REMARK  status: ('A' for Active; 'I' for Inactive)
REMARK    1  A    between atoms: N_3  and  C_17
REMARK    2  A    between atoms: N_5  and  C_25
REMARK    3  A    between atoms: N_6  and  C_30
REMARK    4  A    between atoms: N_7  and  C_29
REMARK    5  A    between atoms: C_11  and  C_18
REMARK    6  A    between atoms: C_17  and  C_24
REMARK    7  A    between atoms: C_25  and  C_27
REMARK    8  A    between atoms: C_27  and  C_29
REMARK                            x       y       z     vdW  Elec       q    Type
REMARK                         _______ _______ _______ _____ _____    ______ ____
ROOT
ATOM      1  N   UNL     1       5.293  -0.149   0.000  0.00  0.00    +0.000 NA
ATOM      2  N   UNL     1       6.268  -3.545   0.000  0.00  0.00    +0.000 NA
ATOM      3  C   UNL     1       4.565  -1.420   0.000  0.00  0.00    +0.000 C 
ATOM      4  C   UNL     1       5.280  -1.008   0.000  0.00  0.00    +0.000 C 
ATOM      5  C   UNL     1       3.814  -1.002   0.000  0.00  0.00    +0.000 C 
ATOM      6  C   UNL     1       3.808  -0.143   0.000  0.00  0.00    +0.000 C 
ATOM      7  C   UNL     1       5.994  -1.420   0.000  0.00  0.00    +0.000 C 
ATOM      8  C   UNL     1       4.552   0.287   0.000  0.00  0.00    +0.000 C 
ATOM      9  C   UNL     1       4.565  -2.245   0.000  0.00  0.00    +0.000 A 
ATOM     10  C   UNL     1       5.280  -2.658   0.000  0.00  0.00    +0.000 A 
ATOM     11  C   UNL     1       5.994  -2.245   0.000  0.00  0.00    +0.000 A 
ATOM     12  C   UNL     1       5.293  -3.517   0.000  0.00  0.00    +0.000 A 
ATOM     13  C   UNL     1       3.814  -2.663   0.000  0.00  0.00    +0.000 A 
ATOM     14  C   UNL     1       6.602  -2.796   0.000  0.00  0.00    +0.000 A 
ATOM     15  C   UNL     1       4.552  -3.953   0.000  0.00  0.00    +0.000 A 
ATOM     16  C   UNL     1       3.808  -3.523   0.000  0.00  0.00    +0.000 A 
ENDROOT
BRANCH   6  21
ATOM     17  O   UNL     1       2.379  -0.148   0.000  0.00  0.00    +0.000 OA
ATOM     18  O   UNL     1       1.660   1.086   0.000  0.00  0.00    +0.000 OA
ATOM     19  N   UNL     1       3.088   1.092   0.000  0.00  0.00    +0.000 N 
ATOM     20  N   UNL     1       2.369   2.327   0.000  0.00  0.00    +0.000 NA
ATOM     21  C   UNL     1       3.092   0.267   0.000  0.00  0.00    +0.000 C 
ATOM     22  C   UNL     1       2.373   1.502   0.000  0.00  0.00    +0.000 C 
BRANCH  20  23
ATOM     23  C   UNL     1       1.653   2.736   0.000  0.00  0.00    +0.000 C 
ATOM     24  C   UNL     1       1.650   3.561   0.000  0.00  0.00    +0.000 C 
ENDBRANCH  20  23
BRANCH  19  25
ATOM     25  C   UNL     1       3.801   1.507   0.000  0.00  0.00    +0.000 C 
BRANCH  25  26
ATOM     26  C   UNL     1       3.798   2.332   0.000  0.00  0.00    +0.000 C 
BRANCH  26  27
ATOM     27  C   UNL     1       4.511   2.747   0.000  0.00  0.00    +0.000 C 
BRANCH  27  28
ATOM     28  N   UNL     1       4.508   3.572   0.000  0.00  0.00    +0.000 NA
ATOM     29  C   UNL     1       5.221   3.988   0.000  0.00  0.00    +0.000 C 
ATOM     30  C   UNL     1       3.792   3.982   0.000  0.00  0.00    +0.000 C 
ENDBRANCH  27  28
ENDBRANCH  26  27
ENDBRANCH  25  26
ENDBRANCH  19  25
ENDBRANCH   6  21
BRANCH   1  31
ATOM     31  C   UNL     1       6.012   0.256   0.000  0.00  0.00    +0.000 C 
BRANCH  31  32
ATOM     32  C   UNL     1       6.021   1.081   0.000  0.00  0.00    +0.000 C 
ATOM     33  C   UNL     1       6.741   1.485   0.000  0.00  0.00    +0.000 C 
ENDBRANCH  31  32
ENDBRANCH   1  31
TORSDOF 8
