REMARK  Name = 24I
REMARK  8 active torsions:
REMARK  status: ('A' for Active; 'I' for Inactive)
REMARK    1  A    between atoms: C_2  and  C_4
REMARK    2  A    between atoms: C_4  and  C_5
REMARK    3  A    between atoms: C_5  and  C_6
REMARK    4  A    between atoms: C_6  and  C_7
REMARK    5  A    between atoms: C_6  and  C_10
REMARK    6  A    between atoms: C_10  and  P_11
REMARK    7  A    between atoms: P_11  and  C_14
REMARK    8  A    between atoms: C_14  and  C_15
REMARK                            x       y       z     vdW  Elec       q    Type
REMARK                         _______ _______ _______ _____ _____    ______ ____
ROOT
ATOM      1  P   UNL     1       1.541   0.068   0.000  0.00  0.00    +0.000 P 
ATOM      2  O   UNL     1       1.811  -0.712   0.000  0.00  0.00    +0.000 OA
ATOM      3  O   UNL     1       1.271   0.848   0.000  0.00  0.00    +0.000 OA
ENDROOT
BRANCH   1   4
ATOM      4  C   UNL     1       2.320   0.338   0.000  0.00  0.00    +0.000 C 
BRANCH   4   5
ATOM      5  C   UNL     1       2.944  -0.202   0.000  0.00  0.00    +0.000 A 
ATOM      6  C   UNL     1       3.724   0.068   0.000  0.00  0.00    +0.000 A 
ATOM      7  C   UNL     1       4.347  -0.472   0.000  0.00  0.00    +0.000 A 
ATOM      8  C   UNL     1       2.788  -1.012   0.000  0.00  0.00    +0.000 A 
ATOM      9  C   UNL     1       3.412  -1.552   0.000  0.00  0.00    +0.000 A 
ATOM     10  C   UNL     1       4.191  -1.282   0.000  0.00  0.00    +0.000 A 
ATOM     11  I   UNL     1       4.815  -1.822   0.000  0.00  0.00    +0.000 I 
ENDBRANCH   4   5
ENDBRANCH   1   4
BRANCH   1  12
ATOM     12  C   UNL     1       0.761  -0.202   0.000  0.00  0.00    +0.000 C 
BRANCH  12  13
ATOM     13  C   UNL     1       0.138   0.338   0.000  0.00  0.00    +0.000 C 
BRANCH  13  14
ATOM     14  C   UNL     1       0.294   1.148   0.000  0.00  0.00    +0.000 C 
ATOM     15  O   UNL     1       1.073   1.418   0.000  0.00  0.00    +0.000 OA
ATOM     16  O   UNL     1      -0.330   1.688   0.000  0.00  0.00    +0.000 OA
ENDBRANCH  13  14
BRANCH  13  17
ATOM     17  C   UNL     1      -0.642   0.068   0.000  0.00  0.00    +0.000 C 
BRANCH  17  18
ATOM     18  C   UNL     1      -1.266   0.608   0.000  0.00  0.00    +0.000 C 
BRANCH  18  20
ATOM     19  O   UNL     1      -2.669   0.878   0.000  0.00  0.00    +0.000 OA
ATOM     20  C   UNL     1      -2.045   0.338   0.000  0.00  0.00    +0.000 C 
ATOM     21  O   UNL     1      -2.201  -0.472   0.000  0.00  0.00    +0.000 OA
ENDBRANCH  18  20
ENDBRANCH  17  18
ENDBRANCH  13  17
ENDBRANCH  12  13
ENDBRANCH   1  12
TORSDOF 8
