REMARK  Name = 24U
REMARK  6 active torsions:
REMARK  status: ('A' for Active; 'I' for Inactive)
REMARK    1  A    between atoms: C_2  and  C_3
REMARK    2  A    between atoms: N_5  and  C_6
REMARK    3  A    between atoms: C_6  and  C_7
REMARK    4  A    between atoms: C_10  and  C_11
REMARK    5  A    between atoms: C_19  and  C_20
REMARK    6  A    between atoms: C_20  and  C_21
REMARK                            x       y       z     vdW  Elec       q    Type
REMARK                         _______ _______ _______ _____ _____    ______ ____
ROOT
ATOM      1  C   UNL     1       0.200  -0.325   0.000  0.00  0.00    +0.000 C 
ATOM      2  O   UNL     1       0.915   0.087   0.000  0.00  0.00    +0.000 OA
ATOM      3  N   UNL     1      -0.514   0.087   0.000  0.00  0.00    +0.000 NA
ENDROOT
BRANCH   1   5
ATOM      4  N   UNL     1       0.868  -1.635   0.000  0.00  0.00    +0.000 N 
ATOM      5  C   UNL     1       0.200  -1.150   0.000  0.00  0.00    +0.000 C 
ATOM      6  C   UNL     1      -0.467  -1.635   0.000  0.00  0.00    +0.000 C 
ATOM      7  C   UNL     1      -0.212  -2.420   0.000  0.00  0.00    +0.000 C 
ATOM      8  C   UNL     1       0.613  -2.420   0.000  0.00  0.00    +0.000 C 
ATOM      9  C   UNL     1       1.652  -1.380   0.000  0.00  0.00    +0.000 C 
ATOM     10  O   UNL     1       2.265  -1.932   0.000  0.00  0.00    +0.000 OA
BRANCH   9  11
ATOM     11  C   UNL     1       1.824  -0.573   0.000  0.00  0.00    +0.000 C 
BRANCH  11  12
ATOM     12  C   UNL     1       2.608  -0.318   0.000  0.00  0.00    +0.000 C 
ATOM     13  C   UNL     1       3.222  -0.870   0.000  0.00  0.00    +0.000 C 
ENDBRANCH  11  12
ENDBRANCH   9  11
ENDBRANCH   1   5
BRANCH   3  14
ATOM     14  C   UNL     1      -0.514   0.912   0.000  0.00  0.00    +0.000 C 
BRANCH  14  15
ATOM     15  C   UNL     1      -1.229   1.325   0.000  0.00  0.00    +0.000 A 
ATOM     16  C   UNL     1      -1.229   2.150   0.000  0.00  0.00    +0.000 A 
ATOM     17  C   UNL     1      -1.943   2.562   0.000  0.00  0.00    +0.000 A 
ATOM     18  C   UNL     1      -2.658   2.150   0.000  0.00  0.00    +0.000 A 
ATOM     19  C   UNL     1      -2.658   1.325   0.000  0.00  0.00    +0.000 A 
ATOM     20  C   UNL     1      -1.943   0.912   0.000  0.00  0.00    +0.000 A 
BRANCH  18  21
ATOM     21  C   UNL     1      -3.372   2.562   0.000  0.00  0.00    +0.000 C 
ATOM     22  N   UNL     1      -4.087   2.150   0.000  0.00  0.00    +0.000 NA
ATOM     23  N   UNL     1      -3.372   3.388   0.000  0.00  0.00    +0.000 NA
ENDBRANCH  18  21
ENDBRANCH  14  15
ENDBRANCH   3  14
TORSDOF 6
