REMARK  Name = 250
REMARK  2 active torsions:
REMARK  status: ('A' for Active; 'I' for Inactive)
REMARK    1  A    between atoms: S_1  and  C_6
REMARK    2  A    between atoms: S_1  and  C_7
REMARK                            x       y       z     vdW  Elec       q    Type
REMARK                         _______ _______ _______ _____ _____    ______ ____
ROOT
ATOM      1  S   UNL     1       2.475   0.000   0.000  0.00  0.00    +0.000 S 
ATOM      2  O   UNL     1       1.650   0.000   0.000  0.00  0.00    +0.000 OA
ATOM      3  O   UNL     1       3.300   0.000   0.000  0.00  0.00    +0.000 OA
ENDROOT
BRANCH   1   5
ATOM      4  N   UNL     1       2.475  -3.300   0.000  0.00  0.00    +0.000 NA
ATOM      5  C   UNL     1       2.475  -0.825   0.000  0.00  0.00    +0.000 A 
ATOM      6  C   UNL     1       1.761  -1.238   0.000  0.00  0.00    +0.000 A 
ATOM      7  C   UNL     1       3.189  -1.238   0.000  0.00  0.00    +0.000 A 
ATOM      8  C   UNL     1       1.761  -2.062   0.000  0.00  0.00    +0.000 A 
ATOM      9  C   UNL     1       3.189  -2.062   0.000  0.00  0.00    +0.000 A 
ATOM     10  C   UNL     1       2.475  -2.475   0.000  0.00  0.00    +0.000 A 
ENDBRANCH   1   5
BRANCH   1  12
ATOM     11  N   UNL     1       2.475   3.300   0.000  0.00  0.00    +0.000 NA
ATOM     12  C   UNL     1       2.475   0.825   0.000  0.00  0.00    +0.000 A 
ATOM     13  C   UNL     1       3.189   1.238   0.000  0.00  0.00    +0.000 A 
ATOM     14  C   UNL     1       1.761   1.238   0.000  0.00  0.00    +0.000 A 
ATOM     15  C   UNL     1       3.189   2.062   0.000  0.00  0.00    +0.000 A 
ATOM     16  C   UNL     1       1.761   2.062   0.000  0.00  0.00    +0.000 A 
ATOM     17  C   UNL     1       2.475   2.475   0.000  0.00  0.00    +0.000 A 
ENDBRANCH   1  12
TORSDOF 2
