REMARK  Name = 251
REMARK  8 active torsions:
REMARK  status: ('A' for Active; 'I' for Inactive)
REMARK    1  A    between atoms: C_1  and  C_2
REMARK    2  A    between atoms: C_1  and  C_3
REMARK    3  A    between atoms: C_3  and  N_5
REMARK    4  A    between atoms: N_8  and  C_16
REMARK    5  A    between atoms: N_11  and  C_26
REMARK    6  A    between atoms: C_17  and  C_31
REMARK    7  A    between atoms: O_28  and  C_30
REMARK    8  A    between atoms: O_28  and  C_31
REMARK                            x       y       z     vdW  Elec       q    Type
REMARK                         _______ _______ _______ _____ _____    ______ ____
ROOT
ATOM      1  C   UNL     1       2.792  -0.453   0.000  0.00  0.00    +0.000 C 
ATOM      2  O   UNL     1       1.992  -0.203   0.000  0.00  0.00    +0.000 OA
ATOM      3  O   UNL     1       2.792  -1.238   0.000  0.00  0.00    +0.000 OA
ATOM      4  C   UNL     1       1.448  -0.838   0.000  0.00  0.00    +0.000 C 
ATOM      5  C   UNL     1       2.001  -1.523   0.000  0.00  0.00    +0.000 C 
ENDROOT
BRANCH   1   6
ATOM      6  C   UNL     1       3.643  -0.441   0.000  0.00  0.00    +0.000 A 
ATOM      7  C   UNL     1       4.059  -1.132   0.000  0.00  0.00    +0.000 A 
ATOM      8  C   UNL     1       4.068   0.244   0.000  0.00  0.00    +0.000 A 
ATOM      9  C   UNL     1       4.834  -1.132   0.000  0.00  0.00    +0.000 A 
ATOM     10  C   UNL     1       5.347  -0.463   0.000  0.00  0.00    +0.000 A 
ATOM     11 CL   UNL     1       3.633  -1.851   0.000  0.00  0.00    +0.000 Cl
ATOM     12  C   UNL     1       4.906   0.219   0.000  0.00  0.00    +0.000 A 
ATOM     13 CL   UNL     1       6.072  -0.497   0.000  0.00  0.00    +0.000 Cl
ENDBRANCH   1   6
BRANCH   1  14
ATOM     14  C   UNL     1       2.980   0.350   0.000  0.00  0.00    +0.000 C 
BRANCH  14  15
ATOM     15  N   UNL     1       2.476   0.985   0.000  0.00  0.00    +0.000 N 
ATOM     16  N   UNL     1       1.313   1.757   0.000  0.00  0.00    +0.000 NA
ATOM     17  N   UNL     1       2.733   1.795   0.000  0.00  0.00    +0.000 NA
ATOM     18  C   UNL     1       2.017   2.285   0.000  0.00  0.00    +0.000 A 
ATOM     19  C   UNL     1       1.588   0.969   0.000  0.00  0.00    +0.000 A 
ENDBRANCH  14  15
ENDBRANCH   1  14
BRANCH   4  20
ATOM     20  C   UNL     1       0.669  -0.838   0.000  0.00  0.00    +0.000 C 
BRANCH  20  21
ATOM     21  O   UNL     1       0.256  -1.579   0.000  0.00  0.00    +0.000 OA
BRANCH  21  25
ATOM     22  C   UNL     1      -2.270  -1.579   0.000  0.00  0.00    +0.000 A 
ATOM     23  C   UNL     1      -1.860  -2.273   0.000  0.00  0.00    +0.000 A 
ATOM     24  C   UNL     1      -1.882  -0.900   0.000  0.00  0.00    +0.000 A 
ATOM     25  C   UNL     1      -0.594  -1.567   0.000  0.00  0.00    +0.000 A 
ATOM     26  C   UNL     1      -1.054  -0.900   0.000  0.00  0.00    +0.000 A 
ATOM     27  C   UNL     1      -1.007  -2.273   0.000  0.00  0.00    +0.000 A 
BRANCH  22  28
ATOM     28  N   UNL     1      -3.108  -1.579   0.000  0.00  0.00    +0.000 N 
ATOM     29  N   UNL     1      -4.796  -1.591   0.000  0.00  0.00    +0.000 NA
ATOM     30  C   UNL     1      -3.533  -2.285   0.000  0.00  0.00    +0.000 C 
ATOM     31  C   UNL     1      -3.546  -0.872   0.000  0.00  0.00    +0.000 C 
ATOM     32  C   UNL     1      -4.384  -2.285   0.000  0.00  0.00    +0.000 C 
ATOM     33  C   UNL     1      -4.384  -0.872   0.000  0.00  0.00    +0.000 C 
BRANCH  29  34
ATOM     34  C   UNL     1      -5.659  -1.591   0.000  0.00  0.00    +0.000 C 
ATOM     35  C   UNL     1      -6.060  -2.285   0.000  0.00  0.00    +0.000 C 
ATOM     36  C   UNL     1      -6.072  -0.888   0.000  0.00  0.00    +0.000 C 
ENDBRANCH  29  34
ENDBRANCH  22  28
ENDBRANCH  21  25
ENDBRANCH  20  21
ENDBRANCH   4  20
TORSDOF 8
