REMARK  Name = 252
REMARK  9 active torsions:
REMARK  status: ('A' for Active; 'I' for Inactive)
REMARK    1  A    between atoms: C_2  and  C_3
REMARK    2  A    between atoms: C_3  and  C_4
REMARK    3  A    between atoms: C_4  and  C_5
REMARK    4  A    between atoms: C_5  and  C_6
REMARK    5  A    between atoms: C_6  and  C_7
REMARK    6  A    between atoms: C_7  and  C_8
REMARK    7  A    between atoms: C_8  and  C_9
REMARK    8  A    between atoms: C_9  and  P_10
REMARK    9  A    between atoms: C_9  and  P_14
REMARK                            x       y       z     vdW  Elec       q    Type
REMARK                         _______ _______ _______ _____ _____    ______ ____
ROOT
ATOM      1  C   UNL     1       2.894  -0.357   0.000  0.00  0.00    +0.000 C 
ATOM      2  O   UNL     1       3.687  -0.127   0.000  0.00  0.00    +0.000 OA
ENDROOT
BRANCH   1   3
ATOM      3  P   UNL     1       2.664   0.435   0.000  0.00  0.00    +0.000 P 
ATOM      4  O   UNL     1       2.434   1.227   0.000  0.00  0.00    +0.000 OA
ATOM      5  O   UNL     1       3.456   0.665   0.000  0.00  0.00    +0.000 OA
ATOM      6  O   UNL     1       1.872   0.205   0.000  0.00  0.00    +0.000 OA
ENDBRANCH   1   3
BRANCH   1   7
ATOM      7  P   UNL     1       3.124  -1.149   0.000  0.00  0.00    +0.000 P 
ATOM      8  O   UNL     1       3.917  -0.919   0.000  0.00  0.00    +0.000 OA
ATOM      9  O   UNL     1       2.332  -1.380   0.000  0.00  0.00    +0.000 OA
ATOM     10  O   UNL     1       3.355  -1.942   0.000  0.00  0.00    +0.000 OA
ENDBRANCH   1   7
BRANCH   1  11
ATOM     11  C   UNL     1       2.102  -0.587   0.000  0.00  0.00    +0.000 C 
BRANCH  11  12
ATOM     12  C   UNL     1       1.507  -0.016   0.000  0.00  0.00    +0.000 C 
BRANCH  12  13
ATOM     13  C   UNL     1       0.714  -0.247   0.000  0.00  0.00    +0.000 C 
BRANCH  13  14
ATOM     14  C   UNL     1       0.119   0.324   0.000  0.00  0.00    +0.000 C 
BRANCH  14  15
ATOM     15  C   UNL     1      -0.673   0.094   0.000  0.00  0.00    +0.000 C 
BRANCH  15  16
ATOM     16  C   UNL     1      -1.269   0.665   0.000  0.00  0.00    +0.000 C 
BRANCH  16  18
ATOM     17  C   UNL     1      -2.656   1.006   0.000  0.00  0.00    +0.000 C 
ATOM     18  C   UNL     1      -2.061   0.435   0.000  0.00  0.00    +0.000 C 
ENDBRANCH  16  18
ENDBRANCH  15  16
ENDBRANCH  14  15
ENDBRANCH  13  14
ENDBRANCH  12  13
ENDBRANCH  11  12
ENDBRANCH   1  11
TORSDOF 9
