REMARK  Name = 25295
REMARK  6 active torsions:
REMARK  status: ('A' for Active; 'I' for Inactive)
REMARK    1  A    between atoms: N_2  and  C_5
REMARK    2  A    between atoms: N_2  and  C_7
REMARK    3  A    between atoms: N_2  and  C_8
REMARK    4  A    between atoms: N_3  and  C_6
REMARK    5  A    between atoms: C_5  and  C_6
REMARK    6  A    between atoms: C_7  and  C_9
REMARK                            x       y       z     vdW  Elec       q    Type
REMARK                         _______ _______ _______ _____ _____    ______ ____
ROOT
ATOM      1  N   UNL     1       3.079   0.619   0.000  0.00  0.00    +0.000 N 
ENDROOT
BRANCH   1   3
ATOM      2  N   UNL     1       2.365   1.856   0.000  0.00  0.00    +0.000 NA
ATOM      3  C   UNL     1       3.079   1.444   0.000  0.00  0.00    +0.000 A 
ATOM      4  C   UNL     1       3.793   1.856   0.000  0.00  0.00    +0.000 A 
ATOM      5  C   UNL     1       3.793   2.681   0.000  0.00  0.00    +0.000 A 
ATOM      6  C   UNL     1       2.365   2.681   0.000  0.00  0.00    +0.000 A 
ATOM      7  C   UNL     1       3.079   3.094   0.000  0.00  0.00    +0.000 A 
ENDBRANCH   1   3
BRANCH   1   8
ATOM      8  C   UNL     1       3.793   0.206   0.000  0.00  0.00    +0.000 C 
BRANCH   8   9
ATOM      9  C   UNL     1       4.508   0.619   0.000  0.00  0.00    +0.000 C 
BRANCH   9  10
ATOM     10  N   UNL     1       5.222   0.206   0.000  0.00  0.00    +0.000 NA
ATOM     11  C   UNL     1       5.937   0.619   0.000  0.00  0.00    +0.000 C 
ATOM     12  C   UNL     1       5.222  -0.619   0.000  0.00  0.00    +0.000 C 
ENDBRANCH   9  10
ENDBRANCH   8   9
ENDBRANCH   1   8
BRANCH   1  13
ATOM     13  C   UNL     1       2.365   0.206   0.000  0.00  0.00    +0.000 C 
BRANCH  13  15
ATOM     14 CL   UNL     1       2.365  -3.094   0.000  0.00  0.00    +0.000 Cl
ATOM     15  C   UNL     1       2.365  -0.619   0.000  0.00  0.00    +0.000 A 
ATOM     16  C   UNL     1       3.079  -1.031   0.000  0.00  0.00    +0.000 A 
ATOM     17  C   UNL     1       1.650  -1.031   0.000  0.00  0.00    +0.000 A 
ATOM     18  C   UNL     1       3.079  -1.856   0.000  0.00  0.00    +0.000 A 
ATOM     19  C   UNL     1       1.650  -1.856   0.000  0.00  0.00    +0.000 A 
ATOM     20  C   UNL     1       2.365  -2.269   0.000  0.00  0.00    +0.000 A 
ENDBRANCH  13  15
ENDBRANCH   1  13
TORSDOF 6
