REMARK  Name = 253
REMARK  2 active torsions:
REMARK  status: ('A' for Active; 'I' for Inactive)
REMARK    1  A    between atoms: O_2  and  C_3
REMARK    2  A    between atoms: C_4  and  O_5
REMARK                            x       y       z     vdW  Elec       q    Type
REMARK                         _______ _______ _______ _____ _____    ______ ____
ROOT
ATOM      1  C   UNL     1      -2.210   0.509   0.000  0.00  0.00    +0.000 A 
ATOM      2  C   UNL     1      -1.496   0.922   0.000  0.00  0.00    +0.000 A 
ATOM      3  C   UNL     1      -0.781   0.509   0.000  0.00  0.00    +0.000 A 
ATOM      4  C   UNL     1      -0.781  -0.316   0.000  0.00  0.00    +0.000 A 
ATOM      5  C   UNL     1      -0.067  -0.728   0.000  0.00  0.00    +0.000 A 
ATOM      6  C   UNL     1       0.648  -0.316   0.000  0.00  0.00    +0.000 A 
ATOM      7  C   UNL     1       1.362  -0.728   0.000  0.00  0.00    +0.000 A 
ATOM      8  N   UNL     1       1.362  -1.553   0.000  0.00  0.00    +0.000 NA
ATOM      9  C   UNL     1       2.077  -0.316   0.000  0.00  0.00    +0.000 A 
ATOM     10  C   UNL     1       2.791  -0.728   0.000  0.00  0.00    +0.000 C 
ATOM     11  C   UNL     1       2.077   0.509   0.000  0.00  0.00    +0.000 A 
ATOM     12  N   UNL     1       2.791   0.922   0.000  0.00  0.00    +0.000 NA
ATOM     13  C   UNL     1       1.362   0.922   0.000  0.00  0.00    +0.000 A 
ATOM     14  C   UNL     1       0.648   0.509   0.000  0.00  0.00    +0.000 A 
ATOM     15  C   UNL     1      -0.067  -1.553   0.000  0.00  0.00    +0.000 A 
ATOM     16  C   UNL     1       0.648  -1.966   0.000  0.00  0.00    +0.000 A 
ATOM     17  N   UNL     1       0.648  -2.791   0.000  0.00  0.00    +0.000 NA
ATOM     18  C   UNL     1      -0.781  -1.966   0.000  0.00  0.00    +0.000 A 
ATOM     19  N   UNL     1      -1.496  -1.553   0.000  0.00  0.00    +0.000 NA
ATOM     20  C   UNL     1      -1.496  -0.728   0.000  0.00  0.00    +0.000 A 
ATOM     21  C   UNL     1      -2.210  -0.316   0.000  0.00  0.00    +0.000 A 
ENDROOT
BRANCH   1  23
ATOM     22  C   UNL     1      -3.639   0.509   0.000  0.00  0.00    +0.000 C 
ATOM     23  O   UNL     1      -2.925   0.922   0.000  0.00  0.00    +0.000 OA
ENDBRANCH   1  23
BRANCH   2  24
ATOM     24  O   UNL     1      -1.496   1.747   0.000  0.00  0.00    +0.000 OA
ATOM     25  C   UNL     1      -0.781   2.159   0.000  0.00  0.00    +0.000 C 
ENDBRANCH   2  24
TORSDOF 2
