REMARK  Name = 253
REMARK  1 active torsions:
REMARK  status: ('A' for Active; 'I' for Inactive)
REMARK    1  A    between atoms: C_11  and  C_20
REMARK                            x       y       z     vdW  Elec       q    Type
REMARK                         _______ _______ _______ _____ _____    ______ ____
ROOT
ATOM      1  O   UNL     1       3.956   1.266   0.000  0.00  0.00    +0.000 OA
ATOM      2  O   UNL     1       1.650  -1.664   0.000  0.00  0.00    +0.000 OA
ATOM      3  C   UNL     1       6.099   0.029   0.000  0.00  0.00    +0.000 C 
ATOM      4  C   UNL     1       6.099   0.854   0.000  0.00  0.00    +0.000 C 
ATOM      5  C   UNL     1       5.385  -0.384   0.000  0.00  0.00    +0.000 C 
ATOM      6  C   UNL     1       4.670   0.029   0.000  0.00  0.00    +0.000 C 
ATOM      7  C   UNL     1       3.920  -0.389   0.000  0.00  0.00    +0.000 C 
ATOM      8  C   UNL     1       5.385   1.266   0.000  0.00  0.00    +0.000 C 
ATOM      9  C   UNL     1       4.670   0.854   0.000  0.00  0.00    +0.000 C 
ATOM     10  C   UNL     1       6.880   1.105   0.000  0.00  0.00    +0.000 C 
ATOM     11  C   UNL     1       6.880  -0.223   0.000  0.00  0.00    +0.000 C 
ATOM     12  C   UNL     1       5.398  -1.243   0.000  0.00  0.00    +0.000 C 
ATOM     13  C   UNL     1       7.361   0.441   0.000  0.00  0.00    +0.000 C 
ATOM     14  C   UNL     1       4.657  -1.678   0.000  0.00  0.00    +0.000 C 
ATOM     15  C   UNL     1       3.913  -1.249   0.000  0.00  0.00    +0.000 C 
ATOM     16  C   UNL     1       6.099   1.679   0.000  0.00  0.00    +0.000 C 
ATOM     17  C   UNL     1       3.155   0.076   0.000  0.00  0.00    +0.000 C 
ATOM     18  C   UNL     1       3.926   0.436   0.000  0.00  0.00    +0.000 C 
ATOM     19  C   UNL     1       2.373  -0.360   0.000  0.00  0.00    +0.000 C 
ATOM     20  C   UNL     1       3.141  -1.702   0.000  0.00  0.00    +0.000 C 
ATOM     21  C   UNL     1       4.660  -2.503   0.000  0.00  0.00    +0.000 C 
ATOM     22  C   UNL     1       2.366  -1.255   0.000  0.00  0.00    +0.000 C 
ENDROOT
BRANCH  10  24
ATOM     23  O   UNL     1       6.585   2.503   0.000  0.00  0.00    +0.000 OA
ATOM     24  C   UNL     1       7.136   1.889   0.000  0.00  0.00    +0.000 C 
ATOM     25  C   UNL     1       7.944   2.059   0.000  0.00  0.00    +0.000 C 
ENDBRANCH  10  24
TORSDOF 1
