REMARK  Name = 255
REMARK  6 active torsions:
REMARK  status: ('A' for Active; 'I' for Inactive)
REMARK    1  A    between atoms: S_2  and  N_4
REMARK    2  A    between atoms: S_2  and  C_9
REMARK    3  A    between atoms: N_4  and  C_5
REMARK    4  A    between atoms: C_12  and  C_15
REMARK    5  A    between atoms: C_22  and  N_25
REMARK    6  A    between atoms: N_25  and  C_26
REMARK                            x       y       z     vdW  Elec       q    Type
REMARK                         _______ _______ _______ _____ _____    ______ ____
ROOT
ATOM      1  C   UNL     1       0.262  -1.266   0.000  0.00  0.00    +0.000 A 
ATOM      2  C   UNL     1       0.262  -2.091   0.000  0.00  0.00    +0.000 A 
ATOM      3  N   UNL     1       0.977  -2.504   0.000  0.00  0.00    +0.000 NA
ATOM      4  C   UNL     1       1.691  -2.091   0.000  0.00  0.00    +0.000 A 
ATOM      5  C   UNL     1       2.406  -2.504   0.000  0.00  0.00    +0.000 A 
ATOM      6  C   UNL     1       3.120  -2.091   0.000  0.00  0.00    +0.000 A 
ATOM      7  C   UNL     1       3.120  -1.266   0.000  0.00  0.00    +0.000 A 
ATOM      8  C   UNL     1       2.406  -0.854   0.000  0.00  0.00    +0.000 A 
ATOM      9  C   UNL     1       1.691  -1.266   0.000  0.00  0.00    +0.000 A 
ATOM     10  C   UNL     1       0.977  -0.854   0.000  0.00  0.00    +0.000 A 
ENDROOT
BRANCH   1  14
ATOM     11  C   UNL     1      -1.881  -0.029   0.000  0.00  0.00    +0.000 A 
ATOM     12  C   UNL     1      -1.881  -0.854   0.000  0.00  0.00    +0.000 A 
ATOM     13  C   UNL     1      -1.167  -1.266   0.000  0.00  0.00    +0.000 A 
ATOM     14  C   UNL     1      -0.452  -0.854   0.000  0.00  0.00    +0.000 A 
ATOM     15  C   UNL     1      -0.452  -0.029   0.000  0.00  0.00    +0.000 A 
ATOM     16  C   UNL     1      -1.167   0.384   0.000  0.00  0.00    +0.000 A 
BRANCH  11  18
ATOM     17  O   UNL     1      -2.183   1.098   0.000  0.00  0.00    +0.000 OA
ATOM     18  S   UNL     1      -2.595   0.384   0.000  0.00  0.00    +0.000 S 
ATOM     19  O   UNL     1      -3.008  -0.331   0.000  0.00  0.00    +0.000 OA
BRANCH  18  20
ATOM     20  N   UNL     1      -3.310   0.796   0.000  0.00  0.00    +0.000 NA
BRANCH  20  21
ATOM     21  C   UNL     1      -3.310   1.621   0.000  0.00  0.00    +0.000 C 
ATOM     22  C   UNL     1      -3.310   2.446   0.000  0.00  0.00    +0.000 C 
ATOM     23  C   UNL     1      -2.485   1.621   0.000  0.00  0.00    +0.000 C 
ATOM     24  C   UNL     1      -4.135   1.621   0.000  0.00  0.00    +0.000 C 
ENDBRANCH  20  21
ENDBRANCH  18  20
ENDBRANCH  11  18
ENDBRANCH   1  14
BRANCH   8  25
ATOM     25  N   UNL     1       2.406  -0.029   0.000  0.00  0.00    +0.000 NA
BRANCH  25  26
ATOM     26  C   UNL     1       3.120   0.384   0.000  0.00  0.00    +0.000 A 
ATOM     27  N   UNL     1       3.120   1.209   0.000  0.00  0.00    +0.000 NA
ATOM     28  C   UNL     1       3.835   1.621   0.000  0.00  0.00    +0.000 A 
ATOM     29  C   UNL     1       4.549   1.209   0.000  0.00  0.00    +0.000 A 
ATOM     30  C   UNL     1       4.549   0.384   0.000  0.00  0.00    +0.000 A 
ATOM     31  C   UNL     1       3.835  -0.029   0.000  0.00  0.00    +0.000 A 
ENDBRANCH  25  26
ENDBRANCH   8  25
TORSDOF 6
