REMARK  Name = 256
REMARK  3 active torsions:
REMARK  status: ('A' for Active; 'I' for Inactive)
REMARK    1  A    between atoms: C_4  and  C_7
REMARK    2  A    between atoms: C_7  and  C_8
REMARK    3  A    between atoms: C_7  and  S_10
REMARK                            x       y       z     vdW  Elec       q    Type
REMARK                         _______ _______ _______ _____ _____    ______ ____
ROOT
ATOM      1  C   UNL     1      -0.865  -0.353   0.000  0.00  0.00    +0.000 C 
ENDROOT
BRANCH   1   5
ATOM      2  C   UNL     1       1.278   0.884   0.000  0.00  0.00    +0.000 A 
ATOM      3  C   UNL     1       1.278   0.059   0.000  0.00  0.00    +0.000 A 
ATOM      4  C   UNL     1       0.564  -0.353   0.000  0.00  0.00    +0.000 A 
ATOM      5  C   UNL     1      -0.151   0.059   0.000  0.00  0.00    +0.000 A 
ATOM      6  C   UNL     1      -0.151   0.884   0.000  0.00  0.00    +0.000 A 
ATOM      7  C   UNL     1       0.564   1.296   0.000  0.00  0.00    +0.000 A 
ENDBRANCH   1   5
BRANCH   1   8
ATOM      8  S   UNL     1      -0.865  -1.179   0.000  0.00  0.00    +0.000 S 
ATOM      9  O   UNL     1      -0.865  -2.003   0.000  0.00  0.00    +0.000 OA
ATOM     10  O   UNL     1      -1.690  -1.179   0.000  0.00  0.00    +0.000 OA
ATOM     11  O   UNL     1      -0.040  -1.179   0.000  0.00  0.00    +0.000 OA
ENDBRANCH   1   8
BRANCH   1  12
ATOM     12  C   UNL     1      -1.580   0.059   0.000  0.00  0.00    +0.000 C 
ATOM     13  O   UNL     1      -2.294  -0.353   0.000  0.00  0.00    +0.000 OA
ATOM     14  O   UNL     1      -1.580   0.884   0.000  0.00  0.00    +0.000 OA
ENDBRANCH   1  12
TORSDOF 3
