REMARK  Name = 257
REMARK  4 active torsions:
REMARK  status: ('A' for Active; 'I' for Inactive)
REMARK    1  A    between atoms: N_2  and  C_4
REMARK    2  A    between atoms: C_4  and  C_5
REMARK    3  A    between atoms: C_4  and  C_6
REMARK    4  A    between atoms: C_4  and  C_7
REMARK                            x       y       z     vdW  Elec       q    Type
REMARK                         _______ _______ _______ _____ _____    ______ ____
ROOT
ATOM      1  C   UNL     1       4.125   0.190   0.000  0.00  0.00    +0.000 C 
ENDROOT
BRANCH   1   3
ATOM      2 CL   UNL     1       2.696  -1.460   0.000  0.00  0.00    +0.000 Cl
ATOM      3  C   UNL     1       4.125  -0.635   0.000  0.00  0.00    +0.000 A 
ATOM      4  C   UNL     1       3.411  -1.047   0.000  0.00  0.00    +0.000 A 
ATOM      5  C   UNL     1       4.840  -1.047   0.000  0.00  0.00    +0.000 A 
ATOM      6  C   UNL     1       3.411  -1.872   0.000  0.00  0.00    +0.000 A 
ATOM      7  C   UNL     1       4.840  -1.872   0.000  0.00  0.00    +0.000 A 
ATOM      8  C   UNL     1       4.125  -2.285   0.000  0.00  0.00    +0.000 A 
ENDBRANCH   1   3
BRANCH   1   9
ATOM      9  C   UNL     1       3.300   0.190   0.000  0.00  0.00    +0.000 A 
ATOM     10  C   UNL     1       2.888   0.905   0.000  0.00  0.00    +0.000 A 
ATOM     11  C   UNL     1       2.888  -0.524   0.000  0.00  0.00    +0.000 A 
ATOM     12  C   UNL     1       2.062   0.905   0.000  0.00  0.00    +0.000 A 
ATOM     13  C   UNL     1       2.062  -0.524   0.000  0.00  0.00    +0.000 A 
ATOM     14  C   UNL     1       1.650   0.190   0.000  0.00  0.00    +0.000 A 
ENDBRANCH   1   9
BRANCH   1  15
ATOM     15  C   UNL     1       4.950   0.190   0.000  0.00  0.00    +0.000 A 
ATOM     16  C   UNL     1       5.363   0.905   0.000  0.00  0.00    +0.000 A 
ATOM     17  C   UNL     1       5.363  -0.524   0.000  0.00  0.00    +0.000 A 
ATOM     18  C   UNL     1       6.188   0.905   0.000  0.00  0.00    +0.000 A 
ATOM     19  C   UNL     1       6.188  -0.524   0.000  0.00  0.00    +0.000 A 
ATOM     20  C   UNL     1       6.600   0.190   0.000  0.00  0.00    +0.000 A 
ENDBRANCH   1  15
BRANCH   1  21
ATOM     21  N   UNL     1       4.125   1.015   0.000  0.00  0.00    +0.000 N 
ATOM     22  N   UNL     1       4.538   2.285   0.000  0.00  0.00    +0.000 NA
ATOM     23  C   UNL     1       3.458   1.500   0.000  0.00  0.00    +0.000 A 
ATOM     24  C   UNL     1       4.793   1.500   0.000  0.00  0.00    +0.000 A 
ATOM     25  C   UNL     1       3.713   2.285   0.000  0.00  0.00    +0.000 A 
ENDBRANCH   1  21
TORSDOF 4
