REMARK  Name = 259
REMARK  1 active torsions:
REMARK  status: ('A' for Active; 'I' for Inactive)
REMARK    1  A    between atoms: S_1  and  C_6
REMARK                            x       y       z     vdW  Elec       q    Type
REMARK                         _______ _______ _______ _____ _____    ______ ____
ROOT
ATOM      1  N   UNL     1       2.475  -2.062   0.000  0.00  0.00    +0.000 NA
ATOM      2  C   UNL     1       2.475   0.412   0.000  0.00  0.00    +0.000 A 
ATOM      3  C   UNL     1       1.761   0.000   0.000  0.00  0.00    +0.000 A 
ATOM      4  C   UNL     1       3.189   0.000   0.000  0.00  0.00    +0.000 A 
ATOM      5  C   UNL     1       2.475  -1.238   0.000  0.00  0.00    +0.000 A 
ATOM      6  C   UNL     1       1.761  -0.825   0.000  0.00  0.00    +0.000 A 
ATOM      7  C   UNL     1       3.189  -0.825   0.000  0.00  0.00    +0.000 A 
ENDROOT
BRANCH   2   8
ATOM      8  S   UNL     1       2.475   1.238   0.000  0.00  0.00    +0.000 S 
ATOM      9  O   UNL     1       1.650   1.238   0.000  0.00  0.00    +0.000 OA
ATOM     10  O   UNL     1       3.300   1.238   0.000  0.00  0.00    +0.000 OA
ATOM     11  N   UNL     1       2.475   2.062   0.000  0.00  0.00    +0.000 NA
ENDBRANCH   2   8
TORSDOF 1
