REMARK  Name = 262
REMARK  3 active torsions:
REMARK  status: ('A' for Active; 'I' for Inactive)
REMARK    1  A    between atoms: C_5  and  O_8
REMARK    2  A    between atoms: C_6  and  C_7
REMARK    3  A    between atoms: O_8  and  P_9
REMARK                            x       y       z     vdW  Elec       q    Type
REMARK                         _______ _______ _______ _____ _____    ______ ____
ROOT
ATOM      1  C   UNL     1       1.566   0.067   0.000  0.00  0.00    +0.000 A 
ATOM      2  C   UNL     1       1.566  -0.758   0.000  0.00  0.00    +0.000 A 
ATOM      3  C   UNL     1       0.851  -1.170   0.000  0.00  0.00    +0.000 A 
ATOM      4  C   UNL     1       0.137  -0.758   0.000  0.00  0.00    +0.000 A 
ATOM      5  C   UNL     1       0.137   0.067   0.000  0.00  0.00    +0.000 A 
ATOM      6  C   UNL     1       0.851   0.480   0.000  0.00  0.00    +0.000 A 
ENDROOT
BRANCH   6   7
ATOM      7  C   UNL     1       0.851   1.305   0.000  0.00  0.00    +0.000 C 
ATOM      8  O   UNL     1       0.137   1.717   0.000  0.00  0.00    +0.000 OA
ENDBRANCH   6   7
BRANCH   5   9
ATOM      9  O   UNL     1      -0.578   0.480   0.000  0.00  0.00    +0.000 OA
BRANCH   9  10
ATOM     10  P   UNL     1      -1.292   0.067   0.000  0.00  0.00    +0.000 P 
ATOM     11  O   UNL     1      -2.007  -0.345   0.000  0.00  0.00    +0.000 OA
ATOM     12  O   UNL     1      -1.705   0.782   0.000  0.00  0.00    +0.000 OA
ATOM     13  O   UNL     1      -0.880  -0.647   0.000  0.00  0.00    +0.000 OA
ENDBRANCH   9  10
ENDBRANCH   5   9
TORSDOF 3
