REMARK  Name = 262
REMARK  5 active torsions:
REMARK  status: ('A' for Active; 'I' for Inactive)
REMARK    1  A    between atoms: N_5  and  N_7
REMARK    2  A    between atoms: N_5  and  C_8
REMARK    3  A    between atoms: N_6  and  C_9
REMARK    4  A    between atoms: C_8  and  C_11
REMARK    5  A    between atoms: C_9  and  C_12
REMARK                            x       y       z     vdW  Elec       q    Type
REMARK                         _______ _______ _______ _____ _____    ______ ____
ROOT
ATOM      1  O   UNL     1       4.508  -1.238   0.000  0.00  0.00    +0.000 OA
ATOM      2  N   UNL     1       5.222   0.000   0.000  0.00  0.00    +0.000 N 
ATOM      3  N   UNL     1       3.793   0.000   0.000  0.00  0.00    +0.000 NA
ATOM      4  C   UNL     1       4.508  -0.412   0.000  0.00  0.00    +0.000 C 
ENDROOT
BRANCH   2   6
ATOM      5  O   UNL     1       5.937   1.238   0.000  0.00  0.00    +0.000 OA
ATOM      6  N   UNL     1       5.222   0.825   0.000  0.00  0.00    +0.000 NA
ENDBRANCH   2   6
BRANCH   2   7
ATOM      7  C   UNL     1       5.937  -0.412   0.000  0.00  0.00    +0.000 C 
BRANCH   7   9
ATOM      8 CL   UNL     1       7.366  -0.412   0.000  0.00  0.00    +0.000 Cl
ATOM      9  C   UNL     1       6.652   0.000   0.000  0.00  0.00    +0.000 C 
ENDBRANCH   7   9
ENDBRANCH   2   7
BRANCH   3  10
ATOM     10  C   UNL     1       3.079  -0.412   0.000  0.00  0.00    +0.000 C 
BRANCH  10  12
ATOM     11 CL   UNL     1       1.650  -0.412   0.000  0.00  0.00    +0.000 Cl
ATOM     12  C   UNL     1       2.365   0.000   0.000  0.00  0.00    +0.000 C 
ENDBRANCH  10  12
ENDBRANCH   3  10
TORSDOF 5
