REMARK  Name = 264
REMARK  9 active torsions:
REMARK  status: ('A' for Active; 'I' for Inactive)
REMARK    1  A    between atoms: O_1  and  C_8
REMARK    2  A    between atoms: O_1  and  C_11
REMARK    3  A    between atoms: O_3  and  C_18
REMARK    4  A    between atoms: N_4  and  C_6
REMARK    5  A    between atoms: N_4  and  C_7
REMARK    6  A    between atoms: C_5  and  C_6
REMARK    7  A    between atoms: C_5  and  C_8
REMARK    8  A    between atoms: C_12  and  C_13
REMARK    9  A    between atoms: C_13  and  C_18
REMARK                            x       y       z     vdW  Elec       q    Type
REMARK                         _______ _______ _______ _____ _____    ______ ____
ROOT
ATOM      1  C   UNL     1       3.079  -0.206   0.000  0.00  0.00    +0.000 A 
ATOM      2  C   UNL     1       3.079  -1.856   0.000  0.00  0.00    +0.000 A 
ATOM      3  C   UNL     1       2.365  -0.619   0.000  0.00  0.00    +0.000 A 
ATOM      4  C   UNL     1       3.793  -0.619   0.000  0.00  0.00    +0.000 A 
ATOM      5  C   UNL     1       2.365  -1.444   0.000  0.00  0.00    +0.000 A 
ATOM      6  C   UNL     1       3.793  -1.444   0.000  0.00  0.00    +0.000 A 
ENDROOT
BRANCH   1   7
ATOM      7  O   UNL     1       3.079   0.619   0.000  0.00  0.00    +0.000 OA
BRANCH   7   8
ATOM      8  C   UNL     1       3.793   1.031   0.000  0.00  0.00    +0.000 C 
BRANCH   8  10
ATOM      9  O   UNL     1       3.079   2.269   0.000  0.00  0.00    +0.000 OA
ATOM     10  C   UNL     1       3.793   1.856   0.000  0.00  0.00    +0.000 C 
BRANCH  10  11
ATOM     11  C   UNL     1       4.508   2.269   0.000  0.00  0.00    +0.000 C 
BRANCH  11  12
ATOM     12  N   UNL     1       4.508   3.094   0.000  0.00  0.00    +0.000 NA
BRANCH  12  13
ATOM     13  C   UNL     1       5.222   3.506   0.000  0.00  0.00    +0.000 C 
ATOM     14  C   UNL     1       5.937   3.094   0.000  0.00  0.00    +0.000 C 
ATOM     15  C   UNL     1       5.222   4.331   0.000  0.00  0.00    +0.000 C 
ENDBRANCH  12  13
ENDBRANCH  11  12
ENDBRANCH  10  11
ENDBRANCH   8  10
ENDBRANCH   7   8
ENDBRANCH   1   7
BRANCH   2  16
ATOM     16  C   UNL     1       3.079  -2.681   0.000  0.00  0.00    +0.000 C 
BRANCH  16  17
ATOM     17  C   UNL     1       2.365  -3.094   0.000  0.00  0.00    +0.000 C 
BRANCH  17  18
ATOM     18  O   UNL     1       2.365  -3.919   0.000  0.00  0.00    +0.000 OA
ATOM     19  C   UNL     1       1.650  -4.331   0.000  0.00  0.00    +0.000 C 
ENDBRANCH  17  18
ENDBRANCH  16  17
ENDBRANCH   2  16
TORSDOF 9
