REMARK  Name = 265
REMARK  3 active torsions:
REMARK  status: ('A' for Active; 'I' for Inactive)
REMARK    1  A    between atoms: N_2  and  C_3
REMARK    2  A    between atoms: N_2  and  C_4
REMARK    3  A    between atoms: C_7  and  C_13
REMARK                            x       y       z     vdW  Elec       q    Type
REMARK                         _______ _______ _______ _____ _____    ______ ____
ROOT
ATOM      1  O   UNL     1       4.508   0.000   0.000  0.00  0.00    +0.000 OA
ATOM      2  N   UNL     1       3.079   0.000   0.000  0.00  0.00    +0.000 N 
ATOM      3  C   UNL     1       3.793   0.412   0.000  0.00  0.00    +0.000 C 
ENDROOT
BRANCH   2   4
ATOM      4  C   UNL     1       3.079  -0.825   0.000  0.00  0.00    +0.000 A 
ATOM      5  C   UNL     1       2.365  -1.238   0.000  0.00  0.00    +0.000 A 
ATOM      6  C   UNL     1       3.793  -1.238   0.000  0.00  0.00    +0.000 A 
ATOM      7  C   UNL     1       2.365  -2.062   0.000  0.00  0.00    +0.000 A 
ATOM      8  C   UNL     1       1.650  -0.825   0.000  0.00  0.00    +0.000 C 
ATOM      9  C   UNL     1       3.793  -2.062   0.000  0.00  0.00    +0.000 A 
ATOM     10  C   UNL     1       3.079  -2.475   0.000  0.00  0.00    +0.000 A 
ENDBRANCH   2   4
BRANCH   3  11
ATOM     11  C   UNL     1       3.793   1.238   0.000  0.00  0.00    +0.000 C 
ATOM     12  C   UNL     1       4.508   1.650   0.000  0.00  0.00    +0.000 C 
ATOM     13  C   UNL     1       4.508   2.475   0.000  0.00  0.00    +0.000 C 
ENDBRANCH   3  11
BRANCH   2  14
ATOM     14  C   UNL     1       2.365   0.412   0.000  0.00  0.00    +0.000 C 
ATOM     15  C   UNL     1       2.365   1.238   0.000  0.00  0.00    +0.000 C 
ENDBRANCH   2  14
TORSDOF 3
