REMARK  Name = 268
REMARK  7 active torsions:
REMARK  status: ('A' for Active; 'I' for Inactive)
REMARK    1  A    between atoms: N_2  and  C_4
REMARK    2  A    between atoms: N_2  and  C_7
REMARK    3  A    between atoms: N_2  and  C_8
REMARK    4  A    between atoms: C_4  and  C_5
REMARK    5  A    between atoms: C_5  and  C_6
REMARK    6  A    between atoms: C_7  and  C_12
REMARK    7  A    between atoms: C_8  and  C_13
REMARK                            x       y       z     vdW  Elec       q    Type
REMARK                         _______ _______ _______ _____ _____    ______ ____
ROOT
ATOM      1  O   UNL     1       6.595  -1.694   0.000  0.00  0.00    +0.000 OA
ATOM      2  N   UNL     1       5.289  -2.358   0.000  0.00  0.00    +0.000 NA
ATOM      3  C   UNL     1       3.793  -0.869   0.000  0.00  0.00    +0.000 A 
ATOM      4  C   UNL     1       4.508  -1.281   0.000  0.00  0.00    +0.000 A 
ATOM      5  C   UNL     1       5.289  -1.030   0.000  0.00  0.00    +0.000 C 
ATOM      6  C   UNL     1       4.508  -2.106   0.000  0.00  0.00    +0.000 A 
ATOM      7  C   UNL     1       3.079  -1.281   0.000  0.00  0.00    +0.000 A 
ATOM      8  C   UNL     1       5.770  -1.694   0.000  0.00  0.00    +0.000 C 
ATOM      9  C   UNL     1       3.793  -2.519   0.000  0.00  0.00    +0.000 A 
ATOM     10  C   UNL     1       3.079  -2.106   0.000  0.00  0.00    +0.000 A 
ENDROOT
BRANCH   3  11
ATOM     11  C   UNL     1       3.793  -0.044   0.000  0.00  0.00    +0.000 C 
BRANCH  11  12
ATOM     12  C   UNL     1       3.079   0.369   0.000  0.00  0.00    +0.000 C 
BRANCH  12  13
ATOM     13  N   UNL     1       3.079   1.194   0.000  0.00  0.00    +0.000 NA
BRANCH  13  14
ATOM     14  C   UNL     1       2.365   1.606   0.000  0.00  0.00    +0.000 C 
BRANCH  14  15
ATOM     15  C   UNL     1       2.365   2.431   0.000  0.00  0.00    +0.000 C 
ATOM     16  C   UNL     1       1.650   2.844   0.000  0.00  0.00    +0.000 C 
ENDBRANCH  14  15
ENDBRANCH  13  14
BRANCH  13  17
ATOM     17  C   UNL     1       3.793   1.606   0.000  0.00  0.00    +0.000 C 
BRANCH  17  18
ATOM     18  C   UNL     1       3.793   2.431   0.000  0.00  0.00    +0.000 C 
ATOM     19  C   UNL     1       4.508   2.844   0.000  0.00  0.00    +0.000 C 
ENDBRANCH  17  18
ENDBRANCH  13  17
ENDBRANCH  12  13
ENDBRANCH  11  12
ENDBRANCH   3  11
TORSDOF 7
