REMARK  Name = 269
REMARK  3 active torsions:
REMARK  status: ('A' for Active; 'I' for Inactive)
REMARK    1  A    between atoms: C_6  and  C_7
REMARK    2  A    between atoms: C_7  and  C_9
REMARK    3  A    between atoms: C_9  and  C_10
REMARK                            x       y       z     vdW  Elec       q    Type
REMARK                         _______ _______ _______ _____ _____    ______ ____
ROOT
ATOM      1  C   UNL     1       0.530  -0.698   0.000  0.00  0.00    +0.000 A 
ATOM      2  C   UNL     1       0.530  -1.523   0.000  0.00  0.00    +0.000 A 
ATOM      3  C   UNL     1      -0.184  -1.935   0.000  0.00  0.00    +0.000 A 
ATOM      4  C   UNL     1      -0.898  -1.523   0.000  0.00  0.00    +0.000 A 
ATOM      5  C   UNL     1      -0.898  -0.698   0.000  0.00  0.00    +0.000 A 
ATOM      6  C   UNL     1      -0.184  -0.285   0.000  0.00  0.00    +0.000 A 
ENDROOT
BRANCH   6   7
ATOM      7  C   UNL     1      -0.184   0.539   0.000  0.00  0.00    +0.000 C 
ATOM      8  O   UNL     1       0.530   0.952   0.000  0.00  0.00    +0.000 OA
BRANCH   7   9
ATOM      9  C   UNL     1      -0.898   0.952   0.000  0.00  0.00    +0.000 C 
BRANCH   9  10
ATOM     10  C   UNL     1      -0.898   1.777   0.000  0.00  0.00    +0.000 C 
ATOM     11 CL   UNL     1      -1.613   2.189   0.000  0.00  0.00    +0.000 Cl
ENDBRANCH   9  10
ENDBRANCH   7   9
ENDBRANCH   6   7
TORSDOF 3
