REMARK  Name = 269
REMARK  6 active torsions:
REMARK  status: ('A' for Active; 'I' for Inactive)
REMARK    1  A    between atoms: O_2  and  C_20
REMARK    2  A    between atoms: O_3  and  C_21
REMARK    3  A    between atoms: O_4  and  C_24
REMARK    4  A    between atoms: C_5  and  C_6
REMARK    5  A    between atoms: C_5  and  C_7
REMARK    6  A    between atoms: C_8  and  C_9
REMARK                            x       y       z     vdW  Elec       q    Type
REMARK                         _______ _______ _______ _____ _____    ______ ____
ROOT
ATOM      1 CL   UNL     1       1.650  -0.206   0.000  0.00  0.00    +0.000 Cl
ATOM      2  C   UNL     1       3.079  -0.206   0.000  0.00  0.00    +0.000 C 
ATOM      3  C   UNL     1       2.365   0.206   0.000  0.00  0.00    +0.000 C 
ENDROOT
BRANCH   3   4
ATOM      4  C   UNL     1       2.365   1.031   0.000  0.00  0.00    +0.000 A 
ATOM      5  C   UNL     1       1.650   1.444   0.000  0.00  0.00    +0.000 A 
ATOM      6  C   UNL     1       3.079   1.444   0.000  0.00  0.00    +0.000 A 
ATOM      7  C   UNL     1       1.650   2.269   0.000  0.00  0.00    +0.000 A 
ATOM      8  C   UNL     1       3.079   2.269   0.000  0.00  0.00    +0.000 A 
ATOM      9  C   UNL     1       2.365   2.681   0.000  0.00  0.00    +0.000 A 
BRANCH   9  10
ATOM     10  O   UNL     1       2.365   3.506   0.000  0.00  0.00    +0.000 OA
ATOM     11  C   UNL     1       1.650   3.919   0.000  0.00  0.00    +0.000 C 
ENDBRANCH   9  10
ENDBRANCH   3   4
BRANCH   2  12
ATOM     12  C   UNL     1       3.079  -1.031   0.000  0.00  0.00    +0.000 A 
ATOM     13  C   UNL     1       3.793  -1.444   0.000  0.00  0.00    +0.000 A 
ATOM     14  C   UNL     1       2.365  -1.444   0.000  0.00  0.00    +0.000 A 
ATOM     15  C   UNL     1       3.793  -2.269   0.000  0.00  0.00    +0.000 A 
ATOM     16  C   UNL     1       2.365  -2.269   0.000  0.00  0.00    +0.000 A 
ATOM     17  C   UNL     1       3.079  -2.681   0.000  0.00  0.00    +0.000 A 
BRANCH  17  18
ATOM     18  O   UNL     1       3.079  -3.506   0.000  0.00  0.00    +0.000 OA
ATOM     19  C   UNL     1       2.365  -3.919   0.000  0.00  0.00    +0.000 C 
ENDBRANCH  17  18
ENDBRANCH   2  12
BRANCH   2  20
ATOM     20  C   UNL     1       3.793   0.206   0.000  0.00  0.00    +0.000 A 
ATOM     21  C   UNL     1       3.793   1.031   0.000  0.00  0.00    +0.000 A 
ATOM     22  C   UNL     1       4.508  -0.206   0.000  0.00  0.00    +0.000 A 
ATOM     23  C   UNL     1       4.508   1.444   0.000  0.00  0.00    +0.000 A 
ATOM     24  C   UNL     1       5.222   0.206   0.000  0.00  0.00    +0.000 A 
ATOM     25  C   UNL     1       5.222   1.031   0.000  0.00  0.00    +0.000 A 
BRANCH  25  26
ATOM     26  O   UNL     1       5.937   1.444   0.000  0.00  0.00    +0.000 OA
ATOM     27  C   UNL     1       6.652   1.031   0.000  0.00  0.00    +0.000 C 
ENDBRANCH  25  26
ENDBRANCH   2  20
TORSDOF 6
