REMARK  Name = 26C
REMARK  2 active torsions:
REMARK  status: ('A' for Active; 'I' for Inactive)
REMARK    1  A    between atoms: C_2  and  C_4
REMARK    2  A    between atoms: C_8  and  C_10
REMARK                            x       y       z     vdW  Elec       q    Type
REMARK                         _______ _______ _______ _____ _____    ______ ____
ROOT
ATOM      1  C   UNL     1      -0.065   1.640   0.000  0.00  0.00    +0.000 A 
ATOM      2  C   UNL     1       0.649   1.227   0.000  0.00  0.00    +0.000 A 
ATOM      3  C   UNL     1      -0.780   1.227   0.000  0.00  0.00    +0.000 A 
ATOM      4  C   UNL     1      -0.780   0.402   0.000  0.00  0.00    +0.000 A 
ATOM      5  C   UNL     1      -0.065  -0.010   0.000  0.00  0.00    +0.000 A 
ATOM      6  C   UNL     1       0.649   0.402   0.000  0.00  0.00    +0.000 A 
ENDROOT
BRANCH   5   7
ATOM      7  C   UNL     1      -0.065  -0.835   0.000  0.00  0.00    +0.000 A 
ATOM      8  C   UNL     1       0.649  -1.248   0.000  0.00  0.00    +0.000 A 
ATOM      9  F   UNL     1       1.364  -0.835   0.000  0.00  0.00    +0.000 F 
ATOM     10  C   UNL     1       0.649  -2.073   0.000  0.00  0.00    +0.000 A 
ATOM     11  C   UNL     1      -0.065  -2.485   0.000  0.00  0.00    +0.000 A 
ATOM     12  C   UNL     1      -0.780  -2.073   0.000  0.00  0.00    +0.000 A 
ATOM     13  C   UNL     1      -0.780  -1.248   0.000  0.00  0.00    +0.000 A 
ATOM     14  F   UNL     1      -1.494  -0.835   0.000  0.00  0.00    +0.000 F 
ENDBRANCH   5   7
BRANCH   1  16
ATOM     15  O   UNL     1       0.649   2.877   0.000  0.00  0.00    +0.000 OA
ATOM     16  C   UNL     1      -0.065   2.465   0.000  0.00  0.00    +0.000 C 
ATOM     17  O   UNL     1      -0.780   2.877   0.000  0.00  0.00    +0.000 OA
ENDBRANCH   1  16
TORSDOF 2
