REMARK  Name = 26U
REMARK  7 active torsions:
REMARK  status: ('A' for Active; 'I' for Inactive)
REMARK    1  A    between atoms: C_2  and  C_3
REMARK    2  A    between atoms: N_5  and  C_6
REMARK    3  A    between atoms: C_6  and  C_7
REMARK    4  A    between atoms: C_10  and  C_11
REMARK    5  A    between atoms: C_19  and  C_20
REMARK    6  A    between atoms: C_20  and  C_21
REMARK    7  A    between atoms: C_21  and  C_22
REMARK                            x       y       z     vdW  Elec       q    Type
REMARK                         _______ _______ _______ _____ _____    ______ ____
ROOT
ATOM      1  C   UNL     1      -0.531   0.145   0.000  0.00  0.00    +0.000 C 
ATOM      2  O   UNL     1       0.082   0.698   0.000  0.00  0.00    +0.000 OA
ATOM      3  N   UNL     1      -1.316   0.401   0.000  0.00  0.00    +0.000 NA
ENDROOT
BRANCH   1   5
ATOM      4  N   UNL     1       0.394  -0.997   0.000  0.00  0.00    +0.000 N 
ATOM      5  C   UNL     1      -0.360  -0.661   0.000  0.00  0.00    +0.000 C 
ATOM      6  C   UNL     1      -0.912  -1.274   0.000  0.00  0.00    +0.000 C 
ATOM      7  C   UNL     1      -0.499  -1.989   0.000  0.00  0.00    +0.000 C 
ATOM      8  C   UNL     1       0.308  -1.817   0.000  0.00  0.00    +0.000 C 
ATOM      9  C   UNL     1       1.108  -0.585   0.000  0.00  0.00    +0.000 C 
ATOM     10  O   UNL     1       1.108   0.240   0.000  0.00  0.00    +0.000 OA
BRANCH   9  11
ATOM     11  C   UNL     1       1.823  -0.997   0.000  0.00  0.00    +0.000 C 
BRANCH  11  12
ATOM     12  C   UNL     1       2.537  -0.585   0.000  0.00  0.00    +0.000 C 
BRANCH  12  13
ATOM     13  C   UNL     1       3.252  -0.997   0.000  0.00  0.00    +0.000 C 
ATOM     14  C   UNL     1       3.966  -0.585   0.000  0.00  0.00    +0.000 C 
ATOM     15  C   UNL     1       3.252  -1.822   0.000  0.00  0.00    +0.000 C 
ENDBRANCH  12  13
ENDBRANCH  11  12
ENDBRANCH   9  11
ENDBRANCH   1   5
BRANCH   3  16
ATOM     16  C   UNL     1      -1.487   1.208   0.000  0.00  0.00    +0.000 C 
BRANCH  16  17
ATOM     17  C   UNL     1      -2.272   1.462   0.000  0.00  0.00    +0.000 A 
ATOM     18  C   UNL     1      -2.885   0.910   0.000  0.00  0.00    +0.000 A 
ATOM     19  C   UNL     1      -3.670   1.165   0.000  0.00  0.00    +0.000 A 
ATOM     20  C   UNL     1      -3.841   1.972   0.000  0.00  0.00    +0.000 A 
ATOM     21  C   UNL     1      -3.228   2.524   0.000  0.00  0.00    +0.000 A 
ATOM     22  C   UNL     1      -2.444   2.269   0.000  0.00  0.00    +0.000 A 
BRANCH  20  23
ATOM     23  C   UNL     1      -4.626   2.227   0.000  0.00  0.00    +0.000 C 
ATOM     24  N   UNL     1      -4.798   3.034   0.000  0.00  0.00    +0.000 NA
ATOM     25  N   UNL     1      -5.239   1.675   0.000  0.00  0.00    +0.000 NA
ENDBRANCH  20  23
ENDBRANCH  16  17
ENDBRANCH   3  16
TORSDOF 7
