REMARK  Name = 270
REMARK  6 active torsions:
REMARK  status: ('A' for Active; 'I' for Inactive)
REMARK    1  A    between atoms: O_1  and  C_16
REMARK    2  A    between atoms: O_1  and  C_24
REMARK    3  A    between atoms: O_2  and  C_19
REMARK    4  A    between atoms: C_9  and  C_12
REMARK    5  A    between atoms: C_10  and  C_16
REMARK    6  A    between atoms: C_11  and  C_19
REMARK                            x       y       z     vdW  Elec       q    Type
REMARK                         _______ _______ _______ _____ _____    ______ ____
ROOT
ATOM      1  N   UNL     1       5.222   1.807   0.000  0.00  0.00    +0.000 NA
ATOM      2  C   UNL     1       5.222   0.157   0.000  0.00  0.00    +0.000 C 
ATOM      3  C   UNL     1       4.508   0.569   0.000  0.00  0.00    +0.000 C 
ATOM      4  C   UNL     1       5.937   0.569   0.000  0.00  0.00    +0.000 C 
ATOM      5  C   UNL     1       4.508   1.394   0.000  0.00  0.00    +0.000 C 
ATOM      6  C   UNL     1       5.937   1.394   0.000  0.00  0.00    +0.000 C 
ATOM      7  C   UNL     1       3.793   1.807   0.000  0.00  0.00    +0.000 C 
ATOM      8  C   UNL     1       6.652   1.807   0.000  0.00  0.00    +0.000 C 
ENDROOT
BRANCH   2  12
ATOM      9  O   UNL     1       7.199  -1.493   0.000  0.00  0.00    +0.000 OA
ATOM     10  N   UNL     1       6.718  -0.829   0.000  0.00  0.00    +0.000 NA
ATOM     11  N   UNL     1       6.718  -2.157   0.000  0.00  0.00    +0.000 NA
ATOM     12  C   UNL     1       5.222  -0.668   0.000  0.00  0.00    +0.000 A 
ATOM     13  C   UNL     1       5.937  -1.081   0.000  0.00  0.00    +0.000 A 
ATOM     14  C   UNL     1       4.508  -1.081   0.000  0.00  0.00    +0.000 A 
ATOM     15  C   UNL     1       5.937  -1.906   0.000  0.00  0.00    +0.000 A 
ATOM     16  C   UNL     1       4.508  -1.906   0.000  0.00  0.00    +0.000 A 
ATOM     17  C   UNL     1       5.222  -2.318   0.000  0.00  0.00    +0.000 A 
ENDBRANCH   2  12
BRANCH   3  19
ATOM     18  O   UNL     1       3.793  -0.668   0.000  0.00  0.00    +0.000 OA
ATOM     19  C   UNL     1       3.793   0.157   0.000  0.00  0.00    +0.000 C 
BRANCH  19  20
ATOM     20  O   UNL     1       3.079   0.569   0.000  0.00  0.00    +0.000 OA
BRANCH  20  21
ATOM     21  C   UNL     1       2.365   0.157   0.000  0.00  0.00    +0.000 C 
ATOM     22  C   UNL     1       1.650   0.569   0.000  0.00  0.00    +0.000 C 
ATOM     23  C   UNL     1       2.365  -0.668   0.000  0.00  0.00    +0.000 C 
ENDBRANCH  20  21
ENDBRANCH  19  20
ENDBRANCH   3  19
BRANCH   4  25
ATOM     24  O   UNL     1       7.366  -0.256   0.000  0.00  0.00    +0.000 OA
ATOM     25  C   UNL     1       6.652   0.157   0.000  0.00  0.00    +0.000 C 
BRANCH  25  26
ATOM     26  O   UNL     1       7.366   0.569   0.000  0.00  0.00    +0.000 OA
ATOM     27  C   UNL     1       8.080   0.157   0.000  0.00  0.00    +0.000 C 
ENDBRANCH  25  26
ENDBRANCH   4  25
TORSDOF 6
