REMARK  Name = 272
REMARK  1 active torsions:
REMARK  status: ('A' for Active; 'I' for Inactive)
REMARK    1  A    between atoms: C_9  and  C_10
REMARK                            x       y       z     vdW  Elec       q    Type
REMARK                         _______ _______ _______ _____ _____    ______ ____
ROOT
ATOM      1  C   UNL     1       1.841  -1.371   0.000  0.00  0.00    +0.000 A 
ATOM      2  C   UNL     1       1.126  -1.784   0.000  0.00  0.00    +0.000 A 
ATOM      3  C   UNL     1       0.411  -1.371   0.000  0.00  0.00    +0.000 A 
ATOM      4  C   UNL     1       0.411  -0.546   0.000  0.00  0.00    +0.000 A 
ATOM      5  C   UNL     1       1.126  -0.134   0.000  0.00  0.00    +0.000 A 
ATOM      6  C   UNL     1       1.841  -0.546   0.000  0.00  0.00    +0.000 A 
ATOM      7  O   UNL     1      -0.373  -1.626   0.000  0.00  0.00    +0.000 OA
ATOM      8  N   UNL     1      -0.858  -0.959   0.000  0.00  0.00    +0.000 NA
ATOM      9  C   UNL     1      -0.373  -0.291   0.000  0.00  0.00    +0.000 A 
ATOM     10  O   UNL     1       2.555  -1.784   0.000  0.00  0.00    +0.000 OA
ENDROOT
BRANCH   9  11
ATOM     11  C   UNL     1      -0.628   0.493   0.000  0.00  0.00    +0.000 A 
ATOM     12  C   UNL     1      -1.435   0.665   0.000  0.00  0.00    +0.000 A 
ATOM     13  C   UNL     1      -1.690   1.450   0.000  0.00  0.00    +0.000 A 
ATOM     14  C   UNL     1      -1.138   2.063   0.000  0.00  0.00    +0.000 A 
ATOM     15  C   UNL     1      -0.331   1.891   0.000  0.00  0.00    +0.000 A 
ATOM     16  C   UNL     1      -0.076   1.107   0.000  0.00  0.00    +0.000 A 
ATOM     17  O   UNL     1      -1.393   2.847   0.000  0.00  0.00    +0.000 OA
ATOM     18  O   UNL     1      -1.987   0.052   0.000  0.00  0.00    +0.000 OA
ENDBRANCH   9  11
TORSDOF 1
