REMARK  Name = 272
REMARK  2 active torsions:
REMARK  status: ('A' for Active; 'I' for Inactive)
REMARK    1  A    between atoms: C_4  and  C_5
REMARK    2  A    between atoms: C_4  and  C_6
REMARK                            x       y       z     vdW  Elec       q    Type
REMARK                         _______ _______ _______ _____ _____    ______ ____
ROOT
ATOM      1  N   UNL     1       2.317  -0.379   0.000  0.00  0.00    +0.000 NA
ATOM      2  N   UNL     1       1.650   0.106   0.000  0.00  0.00    +0.000 NA
ATOM      3  C   UNL     1       2.985   0.106   0.000  0.00  0.00    +0.000 A 
ATOM      4  C   UNL     1       2.730   0.890   0.000  0.00  0.00    +0.000 A 
ATOM      5  C   UNL     1       1.905   0.890   0.000  0.00  0.00    +0.000 A 
ENDROOT
BRANCH   3   6
ATOM      6  C   UNL     1       3.769  -0.149   0.000  0.00  0.00    +0.000 C 
BRANCH   6   8
ATOM      7  N   UNL     1       5.167   0.148   0.000  0.00  0.00    +0.000 NA
ATOM      8  C   UNL     1       4.383   0.403   0.000  0.00  0.00    +0.000 C 
ENDBRANCH   6   8
ENDBRANCH   3   6
TORSDOF 2
