REMARK  Name = 2723601
REMARK  0 active torsions:
REMARK  status: ('A' for Active; 'I' for Inactive)
REMARK                            x       y       z     vdW  Elec       q    Type
REMARK                         _______ _______ _______ _____ _____    ______ ____
ROOT
ATOM      1  S   UNL     1       3.522   1.493   0.000  0.00  0.00    +0.000 S 
ATOM      2  N   UNL     1       3.522  -0.982   0.000  0.00  0.00    +0.000 NA
ATOM      3  N   UNL     1       5.017   0.507   0.000  0.00  0.00    +0.000 NA
ATOM      4  N   UNL     1       5.017  -0.821   0.000  0.00  0.00    +0.000 NA
ATOM      5  N   UNL     1       2.808   0.256   0.000  0.00  0.00    +0.000 NA
ATOM      6  N   UNL     1       2.093  -0.982   0.000  0.00  0.00    +0.000 NA
ATOM      7  C   UNL     1       4.237   0.256   0.000  0.00  0.00    +0.000 A 
ATOM      8  C   UNL     1       4.237  -0.569   0.000  0.00  0.00    +0.000 A 
ATOM      9  C   UNL     1       3.522   0.668   0.000  0.00  0.00    +0.000 A 
ATOM     10  C   UNL     1       2.808  -0.569   0.000  0.00  0.00    +0.000 A 
ATOM     11  C   UNL     1       5.499  -0.157   0.000  0.00  0.00    +0.000 A 
ENDROOT
TORSDOF 0
