REMARK  Name = 273
REMARK  3 active torsions:
REMARK  status: ('A' for Active; 'I' for Inactive)
REMARK    1  A    between atoms: S_1  and  O_7
REMARK    2  A    between atoms: O_7  and  C_18
REMARK    3  A    between atoms: C_13  and  C_18
REMARK                            x       y       z     vdW  Elec       q    Type
REMARK                         _______ _______ _______ _____ _____    ______ ____
ROOT
ATOM      1  O   UNL     1       4.467  -0.823   0.000  0.00  0.00    +0.000 OA
ATOM      2  O   UNL     1       5.009   1.217   0.000  0.00  0.00    +0.000 OA
ATOM      3  O   UNL     1       5.617  -0.159   0.000  0.00  0.00    +0.000 OA
ATOM      4  O   UNL     1       2.799   0.140   0.000  0.00  0.00    +0.000 OA
ATOM      5  O   UNL     1       2.799   1.468   0.000  0.00  0.00    +0.000 OA
ATOM      6  C   UNL     1       4.294  -0.021   0.000  0.00  0.00    +0.000 C 
ATOM      7  C   UNL     1       3.580   0.392   0.000  0.00  0.00    +0.000 C 
ATOM      8  C   UNL     1       5.009   0.392   0.000  0.00  0.00    +0.000 C 
ATOM      9  C   UNL     1       3.580   1.217   0.000  0.00  0.00    +0.000 C 
ATOM     10  C   UNL     1       4.294   1.629   0.000  0.00  0.00    +0.000 C 
ATOM     11  C   UNL     1       5.282  -0.908   0.000  0.00  0.00    +0.000 C 
ATOM     12  C   UNL     1       2.317   0.804   0.000  0.00  0.00    +0.000 C 
ATOM     13  C   UNL     1       6.036  -1.243   0.000  0.00  0.00    +0.000 C 
ATOM     14  C   UNL     1       5.196  -1.728   0.000  0.00  0.00    +0.000 C 
ATOM     15  C   UNL     1       1.650   0.319   0.000  0.00  0.00    +0.000 C 
ATOM     16  C   UNL     1       1.650   1.289   0.000  0.00  0.00    +0.000 C 
ENDROOT
BRANCH   8  17
ATOM     17  C   UNL     1       5.723   0.804   0.000  0.00  0.00    +0.000 C 
BRANCH  17  18
ATOM     18  O   UNL     1       6.438   0.392   0.000  0.00  0.00    +0.000 OA
BRANCH  18  19
ATOM     19  S   UNL     1       7.152   0.804   0.000  0.00  0.00    +0.000 S 
ATOM     20  O   UNL     1       7.565   0.090   0.000  0.00  0.00    +0.000 OA
ATOM     21  O   UNL     1       6.740   1.519   0.000  0.00  0.00    +0.000 OA
ATOM     22  N   UNL     1       7.867   1.217   0.000  0.00  0.00    +0.000 NA
ENDBRANCH  18  19
ENDBRANCH  17  18
ENDBRANCH   8  17
TORSDOF 3
