REMARK  Name = 274
REMARK  10 active torsions:
REMARK  status: ('A' for Active; 'I' for Inactive)
REMARK    1  A    between atoms: S_2  and  C_22
REMARK    2  A    between atoms: S_2  and  C_27
REMARK    3  A    between atoms: S_3  and  C_26
REMARK    4  A    between atoms: S_3  and  C_28
REMARK    5  A    between atoms: O_4  and  C_17
REMARK    6  A    between atoms: N_10  and  C_17
REMARK    7  A    between atoms: C_19  and  C_23
REMARK    8  A    between atoms: C_20  and  C_22
REMARK    9  A    between atoms: C_24  and  C_26
REMARK   10  A    between atoms: C_28  and  C_30
REMARK                            x       y       z     vdW  Elec       q    Type
REMARK                         _______ _______ _______ _____ _____    ______ ____
ROOT
ATOM      1  S   UNL     1       5.814  -0.471   0.000  0.00  0.00    +0.000 S 
ATOM      2  O   UNL     1       7.942   1.355   0.000  0.00  0.00    +0.000 OA
ATOM      3  N   UNL     1       6.528   0.767   0.000  0.00  0.00    +0.000 N 
ATOM      4  C   UNL     1       6.528  -0.058   0.000  0.00  0.00    +0.000 C 
ATOM      5  C   UNL     1       7.360  -0.062   0.000  0.00  0.00    +0.000 C 
ATOM      6  C   UNL     1       7.360   0.770   0.000  0.00  0.00    +0.000 C 
ATOM      7  C   UNL     1       5.814   1.179   0.000  0.00  0.00    +0.000 C 
ATOM      8  C   UNL     1       5.099   0.767   0.000  0.00  0.00    +0.000 C 
ATOM      9  C   UNL     1       5.099  -0.058   0.000  0.00  0.00    +0.000 C 
ENDROOT
BRANCH   5  11
ATOM     10  O   UNL     1       8.182  -1.492   0.000  0.00  0.00    +0.000 OA
ATOM     11  N   UNL     1       8.185  -0.063   0.000  0.00  0.00    +0.000 NA
ATOM     12  C   UNL     1       8.596  -0.779   0.000  0.00  0.00    +0.000 C 
BRANCH  12  13
ATOM     13  C   UNL     1       9.421  -0.780   0.000  0.00  0.00    +0.000 C 
BRANCH  13  14
ATOM     14  S   UNL     1       9.832  -1.496   0.000  0.00  0.00    +0.000 S 
BRANCH  14  15
ATOM     15  C   UNL     1      10.657  -1.498   0.000  0.00  0.00    +0.000 C 
BRANCH  15  17
ATOM     16  N   UNL     1      11.479  -2.928   0.000  0.00  0.00    +0.000 NA
ATOM     17  C   UNL     1      11.068  -2.213   0.000  0.00  0.00    +0.000 C 
ENDBRANCH  15  17
ENDBRANCH  14  15
ENDBRANCH  13  14
ENDBRANCH  12  13
ENDBRANCH   5  11
BRANCH   7  20
ATOM     18  O   UNL     1       5.099   2.417   0.000  0.00  0.00    +0.000 OA
ATOM     19  O   UNL     1       6.528   2.417   0.000  0.00  0.00    +0.000 OA
ATOM     20  C   UNL     1       5.814   2.004   0.000  0.00  0.00    +0.000 C 
ENDBRANCH   7  20
BRANCH   5  21
ATOM     21  O   UNL     1       7.358  -0.887   0.000  0.00  0.00    +0.000 OA
ATOM     22  C   UNL     1       6.643  -1.298   0.000  0.00  0.00    +0.000 C 
ENDBRANCH   5  21
BRANCH   8  23
ATOM     23  C   UNL     1       4.385   1.179   0.000  0.00  0.00    +0.000 C 
BRANCH  23  24
ATOM     24  S   UNL     1       3.670   0.767   0.000  0.00  0.00    +0.000 S 
BRANCH  24  29
ATOM     25  N   UNL     1       2.202   0.844   0.000  0.00  0.00    +0.000 N 
ATOM     26  N   UNL     1       2.869   2.000   0.000  0.00  0.00    +0.000 NA
ATOM     27  N   UNL     1       1.650   1.457   0.000  0.00  0.00    +0.000 NA
ATOM     28  N   UNL     1       2.062   2.171   0.000  0.00  0.00    +0.000 NA
ATOM     29  C   UNL     1       2.956   1.179   0.000  0.00  0.00    +0.000 A 
ATOM     30  C   UNL     1       2.030   0.037   0.000  0.00  0.00    +0.000 C 
ENDBRANCH  24  29
ENDBRANCH  23  24
ENDBRANCH   8  23
TORSDOF 10
