REMARK  Name = 276
REMARK  5 active torsions:
REMARK  status: ('A' for Active; 'I' for Inactive)
REMARK    1  A    between atoms: C_4  and  C_7
REMARK    2  A    between atoms: C_6  and  O_11
REMARK    3  A    between atoms: O_11  and  C_12
REMARK    4  A    between atoms: N_21  and  C_22
REMARK    5  A    between atoms: C_24  and  C_28
REMARK                            x       y       z     vdW  Elec       q    Type
REMARK                         _______ _______ _______ _____ _____    ______ ____
ROOT
ATOM      1  C   UNL     1      -0.007  -0.169   0.000  0.00  0.00    +0.000 A 
ATOM      2  C   UNL     1      -0.722   0.243   0.000  0.00  0.00    +0.000 A 
ATOM      3  C   UNL     1      -1.436  -0.169   0.000  0.00  0.00    +0.000 A 
ATOM      4  C   UNL     1      -1.436  -0.994   0.000  0.00  0.00    +0.000 A 
ATOM      5  C   UNL     1      -0.722  -1.407   0.000  0.00  0.00    +0.000 A 
ATOM      6  C   UNL     1      -0.007  -0.994   0.000  0.00  0.00    +0.000 A 
ATOM      7  N   UNL     1      -2.221   0.086   0.000  0.00  0.00    +0.000 NA
ATOM      8  C   UNL     1      -2.706  -0.582   0.000  0.00  0.00    +0.000 A 
ATOM      9  N   UNL     1      -2.221  -1.249   0.000  0.00  0.00    +0.000 NA
ATOM     10  N   UNL     1      -3.531  -0.582   0.000  0.00  0.00    +0.000 NA
ENDROOT
BRANCH  10  11
ATOM     11  C   UNL     1      -3.943   0.133   0.000  0.00  0.00    +0.000 A 
ATOM     12  C   UNL     1      -4.768   0.133   0.000  0.00  0.00    +0.000 A 
ATOM     13  C   UNL     1      -5.181   0.847   0.000  0.00  0.00    +0.000 A 
ATOM     14  C   UNL     1      -4.768   1.562   0.000  0.00  0.00    +0.000 A 
ATOM     15  C   UNL     1      -3.943   1.562   0.000  0.00  0.00    +0.000 A 
ATOM     16  C   UNL     1      -3.531   0.847   0.000  0.00  0.00    +0.000 A 
ATOM     17 CL   UNL     1      -5.181   2.276   0.000  0.00  0.00    +0.000 Cl
BRANCH  13  18
ATOM     18  C   UNL     1      -6.006   0.847   0.000  0.00  0.00    +0.000 C 
ATOM     19  F   UNL     1      -6.831   0.847   0.000  0.00  0.00    +0.000 F 
ATOM     20  F   UNL     1      -6.006   0.022   0.000  0.00  0.00    +0.000 F 
ATOM     21  F   UNL     1      -6.006   1.672   0.000  0.00  0.00    +0.000 F 
ENDBRANCH  13  18
ENDBRANCH  10  11
BRANCH   1  22
ATOM     22  O   UNL     1       0.707   0.243   0.000  0.00  0.00    +0.000 OA
BRANCH  22  28
ATOM     23  C   UNL     1       1.422  -0.994   0.000  0.00  0.00    +0.000 A 
ATOM     24  C   UNL     1       2.136  -1.407   0.000  0.00  0.00    +0.000 A 
ATOM     25  N   UNL     1       2.851  -0.994   0.000  0.00  0.00    +0.000 NA
ATOM     26  C   UNL     1       2.851  -0.169   0.000  0.00  0.00    +0.000 A 
ATOM     27  C   UNL     1       2.136   0.243   0.000  0.00  0.00    +0.000 A 
ATOM     28  C   UNL     1       1.422  -0.169   0.000  0.00  0.00    +0.000 A 
BRANCH  26  29
ATOM     29  C   UNL     1       3.565   0.243   0.000  0.00  0.00    +0.000 C 
ATOM     30  O   UNL     1       3.565   1.068   0.000  0.00  0.00    +0.000 OA
ATOM     31  N   UNL     1       4.280  -0.169   0.000  0.00  0.00    +0.000 NA
ATOM     32  C   UNL     1       4.994   0.243   0.000  0.00  0.00    +0.000 C 
ENDBRANCH  26  29
ENDBRANCH  22  28
ENDBRANCH   1  22
TORSDOF 5
