REMARK  Name = 276
REMARK  5 active torsions:
REMARK  status: ('A' for Active; 'I' for Inactive)
REMARK    1  A    between atoms: S_1  and  N_7
REMARK    2  A    between atoms: O_2  and  C_16
REMARK    3  A    between atoms: N_5  and  C_8
REMARK    4  A    between atoms: N_5  and  C_13
REMARK    5  A    between atoms: N_7  and  C_17
REMARK                            x       y       z     vdW  Elec       q    Type
REMARK                         _______ _______ _______ _____ _____    ______ ____
ROOT
ATOM      1  N   UNL     1       3.849  -0.398   0.000  0.00  0.00    +0.000 NA
ENDROOT
BRANCH   1   3
ATOM      2  N   UNL     1       3.849  -2.873   0.000  0.00  0.00    +0.000 NA
ATOM      3  C   UNL     1       3.849  -1.223   0.000  0.00  0.00    +0.000 A 
ATOM      4  C   UNL     1       3.135  -1.636   0.000  0.00  0.00    +0.000 A 
ATOM      5  C   UNL     1       4.564  -1.636   0.000  0.00  0.00    +0.000 A 
ATOM      6  C   UNL     1       3.135  -2.461   0.000  0.00  0.00    +0.000 A 
ATOM      7  C   UNL     1       4.564  -2.461   0.000  0.00  0.00    +0.000 A 
ATOM      8  C   UNL     1       2.397  -1.195   0.000  0.00  0.00    +0.000 A 
ATOM      9  C   UNL     1       5.301  -1.195   0.000  0.00  0.00    +0.000 A 
ATOM     10  C   UNL     1       2.397  -2.902   0.000  0.00  0.00    +0.000 A 
ATOM     11  C   UNL     1       5.301  -2.902   0.000  0.00  0.00    +0.000 A 
ATOM     12  C   UNL     1       1.650  -1.619   0.000  0.00  0.00    +0.000 A 
ATOM     13  C   UNL     1       6.049  -1.619   0.000  0.00  0.00    +0.000 A 
ATOM     14  C   UNL     1       1.650  -2.478   0.000  0.00  0.00    +0.000 A 
ATOM     15  C   UNL     1       6.049  -2.478   0.000  0.00  0.00    +0.000 A 
ENDBRANCH   1   3
BRANCH   1  16
ATOM     16  C   UNL     1       4.564   0.014   0.000  0.00  0.00    +0.000 A 
ATOM     17  C   UNL     1       4.564   0.839   0.000  0.00  0.00    +0.000 A 
ATOM     18  C   UNL     1       5.993   0.839   0.000  0.00  0.00    +0.000 A 
ATOM     19  C   UNL     1       5.278  -0.398   0.000  0.00  0.00    +0.000 A 
ATOM     20  C   UNL     1       5.278   1.252   0.000  0.00  0.00    +0.000 A 
ATOM     21  C   UNL     1       5.993   0.014   0.000  0.00  0.00    +0.000 A 
BRANCH  17  22
ATOM     22  O   UNL     1       3.849   1.252   0.000  0.00  0.00    +0.000 OA
ATOM     23  C   UNL     1       3.849   2.077   0.000  0.00  0.00    +0.000 C 
ENDBRANCH  17  22
BRANCH  18  24
ATOM     24  N   UNL     1       6.707   1.252   0.000  0.00  0.00    +0.000 NA
BRANCH  24  25
ATOM     25  S   UNL     1       6.707   2.077   0.000  0.00  0.00    +0.000 S 
ATOM     26  O   UNL     1       5.882   2.077   0.000  0.00  0.00    +0.000 OA
ATOM     27  O   UNL     1       7.532   2.077   0.000  0.00  0.00    +0.000 OA
ATOM     28  C   UNL     1       6.707   2.902   0.000  0.00  0.00    +0.000 C 
ENDBRANCH  24  25
ENDBRANCH  18  24
ENDBRANCH   1  16
TORSDOF 5
