REMARK  Name = 277
REMARK  4 active torsions:
REMARK  status: ('A' for Active; 'I' for Inactive)
REMARK    1  A    between atoms: C_3  and  C_7
REMARK    2  A    between atoms: C_6  and  N_11
REMARK    3  A    between atoms: C_7  and  C_8
REMARK    4  A    between atoms: C_8  and  C_9
REMARK                            x       y       z     vdW  Elec       q    Type
REMARK                         _______ _______ _______ _____ _____    ______ ____
ROOT
ATOM      1  C   UNL     1       1.253  -2.303   0.000  0.00  0.00    +0.000 C 
ATOM      2  C   UNL     1       1.866  -2.855   0.000  0.00  0.00    +0.000 C 
ENDROOT
BRANCH   1   5
ATOM      3  C   UNL     1       2.381  -0.434   0.000  0.00  0.00    +0.000 C 
ATOM      4  C   UNL     1       2.209  -1.241   0.000  0.00  0.00    +0.000 C 
ATOM      5  C   UNL     1       1.425  -1.496   0.000  0.00  0.00    +0.000 C 
ATOM      6  C   UNL     1       0.812  -0.944   0.000  0.00  0.00    +0.000 C 
ATOM      7  C   UNL     1       0.983  -0.137   0.000  0.00  0.00    +0.000 C 
ATOM      8  C   UNL     1       1.768   0.118   0.000  0.00  0.00    +0.000 C 
BRANCH   8   9
ATOM      9  N   UNL     1       1.939   0.925   0.000  0.00  0.00    +0.000 N 
ATOM     10  C   UNL     1       1.326   1.477   0.000  0.00  0.00    +0.000 C 
ATOM     11  C   UNL     1       2.724   1.180   0.000  0.00  0.00    +0.000 C 
ATOM     12  C   UNL     1       1.498   2.284   0.000  0.00  0.00    +0.000 C 
ATOM     13  O   UNL     1       0.541   1.222   0.000  0.00  0.00    +0.000 OA
ENDBRANCH   8   9
ENDBRANCH   1   5
BRANCH   1  14
ATOM     14  C   UNL     1       0.469  -2.558   0.000  0.00  0.00    +0.000 C 
ATOM     15  N   UNL     1      -0.145  -2.006   0.000  0.00  0.00    +0.000 NA
BRANCH  14  16
ATOM     16  C   UNL     1       0.297  -3.365   0.000  0.00  0.00    +0.000 C 
ATOM     17  N   UNL     1      -0.488  -3.620   0.000  0.00  0.00    +0.000 N 
ATOM     18  O   UNL     1       0.910  -3.917   0.000  0.00  0.00    +0.000 OA
ATOM     19  C   UNL     1      -0.743  -4.405   0.000  0.00  0.00    +0.000 C 
ATOM     20  C   UNL     1      -1.568  -4.405   0.000  0.00  0.00    +0.000 C 
ATOM     21  C   UNL     1      -1.823  -3.620   0.000  0.00  0.00    +0.000 C 
ATOM     22  C   UNL     1      -1.155  -3.135   0.000  0.00  0.00    +0.000 C 
ATOM     23  F   UNL     1      -2.053  -5.072   0.000  0.00  0.00    +0.000 F 
ENDBRANCH  14  16
ENDBRANCH   1  14
TORSDOF 4
