REMARK  Name = 279
REMARK  5 active torsions:
REMARK  status: ('A' for Active; 'I' for Inactive)
REMARK    1  A    between atoms: C_5  and  C_13
REMARK    2  A    between atoms: C_6  and  C_14
REMARK    3  A    between atoms: C_9  and  N_23
REMARK    4  A    between atoms: C_19  and  N_24
REMARK    5  A    between atoms: N_25  and  O_28
REMARK                            x       y       z     vdW  Elec       q    Type
REMARK                         _______ _______ _______ _____ _____    ______ ____
ROOT
ATOM      1  C   UNL     1      -1.057   2.225   0.000  0.00  0.00    +0.000 A 
ATOM      2  C   UNL     1      -1.542   1.558   0.000  0.00  0.00    +0.000 A 
ATOM      3  C   UNL     1      -1.057   0.890   0.000  0.00  0.00    +0.000 A 
ATOM      4  C   UNL     1      -0.272   1.145   0.000  0.00  0.00    +0.000 A 
ATOM      5  C   UNL     1       1.157   1.970   0.000  0.00  0.00    +0.000 A 
ATOM      6  C   UNL     1       0.442   0.733   0.000  0.00  0.00    +0.000 A 
ATOM      7  C   UNL     1      -1.312   0.106   0.000  0.00  0.00    +0.000 C 
ATOM      8  N   UNL     1       0.442   2.383   0.000  0.00  0.00    +0.000 NA
ATOM      9  N   UNL     1       1.157   1.145   0.000  0.00  0.00    +0.000 NA
ATOM     10  N   UNL     1      -0.272   1.970   0.000  0.00  0.00    +0.000 N 
ATOM     11  N   UNL     1       0.442  -0.092   0.000  0.00  0.00    +0.000 NA
ENDROOT
BRANCH  11  17
ATOM     12  C   UNL     1       2.586  -1.330   0.000  0.00  0.00    +0.000 A 
ATOM     13  C   UNL     1       2.586  -0.505   0.000  0.00  0.00    +0.000 A 
ATOM     14  C   UNL     1       1.157  -1.330   0.000  0.00  0.00    +0.000 A 
ATOM     15  C   UNL     1       1.871  -1.742   0.000  0.00  0.00    +0.000 A 
ATOM     16  C   UNL     1       1.871  -0.092   0.000  0.00  0.00    +0.000 A 
ATOM     17  C   UNL     1       1.157  -0.505   0.000  0.00  0.00    +0.000 A 
ATOM     18  C   UNL     1       1.871   0.733   0.000  0.00  0.00    +0.000 C 
BRANCH  15  19
ATOM     19  C   UNL     1       1.871  -2.567   0.000  0.00  0.00    +0.000 C 
ATOM     20  N   UNL     1       2.586  -2.980   0.000  0.00  0.00    +0.000 NA
ATOM     21  O   UNL     1       1.157  -2.980   0.000  0.00  0.00    +0.000 OA
BRANCH  20  23
ATOM     22  C   UNL     1       3.300  -4.217   0.000  0.00  0.00    +0.000 C 
ATOM     23  O   UNL     1       2.586  -3.805   0.000  0.00  0.00    +0.000 OA
ENDBRANCH  20  23
ENDBRANCH  15  19
ENDBRANCH  11  17
BRANCH   2  24
ATOM     24  C   UNL     1      -2.367   1.558   0.000  0.00  0.00    +0.000 C 
ATOM     25  N   UNL     1      -2.779   2.272   0.000  0.00  0.00    +0.000 NA
ATOM     26  O   UNL     1      -2.779   0.843   0.000  0.00  0.00    +0.000 OA
BRANCH  25  28
ATOM     27  C   UNL     1      -4.017   2.987   0.000  0.00  0.00    +0.000 C 
ATOM     28  C   UNL     1      -3.604   2.272   0.000  0.00  0.00    +0.000 C 
ENDBRANCH  25  28
ENDBRANCH   2  24
TORSDOF 5
