REMARK  Name = 279
REMARK  5 active torsions:
REMARK  status: ('A' for Active; 'I' for Inactive)
REMARK    1  A    between atoms: O_4  and  C_14
REMARK    2  A    between atoms: O_4  and  C_18
REMARK    3  A    between atoms: C_9  and  CA_10
REMARK    4  A    between atoms: C_9  and  C_11
REMARK    5  A    between atoms: CA_10  and  C_17
REMARK                            x       y       z     vdW  Elec       q    Type
REMARK                         _______ _______ _______ _____ _____    ______ ____
ROOT
ATOM      1  I   UNL     1       4.951   0.825   0.000  0.00  0.00    +0.000 I 
ATOM      2  I   UNL     1       2.093   0.825   0.000  0.00  0.00    +0.000 I 
ATOM      3  C   UNL     1       3.522  -0.825   0.000  0.00  0.00    +0.000 A 
ATOM      4  C   UNL     1       2.808  -0.412   0.000  0.00  0.00    +0.000 A 
ATOM      5  C   UNL     1       4.237  -0.412   0.000  0.00  0.00    +0.000 A 
ATOM      6  C   UNL     1       3.522   0.825   0.000  0.00  0.00    +0.000 A 
ATOM      7  C   UNL     1       4.237   0.412   0.000  0.00  0.00    +0.000 A 
ATOM      8  C   UNL     1       2.808   0.412   0.000  0.00  0.00    +0.000 A 
ENDROOT
BRANCH   6   9
ATOM      9  O   UNL     1       3.522   1.650   0.000  0.00  0.00    +0.000 OA
BRANCH   9  12
ATOM     10  I   UNL     1       6.380   1.650   0.000  0.00  0.00    +0.000 I 
ATOM     11  O   UNL     1       6.380   3.300   0.000  0.00  0.00    +0.000 OA
ATOM     12  C   UNL     1       4.237   2.062   0.000  0.00  0.00    +0.000 A 
ATOM     13  C   UNL     1       4.951   1.650   0.000  0.00  0.00    +0.000 A 
ATOM     14  C   UNL     1       4.237   2.888   0.000  0.00  0.00    +0.000 A 
ATOM     15  C   UNL     1       5.665   2.062   0.000  0.00  0.00    +0.000 A 
ATOM     16  C   UNL     1       4.951   3.300   0.000  0.00  0.00    +0.000 A 
ATOM     17  C   UNL     1       5.665   2.888   0.000  0.00  0.00    +0.000 A 
ENDBRANCH   9  12
ENDBRANCH   6   9
BRANCH   3  18
ATOM     18  C   UNL     1       3.522  -1.650   0.000  0.00  0.00    +0.000 C 
BRANCH  18  20
ATOM     19  N   UNL     1       2.093  -1.650   0.000  0.00  0.00    +0.000 NA
ATOM     20  CA  UNL     1       2.808  -2.062   0.000  0.00  0.00    +0.000 C 
BRANCH  20  23
ATOM     21  O   UNL     1       2.093  -3.300   0.000  0.00  0.00    +0.000 OA
ATOM     22  OXT UNL     1       3.522  -3.300   0.000  0.00  0.00    +0.000 OA
ATOM     23  C   UNL     1       2.808  -2.888   0.000  0.00  0.00    +0.000 C 
ENDBRANCH  20  23
ENDBRANCH  18  20
ENDBRANCH   3  18
TORSDOF 5
