REMARK  Name = 27A
REMARK  4 active torsions:
REMARK  status: ('A' for Active; 'I' for Inactive)
REMARK    1  A    between atoms: C_3  and  N_18
REMARK    2  A    between atoms: C_4  and  C_12
REMARK    3  A    between atoms: C_12  and  N_17
REMARK    4  A    between atoms: C_13  and  N_16
REMARK                            x       y       z     vdW  Elec       q    Type
REMARK                         _______ _______ _______ _____ _____    ______ ____
ROOT
ATOM      1  C   UNL     1      -1.558   2.301   0.000  0.00  0.00    +0.000 A 
ATOM      2  C   UNL     1      -0.843   1.888   0.000  0.00  0.00    +0.000 A 
ATOM      3  C   UNL     1      -0.843   1.063   0.000  0.00  0.00    +0.000 A 
ATOM      4  C   UNL     1      -1.558   0.651   0.000  0.00  0.00    +0.000 A 
ATOM      5  C   UNL     1      -2.272   1.063   0.000  0.00  0.00    +0.000 A 
ATOM      6  C   UNL     1      -2.272   1.888   0.000  0.00  0.00    +0.000 A 
ENDROOT
BRANCH   3  12
ATOM      7  C   UNL     1       0.586   1.063   0.000  0.00  0.00    +0.000 C 
ATOM      8  C   UNL     1       1.300   0.651   0.000  0.00  0.00    +0.000 C 
ATOM      9  C   UNL     1       0.586  -0.587   0.000  0.00  0.00    +0.000 C 
ATOM     10  C   UNL     1      -0.129  -0.174   0.000  0.00  0.00    +0.000 C 
ATOM     11  C   UNL     1       2.014  -0.587   0.000  0.00  0.00    +0.000 C 
ATOM     12  N   UNL     1      -0.129   0.651   0.000  0.00  0.00    +0.000 N 
ATOM     13  N   UNL     1       1.300  -0.174   0.000  0.00  0.00    +0.000 NA
ENDBRANCH   3  12
BRANCH   4  14
ATOM     14  C   UNL     1      -1.558  -0.174   0.000  0.00  0.00    +0.000 C 
BRANCH  14  16
ATOM     15  N   UNL     1      -0.843  -1.412   0.000  0.00  0.00    +0.000 NA
ATOM     16  N   UNL     1      -0.843  -0.587   0.000  0.00  0.00    +0.000 NA
BRANCH  15  17
ATOM     17  C   UNL     1      -1.558  -1.824   0.000  0.00  0.00    +0.000 C 
ATOM     18  N   UNL     1      -1.558  -2.649   0.000  0.00  0.00    +0.000 NA
ATOM     19  S   UNL     1      -2.272  -1.412   0.000  0.00  0.00    +0.000 S 
ENDBRANCH  15  17
ENDBRANCH  14  16
ENDBRANCH   4  14
TORSDOF 4
