REMARK  Name = 27U
REMARK  7 active torsions:
REMARK  status: ('A' for Active; 'I' for Inactive)
REMARK    1  A    between atoms: C_1  and  C_2
REMARK    2  A    between atoms: C_1  and  C_23
REMARK    3  A    between atoms: C_2  and  C_3
REMARK    4  A    between atoms: C_9  and  C_10
REMARK    5  A    between atoms: N_11  and  C_12
REMARK    6  A    between atoms: C_12  and  C_13
REMARK    7  A    between atoms: C_16  and  C_19
REMARK                            x       y       z     vdW  Elec       q    Type
REMARK                         _______ _______ _______ _____ _____    ______ ____
ROOT
ATOM      1  C   UNL     1       1.281  -0.857   0.000  0.00  0.00    +0.000 C 
ATOM      2  O   UNL     1       1.452  -0.050   0.000  0.00  0.00    +0.000 OA
ATOM      3  N   UNL     1       0.496  -1.112   0.000  0.00  0.00    +0.000 N 
ATOM      4  C   UNL     1       0.241  -1.896   0.000  0.00  0.00    +0.000 C 
ATOM      5  C   UNL     1      -0.584  -1.896   0.000  0.00  0.00    +0.000 C 
ATOM      6  C   UNL     1      -0.839  -1.112   0.000  0.00  0.00    +0.000 C 
ATOM      7  C   UNL     1      -0.171  -0.627   0.000  0.00  0.00    +0.000 C 
ENDROOT
BRANCH   7   8
ATOM      8  C   UNL     1      -0.171   0.198   0.000  0.00  0.00    +0.000 C 
ATOM      9  N   UNL     1      -0.886   0.611   0.000  0.00  0.00    +0.000 NA
ATOM     10  O   UNL     1       0.543   0.611   0.000  0.00  0.00    +0.000 OA
BRANCH   9  11
ATOM     11  C   UNL     1      -0.886   1.436   0.000  0.00  0.00    +0.000 C 
BRANCH  11  12
ATOM     12  C   UNL     1      -1.600   1.848   0.000  0.00  0.00    +0.000 A 
ATOM     13  C   UNL     1      -2.315   1.436   0.000  0.00  0.00    +0.000 A 
ATOM     14  C   UNL     1      -3.029   1.848   0.000  0.00  0.00    +0.000 A 
ATOM     15  C   UNL     1      -3.029   2.673   0.000  0.00  0.00    +0.000 A 
ATOM     16  C   UNL     1      -2.315   3.086   0.000  0.00  0.00    +0.000 A 
ATOM     17  C   UNL     1      -1.600   2.673   0.000  0.00  0.00    +0.000 A 
BRANCH  15  18
ATOM     18  C   UNL     1      -3.744   3.086   0.000  0.00  0.00    +0.000 C 
ATOM     19  N   UNL     1      -3.744   3.911   0.000  0.00  0.00    +0.000 NA
ATOM     20  N   UNL     1      -4.458   2.673   0.000  0.00  0.00    +0.000 NA
ENDBRANCH  15  18
ENDBRANCH  11  12
ENDBRANCH   9  11
ENDBRANCH   7   8
BRANCH   1  21
ATOM     21  C   UNL     1       1.894  -1.409   0.000  0.00  0.00    +0.000 C 
BRANCH  21  22
ATOM     22  C   UNL     1       2.679  -1.154   0.000  0.00  0.00    +0.000 C 
BRANCH  22  23
ATOM     23  C   UNL     1       3.292  -1.706   0.000  0.00  0.00    +0.000 A 
ATOM     24  C   UNL     1       4.076  -1.451   0.000  0.00  0.00    +0.000 A 
ATOM     25  C   UNL     1       4.689  -2.003   0.000  0.00  0.00    +0.000 A 
ATOM     26  C   UNL     1       4.518  -2.810   0.000  0.00  0.00    +0.000 A 
ATOM     27  C   UNL     1       3.733  -3.065   0.000  0.00  0.00    +0.000 A 
ATOM     28  C   UNL     1       3.120  -2.513   0.000  0.00  0.00    +0.000 A 
ENDBRANCH  22  23
ENDBRANCH  21  22
ENDBRANCH   1  21
TORSDOF 7
