REMARK  Name = 282
REMARK  4 active torsions:
REMARK  status: ('A' for Active; 'I' for Inactive)
REMARK    1  A    between atoms: P_1  and  C_11
REMARK    2  A    between atoms: P_2  and  C_11
REMARK    3  A    between atoms: C_11  and  C_12
REMARK    4  A    between atoms: C_12  and  C_13
REMARK                            x       y       z     vdW  Elec       q    Type
REMARK                         _______ _______ _______ _____ _____    ______ ____
ROOT
ATOM      1  O   UNL     1       3.934  -1.376   0.000  0.00  0.00    +0.000 OA
ATOM      2  C   UNL     1       3.522  -0.662   0.000  0.00  0.00    +0.000 C 
ENDROOT
BRANCH   2   3
ATOM      3  P   UNL     1       2.808  -1.074   0.000  0.00  0.00    +0.000 P 
ATOM      4  O   UNL     1       2.395  -0.360   0.000  0.00  0.00    +0.000 OA
ATOM      5  O   UNL     1       2.093  -1.487   0.000  0.00  0.00    +0.000 OA
ATOM      6  O   UNL     1       2.808  -1.899   0.000  0.00  0.00    +0.000 OA
ENDBRANCH   2   3
BRANCH   2   7
ATOM      7  P   UNL     1       4.237  -0.249   0.000  0.00  0.00    +0.000 P 
ATOM      8  O   UNL     1       4.951   0.163   0.000  0.00  0.00    +0.000 OA
ATOM      9  O   UNL     1       4.649  -0.964   0.000  0.00  0.00    +0.000 OA
ATOM     10  O   UNL     1       4.093   0.563   0.000  0.00  0.00    +0.000 OA
ENDBRANCH   2   7
BRANCH   2  11
ATOM     11  C   UNL     1       3.110   0.053   0.000  0.00  0.00    +0.000 C 
BRANCH  11  13
ATOM     12  N   UNL     1       2.621   1.395   0.000  0.00  0.00    +0.000 NA
ATOM     13  C   UNL     1       3.253   0.865   0.000  0.00  0.00    +0.000 C 
ENDBRANCH  11  13
ENDBRANCH   2  11
TORSDOF 4
