REMARK  Name = 283
REMARK  5 active torsions:
REMARK  status: ('A' for Active; 'I' for Inactive)
REMARK    1  A    between atoms: C_5  and  O_6
REMARK    2  A    between atoms: O_6  and  C_7
REMARK    3  A    between atoms: C_7  and  C_10
REMARK    4  A    between atoms: C_11  and  S_14
REMARK    5  A    between atoms: S_14  and  N_16
REMARK                            x       y       z     vdW  Elec       q    Type
REMARK                         _______ _______ _______ _____ _____    ______ ____
ROOT
ATOM      1  C   UNL     1       1.493  -0.673   0.000  0.00  0.00    +0.000 A 
ATOM      2  C   UNL     1       0.709  -0.928   0.000  0.00  0.00    +0.000 A 
ATOM      3  C   UNL     1       0.267   0.431   0.000  0.00  0.00    +0.000 A 
ATOM      4  C   UNL     1       1.052   0.686   0.000  0.00  0.00    +0.000 A 
ATOM      5  C   UNL     1       1.665   0.134   0.000  0.00  0.00    +0.000 A 
ATOM      6  C   UNL     1       0.096  -0.376   0.000  0.00  0.00    +0.000 A 
ENDROOT
BRANCH   6   9
ATOM      7  O   UNL     1      -0.944   0.154   0.000  0.00  0.00    +0.000 OA
ATOM      8  O   UNL     1      -0.434  -1.416   0.000  0.00  0.00    +0.000 OA
ATOM      9  S   UNL     1      -0.689  -0.631   0.000  0.00  0.00    +0.000 S 
BRANCH   9  11
ATOM     10  C   UNL     1      -2.141  -0.401   0.000  0.00  0.00    +0.000 C 
ATOM     11  N   UNL     1      -1.474  -0.886   0.000  0.00  0.00    +0.000 NA
ATOM     12  C   UNL     1      -1.729  -1.671   0.000  0.00  0.00    +0.000 C 
ATOM     13  C   UNL     1      -2.554  -1.671   0.000  0.00  0.00    +0.000 C 
ATOM     14  S   UNL     1      -3.039  -2.338   0.000  0.00  0.00    +0.000 S 
ATOM     15  C   UNL     1      -2.809  -0.886   0.000  0.00  0.00    +0.000 C 
ENDBRANCH   9  11
ENDBRANCH   6   9
BRANCH   5  16
ATOM     16  O   UNL     1       2.449   0.389   0.000  0.00  0.00    +0.000 OA
BRANCH  16  17
ATOM     17  C   UNL     1       2.621   1.196   0.000  0.00  0.00    +0.000 C 
BRANCH  17  20
ATOM     18  C   UNL     1       4.975   1.961   0.000  0.00  0.00    +0.000 C 
ATOM     19  C   UNL     1       4.190   1.706   0.000  0.00  0.00    +0.000 C 
ATOM     20  C   UNL     1       3.406   1.451   0.000  0.00  0.00    +0.000 C 
ENDBRANCH  17  20
ENDBRANCH  16  17
ENDBRANCH   5  16
TORSDOF 5
