REMARK  Name = 285
REMARK  5 active torsions:
REMARK  status: ('A' for Active; 'I' for Inactive)
REMARK    1  A    between atoms: O_2  and  C_19
REMARK    2  A    between atoms: N_3  and  C_11
REMARK    3  A    between atoms: C_4  and  C_5
REMARK    4  A    between atoms: C_5  and  C_11
REMARK    5  A    between atoms: C_5  and  C_12
REMARK                            x       y       z     vdW  Elec       q    Type
REMARK                         _______ _______ _______ _____ _____    ______ ____
ROOT
ATOM      1  C   UNL     1       2.987   0.111   0.000  0.00  0.00    +0.000 C 
ENDROOT
BRANCH   1   3
ATOM      2  O   UNL     1       2.162   0.111   0.000  0.00  0.00    +0.000 OA
ATOM      3  C   UNL     1       2.574  -0.604   0.000  0.00  0.00    +0.000 C 
ATOM      4  C   UNL     1       1.860  -1.016   0.000  0.00  0.00    +0.000 C 
ATOM      5  C   UNL     1       3.288  -1.016   0.000  0.00  0.00    +0.000 C 
ATOM      6  C   UNL     1       1.860  -1.841   0.000  0.00  0.00    +0.000 C 
ATOM      7  C   UNL     1       3.288  -1.841   0.000  0.00  0.00    +0.000 C 
ATOM      8  C   UNL     1       2.574  -2.254   0.000  0.00  0.00    +0.000 C 
ENDBRANCH   1   3
BRANCH   1   9
ATOM      9  C   UNL     1       3.812   0.111   0.000  0.00  0.00    +0.000 A 
ATOM     10  C   UNL     1       4.224   0.825   0.000  0.00  0.00    +0.000 A 
ATOM     11  C   UNL     1       4.224  -0.604   0.000  0.00  0.00    +0.000 A 
ATOM     12  C   UNL     1       5.049   0.825   0.000  0.00  0.00    +0.000 A 
ATOM     13  C   UNL     1       5.049  -0.604   0.000  0.00  0.00    +0.000 A 
ATOM     14  C   UNL     1       5.462   0.111   0.000  0.00  0.00    +0.000 A 
BRANCH  14  15
ATOM     15  O   UNL     1       6.287   0.111   0.000  0.00  0.00    +0.000 OA
ATOM     16  C   UNL     1       6.699   0.825   0.000  0.00  0.00    +0.000 C 
ENDBRANCH  14  15
ENDBRANCH   1   9
BRANCH   1  17
ATOM     17  C   UNL     1       2.574   0.825   0.000  0.00  0.00    +0.000 C 
BRANCH  17  18
ATOM     18  N   UNL     1       2.987   1.540   0.000  0.00  0.00    +0.000 NA
ATOM     19  C   UNL     1       2.574   2.254   0.000  0.00  0.00    +0.000 C 
ATOM     20  C   UNL     1       3.812   1.540   0.000  0.00  0.00    +0.000 C 
ENDBRANCH  17  18
ENDBRANCH   1  17
TORSDOF 5
