REMARK  Name = 287
REMARK  14 active torsions:
REMARK  status: ('A' for Active; 'I' for Inactive)
REMARK    1  A    between atoms: O_7  and  C_22
REMARK    2  A    between atoms: O_7  and  C_25
REMARK    3  A    between atoms: O_8  and  C_26
REMARK    4  A    between atoms: O_8  and  C_29
REMARK    5  A    between atoms: C_10  and  C_15
REMARK    6  A    between atoms: C_11  and  C_16
REMARK    7  A    between atoms: C_15  and  C_17
REMARK    8  A    between atoms: C_18  and  C_19
REMARK    9  A    between atoms: C_19  and  C_22
REMARK   10  A    between atoms: C_20  and  C_21
REMARK   11  A    between atoms: C_21  and  C_23
REMARK   12  A    between atoms: C_23  and  C_24
REMARK   13  A    between atoms: C_24  and  C_26
REMARK   14  A    between atoms: C_30  and  C_35
REMARK                            x       y       z     vdW  Elec       q    Type
REMARK                         _______ _______ _______ _____ _____    ______ ____
ROOT
ATOM      1  O   UNL     1       7.084  -4.035   0.000  0.00  0.00    +0.000 OA
ATOM      2  O   UNL     1       9.433  -2.328   0.000  0.00  0.00    +0.000 OA
ATOM      3  C   UNL     1       7.314  -2.583   0.000  0.00  0.00    +0.000 C 
ATOM      4  C   UNL     1       7.981  -2.098   0.000  0.00  0.00    +0.000 C 
ATOM      5  C   UNL     1       7.569  -3.367   0.000  0.00  0.00    +0.000 C 
ATOM      6  C   UNL     1       8.649  -2.583   0.000  0.00  0.00    +0.000 C 
ATOM      7  C   UNL     1       8.394  -3.367   0.000  0.00  0.00    +0.000 C 
ENDROOT
BRANCH   4   8
ATOM      8  C   UNL     1       7.981  -1.273   0.000  0.00  0.00    +0.000 C 
ATOM      9  C   UNL     1       8.696  -0.860   0.000  0.00  0.00    +0.000 C 
BRANCH   9  11
ATOM     10  O   UNL     1       7.981   0.377   0.000  0.00  0.00    +0.000 OA
ATOM     11  C   UNL     1       8.696  -0.035   0.000  0.00  0.00    +0.000 C 
BRANCH  11  12
ATOM     12  C   UNL     1       9.410   0.377   0.000  0.00  0.00    +0.000 C 
BRANCH  12  13
ATOM     13  O   UNL     1       9.410   1.202   0.000  0.00  0.00    +0.000 OA
BRANCH  13  14
ATOM     14  C   UNL     1      10.125   1.615   0.000  0.00  0.00    +0.000 A 
ATOM     15  C   UNL     1      10.125   2.440   0.000  0.00  0.00    +0.000 A 
ATOM     16  C   UNL     1      10.839   1.202   0.000  0.00  0.00    +0.000 A 
ATOM     17  C   UNL     1      10.839   2.852   0.000  0.00  0.00    +0.000 A 
ATOM     18  C   UNL     1      11.554   1.615   0.000  0.00  0.00    +0.000 A 
ATOM     19  C   UNL     1      11.554   2.440   0.000  0.00  0.00    +0.000 A 
BRANCH  17  23
ATOM     20  F   UNL     1      10.014   3.677   0.000  0.00  0.00    +0.000 F 
ATOM     21  F   UNL     1      11.664   3.677   0.000  0.00  0.00    +0.000 F 
ATOM     22  F   UNL     1      10.839   4.502   0.000  0.00  0.00    +0.000 F 
ATOM     23  C   UNL     1      10.839   3.677   0.000  0.00  0.00    +0.000 C 
ENDBRANCH  17  23
ENDBRANCH  13  14
ENDBRANCH  12  13
ENDBRANCH  11  12
ENDBRANCH   9  11
ENDBRANCH   4   8
BRANCH   3  24
ATOM     24  C   UNL     1       6.529  -2.328   0.000  0.00  0.00    +0.000 C 
BRANCH  24  25
ATOM     25  C   UNL     1       5.916  -2.880   0.000  0.00  0.00    +0.000 C 
ATOM     26  C   UNL     1       5.131  -2.625   0.000  0.00  0.00    +0.000 C 
BRANCH  26  27
ATOM     27  C   UNL     1       4.960  -1.818   0.000  0.00  0.00    +0.000 C 
BRANCH  27  28
ATOM     28  C   UNL     1       4.175  -1.563   0.000  0.00  0.00    +0.000 C 
BRANCH  28  29
ATOM     29  C   UNL     1       4.004  -0.756   0.000  0.00  0.00    +0.000 C 
BRANCH  29  31
ATOM     30  O   UNL     1       2.606  -1.053   0.000  0.00  0.00    +0.000 OA
ATOM     31  C   UNL     1       3.219  -0.501   0.000  0.00  0.00    +0.000 C 
BRANCH  31  32
ATOM     32  O   UNL     1       3.048   0.306   0.000  0.00  0.00    +0.000 OA
BRANCH  32  33
ATOM     33  C   UNL     1       2.263   0.561   0.000  0.00  0.00    +0.000 C 
ATOM     34  C   UNL     1       1.650   0.009   0.000  0.00  0.00    +0.000 C 
ATOM     35  C   UNL     1       2.092   1.368   0.000  0.00  0.00    +0.000 C 
ENDBRANCH  32  33
ENDBRANCH  31  32
ENDBRANCH  29  31
ENDBRANCH  28  29
ENDBRANCH  27  28
ENDBRANCH  26  27
ENDBRANCH  24  25
ENDBRANCH   3  24
TORSDOF 14
