REMARK  Name = 288
REMARK  7 active torsions:
REMARK  status: ('A' for Active; 'I' for Inactive)
REMARK    1  A    between atoms: C_7  and  C_10
REMARK    2  A    between atoms: N_12  and  C_14
REMARK    3  A    between atoms: C_14  and  C_15
REMARK    4  A    between atoms: C_15  and  N_16
REMARK    5  A    between atoms: N_16  and  C_18
REMARK    6  A    between atoms: N_16  and  C_19
REMARK    7  A    between atoms: C_19  and  C_22
REMARK                            x       y       z     vdW  Elec       q    Type
REMARK                         _______ _______ _______ _____ _____    ______ ____
ROOT
ATOM      1  C   UNL     1      -1.581   1.148   0.000  0.00  0.00    +0.000 C 
ATOM      2  N   UNL     1      -1.169   0.434   0.000  0.00  0.00    +0.000 NA
ATOM      3  O   UNL     1      -1.169   1.863   0.000  0.00  0.00    +0.000 OA
ENDROOT
BRANCH   1  10
ATOM      4  C   UNL     1      -3.676   1.561   0.000  0.00  0.00    +0.000 A 
ATOM      5  C   UNL     1      -3.676   0.736   0.000  0.00  0.00    +0.000 A 
ATOM      6  C   UNL     1      -2.891   1.816   0.000  0.00  0.00    +0.000 A 
ATOM      7  C   UNL     1      -4.390   1.973   0.000  0.00  0.00    +0.000 A 
ATOM      8  N   UNL     1      -2.891   0.481   0.000  0.00  0.00    +0.000 NA
ATOM      9  C   UNL     1      -4.390   0.323   0.000  0.00  0.00    +0.000 A 
ATOM     10  C   UNL     1      -2.406   1.148   0.000  0.00  0.00    +0.000 A 
ATOM     11  C   UNL     1      -5.105   1.561   0.000  0.00  0.00    +0.000 A 
ATOM     12  C   UNL     1      -5.105   0.736   0.000  0.00  0.00    +0.000 A 
ATOM     13 CL   UNL     1      -5.819   1.973   0.000  0.00  0.00    +0.000 Cl
ENDBRANCH   1  10
BRANCH   2  14
ATOM     14  C   UNL     1      -0.344   0.434   0.000  0.00  0.00    +0.000 C 
BRANCH  14  15
ATOM     15  C   UNL     1       0.069  -0.281   0.000  0.00  0.00    +0.000 C 
ATOM     16  O   UNL     1      -0.344  -0.995   0.000  0.00  0.00    +0.000 OA
BRANCH  15  17
ATOM     17  N   UNL     1       0.894  -0.281   0.000  0.00  0.00    +0.000 NA
BRANCH  17  18
ATOM     18  C   UNL     1       1.306  -0.995   0.000  0.00  0.00    +0.000 C 
ATOM     19  C   UNL     1       2.127  -1.081   0.000  0.00  0.00    +0.000 C 
ATOM     20  C   UNL     1       0.971  -1.749   0.000  0.00  0.00    +0.000 C 
ATOM     21  C   UNL     1       2.298  -1.888   0.000  0.00  0.00    +0.000 C 
ATOM     22  C   UNL     1       1.584  -2.301   0.000  0.00  0.00    +0.000 C 
ENDBRANCH  17  18
BRANCH  17  23
ATOM     23  C   UNL     1       1.306   0.434   0.000  0.00  0.00    +0.000 C 
BRANCH  23  24
ATOM     24  C   UNL     1       0.894   1.148   0.000  0.00  0.00    +0.000 C 
ATOM     25  O   UNL     1       1.306   1.863   0.000  0.00  0.00    +0.000 OA
ENDBRANCH  23  24
ENDBRANCH  17  23
ENDBRANCH  15  17
ENDBRANCH  14  15
ENDBRANCH   2  14
TORSDOF 7
