REMARK  Name = 291
REMARK  9 active torsions:
REMARK  status: ('A' for Active; 'I' for Inactive)
REMARK    1  A    between atoms: N_5  and  C_6
REMARK    2  A    between atoms: N_5  and  C_10
REMARK    3  A    between atoms: N_5  and  C_11
REMARK    4  A    between atoms: C_7  and  C_8
REMARK    5  A    between atoms: C_7  and  C_9
REMARK    6  A    between atoms: C_9  and  C_16
REMARK    7  A    between atoms: C_10  and  C_17
REMARK    8  A    between atoms: C_11  and  C_18
REMARK    9  A    between atoms: C_16  and  C_19
REMARK                            x       y       z     vdW  Elec       q    Type
REMARK                         _______ _______ _______ _____ _____    ______ ____
ROOT
ATOM      1  C   UNL     1       3.793   1.365   0.000  0.00  0.00    +0.000 A 
ATOM      2  C   UNL     1       3.793  -0.285   0.000  0.00  0.00    +0.000 A 
ATOM      3  C   UNL     1       3.079   0.953   0.000  0.00  0.00    +0.000 A 
ATOM      4  C   UNL     1       4.508   0.953   0.000  0.00  0.00    +0.000 A 
ATOM      5  C   UNL     1       3.079   0.128   0.000  0.00  0.00    +0.000 A 
ATOM      6  C   UNL     1       4.508   0.128   0.000  0.00  0.00    +0.000 A 
ENDROOT
BRANCH   1   7
ATOM      7  N   UNL     1       3.793   2.190   0.000  0.00  0.00    +0.000 N 
BRANCH   7   8
ATOM      8  C   UNL     1       3.079   2.603   0.000  0.00  0.00    +0.000 C 
BRANCH   8  10
ATOM      9 CL   UNL     1       2.365   3.841   0.000  0.00  0.00    +0.000 Cl
ATOM     10  C   UNL     1       3.079   3.428   0.000  0.00  0.00    +0.000 C 
ENDBRANCH   8  10
ENDBRANCH   7   8
BRANCH   7  11
ATOM     11  C   UNL     1       4.508   2.603   0.000  0.00  0.00    +0.000 C 
BRANCH  11  13
ATOM     12 CL   UNL     1       5.222   3.841   0.000  0.00  0.00    +0.000 Cl
ATOM     13  C   UNL     1       4.508   3.428   0.000  0.00  0.00    +0.000 C 
ENDBRANCH  11  13
ENDBRANCH   7  11
ENDBRANCH   1   7
BRANCH   2  14
ATOM     14  C   UNL     1       3.793  -1.110   0.000  0.00  0.00    +0.000 C 
BRANCH  14  15
ATOM     15  C   UNL     1       3.079  -1.522   0.000  0.00  0.00    +0.000 C 
BRANCH  15  16
ATOM     16  C   UNL     1       3.079  -2.347   0.000  0.00  0.00    +0.000 C 
BRANCH  16  19
ATOM     17  O   UNL     1       2.365  -3.585   0.000  0.00  0.00    +0.000 OA
ATOM     18  O   UNL     1       1.650  -2.347   0.000  0.00  0.00    +0.000 OA
ATOM     19  C   UNL     1       2.365  -2.760   0.000  0.00  0.00    +0.000 C 
ENDBRANCH  16  19
ENDBRANCH  15  16
ENDBRANCH  14  15
ENDBRANCH   2  14
TORSDOF 9
