REMARK  Name = 292
REMARK  4 active torsions:
REMARK  status: ('A' for Active; 'I' for Inactive)
REMARK    1  A    between atoms: C_3  and  C_4
REMARK    2  A    between atoms: C_6  and  N_9
REMARK    3  A    between atoms: C_10  and  C_11
REMARK    4  A    between atoms: C_11  and  C_12
REMARK                            x       y       z     vdW  Elec       q    Type
REMARK                         _______ _______ _______ _____ _____    ______ ____
ROOT
ATOM      1  N   UNL     1      -1.144  -1.073   0.000  0.00  0.00    +0.000 NA
ATOM      2  C   UNL     1      -0.429  -0.661   0.000  0.00  0.00    +0.000 C 
ATOM      3  O   UNL     1      -0.429   0.164   0.000  0.00  0.00    +0.000 OA
ENDROOT
BRANCH   1   6
ATOM      4  C   UNL     1      -2.752   0.331   0.000  0.00  0.00    +0.000 A 
ATOM      5  C   UNL     1      -1.945   0.160   0.000  0.00  0.00    +0.000 A 
ATOM      6  C   UNL     1      -1.858  -0.661   0.000  0.00  0.00    +0.000 A 
ATOM      7  N   UNL     1      -2.612  -0.996   0.000  0.00  0.00    +0.000 NA
ATOM      8  N   UNL     1      -3.164  -0.383   0.000  0.00  0.00    +0.000 NA
BRANCH   4  11
ATOM      9  C   UNL     1      -3.755   1.570   0.000  0.00  0.00    +0.000 C 
ATOM     10  C   UNL     1      -3.001   1.905   0.000  0.00  0.00    +0.000 C 
ATOM     11  C   UNL     1      -3.087   1.085   0.000  0.00  0.00    +0.000 C 
ENDBRANCH   4  11
ENDBRANCH   1   6
BRANCH   2  12
ATOM     12  C   UNL     1       0.285  -1.073   0.000  0.00  0.00    +0.000 C 
BRANCH  12  13
ATOM     13  C   UNL     1       1.000  -0.661   0.000  0.00  0.00    +0.000 A 
ATOM     14  C   UNL     1       1.714  -1.073   0.000  0.00  0.00    +0.000 A 
ATOM     15  C   UNL     1       2.429  -0.661   0.000  0.00  0.00    +0.000 A 
ATOM     16  C   UNL     1       2.429   0.164   0.000  0.00  0.00    +0.000 A 
ATOM     17  C   UNL     1       1.714   0.577   0.000  0.00  0.00    +0.000 A 
ATOM     18  C   UNL     1       1.000   0.164   0.000  0.00  0.00    +0.000 A 
ATOM     19  C   UNL     1       3.143   0.577   0.000  0.00  0.00    +0.000 A 
ATOM     20  C   UNL     1       3.143  -1.073   0.000  0.00  0.00    +0.000 A 
ATOM     21  C   UNL     1       3.857  -0.661   0.000  0.00  0.00    +0.000 A 
ATOM     22  C   UNL     1       3.857   0.164   0.000  0.00  0.00    +0.000 A 
ENDBRANCH  12  13
ENDBRANCH   2  12
TORSDOF 4
