REMARK  Name = 293
REMARK  9 active torsions:
REMARK  status: ('A' for Active; 'I' for Inactive)
REMARK    1  A    between atoms: N_8  and  C_12
REMARK    2  A    between atoms: N_8  and  C_16
REMARK    3  A    between atoms: N_9  and  CA_13
REMARK    4  A    between atoms: C_12  and  C_14
REMARK    5  A    between atoms: CA_13  and  CB_15
REMARK    6  A    between atoms: CA_13  and  C_28
REMARK    7  A    between atoms: CB_15  and  CG_20
REMARK    8  A    between atoms: CG_20  and  CD_31
REMARK    9  A    between atoms: C_22  and  C_24
REMARK                            x       y       z     vdW  Elec       q    Type
REMARK                         _______ _______ _______ _____ _____    ______ ____
ROOT
ATOM      1  S   UNL     1       8.175   0.343   0.000  0.00  0.00    +0.000 S 
ATOM      2  C   UNL     1       7.420   0.010   0.000  0.00  0.00    +0.000 A 
ATOM      3  C   UNL     1       8.725  -0.272   0.000  0.00  0.00    +0.000 A 
ATOM      4  C   UNL     1       7.503  -0.811   0.000  0.00  0.00    +0.000 A 
ATOM      5  C   UNL     1       8.310  -0.985   0.000  0.00  0.00    +0.000 A 
ENDROOT
BRANCH   3   8
ATOM      6  O   UNL     1       9.884   0.563   0.000  0.00  0.00    +0.000 OA
ATOM      7  N   UNL     1      10.028  -0.859   0.000  0.00  0.00    +0.000 NA
ATOM      8  C   ACE A   0       9.546  -0.189   0.000  0.00  0.00    +0.000 C 
BRANCH   7   9
ATOM      9  CA  UNL     1      10.849  -0.775   0.000  0.00  0.00    +0.000 C 
BRANCH   9  12
ATOM     10  O   UNL     1      12.152  -1.362   0.000  0.00  0.00    +0.000 OA
ATOM     11  OXT UNL     1      10.993  -2.197   0.000  0.00  0.00    +0.000 OA
ATOM     12  C   UNL     1      11.331  -1.445   0.000  0.00  0.00    +0.000 C 
ENDBRANCH   9  12
BRANCH   9  13
ATOM     13  CB  UNL     1      11.187  -0.023   0.000  0.00  0.00    +0.000 C 
BRANCH  13  14
ATOM     14  CG  UNL     1      12.008   0.060   0.000  0.00  0.00    +0.000 C 
BRANCH  14  17
ATOM     15  OE1 UNL     1      13.168   0.895   0.000  0.00  0.00    +0.000 OA
ATOM     16  OE2 UNL     1      11.864   1.482   0.000  0.00  0.00    +0.000 OA
ATOM     17  CD  UNL     1      12.347   0.812   0.000  0.00  0.00    +0.000 C 
ENDBRANCH  14  17
ENDBRANCH  13  14
ENDBRANCH   9  13
ENDBRANCH   7   9
ENDBRANCH   3   8
BRANCH   2  18
ATOM     18  N   UNL     1       6.707   0.425   0.000  0.00  0.00    +0.000 N 
ATOM     19  C   UNL     1       6.711   1.250   0.000  0.00  0.00    +0.000 C 
BRANCH  18  20
ATOM     20  C   UNL     1       5.991   0.016   0.000  0.00  0.00    +0.000 C 
BRANCH  20  24
ATOM     21  O   UNL     1       3.079  -0.789   0.000  0.00  0.00    +0.000 OA
ATOM     22  N   UNL     1       3.079   1.686   0.000  0.00  0.00    +0.000 NA
ATOM     23  N   UNL     1       2.365   0.448   0.000  0.00  0.00    +0.000 NA
ATOM     24  C   UNL     1       5.279   0.431   0.000  0.00  0.00    +0.000 A 
ATOM     25  C   UNL     1       3.793   0.448   0.000  0.00  0.00    +0.000 A 
ATOM     26  C   UNL     1       4.531   0.007   0.000  0.00  0.00    +0.000 A 
ATOM     27  C   UNL     1       3.793   1.273   0.000  0.00  0.00    +0.000 A 
ATOM     28  C   UNL     1       5.279   1.290   0.000  0.00  0.00    +0.000 A 
ATOM     29  C   UNL     1       4.531   1.714   0.000  0.00  0.00    +0.000 A 
ATOM     30  C   UNL     1       3.079   0.036   0.000  0.00  0.00    +0.000 A 
ATOM     31  C   UNL     1       2.365   1.273   0.000  0.00  0.00    +0.000 A 
ATOM     32  C   UNL     1       1.650   1.686   0.000  0.00  0.00    +0.000 C 
ENDBRANCH  20  24
ENDBRANCH  18  20
ENDBRANCH   2  18
TORSDOF 9
