REMARK  Name = 294
REMARK  6 active torsions:
REMARK  status: ('A' for Active; 'I' for Inactive)
REMARK    1  A    between atoms: C_2  and  S_24
REMARK    2  A    between atoms: C_5  and  O_27
REMARK    3  A    between atoms: C_8  and  O_27
REMARK    4  A    between atoms: C_11  and  C_14
REMARK    5  A    between atoms: C_17  and  C_19
REMARK    6  A    between atoms: C_19  and  S_24
REMARK                            x       y       z     vdW  Elec       q    Type
REMARK                         _______ _______ _______ _____ _____    ______ ____
ROOT
ATOM      1  C   UNL     1       0.416   0.874   0.000  0.00  0.00    +0.000 A 
ATOM      2  C   UNL     1       1.131   0.462   0.000  0.00  0.00    +0.000 A 
ATOM      3  C   UNL     1       1.131  -0.363   0.000  0.00  0.00    +0.000 A 
ATOM      4  C   UNL     1       0.416  -0.776   0.000  0.00  0.00    +0.000 A 
ATOM      5  C   UNL     1      -0.298  -0.363   0.000  0.00  0.00    +0.000 A 
ATOM      6  C   UNL     1      -0.298   0.462   0.000  0.00  0.00    +0.000 A 
ENDROOT
BRANCH   1   7
ATOM      7  S   UNL     1       0.416   1.699   0.000  0.00  0.00    +0.000 S 
ATOM      8  O   UNL     1       0.416   2.524   0.000  0.00  0.00    +0.000 OA
ATOM      9  O   UNL     1      -0.409   1.699   0.000  0.00  0.00    +0.000 OA
BRANCH   7  11
ATOM     10  C   UNL     1       2.017   1.981   0.000  0.00  0.00    +0.000 C 
ATOM     11  C   UNL     1       1.241   1.699   0.000  0.00  0.00    +0.000 C 
ATOM     12  C   UNL     1       1.098   0.887   0.000  0.00  0.00    +0.000 C 
ATOM     13  C   UNL     1       1.730   0.356   0.000  0.00  0.00    +0.000 C 
ATOM     14  O   UNL     1       2.505   0.639   0.000  0.00  0.00    +0.000 OA
ATOM     15  C   UNL     1       2.649   1.451   0.000  0.00  0.00    +0.000 C 
BRANCH  11  18
ATOM     16  O   UNL     1       0.180   3.606   0.000  0.00  0.00    +0.000 OA
ATOM     17  N   UNL     1       0.323   2.794   0.000  0.00  0.00    +0.000 NA
ATOM     18  C   UNL     1       1.098   2.512   0.000  0.00  0.00    +0.000 C 
ATOM     19  O   UNL     1       1.730   3.042   0.000  0.00  0.00    +0.000 OA
ENDBRANCH  11  18
ENDBRANCH   7  11
ENDBRANCH   1   7
BRANCH   4  20
ATOM     20  O   UNL     1       0.416  -1.601   0.000  0.00  0.00    +0.000 OA
BRANCH  20  21
ATOM     21  C   UNL     1      -0.298  -2.013   0.000  0.00  0.00    +0.000 A 
ATOM     22  C   UNL     1      -0.298  -2.838   0.000  0.00  0.00    +0.000 A 
ATOM     23  C   UNL     1      -1.012  -3.251   0.000  0.00  0.00    +0.000 A 
ATOM     24  C   UNL     1      -1.727  -2.838   0.000  0.00  0.00    +0.000 A 
ATOM     25  C   UNL     1      -1.727  -2.013   0.000  0.00  0.00    +0.000 A 
ATOM     26  C   UNL     1      -1.012  -1.601   0.000  0.00  0.00    +0.000 A 
BRANCH  24  27
ATOM     27  C   UNL     1      -2.442  -3.251   0.000  0.00  0.00    +0.000 C 
ATOM     28  F   UNL     1      -3.156  -3.663   0.000  0.00  0.00    +0.000 F 
ATOM     29  F   UNL     1      -2.854  -2.536   0.000  0.00  0.00    +0.000 F 
ATOM     30  F   UNL     1      -2.029  -3.965   0.000  0.00  0.00    +0.000 F 
ENDBRANCH  24  27
ENDBRANCH  20  21
ENDBRANCH   4  20
TORSDOF 6
