REMARK  Name = 295
REMARK  0 active torsions:
REMARK  status: ('A' for Active; 'I' for Inactive)
REMARK                            x       y       z     vdW  Elec       q    Type
REMARK                         _______ _______ _______ _____ _____    ______ ____
ROOT
ATOM      1  O   UNL     1       2.345   0.074   0.000  0.00  0.00    +0.000 OA
ATOM      2  O   UNL     1       2.144  -2.055   0.000  0.00  0.00    +0.000 OA
ATOM      3  O   UNL     1       2.144   2.112   0.000  0.00  0.00    +0.000 OA
ATOM      4  N   UNL     1       5.753  -0.797   0.000  0.00  0.00    +0.000 NA
ATOM      5  C   UNL     1       3.610  -0.384   0.000  0.00  0.00    +0.000 C 
ATOM      6  C   UNL     1       4.324  -0.797   0.000  0.00  0.00    +0.000 C 
ATOM      7  C   UNL     1       5.039  -0.384   0.000  0.00  0.00    +0.000 C 
ATOM      8  C   UNL     1       2.896  -0.797   0.000  0.00  0.00    +0.000 C 
ATOM      9  C   UNL     1       4.087   0.221   0.000  0.00  0.00    +0.000 C 
ATOM     10  C   UNL     1       3.610   0.441   0.000  0.00  0.00    +0.000 A 
ATOM     11  C   UNL     1       5.039   0.440   0.000  0.00  0.00    +0.000 C 
ATOM     12  C   UNL     1       5.260   0.221   0.000  0.00  0.00    +0.000 C 
ATOM     13  C   UNL     1       4.324   0.853   0.000  0.00  0.00    +0.000 A 
ATOM     14  C   UNL     1       2.896  -1.622   0.000  0.00  0.00    +0.000 C 
ATOM     15  C   UNL     1       4.324  -1.622   0.000  0.00  0.00    +0.000 C 
ATOM     16  C   UNL     1       2.895   0.853   0.000  0.00  0.00    +0.000 A 
ATOM     17  C   UNL     1       3.610  -2.034   0.000  0.00  0.00    +0.000 C 
ATOM     18  C   UNL     1       6.344  -1.432   0.000  0.00  0.00    +0.000 C 
ATOM     19  C   UNL     1       4.324   1.678   0.000  0.00  0.00    +0.000 A 
ATOM     20  C   UNL     1       2.896   1.678   0.000  0.00  0.00    +0.000 A 
ATOM     21  C   UNL     1       3.610   2.090   0.000  0.00  0.00    +0.000 A 
ENDROOT
TORSDOF 0
