REMARK  Name = 298
REMARK  4 active torsions:
REMARK  status: ('A' for Active; 'I' for Inactive)
REMARK    1  A    between atoms: N_1  and  C_8
REMARK    2  A    between atoms: N_2  and  C_18
REMARK    3  A    between atoms: C_8  and  C_11
REMARK    4  A    between atoms: C_11  and  C_13
REMARK                            x       y       z     vdW  Elec       q    Type
REMARK                         _______ _______ _______ _____ _____    ______ ____
ROOT
ATOM      1  N   UNL     1       5.179  -0.347   0.000  0.00  0.00    +0.000 NA
ATOM      2  N   UNL     1       5.692   1.222   0.000  0.00  0.00    +0.000 N 
ATOM      3  C   UNL     1       5.987  -0.177   0.000  0.00  0.00    +0.000 C 
ATOM      4  C   UNL     1       4.628   0.267   0.000  0.00  0.00    +0.000 C 
ATOM      5  C   UNL     1       6.243   0.608   0.000  0.00  0.00    +0.000 C 
ATOM      6  C   UNL     1       4.885   1.052   0.000  0.00  0.00    +0.000 C 
ENDROOT
BRANCH   2   7
ATOM      7  C   UNL     1       5.948   2.006   0.000  0.00  0.00    +0.000 A 
ATOM      8  C   UNL     1       6.756   2.176   0.000  0.00  0.00    +0.000 A 
ATOM      9  C   UNL     1       5.397   2.620   0.000  0.00  0.00    +0.000 A 
ATOM     10  C   UNL     1       7.012   2.960   0.000  0.00  0.00    +0.000 A 
ATOM     11  C   UNL     1       7.307   1.562   0.000  0.00  0.00    +0.000 C 
ATOM     12  C   UNL     1       5.654   3.404   0.000  0.00  0.00    +0.000 A 
ATOM     13  C   UNL     1       6.461   3.574   0.000  0.00  0.00    +0.000 A 
ENDBRANCH   2   7
BRANCH   1  14
ATOM     14  C   UNL     1       4.923  -1.131   0.000  0.00  0.00    +0.000 C 
BRANCH  14  15
ATOM     15  C   UNL     1       4.116  -1.301   0.000  0.00  0.00    +0.000 C 
BRANCH  15  20
ATOM     16  N   UNL     1       3.079  -2.337   0.000  0.00  0.00    +0.000 N 
ATOM     17  N   UNL     1       4.341  -2.749   0.000  0.00  0.00    +0.000 NA
ATOM     18  N   UNL     1       3.860  -3.413   0.000  0.00  0.00    +0.000 NA
ATOM     19  C   UNL     1       2.365  -1.924   0.000  0.00  0.00    +0.000 C 
ATOM     20  C   UNL     1       3.860  -2.085   0.000  0.00  0.00    +0.000 A 
ATOM     21  C   UNL     1       1.650  -2.337   0.000  0.00  0.00    +0.000 C 
ATOM     22  C   UNL     1       1.650  -3.162   0.000  0.00  0.00    +0.000 C 
ATOM     23  C   UNL     1       2.365  -3.574   0.000  0.00  0.00    +0.000 C 
ATOM     24  C   UNL     1       3.079  -3.162   0.000  0.00  0.00    +0.000 A 
ENDBRANCH  15  20
ENDBRANCH  14  15
ENDBRANCH   1  14
TORSDOF 4
