REMARK  Name = 299
REMARK  4 active torsions:
REMARK  status: ('A' for Active; 'I' for Inactive)
REMARK    1  A    between atoms: C_4  and  C_8
REMARK    2  A    between atoms: C_5  and  O_10
REMARK    3  A    between atoms: C_6  and  C_9
REMARK    4  A    between atoms: O_10  and  P_11
REMARK                            x       y       z     vdW  Elec       q    Type
REMARK                         _______ _______ _______ _____ _____    ______ ____
ROOT
ATOM      1  C   UNL     1       1.324   0.267   0.000  0.00  0.00    +0.000 A 
ATOM      2  C   UNL     1       1.324  -0.558   0.000  0.00  0.00    +0.000 A 
ATOM      3  C   UNL     1       0.609  -0.971   0.000  0.00  0.00    +0.000 A 
ATOM      4  C   UNL     1      -0.105  -0.558   0.000  0.00  0.00    +0.000 A 
ATOM      5  C   UNL     1      -0.105   0.267   0.000  0.00  0.00    +0.000 A 
ATOM      6  C   UNL     1       0.609   0.679   0.000  0.00  0.00    +0.000 A 
ATOM      7  C   UNL     1       2.038  -0.971   0.000  0.00  0.00    +0.000 C 
ENDROOT
BRANCH   4   8
ATOM      8  C   UNL     1      -0.820  -0.971   0.000  0.00  0.00    +0.000 C 
ATOM      9  O   UNL     1      -1.534  -0.558   0.000  0.00  0.00    +0.000 OA
ENDBRANCH   4   8
BRANCH   6  10
ATOM     10  C   UNL     1       0.609   1.504   0.000  0.00  0.00    +0.000 C 
ATOM     11  O   UNL     1      -0.105   1.917   0.000  0.00  0.00    +0.000 OA
ENDBRANCH   6  10
BRANCH   5  12
ATOM     12  O   UNL     1      -0.820   0.679   0.000  0.00  0.00    +0.000 OA
BRANCH  12  13
ATOM     13  P   UNL     1      -1.534   0.267   0.000  0.00  0.00    +0.000 P 
ATOM     14  O   UNL     1      -2.249  -0.146   0.000  0.00  0.00    +0.000 OA
ATOM     15  O   UNL     1      -1.947   0.981   0.000  0.00  0.00    +0.000 OA
ATOM     16  O   UNL     1      -1.122  -0.448   0.000  0.00  0.00    +0.000 OA
ENDBRANCH  12  13
ENDBRANCH   5  12
TORSDOF 4
