REMARK  Name = 299
REMARK  5 active torsions:
REMARK  status: ('A' for Active; 'I' for Inactive)
REMARK    1  A    between atoms: N_4  and  C_11
REMARK    2  A    between atoms: C_9  and  C_10
REMARK    3  A    between atoms: C_9  and  C_12
REMARK    4  A    between atoms: C_9  and  C_13
REMARK    5  A    between atoms: C_10  and  C_11
REMARK                            x       y       z     vdW  Elec       q    Type
REMARK                         _______ _______ _______ _____ _____    ______ ____
ROOT
ATOM      1  O   UNL     1       3.522  -2.916   0.000  0.00  0.00    +0.000 OA
ATOM      2  N   UNL     1       5.017  -0.602   0.000  0.00  0.00    +0.000 N 
ATOM      3  N   UNL     1       3.522  -0.441   0.000  0.00  0.00    +0.000 NA
ATOM      4  N   UNL     1       5.017  -1.930   0.000  0.00  0.00    +0.000 NA
ATOM      5  N   UNL     1       2.808  -1.678   0.000  0.00  0.00    +0.000 NA
ATOM      6  N   UNL     1       2.093  -0.441   0.000  0.00  0.00    +0.000 NA
ATOM      7  C   UNL     1       4.237  -0.853   0.000  0.00  0.00    +0.000 A 
ATOM      8  C   UNL     1       4.237  -1.678   0.000  0.00  0.00    +0.000 A 
ATOM      9  C   UNL     1       5.499  -1.266   0.000  0.00  0.00    +0.000 A 
ATOM     10  C   UNL     1       3.522  -2.091   0.000  0.00  0.00    +0.000 A 
ATOM     11  C   UNL     1       2.808  -0.853   0.000  0.00  0.00    +0.000 A 
ENDROOT
BRANCH   2  12
ATOM     12  C   UNL     1       5.273   0.182   0.000  0.00  0.00    +0.000 C 
BRANCH  12  13
ATOM     13  C   UNL     1       6.081   0.352   0.000  0.00  0.00    +0.000 C 
BRANCH  13  14
ATOM     14  C   UNL     1       6.337   1.137   0.000  0.00  0.00    +0.000 C 
BRANCH  14  16
ATOM     15  O   UNL     1       6.042   2.535   0.000  0.00  0.00    +0.000 OA
ATOM     16  C   UNL     1       5.786   1.751   0.000  0.00  0.00    +0.000 C 
ENDBRANCH  14  16
BRANCH  14  18
ATOM     17  O   UNL     1       7.401   2.091   0.000  0.00  0.00    +0.000 OA
ATOM     18  C   UNL     1       7.144   1.307   0.000  0.00  0.00    +0.000 C 
ENDBRANCH  14  18
ENDBRANCH  13  14
ENDBRANCH  12  13
ENDBRANCH   2  12
TORSDOF 5
