REMARK  Name = 29U
REMARK  6 active torsions:
REMARK  status: ('A' for Active; 'I' for Inactive)
REMARK    1  A    between atoms: C_2  and  C_3
REMARK    2  A    between atoms: N_5  and  C_6
REMARK    3  A    between atoms: C_6  and  C_7
REMARK    4  A    between atoms: C_10  and  C_11
REMARK    5  A    between atoms: C_19  and  C_20
REMARK    6  A    between atoms: C_20  and  C_22
REMARK                            x       y       z     vdW  Elec       q    Type
REMARK                         _______ _______ _______ _____ _____    ______ ____
ROOT
ATOM      1  C   UNL     1       0.012   0.075   0.000  0.00  0.00    +0.000 C 
ATOM      2  O   UNL     1       0.726   0.487   0.000  0.00  0.00    +0.000 OA
ATOM      3  N   UNL     1      -0.703   0.487   0.000  0.00  0.00    +0.000 NA
ENDROOT
BRANCH   1   5
ATOM      4  N   UNL     1       0.679  -1.235   0.000  0.00  0.00    +0.000 N 
ATOM      5  C   UNL     1       0.012  -0.750   0.000  0.00  0.00    +0.000 C 
ATOM      6  C   UNL     1      -0.656  -1.235   0.000  0.00  0.00    +0.000 C 
ATOM      7  C   UNL     1      -0.401  -2.020   0.000  0.00  0.00    +0.000 C 
ATOM      8  C   UNL     1       0.424  -2.020   0.000  0.00  0.00    +0.000 C 
ATOM      9  C   UNL     1       1.464  -0.980   0.000  0.00  0.00    +0.000 C 
ATOM     10  O   UNL     1       1.635  -0.173   0.000  0.00  0.00    +0.000 OA
BRANCH   9  11
ATOM     11  C   UNL     1       2.077  -1.532   0.000  0.00  0.00    +0.000 C 
ATOM     12  N   UNL     1       1.905  -2.339   0.000  0.00  0.00    +0.000 NA
BRANCH  11  13
ATOM     13  C   UNL     1       2.862  -1.278   0.000  0.00  0.00    +0.000 C 
ATOM     14  C   UNL     1       3.475  -1.830   0.000  0.00  0.00    +0.000 C 
ENDBRANCH  11  13
ENDBRANCH   9  11
ENDBRANCH   1   5
BRANCH   3  15
ATOM     15  C   UNL     1      -0.703   1.312   0.000  0.00  0.00    +0.000 C 
BRANCH  15  16
ATOM     16  C   UNL     1      -1.417   1.725   0.000  0.00  0.00    +0.000 A 
ATOM     17  C   UNL     1      -2.131   1.312   0.000  0.00  0.00    +0.000 A 
ATOM     18  C   UNL     1      -2.846   1.725   0.000  0.00  0.00    +0.000 A 
ATOM     19  C   UNL     1      -2.846   2.550   0.000  0.00  0.00    +0.000 A 
ATOM     20  C   UNL     1      -2.131   2.962   0.000  0.00  0.00    +0.000 A 
ATOM     21  C   UNL     1      -1.417   2.550   0.000  0.00  0.00    +0.000 A 
BRANCH  19  22
ATOM     22  C   UNL     1      -3.561   2.962   0.000  0.00  0.00    +0.000 C 
ATOM     23  N   UNL     1      -3.561   3.787   0.000  0.00  0.00    +0.000 NA
ATOM     24  N   UNL     1      -4.275   2.550   0.000  0.00  0.00    +0.000 NA
ENDBRANCH  19  22
ENDBRANCH  15  16
ENDBRANCH   3  15
TORSDOF 6
