REMARK  Name = 2A6
REMARK  4 active torsions:
REMARK  status: ('A' for Active; 'I' for Inactive)
REMARK    1  A    between atoms: C_3  and  C_4
REMARK    2  A    between atoms: C_3  and  O_16
REMARK    3  A    between atoms: C_15  and  O_16
REMARK    4  A    between atoms: N_22  and  C_23
REMARK                            x       y       z     vdW  Elec       q    Type
REMARK                         _______ _______ _______ _____ _____    ______ ____
ROOT
ATOM      1  C   UNL     1       0.647   1.402   0.000  0.00  0.00    +0.000 A 
ATOM      2  C   UNL     1      -2.051   0.989   0.000  0.00  0.00    +0.000 A 
ATOM      3  N   UNL     1       0.647   0.577   0.000  0.00  0.00    +0.000 NA
ATOM      4  C   UNL     1      -0.067   0.164   0.000  0.00  0.00    +0.000 A 
ATOM      5  C   UNL     1      -0.782   0.577   0.000  0.00  0.00    +0.000 A 
ATOM      6  N   UNL     1      -1.567   0.322   0.000  0.00  0.00    +0.000 NA
ATOM      7  N   UNL     1      -1.567   1.657   0.000  0.00  0.00    +0.000 NA
ATOM      8  C   UNL     1      -0.782   1.402   0.000  0.00  0.00    +0.000 A 
ATOM      9  N   UNL     1      -0.067   1.814   0.000  0.00  0.00    +0.000 NA
ATOM     10  N   UNL     1       1.361   1.814   0.000  0.00  0.00    +0.000 NA
ENDROOT
BRANCH  10  15
ATOM     11  C   UNL     1       0.647   3.877   0.000  0.00  0.00    +0.000 A 
ATOM     12  C   UNL     1       1.361   4.289   0.000  0.00  0.00    +0.000 A 
ATOM     13  C   UNL     1       2.076   3.877   0.000  0.00  0.00    +0.000 A 
ATOM     14  C   UNL     1       2.076   3.052   0.000  0.00  0.00    +0.000 A 
ATOM     15  C   UNL     1       1.361   2.639   0.000  0.00  0.00    +0.000 A 
ATOM     16  C   UNL     1       0.647   3.052   0.000  0.00  0.00    +0.000 A 
ENDBRANCH  10  15
BRANCH   4  17
ATOM     17  O   UNL     1      -0.067  -0.661   0.000  0.00  0.00    +0.000 OA
BRANCH  17  18
ATOM     18  C   UNL     1      -0.782  -1.073   0.000  0.00  0.00    +0.000 C 
BRANCH  18  19
ATOM     19  C   UNL     1      -0.782  -1.898   0.000  0.00  0.00    +0.000 C 
ATOM     20  C   UNL     1      -0.067  -2.311   0.000  0.00  0.00    +0.000 C 
ATOM     21  C   UNL     1      -0.067  -3.136   0.000  0.00  0.00    +0.000 C 
ATOM     22  C   UNL     1      -0.782  -3.548   0.000  0.00  0.00    +0.000 C 
ATOM     23  C   UNL     1      -1.496  -3.136   0.000  0.00  0.00    +0.000 C 
ATOM     24  C   UNL     1      -1.496  -2.311   0.000  0.00  0.00    +0.000 C 
ENDBRANCH  18  19
ENDBRANCH  17  18
ENDBRANCH   4  17
TORSDOF 4
