REMARK  Name = 2BC
REMARK  3 active torsions:
REMARK  status: ('A' for Active; 'I' for Inactive)
REMARK    1  A    between atoms: C_10  and  C_11
REMARK    2  A    between atoms: N_13  and  N_14
REMARK    3  A    between atoms: C_15  and  C_16
REMARK                            x       y       z     vdW  Elec       q    Type
REMARK                         _______ _______ _______ _____ _____    ______ ____
ROOT
ATOM      1  C   UNL     1      -0.917   0.364   0.000  0.00  0.00    +0.000 C 
ATOM      2  O   UNL     1      -0.917   1.190   0.000  0.00  0.00    +0.000 OA
ATOM      3  N   UNL     1      -1.632  -0.048   0.000  0.00  0.00    +0.000 NA
ENDROOT
BRANCH   1  13
ATOM      4  C   UNL     1       0.511   0.364   0.000  0.00  0.00    +0.000 A 
ATOM      5  C   UNL     1       1.226  -0.048   0.000  0.00  0.00    +0.000 A 
ATOM      6  C   UNL     1       1.940   0.364   0.000  0.00  0.00    +0.000 A 
ATOM      7  C   UNL     1       2.655  -0.048   0.000  0.00  0.00    +0.000 A 
ATOM      8  C   UNL     1       2.655  -0.873   0.000  0.00  0.00    +0.000 A 
ATOM      9  C   UNL     1       1.940  -1.286   0.000  0.00  0.00    +0.000 A 
ATOM     10  C   UNL     1       1.226  -0.873   0.000  0.00  0.00    +0.000 A 
ATOM     11  C   UNL     1       0.511  -1.286   0.000  0.00  0.00    +0.000 A 
ATOM     12  C   UNL     1      -0.203  -0.873   0.000  0.00  0.00    +0.000 A 
ATOM     13  C   UNL     1      -0.203  -0.048   0.000  0.00  0.00    +0.000 A 
ENDBRANCH   1  13
BRANCH   3  14
ATOM     14  N   UNL     1      -2.346   0.364   0.000  0.00  0.00    +0.000 NA
ATOM     15  C   UNL     1      -3.061  -0.048   0.000  0.00  0.00    +0.000 C 
BRANCH  15  16
ATOM     16  C   UNL     1      -3.775   0.364   0.000  0.00  0.00    +0.000 A 
ATOM     17  C   UNL     1      -4.490  -0.048   0.000  0.00  0.00    +0.000 A 
ATOM     18  C   UNL     1      -5.204   0.364   0.000  0.00  0.00    +0.000 A 
ATOM     19 BR   UNL     1      -5.919  -0.048   0.000  0.00  0.00    +0.000 Br
ATOM     20  C   UNL     1      -5.204   1.190   0.000  0.00  0.00    +0.000 A 
ATOM     21  O   UNL     1      -5.919   1.602   0.000  0.00  0.00    +0.000 OA
ATOM     22  C   UNL     1      -4.490   1.602   0.000  0.00  0.00    +0.000 A 
ATOM     23 BR   UNL     1      -4.490   2.427   0.000  0.00  0.00    +0.000 Br
ATOM     24  C   UNL     1      -3.775   1.190   0.000  0.00  0.00    +0.000 A 
ATOM     25  O   UNL     1      -3.061   1.602   0.000  0.00  0.00    +0.000 OA
ENDBRANCH  15  16
ENDBRANCH   3  14
TORSDOF 3
