REMARK  Name = 2BE
REMARK  3 active torsions:
REMARK  status: ('A' for Active; 'I' for Inactive)
REMARK    1  A    between atoms: C_7  and  C_8
REMARK    2  A    between atoms: N_10  and  N_11
REMARK    3  A    between atoms: C_12  and  C_13
REMARK                            x       y       z     vdW  Elec       q    Type
REMARK                         _______ _______ _______ _____ _____    ______ ____
ROOT
ATOM      1  N   UNL     1      -1.047   0.187   0.000  0.00  0.00    +0.000 NA
ATOM      2  C   UNL     1      -1.761  -0.225   0.000  0.00  0.00    +0.000 C 
ENDROOT
BRANCH   2   3
ATOM      3  C   UNL     1      -2.476   0.187   0.000  0.00  0.00    +0.000 A 
ATOM      4  C   UNL     1      -3.190  -0.225   0.000  0.00  0.00    +0.000 A 
ATOM      5  C   UNL     1      -3.905   0.187   0.000  0.00  0.00    +0.000 A 
ATOM      6 BR   UNL     1      -4.619  -0.225   0.000  0.00  0.00    +0.000 Br
ATOM      7  C   UNL     1      -3.905   1.012   0.000  0.00  0.00    +0.000 A 
ATOM      8  O   UNL     1      -4.619   1.425   0.000  0.00  0.00    +0.000 OA
ATOM      9  C   UNL     1      -3.190   1.425   0.000  0.00  0.00    +0.000 A 
ATOM     10 BR   UNL     1      -3.190   2.250   0.000  0.00  0.00    +0.000 Br
ATOM     11  C   UNL     1      -2.476   1.012   0.000  0.00  0.00    +0.000 A 
ATOM     12  O   UNL     1      -1.761   1.425   0.000  0.00  0.00    +0.000 OA
ENDBRANCH   2   3
BRANCH   1  15
ATOM     13  C   UNL     1       0.382   0.187   0.000  0.00  0.00    +0.000 C 
ATOM     14  O   UNL     1       0.382   1.012   0.000  0.00  0.00    +0.000 OA
ATOM     15  N   UNL     1      -0.332  -0.225   0.000  0.00  0.00    +0.000 NA
BRANCH  13  22
ATOM     16  C   UNL     1       1.811   0.187   0.000  0.00  0.00    +0.000 A 
ATOM     17  C   UNL     1       2.526  -0.225   0.000  0.00  0.00    +0.000 A 
ATOM     18  C   UNL     1       2.526  -1.050   0.000  0.00  0.00    +0.000 A 
ATOM     19 CL   UNL     1       3.240  -1.463   0.000  0.00  0.00    +0.000 Cl
ATOM     20  C   UNL     1       1.811  -1.463   0.000  0.00  0.00    +0.000 A 
ATOM     21  C   UNL     1       1.097  -1.050   0.000  0.00  0.00    +0.000 A 
ATOM     22  C   UNL     1       1.097  -0.225   0.000  0.00  0.00    +0.000 A 
ENDBRANCH  13  22
ENDBRANCH   1  15
TORSDOF 3
