REMARK  Name = 2BL
REMARK  7 active torsions:
REMARK  status: ('A' for Active; 'I' for Inactive)
REMARK    1  A    between atoms: C_1  and  C_2
REMARK    2  A    between atoms: C_2  and  C_3
REMARK    3  A    between atoms: C_2  and  C_5
REMARK    4  A    between atoms: C_3  and  C_4
REMARK    5  A    between atoms: C_3  and  N_19
REMARK    6  A    between atoms: C_7  and  S_18
REMARK    7  A    between atoms: S_18  and  N_19
REMARK                            x       y       z     vdW  Elec       q    Type
REMARK                         _______ _______ _______ _____ _____    ______ ____
ROOT
ATOM      1  N   UNL     1       0.185  -0.796   0.000  0.00  0.00    +0.000 NA
ENDROOT
BRANCH   1   4
ATOM      2  O   UNL     1      -0.117   0.331   0.000  0.00  0.00    +0.000 OA
ATOM      3  O   UNL     1      -0.942  -1.098   0.000  0.00  0.00    +0.000 OA
ATOM      4  S   UNL     1      -0.530  -0.383   0.000  0.00  0.00    +0.000 S 
BRANCH   4   5
ATOM      5  C   UNL     1      -1.244   0.029   0.000  0.00  0.00    +0.000 A 
ATOM      6  C   UNL     1      -1.959  -0.383   0.000  0.00  0.00    +0.000 A 
ATOM      7  C   UNL     1      -1.244   0.854   0.000  0.00  0.00    +0.000 A 
ATOM      8  C   UNL     1      -2.673   0.029   0.000  0.00  0.00    +0.000 A 
ATOM      9  C   UNL     1      -1.959   1.267   0.000  0.00  0.00    +0.000 A 
ATOM     10  C   UNL     1      -2.673   0.854   0.000  0.00  0.00    +0.000 A 
ATOM     11  C   UNL     1      -3.388   1.267   0.000  0.00  0.00    +0.000 C 
ENDBRANCH   4   5
ENDBRANCH   1   4
BRANCH   1  12
ATOM     12  C   UNL     1       0.899  -0.383   0.000  0.00  0.00    +0.000 C 
BRANCH  12  13
ATOM     13  C   UNL     1       0.899   0.442   0.000  0.00  0.00    +0.000 C 
ATOM     14  O   UNL     1       0.185   0.854   0.000  0.00  0.00    +0.000 OA
ATOM     15  O   UNL     1       1.614   0.854   0.000  0.00  0.00    +0.000 OA
ENDBRANCH  12  13
BRANCH  12  16
ATOM     16  C   UNL     1       1.614  -0.796   0.000  0.00  0.00    +0.000 C 
BRANCH  16  17
ATOM     17  C   UNL     1       1.614  -1.621   0.000  0.00  0.00    +0.000 C 
ATOM     18  O   UNL     1       2.328  -2.033   0.000  0.00  0.00    +0.000 OA
ATOM     19  O   UNL     1       0.899  -2.033   0.000  0.00  0.00    +0.000 OA
ENDBRANCH  16  17
BRANCH  16  20
ATOM     20  C   UNL     1       2.328  -0.383   0.000  0.00  0.00    +0.000 C 
ATOM     21  C   UNL     1       3.042  -0.796   0.000  0.00  0.00    +0.000 C 
ENDBRANCH  16  20
ENDBRANCH  12  16
ENDBRANCH   1  12
TORSDOF 7
