REMARK  Name = 2C2
REMARK  1 active torsions:
REMARK  status: ('A' for Active; 'I' for Inactive)
REMARK    1  A    between atoms: C_2  and  C_4
REMARK                            x       y       z     vdW  Elec       q    Type
REMARK                         _______ _______ _______ _____ _____    ______ ____
ROOT
ATOM      1  C   UNL     1       0.396   0.112   0.000  0.00  0.00    +0.000 C 
ATOM      2  O   UNL     1      -0.416  -0.031   0.000  0.00  0.00    +0.000 OA
ATOM      3  O   UNL     1       1.111   0.525   0.000  0.00  0.00    +0.000 OA
ATOM      4  C   UNL     1       1.825   0.112   0.000  0.00  0.00    +0.000 A 
ATOM      5  C   UNL     1       1.825  -0.713   0.000  0.00  0.00    +0.000 A 
ATOM      6  C   UNL     1       1.111  -1.125   0.000  0.00  0.00    +0.000 C 
ATOM      7  C   UNL     1       0.396  -0.713   0.000  0.00  0.00    +0.000 C 
ATOM      8  C   UNL     1       2.540   0.525   0.000  0.00  0.00    +0.000 A 
ATOM      9  C   UNL     1       3.254   0.112   0.000  0.00  0.00    +0.000 A 
ATOM     10  C   UNL     1       3.254  -0.713   0.000  0.00  0.00    +0.000 A 
ATOM     11  C   UNL     1       2.540  -1.125   0.000  0.00  0.00    +0.000 A 
ENDROOT
BRANCH   1  13
ATOM     12  O   UNL     1       0.644   1.520   0.000  0.00  0.00    +0.000 OA
ATOM     13  C   UNL     1       0.114   0.888   0.000  0.00  0.00    +0.000 C 
ATOM     14  O   UNL     1      -0.698   1.031   0.000  0.00  0.00    +0.000 OA
ENDBRANCH   1  13
TORSDOF 1
