REMARK  Name = 2C5
REMARK  8 active torsions:
REMARK  status: ('A' for Active; 'I' for Inactive)
REMARK    1  A    between atoms: O_1  and  C_2
REMARK    2  A    between atoms: O_1  and  C_18
REMARK    3  A    between atoms: C_2  and  C_3
REMARK    4  A    between atoms: C_2  and  C_21
REMARK    5  A    between atoms: C_6  and  C_12
REMARK    6  A    between atoms: C_16  and  C_27
REMARK    7  A    between atoms: C_18  and  C_26
REMARK    8  A    between atoms: C_29  and  C_31
REMARK                            x       y       z     vdW  Elec       q    Type
REMARK                         _______ _______ _______ _____ _____    ______ ____
ROOT
ATOM      1  C   UNL     1      -0.626   1.006   0.000  0.00  0.00    +0.000 C 
ENDROOT
BRANCH   1   3
ATOM      2  N   UNL     1      -1.782   1.846   0.000  0.00  0.00    +0.000 NA
ATOM      3  C   UNL     1      -1.446   1.093   0.000  0.00  0.00    +0.000 A 
ATOM      4  C   UNL     1      -1.931   0.425   0.000  0.00  0.00    +0.000 A 
ATOM      5  C   UNL     1      -2.752   0.511   0.000  0.00  0.00    +0.000 A 
ATOM      6  C   UNL     1      -3.087   1.265   0.000  0.00  0.00    +0.000 A 
ATOM      7  C   UNL     1      -2.602   1.933   0.000  0.00  0.00    +0.000 A 
ATOM      8 CL   UNL     1      -2.938   2.686   0.000  0.00  0.00    +0.000 Cl
BRANCH   4  14
ATOM      9  C   UNL     1      -0.925  -1.836   0.000  0.00  0.00    +0.000 A 
ATOM     10  C   UNL     1      -1.745  -1.750   0.000  0.00  0.00    +0.000 A 
ATOM     11 CL   UNL     1      -2.230  -2.417   0.000  0.00  0.00    +0.000 Cl
ATOM     12  C   UNL     1      -2.081  -0.996   0.000  0.00  0.00    +0.000 A 
ATOM     13  C   UNL     1      -0.440  -1.168   0.000  0.00  0.00    +0.000 A 
ATOM     14  C   UNL     1      -1.596  -0.328   0.000  0.00  0.00    +0.000 A 
ATOM     15  C   UNL     1      -0.775  -0.415   0.000  0.00  0.00    +0.000 A 
ENDBRANCH   4  14
BRANCH   6  16
ATOM     16  C   UNL     1      -3.908   1.351   0.000  0.00  0.00    +0.000 C 
ATOM     17  N   UNL     1      -4.728   1.438   0.000  0.00  0.00    +0.000 NA
ENDBRANCH   6  16
ENDBRANCH   1   3
BRANCH   1  18
ATOM     18  O   UNL     1      -0.290   0.253   0.000  0.00  0.00    +0.000 OA
BRANCH  18  19
ATOM     19  C   UNL     1       0.530   0.167   0.000  0.00  0.00    +0.000 C 
BRANCH  19  22
ATOM     20  N   UNL     1       2.095   1.619   0.000  0.00  0.00    +0.000 NA
ATOM     21  C   UNL     1       1.840   0.834   0.000  0.00  0.00    +0.000 A 
ATOM     22  C   UNL     1       1.015   0.834   0.000  0.00  0.00    +0.000 A 
ATOM     23  N   UNL     1       0.760   1.619   0.000  0.00  0.00    +0.000 N 
ATOM     24  C   UNL     1       1.428   2.103   0.000  0.00  0.00    +0.000 A 
ATOM     25  C   UNL     1      -0.024   1.874   0.000  0.00  0.00    +0.000 C 
ENDBRANCH  19  22
BRANCH  19  26
ATOM     26  C   UNL     1       0.866  -0.587   0.000  0.00  0.00    +0.000 A 
ATOM     27  C   UNL     1       1.686  -0.673   0.000  0.00  0.00    +0.000 A 
ATOM     28  C   UNL     1       2.022  -1.427   0.000  0.00  0.00    +0.000 A 
ATOM     29  C   UNL     1       1.537  -2.095   0.000  0.00  0.00    +0.000 A 
ATOM     30  C   UNL     1       0.716  -2.008   0.000  0.00  0.00    +0.000 A 
ATOM     31  C   UNL     1       0.381  -1.255   0.000  0.00  0.00    +0.000 A 
BRANCH  29  32
ATOM     32  C   UNL     1       1.872  -2.848   0.000  0.00  0.00    +0.000 C 
ATOM     33  N   UNL     1       2.208  -3.602   0.000  0.00  0.00    +0.000 NA
ENDBRANCH  29  32
ENDBRANCH  19  26
ENDBRANCH  18  19
ENDBRANCH   1  18
TORSDOF 8
