REMARK  Name = 2C7
REMARK  4 active torsions:
REMARK  status: ('A' for Active; 'I' for Inactive)
REMARK    1  A    between atoms: C_7  and  C_8
REMARK    2  A    between atoms: C_8  and  C_9
REMARK    3  A    between atoms: C_19  and  O_20
REMARK    4  A    between atoms: O_20  and  S_21
REMARK                            x       y       z     vdW  Elec       q    Type
REMARK                         _______ _______ _______ _____ _____    ______ ____
ROOT
ATOM      1  C   UNL     1      -0.874   0.252   0.000  0.00  0.00    +0.000 C 
ATOM      2  C   UNL     1      -0.389  -0.416   0.000  0.00  0.00    +0.000 C 
ATOM      3  S   UNL     1      -0.389   0.919   0.000  0.00  0.00    +0.000 S 
ATOM      4  O   UNL     1      -1.104   1.332   0.000  0.00  0.00    +0.000 OA
ATOM      5  O   UNL     1      -0.054   1.673   0.000  0.00  0.00    +0.000 OA
ATOM      6  C   UNL     1       0.395   0.664   0.000  0.00  0.00    +0.000 A 
ATOM      7  C   UNL     1       1.110   1.077   0.000  0.00  0.00    +0.000 A 
ATOM      8  C   UNL     1       0.395  -0.161   0.000  0.00  0.00    +0.000 A 
ATOM      9  C   UNL     1       1.110  -0.573   0.000  0.00  0.00    +0.000 A 
ATOM     10  C   UNL     1       1.824  -0.161   0.000  0.00  0.00    +0.000 A 
ATOM     11  C   UNL     1       1.824   0.664   0.000  0.00  0.00    +0.000 A 
ENDROOT
BRANCH   1  12
ATOM     12  C   UNL     1      -1.699   0.252   0.000  0.00  0.00    +0.000 C 
BRANCH  12  19
ATOM     13  C   UNL     1      -1.647  -1.145   0.000  0.00  0.00    +0.000 C 
ATOM     14  C   UNL     1      -1.890  -1.933   0.000  0.00  0.00    +0.000 C 
ATOM     15  C   UNL     1      -2.658  -2.234   0.000  0.00  0.00    +0.000 C 
ATOM     16  C   UNL     1      -3.373  -1.822   0.000  0.00  0.00    +0.000 C 
ATOM     17  C   UNL     1      -3.495  -1.006   0.000  0.00  0.00    +0.000 C 
ATOM     18  C   UNL     1      -2.934  -0.401   0.000  0.00  0.00    +0.000 C 
ATOM     19  C   UNL     1      -2.112  -0.463   0.000  0.00  0.00    +0.000 C 
ENDBRANCH  12  19
ENDBRANCH   1  12
BRANCH  11  20
ATOM     20  O   UNL     1       2.539   1.077   0.000  0.00  0.00    +0.000 OA
BRANCH  20  21
ATOM     21  S   UNL     1       2.539   1.902   0.000  0.00  0.00    +0.000 S 
ATOM     22  O   UNL     1       2.539   2.727   0.000  0.00  0.00    +0.000 OA
ATOM     23  O   UNL     1       3.364   1.902   0.000  0.00  0.00    +0.000 OA
ATOM     24  N   UNL     1       1.714   1.902   0.000  0.00  0.00    +0.000 NA
ENDBRANCH  20  21
ENDBRANCH  11  20
TORSDOF 4
