REMARK  Name = 2CC
REMARK  4 active torsions:
REMARK  status: ('A' for Active; 'I' for Inactive)
REMARK    1  A    between atoms: C_10  and  C_11
REMARK    2  A    between atoms: CA_12  and  C_13
REMARK    3  A    between atoms: CA_17  and  C_18
REMARK    4  A    between atoms: C_21  and  C_22
REMARK                            x       y       z     vdW  Elec       q    Type
REMARK                         _______ _______ _______ _____ _____    ______ ____
ROOT
ATOM      1  C   UNL     1      -0.588  -0.796   0.000  0.00  0.00    +0.000 A 
ATOM      2  CA  UNL     1      -0.588  -1.621   0.000  0.00  0.00    +0.000 A 
ATOM      3  N   UNL     1       0.197  -1.876   0.000  0.00  0.00    +0.000 NA
ATOM      4  CA  UNL     1       0.681  -1.208   0.000  0.00  0.00    +0.000 A 
ATOM      5  C   UNL     1       0.197  -0.541   0.000  0.00  0.00    +0.000 A 
ENDROOT
BRANCH   1  15
ATOM      6 CL   UNL     1      -2.996   1.831   0.000  0.00  0.00    +0.000 Cl
ATOM      7  C   UNL     1      -2.212   1.576   0.000  0.00  0.00    +0.000 A 
ATOM      8  C   UNL     1      -1.599   2.128   0.000  0.00  0.00    +0.000 A 
ATOM      9  C   UNL     1      -0.814   1.873   0.000  0.00  0.00    +0.000 A 
ATOM     10  C   UNL     1      -0.642   1.066   0.000  0.00  0.00    +0.000 A 
ATOM     11  C   UNL     1      -1.256   0.514   0.000  0.00  0.00    +0.000 A 
ATOM     12  C   UNL     1      -2.040   0.769   0.000  0.00  0.00    +0.000 A 
ATOM     13  N   UNL     1      -2.525   0.101   0.000  0.00  0.00    +0.000 NA
ATOM     14  C   UNL     1      -2.040  -0.566   0.000  0.00  0.00    +0.000 A 
ATOM     15  C   UNL     1      -1.256  -0.311   0.000  0.00  0.00    +0.000 A 
ENDBRANCH   1  15
BRANCH   5  16
ATOM     16  C   UNL     1       0.452   0.244   0.000  0.00  0.00    +0.000 A 
ATOM     17  C   UNL     1      -0.034   0.911   0.000  0.00  0.00    +0.000 A 
ATOM     18  N   UNL     1       0.452   1.579   0.000  0.00  0.00    +0.000 NA
ATOM     19  C   UNL     1       1.236   1.323   0.000  0.00  0.00    +0.000 A 
ATOM     20  C   UNL     1       1.236   0.498   0.000  0.00  0.00    +0.000 A 
ATOM     21  C   UNL     1       1.951   0.086   0.000  0.00  0.00    +0.000 A 
ATOM     22  C   UNL     1       2.665   0.498   0.000  0.00  0.00    +0.000 A 
ATOM     23  C   UNL     1       2.665   1.323   0.000  0.00  0.00    +0.000 A 
ATOM     24  C   UNL     1       1.951   1.736   0.000  0.00  0.00    +0.000 A 
ATOM     25 CL   UNL     1       1.951   2.561   0.000  0.00  0.00    +0.000 Cl
ENDBRANCH   5  16
BRANCH   2  26
ATOM     26  C   UNL     1      -1.256  -2.106   0.000  0.00  0.00    +0.000 C 
ATOM     27  OXT UNL     1      -2.009  -1.770   0.000  0.00  0.00    +0.000 OA
ATOM     28  O   UNL     1      -1.169  -2.926   0.000  0.00  0.00    +0.000 OA
ENDBRANCH   2  26
BRANCH   4  29
ATOM     29  C   UNL     1       1.506  -1.208   0.000  0.00  0.00    +0.000 C 
ATOM     30  O   UNL     1       1.919  -0.494   0.000  0.00  0.00    +0.000 OA
ATOM     31  OXT UNL     1       1.919  -1.923   0.000  0.00  0.00    +0.000 OA
ENDBRANCH   4  29
TORSDOF 4
