REMARK  Name = 2D7
REMARK  4 active torsions:
REMARK  status: ('A' for Active; 'I' for Inactive)
REMARK    1  A    between atoms: C_2  and  C_4
REMARK    2  A    between atoms: C_9  and  N_10
REMARK    3  A    between atoms: C_11  and  C_13
REMARK    4  A    between atoms: C_17  and  C_18
REMARK                            x       y       z     vdW  Elec       q    Type
REMARK                         _______ _______ _______ _____ _____    ______ ____
ROOT
ATOM      1  C   UNL     1      -0.702  -1.494   0.000  0.00  0.00    +0.000 A 
ATOM      2  C   UNL     1      -1.369  -1.978   0.000  0.00  0.00    +0.000 A 
ATOM      3  N   UNL     1      -1.114  -2.763   0.000  0.00  0.00    +0.000 NA
ATOM      4  N   UNL     1      -0.289  -2.763   0.000  0.00  0.00    +0.000 NA
ATOM      5  C   UNL     1      -0.035  -1.978   0.000  0.00  0.00    +0.000 A 
ENDROOT
BRANCH   5   6
ATOM      6  C   UNL     1       0.750  -1.724   0.000  0.00  0.00    +0.000 A 
ATOM      7  C   UNL     1       0.922  -0.917   0.000  0.00  0.00    +0.000 A 
ATOM      8  C   UNL     1       1.706  -0.662   0.000  0.00  0.00    +0.000 A 
ATOM      9 CL   UNL     1       1.878   0.145   0.000  0.00  0.00    +0.000 Cl
ATOM     10  C   UNL     1       2.319  -1.214   0.000  0.00  0.00    +0.000 A 
ATOM     11  O   UNL     1       3.104  -0.959   0.000  0.00  0.00    +0.000 OA
ATOM     12  C   UNL     1       2.148  -2.021   0.000  0.00  0.00    +0.000 A 
ATOM     13  C   UNL     1       1.363  -2.276   0.000  0.00  0.00    +0.000 A 
ATOM     14  O   UNL     1       1.192  -3.083   0.000  0.00  0.00    +0.000 OA
ENDBRANCH   5   6
BRANCH   1  16
ATOM     15  N   UNL     1       0.013  -0.256   0.000  0.00  0.00    +0.000 NA
ATOM     16  C   UNL     1      -0.702  -0.669   0.000  0.00  0.00    +0.000 C 
ATOM     17  O   UNL     1      -1.416  -0.256   0.000  0.00  0.00    +0.000 OA
BRANCH  15  23
ATOM     18  C   UNL     1       0.013   2.219   0.000  0.00  0.00    +0.000 A 
ATOM     19  C   UNL     1       0.727   1.806   0.000  0.00  0.00    +0.000 A 
ATOM     20  C   UNL     1       0.727   0.981   0.000  0.00  0.00    +0.000 A 
ATOM     21  C   UNL     1      -0.702   1.806   0.000  0.00  0.00    +0.000 A 
ATOM     22  C   UNL     1      -0.702   0.981   0.000  0.00  0.00    +0.000 A 
ATOM     23  C   UNL     1       0.013   0.569   0.000  0.00  0.00    +0.000 A 
BRANCH  18  25
ATOM     24  O   UNL     1      -0.702   3.456   0.000  0.00  0.00    +0.000 OA
ATOM     25  C   UNL     1       0.013   3.044   0.000  0.00  0.00    +0.000 C 
ATOM     26  C   UNL     1       0.727   3.456   0.000  0.00  0.00    +0.000 C 
ENDBRANCH  18  25
ENDBRANCH  15  23
ENDBRANCH   1  16
TORSDOF 4
