REMARK  Name = 2D9
REMARK  5 active torsions:
REMARK  status: ('A' for Active; 'I' for Inactive)
REMARK    1  A    between atoms: S_2  and  C_5
REMARK    2  A    between atoms: C_10  and  C_11
REMARK    3  A    between atoms: C_11  and  N_12
REMARK    4  A    between atoms: N_17  and  C_18
REMARK    5  A    between atoms: C_22  and  C_23
REMARK                            x       y       z     vdW  Elec       q    Type
REMARK                         _______ _______ _______ _____ _____    ______ ____
ROOT
ATOM      1  N   UNL     1       0.281   0.569   0.000  0.00  0.00    +0.000 NA
ATOM      2  C   UNL     1       0.995   0.156   0.000  0.00  0.00    +0.000 C 
ATOM      3  C   UNL     1       0.995  -0.669   0.000  0.00  0.00    +0.000 C 
ATOM      4  C   UNL     1      -0.434   0.156   0.000  0.00  0.00    +0.000 C 
ATOM      5  C   UNL     1      -0.434  -0.669   0.000  0.00  0.00    +0.000 C 
ATOM      6  N   UNL     1       0.281  -1.081   0.000  0.00  0.00    +0.000 N 
ENDROOT
BRANCH   6   7
ATOM      7  C   UNL     1       0.281  -1.907   0.000  0.00  0.00    +0.000 A 
ATOM      8  C   UNL     1      -0.387  -2.391   0.000  0.00  0.00    +0.000 A 
ATOM      9  N   UNL     1      -0.132  -3.176   0.000  0.00  0.00    +0.000 NA
ATOM     10  N   UNL     1       0.693  -3.176   0.000  0.00  0.00    +0.000 NA
ATOM     11  C   UNL     1       0.948  -2.391   0.000  0.00  0.00    +0.000 A 
BRANCH  11  12
ATOM     12  C   UNL     1       1.733  -2.136   0.000  0.00  0.00    +0.000 A 
ATOM     13  C   UNL     1       1.904  -1.329   0.000  0.00  0.00    +0.000 A 
ATOM     14  C   UNL     1       2.689  -1.075   0.000  0.00  0.00    +0.000 A 
ATOM     15 CL   UNL     1       2.860  -0.268   0.000  0.00  0.00    +0.000 Cl
ATOM     16  C   UNL     1       3.302  -1.627   0.000  0.00  0.00    +0.000 A 
ATOM     17  O   UNL     1       4.087  -1.372   0.000  0.00  0.00    +0.000 OA
ATOM     18  C   UNL     1       3.131  -2.434   0.000  0.00  0.00    +0.000 A 
ATOM     19  C   UNL     1       2.346  -2.688   0.000  0.00  0.00    +0.000 A 
ATOM     20  O   UNL     1       2.174  -3.495   0.000  0.00  0.00    +0.000 OA
ENDBRANCH  11  12
ENDBRANCH   6   7
BRANCH   1  21
ATOM     21  C   UNL     1       0.281   1.393   0.000  0.00  0.00    +0.000 C 
BRANCH  21  27
ATOM     22  C   UNL     1      -1.863   2.631   0.000  0.00  0.00    +0.000 A 
ATOM     23  C   UNL     1      -1.148   3.043   0.000  0.00  0.00    +0.000 A 
ATOM     24  C   UNL     1      -0.434   2.631   0.000  0.00  0.00    +0.000 A 
ATOM     25  C   UNL     1      -1.863   1.806   0.000  0.00  0.00    +0.000 A 
ATOM     26  C   UNL     1      -1.148   1.393   0.000  0.00  0.00    +0.000 A 
ATOM     27  C   UNL     1      -0.434   1.806   0.000  0.00  0.00    +0.000 A 
BRANCH  22  29
ATOM     28  C   UNL     1      -3.292   3.456   0.000  0.00  0.00    +0.000 C 
ATOM     29  S   UNL     1      -2.577   3.043   0.000  0.00  0.00    +0.000 S 
ATOM     30  O   UNL     1      -2.990   2.329   0.000  0.00  0.00    +0.000 OA
ATOM     31  O   UNL     1      -2.165   3.758   0.000  0.00  0.00    +0.000 OA
ENDBRANCH  22  29
ENDBRANCH  21  27
ENDBRANCH   1  21
TORSDOF 5
