REMARK  Name = 2DD
REMARK  5 active torsions:
REMARK  status: ('A' for Active; 'I' for Inactive)
REMARK    1  A    between atoms: C_9  and  C_10
REMARK    2  A    between atoms: C_14  and  C_15
REMARK    3  A    between atoms: N_17  and  C_18
REMARK    4  A    between atoms: C_18  and  C_19
REMARK    5  A    between atoms: C_24  and  S_25
REMARK                            x       y       z     vdW  Elec       q    Type
REMARK                         _______ _______ _______ _____ _____    ______ ____
ROOT
ATOM      1  C   UNL     1       1.256  -1.567   0.000  0.00  0.00    +0.000 A 
ATOM      2  N   UNL     1       1.923  -2.051   0.000  0.00  0.00    +0.000 NA
ATOM      3  N   UNL     1       1.668  -2.836   0.000  0.00  0.00    +0.000 NA
ATOM      4  C   UNL     1       0.843  -2.836   0.000  0.00  0.00    +0.000 A 
ATOM      5  C   UNL     1       0.588  -2.051   0.000  0.00  0.00    +0.000 A 
ENDROOT
BRANCH   1  14
ATOM      6 CL   UNL     1      -0.173   0.908   0.000  0.00  0.00    +0.000 Cl
ATOM      7  C   UNL     1       0.541   0.496   0.000  0.00  0.00    +0.000 A 
ATOM      8  C   UNL     1       1.256   0.908   0.000  0.00  0.00    +0.000 A 
ATOM      9  C   UNL     1       1.970   0.496   0.000  0.00  0.00    +0.000 A 
ATOM     10  C   UNL     1       1.970  -0.329   0.000  0.00  0.00    +0.000 A 
ATOM     11  O   UNL     1       2.684  -0.742   0.000  0.00  0.00    +0.000 OA
ATOM     12  O   UNL     1       1.256   1.733   0.000  0.00  0.00    +0.000 OA
ATOM     13  C   UNL     1       0.541  -0.329   0.000  0.00  0.00    +0.000 A 
ATOM     14  C   UNL     1       1.256  -0.742   0.000  0.00  0.00    +0.000 A 
ENDBRANCH   1  14
BRANCH   5  15
ATOM     15  C   UNL     1      -0.197  -1.796   0.000  0.00  0.00    +0.000 C 
ATOM     16  O   UNL     1      -0.810  -2.349   0.000  0.00  0.00    +0.000 OA
ATOM     17  N   UNL     1      -0.368  -0.990   0.000  0.00  0.00    +0.000 NA
BRANCH  17  18
ATOM     18  C   UNL     1      -1.153  -0.735   0.000  0.00  0.00    +0.000 C 
BRANCH  18  19
ATOM     19  C   UNL     1      -1.324   0.072   0.000  0.00  0.00    +0.000 A 
ATOM     20  C   UNL     1      -2.109   0.327   0.000  0.00  0.00    +0.000 A 
ATOM     21  C   UNL     1      -2.280   1.134   0.000  0.00  0.00    +0.000 A 
ATOM     22  C   UNL     1      -0.711   0.624   0.000  0.00  0.00    +0.000 A 
ATOM     23  C   UNL     1      -0.883   1.431   0.000  0.00  0.00    +0.000 A 
ATOM     24  C   UNL     1      -1.667   1.686   0.000  0.00  0.00    +0.000 A 
BRANCH  24  25
ATOM     25  S   UNL     1      -1.839   2.493   0.000  0.00  0.00    +0.000 S 
ATOM     26  O   UNL     1      -2.010   3.300   0.000  0.00  0.00    +0.000 OA
ATOM     27  O   UNL     1      -1.032   2.665   0.000  0.00  0.00    +0.000 OA
ATOM     28  N   UNL     1      -2.646   2.322   0.000  0.00  0.00    +0.000 NA
ENDBRANCH  24  25
ENDBRANCH  18  19
ENDBRANCH  17  18
ENDBRANCH   5  15
TORSDOF 5
