REMARK  Name = 2E1
REMARK  4 active torsions:
REMARK  status: ('A' for Active; 'I' for Inactive)
REMARK    1  A    between atoms: N_5  and  C_6
REMARK    2  A    between atoms: C_7  and  C_8
REMARK    3  A    between atoms: N_11  and  C_12
REMARK    4  A    between atoms: C_16  and  C_17
REMARK                            x       y       z     vdW  Elec       q    Type
REMARK                         _______ _______ _______ _____ _____    ______ ____
ROOT
ATOM      1  C   UNL     1       0.274  -0.721   0.000  0.00  0.00    +0.000 A 
ATOM      2  C   UNL     1      -0.393  -1.206   0.000  0.00  0.00    +0.000 A 
ATOM      3  N   UNL     1      -0.138  -1.991   0.000  0.00  0.00    +0.000 NA
ATOM      4  N   UNL     1       0.687  -1.991   0.000  0.00  0.00    +0.000 NA
ATOM      5  C   UNL     1       0.942  -1.206   0.000  0.00  0.00    +0.000 A 
ENDROOT
BRANCH   5   6
ATOM      6  C   UNL     1       1.726  -0.951   0.000  0.00  0.00    +0.000 A 
ATOM      7  C   UNL     1       1.898  -0.144   0.000  0.00  0.00    +0.000 A 
ATOM      8  C   UNL     1       2.683   0.111   0.000  0.00  0.00    +0.000 A 
ATOM      9 CL   UNL     1       2.854   0.918   0.000  0.00  0.00    +0.000 Cl
ATOM     10  C   UNL     1       3.296  -0.441   0.000  0.00  0.00    +0.000 A 
ATOM     11  O   UNL     1       4.080  -0.186   0.000  0.00  0.00    +0.000 OA
ATOM     12  C   UNL     1       3.124  -1.248   0.000  0.00  0.00    +0.000 A 
ATOM     13  C   UNL     1       2.339  -1.503   0.000  0.00  0.00    +0.000 A 
ATOM     14  O   UNL     1       2.168  -2.310   0.000  0.00  0.00    +0.000 OA
ENDBRANCH   5   6
BRANCH   1  19
ATOM     15  C   UNL     1       0.989   1.341   0.000  0.00  0.00    +0.000 C 
ATOM     16  C   UNL     1       0.989   0.516   0.000  0.00  0.00    +0.000 C 
ATOM     17  C   UNL     1      -0.440   0.516   0.000  0.00  0.00    +0.000 C 
ATOM     18  C   UNL     1      -0.440   1.341   0.000  0.00  0.00    +0.000 C 
ATOM     19  N   UNL     1       0.274   0.104   0.000  0.00  0.00    +0.000 N 
ATOM     20  N   UNL     1       0.274   1.754   0.000  0.00  0.00    +0.000 NA
ENDBRANCH   1  19
BRANCH   2  21
ATOM     21  C   UNL     1      -1.178  -0.951   0.000  0.00  0.00    +0.000 C 
ATOM     22  O   UNL     1      -1.791  -1.503   0.000  0.00  0.00    +0.000 OA
ATOM     23  N   UNL     1      -1.349  -0.144   0.000  0.00  0.00    +0.000 NA
BRANCH  23  24
ATOM     24  C   UNL     1      -2.134   0.111   0.000  0.00  0.00    +0.000 C 
ATOM     25  C   UNL     1      -2.747  -0.441   0.000  0.00  0.00    +0.000 C 
ENDBRANCH  23  24
ENDBRANCH   2  21
TORSDOF 4
