REMARK  Name = 2ED
REMARK  16 active torsions:
REMARK  status: ('A' for Active; 'I' for Inactive)
REMARK    1  A    between atoms: CA_4  and  C_5
REMARK    2  A    between atoms: CA_4  and  N_12
REMARK    3  A    between atoms: CA_4  and  C_13
REMARK    4  A    between atoms: C_5  and  C_6
REMARK    5  A    between atoms: C_7  and  C_8
REMARK    6  A    between atoms: C_8  and  C_9
REMARK    7  A    between atoms: C_9  and  C_16
REMARK    8  A    between atoms: C_16  and  C_17
REMARK    9  A    between atoms: C_17  and  C_18
REMARK   10  A    between atoms: C_18  and  C_19
REMARK   11  A    between atoms: C_19  and  C_20
REMARK   12  A    between atoms: C_20  and  C_21
REMARK   13  A    between atoms: C_21  and  C_22
REMARK   14  A    between atoms: C_22  and  C_23
REMARK   15  A    between atoms: C_23  and  C_24
REMARK   16  A    between atoms: C_24  and  C_25
REMARK                            x       y       z     vdW  Elec       q    Type
REMARK                         _______ _______ _______ _____ _____    ______ ____
ROOT
ATOM      1  C   UNL     1      -2.381   0.060   0.000  0.00  0.00    +0.000 C 
ENDROOT
BRANCH   1   3
ATOM      2  C   UNL     1      -3.810   0.060   0.000  0.00  0.00    +0.000 C 
ATOM      3  C   UNL     1      -3.096  -0.352   0.000  0.00  0.00    +0.000 C 
BRANCH   2   5
ATOM      4  O   UNL     1      -4.525  -1.177   0.000  0.00  0.00    +0.000 OA
ATOM      5  C   UNL     1      -4.525  -0.352   0.000  0.00  0.00    +0.000 C 
BRANCH   5   6
ATOM      6  CA  UNL     1      -5.239   0.060   0.000  0.00  0.00    +0.000 C 
BRANCH   6  10
ATOM      7  O   UNL     1      -7.383  -0.352   0.000  0.00  0.00    +0.000 OA
ATOM      8  C   UNL     1      -6.668   0.060   0.000  0.00  0.00    +0.000 C 
ATOM      9  C   UNL     1      -6.668   0.885   0.000  0.00  0.00    +0.000 C 
ATOM     10  N   UNL     1      -5.954  -0.352   0.000  0.00  0.00    +0.000 NA
ENDBRANCH   6  10
BRANCH   6  12
ATOM     11  O   UNL     1      -4.525   1.298   0.000  0.00  0.00    +0.000 OA
ATOM     12  C   UNL     1      -5.239   0.885   0.000  0.00  0.00    +0.000 C 
ENDBRANCH   6  12
ENDBRANCH   5   6
ENDBRANCH   2   5
ENDBRANCH   1   3
BRANCH   1  13
ATOM     13  C   UNL     1      -1.667  -0.352   0.000  0.00  0.00    +0.000 C 
BRANCH  13  14
ATOM     14  C   UNL     1      -0.952   0.060   0.000  0.00  0.00    +0.000 C 
BRANCH  14  15
ATOM     15  C   UNL     1      -0.238  -0.352   0.000  0.00  0.00    +0.000 C 
BRANCH  15  16
ATOM     16  C   UNL     1       0.477   0.060   0.000  0.00  0.00    +0.000 C 
BRANCH  16  17
ATOM     17  C   UNL     1       1.191  -0.352   0.000  0.00  0.00    +0.000 C 
BRANCH  17  18
ATOM     18  C   UNL     1       1.906   0.060   0.000  0.00  0.00    +0.000 C 
BRANCH  18  19
ATOM     19  C   UNL     1       2.620  -0.352   0.000  0.00  0.00    +0.000 C 
BRANCH  19  20
ATOM     20  C   UNL     1       3.335   0.060   0.000  0.00  0.00    +0.000 C 
BRANCH  20  21
ATOM     21  C   UNL     1       4.050  -0.352   0.000  0.00  0.00    +0.000 C 
BRANCH  21  22
ATOM     22  C   UNL     1       4.764   0.060   0.000  0.00  0.00    +0.000 C 
BRANCH  22  23
ATOM     23  C   UNL     1       5.479  -0.352   0.000  0.00  0.00    +0.000 C 
ATOM     24  C   UNL     1       6.193   0.060   0.000  0.00  0.00    +0.000 C 
ENDBRANCH  22  23
ENDBRANCH  21  22
ENDBRANCH  20  21
ENDBRANCH  19  20
ENDBRANCH  18  19
ENDBRANCH  17  18
ENDBRANCH  16  17
ENDBRANCH  15  16
ENDBRANCH  14  15
ENDBRANCH  13  14
ENDBRANCH   1  13
TORSDOF 16
