REMARK  Name = 2EQ
REMARK  6 active torsions:
REMARK  status: ('A' for Active; 'I' for Inactive)
REMARK    1  A    between atoms: N_6  and  C_7
REMARK    2  A    between atoms: C_7  and  C_8
REMARK    3  A    between atoms: C_13  and  C_14
REMARK    4  A    between atoms: C_15  and  C_16
REMARK    5  A    between atoms: N_18  and  C_19
REMARK    6  A    between atoms: C_23  and  C_24
REMARK                            x       y       z     vdW  Elec       q    Type
REMARK                         _______ _______ _______ _____ _____    ______ ____
ROOT
ATOM      1  C   UNL     1      18.230   2.734   0.000  0.00  0.00    +0.000 A 
ATOM      2  C   UNL     1      17.562   2.249   0.000  0.00  0.00    +0.000 A 
ATOM      3  N   UNL     1      17.817   1.464   0.000  0.00  0.00    +0.000 NA
ATOM      4  O   UNL     1      18.642   1.464   0.000  0.00  0.00    +0.000 OA
ATOM      5  C   UNL     1      18.897   2.249   0.000  0.00  0.00    +0.000 A 
ENDROOT
BRANCH   5   6
ATOM      6  C   UNL     1      19.682   2.504   0.000  0.00  0.00    +0.000 A 
ATOM      7  C   UNL     1      19.853   3.311   0.000  0.00  0.00    +0.000 A 
ATOM      8  C   UNL     1      20.638   3.566   0.000  0.00  0.00    +0.000 A 
ATOM      9 CL   UNL     1      20.809   4.373   0.000  0.00  0.00    +0.000 Cl
ATOM     10  C   UNL     1      21.251   3.014   0.000  0.00  0.00    +0.000 A 
ATOM     11  O   UNL     1      22.036   3.269   0.000  0.00  0.00    +0.000 OA
ATOM     12  C   UNL     1      21.079   2.207   0.000  0.00  0.00    +0.000 A 
ATOM     13  C   UNL     1      20.295   1.952   0.000  0.00  0.00    +0.000 A 
ATOM     14  O   UNL     1      20.123   1.145   0.000  0.00  0.00    +0.000 OA
ENDBRANCH   5   6
BRANCH   1  20
ATOM     15  C   UNL     1      18.230   5.209   0.000  0.00  0.00    +0.000 A 
ATOM     16  C   UNL     1      18.944   4.797   0.000  0.00  0.00    +0.000 A 
ATOM     17  C   UNL     1      18.944   3.972   0.000  0.00  0.00    +0.000 A 
ATOM     18  C   UNL     1      17.515   4.797   0.000  0.00  0.00    +0.000 A 
ATOM     19  C   UNL     1      17.515   3.972   0.000  0.00  0.00    +0.000 A 
ATOM     20  C   UNL     1      18.230   3.559   0.000  0.00  0.00    +0.000 A 
BRANCH  15  21
ATOM     21  C   UNL     1      18.230   6.034   0.000  0.00  0.00    +0.000 C 
BRANCH  21  27
ATOM     22  C   UNL     1      16.801   6.034   0.000  0.00  0.00    +0.000 C 
ATOM     23  C   UNL     1      16.086   6.447   0.000  0.00  0.00    +0.000 C 
ATOM     24  O   UNL     1      16.086   7.272   0.000  0.00  0.00    +0.000 OA
ATOM     25  C   UNL     1      16.801   7.684   0.000  0.00  0.00    +0.000 C 
ATOM     26  C   UNL     1      17.515   7.272   0.000  0.00  0.00    +0.000 C 
ATOM     27  N   UNL     1      17.515   6.447   0.000  0.00  0.00    +0.000 NA
ENDBRANCH  21  27
ENDBRANCH  15  21
ENDBRANCH   1  20
BRANCH   2  28
ATOM     28  C   UNL     1      16.778   2.504   0.000  0.00  0.00    +0.000 C 
ATOM     29  O   UNL     1      16.606   3.311   0.000  0.00  0.00    +0.000 OA
ATOM     30  N   UNL     1      16.165   1.952   0.000  0.00  0.00    +0.000 NA
BRANCH  30  31
ATOM     31  C   UNL     1      15.380   2.207   0.000  0.00  0.00    +0.000 C 
ATOM     32  C   UNL     1      14.767   1.655   0.000  0.00  0.00    +0.000 C 
ENDBRANCH  30  31
ENDBRANCH   2  28
TORSDOF 6
