REMARK  Name = 2FR
REMARK  7 active torsions:
REMARK  status: ('A' for Active; 'I' for Inactive)
REMARK    1  A    between atoms: C_6  and  N_28
REMARK    2  A    between atoms: C_6  and  C_29
REMARK    3  A    between atoms: C_8  and  C_24
REMARK    4  A    between atoms: C_10  and  C_23
REMARK    5  A    between atoms: C_12  and  N_25
REMARK    6  A    between atoms: C_21  and  N_28
REMARK    7  A    between atoms: C_23  and  C_24
REMARK                            x       y       z     vdW  Elec       q    Type
REMARK                         _______ _______ _______ _____ _____    ______ ____
ROOT
ATOM      1  C   UNL     1      -1.312   2.788   0.000  0.00  0.00    +0.000 C 
ATOM      2  C   UNL     1      -1.057   2.003   0.000  0.00  0.00    +0.000 A 
ATOM      3  C   UNL     1      -0.272   0.923   0.000  0.00  0.00    +0.000 A 
ATOM      4  C   UNL     1      -0.272   1.748   0.000  0.00  0.00    +0.000 A 
ATOM      5  C   UNL     1       0.442   2.161   0.000  0.00  0.00    +0.000 A 
ATOM      6  C   UNL     1       0.442   0.511   0.000  0.00  0.00    +0.000 A 
ATOM      7  C   UNL     1       1.157   0.923   0.000  0.00  0.00    +0.000 A 
ATOM      8  N   UNL     1      -1.057   0.668   0.000  0.00  0.00    +0.000 N 
ATOM      9  N   UNL     1      -1.542   1.336   0.000  0.00  0.00    +0.000 NA
ATOM     10  N   UNL     1       1.157   1.748   0.000  0.00  0.00    +0.000 NA
ENDROOT
BRANCH   8  14
ATOM     11  C   UNL     1      -2.374  -1.072   0.000  0.00  0.00    +0.000 A 
ATOM     12  C   UNL     1      -2.119  -0.288   0.000  0.00  0.00    +0.000 A 
ATOM     13  C   UNL     1      -1.822  -1.685   0.000  0.00  0.00    +0.000 A 
ATOM     14  C   UNL     1      -1.312  -0.116   0.000  0.00  0.00    +0.000 A 
ATOM     15  C   UNL     1      -0.760  -0.729   0.000  0.00  0.00    +0.000 A 
ATOM     16  C   UNL     1      -1.015  -1.514   0.000  0.00  0.00    +0.000 A 
BRANCH  11  17
ATOM     17  C   UNL     1      -3.181  -1.244   0.000  0.00  0.00    +0.000 C 
BRANCH  17  18
ATOM     18  C   UNL     1      -3.436  -2.029   0.000  0.00  0.00    +0.000 C 
BRANCH  18  20
ATOM     19  N   UNL     1      -4.498  -2.985   0.000  0.00  0.00    +0.000 NA
ATOM     20  C   UNL     1      -4.243  -2.200   0.000  0.00  0.00    +0.000 C 
ATOM     21  O   UNL     1      -4.795  -1.587   0.000  0.00  0.00    +0.000 OA
ENDBRANCH  18  20
ENDBRANCH  17  18
ENDBRANCH  11  17
ENDBRANCH   8  14
BRANCH   7  22
ATOM     22  N   UNL     1       1.871   0.511   0.000  0.00  0.00    +0.000 NA
BRANCH  22  24
ATOM     23  C   UNL     1       2.586   1.748   0.000  0.00  0.00    +0.000 C 
ATOM     24  C   UNL     1       2.586   0.923   0.000  0.00  0.00    +0.000 C 
BRANCH  24  29
ATOM     25  C   UNL     1       3.300  -0.314   0.000  0.00  0.00    +0.000 A 
ATOM     26  C   UNL     1       4.729  -0.314   0.000  0.00  0.00    +0.000 A 
ATOM     27  C   UNL     1       4.729   0.511   0.000  0.00  0.00    +0.000 A 
ATOM     28  C   UNL     1       4.014   0.923   0.000  0.00  0.00    +0.000 A 
ATOM     29  C   UNL     1       3.300   0.511   0.000  0.00  0.00    +0.000 A 
ATOM     30  C   UNL     1       4.014  -0.727   0.000  0.00  0.00    +0.000 A 
ENDBRANCH  24  29
ENDBRANCH  22  24
ENDBRANCH   7  22
TORSDOF 7
