REMARK  Name = 2GG
REMARK  5 active torsions:
REMARK  status: ('A' for Active; 'I' for Inactive)
REMARK    1  A    between atoms: O_2  and  C_3
REMARK    2  A    between atoms: C_8  and  C_9
REMARK    3  A    between atoms: C_10  and  C_11
REMARK    4  A    between atoms: N_13  and  C_14
REMARK    5  A    between atoms: C_17  and  C_18
REMARK                            x       y       z     vdW  Elec       q    Type
REMARK                         _______ _______ _______ _____ _____    ______ ____
ROOT
ATOM      1  C   UNL     1       1.162  -1.082   0.000  0.00  0.00    +0.000 A 
ATOM      2  C   UNL     1       0.494  -1.567   0.000  0.00  0.00    +0.000 A 
ATOM      3  N   UNL     1       0.749  -2.351   0.000  0.00  0.00    +0.000 NA
ATOM      4  C   UNL     1       1.829  -1.567   0.000  0.00  0.00    +0.000 A 
ATOM      5  O   UNL     1       1.574  -2.351   0.000  0.00  0.00    +0.000 OA
ENDROOT
BRANCH   4   6
ATOM      6  C   UNL     1       2.614  -1.312   0.000  0.00  0.00    +0.000 A 
ATOM      7  C   UNL     1       2.785  -0.505   0.000  0.00  0.00    +0.000 A 
ATOM      8  C   UNL     1       3.570  -0.250   0.000  0.00  0.00    +0.000 A 
ATOM      9 CL   UNL     1       3.741   0.557   0.000  0.00  0.00    +0.000 Cl
ATOM     10  C   UNL     1       4.183  -0.802   0.000  0.00  0.00    +0.000 A 
ATOM     11  O   UNL     1       4.968  -0.547   0.000  0.00  0.00    +0.000 OA
ATOM     12  C   UNL     1       4.012  -1.609   0.000  0.00  0.00    +0.000 A 
ATOM     13  C   UNL     1       3.227  -1.864   0.000  0.00  0.00    +0.000 A 
ATOM     14  O   UNL     1       3.055  -2.671   0.000  0.00  0.00    +0.000 OA
ENDBRANCH   4   6
BRANCH   1  20
ATOM     15  C   UNL     1       1.162   1.393   0.000  0.00  0.00    +0.000 A 
ATOM     16  C   UNL     1       1.876   0.981   0.000  0.00  0.00    +0.000 A 
ATOM     17  C   UNL     1       1.876   0.156   0.000  0.00  0.00    +0.000 A 
ATOM     18  C   UNL     1       0.447   0.981   0.000  0.00  0.00    +0.000 A 
ATOM     19  C   UNL     1       0.447   0.156   0.000  0.00  0.00    +0.000 A 
ATOM     20  C   UNL     1       1.162  -0.257   0.000  0.00  0.00    +0.000 A 
BRANCH  15  22
ATOM     21  C   UNL     1       0.447   2.631   0.000  0.00  0.00    +0.000 C 
ATOM     22  O   UNL     1       1.162   2.218   0.000  0.00  0.00    +0.000 OA
ENDBRANCH  15  22
ENDBRANCH   1  20
BRANCH   2  23
ATOM     23  C   UNL     1      -0.290  -1.312   0.000  0.00  0.00    +0.000 C 
ATOM     24  O   UNL     1      -0.462  -0.505   0.000  0.00  0.00    +0.000 OA
ATOM     25  N   UNL     1      -0.903  -1.864   0.000  0.00  0.00    +0.000 NA
BRANCH  25  26
ATOM     26  C   UNL     1      -1.688  -1.609   0.000  0.00  0.00    +0.000 C 
ATOM     27  C   UNL     1      -2.301  -2.161   0.000  0.00  0.00    +0.000 C 
ENDBRANCH  25  26
ENDBRANCH   2  23
TORSDOF 5
