REMARK  Name = 2HC
REMARK  2 active torsions:
REMARK  status: ('A' for Active; 'I' for Inactive)
REMARK    1  A    between atoms: C_1  and  C_2
REMARK    2  A    between atoms: C_5  and  C_6
REMARK                            x       y       z     vdW  Elec       q    Type
REMARK                         _______ _______ _______ _____ _____    ______ ____
ROOT
ATOM      1  C   UNL     1      -0.115  -0.372   0.000  0.00  0.00    +0.000 A 
ATOM      2  C   UNL     1      -0.115  -1.197   0.000  0.00  0.00    +0.000 A 
ATOM      3  C   UNL     1      -0.830  -1.609   0.000  0.00  0.00    +0.000 A 
ATOM      4  C   UNL     1      -1.544  -1.197   0.000  0.00  0.00    +0.000 A 
ATOM      5  C   UNL     1      -1.544  -0.372   0.000  0.00  0.00    +0.000 A 
ATOM      6  C   UNL     1      -0.830   0.041   0.000  0.00  0.00    +0.000 A 
ATOM      7  O   UNL     1      -0.830   0.866   0.000  0.00  0.00    +0.000 OA
ENDROOT
BRANCH   1   9
ATOM      8  C   UNL     1       0.600   0.866   0.000  0.00  0.00    +0.000 C 
ATOM      9  C   UNL     1       0.600   0.041   0.000  0.00  0.00    +0.000 C 
BRANCH   8  10
ATOM     10  C   UNL     1       1.314   1.278   0.000  0.00  0.00    +0.000 C 
ATOM     11  O   UNL     1       1.314   2.103   0.000  0.00  0.00    +0.000 OA
ATOM     12  O   UNL     1       2.028   0.866   0.000  0.00  0.00    +0.000 OA
ENDBRANCH   8  10
ENDBRANCH   1   9
TORSDOF 2
