REMARK  Name = 2IG
REMARK  6 active torsions:
REMARK  status: ('A' for Active; 'I' for Inactive)
REMARK    1  A    between atoms: C_5  and  C_9
REMARK    2  A    between atoms: C_6  and  C_16
REMARK    3  A    between atoms: N_17  and  C_18
REMARK    4  A    between atoms: C_18  and  C_19
REMARK    5  A    between atoms: C_19  and  C_20
REMARK    6  A    between atoms: C_20  and  O_21
REMARK                            x       y       z     vdW  Elec       q    Type
REMARK                         _______ _______ _______ _____ _____    ______ ____
ROOT
ATOM      1  C   UNL     1       0.300  -1.584   0.000  0.00  0.00    +0.000 A 
ATOM      2  C   UNL     1      -0.507  -1.755   0.000  0.00  0.00    +0.000 A 
ATOM      3  C   UNL     1      -1.059  -1.142   0.000  0.00  0.00    +0.000 A 
ATOM      4  C   UNL     1      -0.804  -0.358   0.000  0.00  0.00    +0.000 A 
ATOM      5  C   UNL     1       0.003  -0.186   0.000  0.00  0.00    +0.000 A 
ATOM      6  C   UNL     1       0.555  -0.799   0.000  0.00  0.00    +0.000 A 
ATOM      7  N   UNL     1      -1.472   0.127   0.000  0.00  0.00    +0.000 N 
ATOM      8  C   UNL     1      -2.946  -0.186   0.000  0.00  0.00    +0.000 A 
ATOM      9  C   UNL     1      -2.139  -0.358   0.000  0.00  0.00    +0.000 A 
ATOM     10  C   UNL     1      -1.884  -1.142   0.000  0.00  0.00    +0.000 A 
ATOM     11  C   UNL     1      -2.436  -1.755   0.000  0.00  0.00    +0.000 A 
ATOM     12  C   UNL     1      -3.243  -1.584   0.000  0.00  0.00    +0.000 A 
ATOM     13  C   UNL     1      -3.498  -0.799   0.000  0.00  0.00    +0.000 A 
ENDROOT
BRANCH   6  19
ATOM     14  C   UNL     1       1.617   0.157   0.000  0.00  0.00    +0.000 A 
ATOM     15  N   UNL     1       2.424   0.328   0.000  0.00  0.00    +0.000 NA
ATOM     16  C   UNL     1       2.976  -0.285   0.000  0.00  0.00    +0.000 A 
ATOM     17  N   UNL     1       2.721  -1.069   0.000  0.00  0.00    +0.000 NA
ATOM     18  C   UNL     1       1.914  -1.241   0.000  0.00  0.00    +0.000 A 
ATOM     19  C   UNL     1       1.362  -0.628   0.000  0.00  0.00    +0.000 A 
ATOM     20  N   UNL     1       1.065   0.770   0.000  0.00  0.00    +0.000 NA
ATOM     21  N   UNL     1       3.783  -0.113   0.000  0.00  0.00    +0.000 NA
BRANCH  18  22
ATOM     22  C   UNL     1       1.659  -2.025   0.000  0.00  0.00    +0.000 C 
ATOM     23  C   UNL     1       0.852  -2.197   0.000  0.00  0.00    +0.000 C 
ENDBRANCH  18  22
ENDBRANCH   6  19
BRANCH   7  24
ATOM     24  C   UNL     1      -1.472   0.952   0.000  0.00  0.00    +0.000 C 
BRANCH  24  25
ATOM     25  C   UNL     1      -0.757   1.365   0.000  0.00  0.00    +0.000 C 
BRANCH  25  26
ATOM     26  C   UNL     1      -0.757   2.190   0.000  0.00  0.00    +0.000 C 
BRANCH  26  27
ATOM     27  O   UNL     1      -0.043   2.602   0.000  0.00  0.00    +0.000 OA
ATOM     28  C   UNL     1      -0.043   3.427   0.000  0.00  0.00    +0.000 C 
ENDBRANCH  26  27
ENDBRANCH  25  26
ENDBRANCH  24  25
ENDBRANCH   7  24
TORSDOF 6
