REMARK  Name = 2IH
REMARK  7 active torsions:
REMARK  status: ('A' for Active; 'I' for Inactive)
REMARK    1  A    between atoms: N_5  and  C_6
REMARK    2  A    between atoms: C_6  and  C_7
REMARK    3  A    between atoms: C_7  and  C_8
REMARK    4  A    between atoms: C_8  and  C_9
REMARK    5  A    between atoms: C_9  and  C_10
REMARK    6  A    between atoms: C_10  and  C_11
REMARK    7  A    between atoms: C_11  and  N_12
REMARK                            x       y       z     vdW  Elec       q    Type
REMARK                         _______ _______ _______ _____ _____    ______ ____
ROOT
ATOM      1  C   UNL     1      -0.380   0.203   0.000  0.00  0.00    +0.000 C 
ENDROOT
BRANCH   1   2
ATOM      2  C   UNL     1      -1.094  -0.209   0.000  0.00  0.00    +0.000 C 
BRANCH   2   3
ATOM      3  C   UNL     1      -1.808   0.203   0.000  0.00  0.00    +0.000 C 
BRANCH   3   8
ATOM      4  C   UNL     1      -2.609  -1.030   0.000  0.00  0.00    +0.000 A 
ATOM      5  C   UNL     1      -3.416  -1.201   0.000  0.00  0.00    +0.000 A 
ATOM      6  N   UNL     1      -3.829  -0.487   0.000  0.00  0.00    +0.000 NA
ATOM      7  C   UNL     1      -3.277   0.126   0.000  0.00  0.00    +0.000 A 
ATOM      8  N   UNL     1      -2.523  -0.209   0.000  0.00  0.00    +0.000 N 
ENDBRANCH   3   8
ENDBRANCH   2   3
ENDBRANCH   1   2
BRANCH   1   9
ATOM      9  C   UNL     1       0.335  -0.209   0.000  0.00  0.00    +0.000 C 
BRANCH   9  10
ATOM     10  C   UNL     1       1.050   0.203   0.000  0.00  0.00    +0.000 C 
BRANCH  10  11
ATOM     11  C   UNL     1       1.764  -0.209   0.000  0.00  0.00    +0.000 C 
BRANCH  11  12
ATOM     12  N   UNL     1       2.478   0.203   0.000  0.00  0.00    +0.000 N 
ATOM     13  C   UNL     1       2.565   1.024   0.000  0.00  0.00    +0.000 A 
ATOM     14  C   UNL     1       3.232  -0.132   0.000  0.00  0.00    +0.000 A 
ATOM     15  C   UNL     1       3.784   0.481   0.000  0.00  0.00    +0.000 A 
ATOM     16  N   UNL     1       3.372   1.195   0.000  0.00  0.00    +0.000 NA
ENDBRANCH  11  12
ENDBRANCH  10  11
ENDBRANCH   9  10
ENDBRANCH   1   9
TORSDOF 7
