REMARK  Name = 2KL
REMARK  7 active torsions:
REMARK  status: ('A' for Active; 'I' for Inactive)
REMARK    1  A    between atoms: C_2  and  C_6
REMARK    2  A    between atoms: N_3  and  C_4
REMARK    3  A    between atoms: C_15  and  C_16
REMARK    4  A    between atoms: C_23  and  O_24
REMARK    5  A    between atoms: O_24  and  C_25
REMARK    6  A    between atoms: C_25  and  C_26
REMARK    7  A    between atoms: C_26  and  N_27
REMARK                            x       y       z     vdW  Elec       q    Type
REMARK                         _______ _______ _______ _____ _____    ______ ____
ROOT
ATOM      1  C   UNL     1      -0.729  -0.878   0.000  0.00  0.00    +0.000 A 
ATOM      2  C   UNL     1      -0.015  -1.290   0.000  0.00  0.00    +0.000 A 
ATOM      3  C   UNL     1      -1.444  -1.290   0.000  0.00  0.00    +0.000 A 
ATOM      4 CL   UNL     1      -2.158  -0.878   0.000  0.00  0.00    +0.000 Cl
ATOM      5  C   UNL     1      -1.444  -2.115   0.000  0.00  0.00    +0.000 A 
ATOM      6  C   UNL     1      -0.729  -2.528   0.000  0.00  0.00    +0.000 A 
ATOM      7 CL   UNL     1      -0.729  -3.353   0.000  0.00  0.00    +0.000 Cl
ATOM      8  C   UNL     1      -0.015  -2.115   0.000  0.00  0.00    +0.000 A 
ENDROOT
BRANCH   1  18
ATOM      9  C   UNL     1      -2.713   0.772   0.000  0.00  0.00    +0.000 A 
ATOM     10  S   UNL     1      -2.228   1.440   0.000  0.00  0.00    +0.000 S 
ATOM     11  C   UNL     1      -2.228   0.105   0.000  0.00  0.00    +0.000 A 
ATOM     12  C   UNL     1      -1.444   0.360   0.000  0.00  0.00    +0.000 A 
ATOM     13  C   UNL     1      -1.444   1.185   0.000  0.00  0.00    +0.000 A 
ATOM     14  N   UNL     1      -0.729   1.597   0.000  0.00  0.00    +0.000 NA
ATOM     15  C   UNL     1      -0.015   1.185   0.000  0.00  0.00    +0.000 A 
ATOM     16  N   UNL     1       0.700   1.597   0.000  0.00  0.00    +0.000 NA
ATOM     17  N   UNL     1      -0.015   0.360   0.000  0.00  0.00    +0.000 NA
ATOM     18  C   UNL     1      -0.729  -0.053   0.000  0.00  0.00    +0.000 A 
BRANCH   9  20
ATOM     19  O   UNL     1      -3.951   0.058   0.000  0.00  0.00    +0.000 OA
ATOM     20  C   UNL     1      -3.538   0.772   0.000  0.00  0.00    +0.000 C 
ATOM     21  N   UNL     1      -3.951   1.487   0.000  0.00  0.00    +0.000 NA
BRANCH  21  22
ATOM     22  C   UNL     1      -4.776   1.487   0.000  0.00  0.00    +0.000 C 
ATOM     23  C   UNL     1      -5.188   2.201   0.000  0.00  0.00    +0.000 C 
ENDBRANCH  21  22
ENDBRANCH   9  20
ENDBRANCH   1  18
BRANCH   8  24
ATOM     24  O   UNL     1       0.700  -2.528   0.000  0.00  0.00    +0.000 OA
BRANCH  24  25
ATOM     25  C   UNL     1       1.414  -2.115   0.000  0.00  0.00    +0.000 C 
BRANCH  25  26
ATOM     26  C   UNL     1       2.129  -2.528   0.000  0.00  0.00    +0.000 C 
BRANCH  26  27
ATOM     27  N   UNL     1       2.843  -2.115   0.000  0.00  0.00    +0.000 NA
ATOM     28  C   UNL     1       2.929  -1.295   0.000  0.00  0.00    +0.000 C 
ATOM     29  C   UNL     1       3.597  -2.451   0.000  0.00  0.00    +0.000 C 
ATOM     30  C   UNL     1       4.149  -1.838   0.000  0.00  0.00    +0.000 C 
ATOM     31  C   UNL     1       3.736  -1.123   0.000  0.00  0.00    +0.000 C 
ENDBRANCH  26  27
ENDBRANCH  25  26
ENDBRANCH  24  25
ENDBRANCH   8  24
TORSDOF 7
