REMARK  Name = 2LG
REMARK  7 active torsions:
REMARK  status: ('A' for Active; 'I' for Inactive)
REMARK    1  A    between atoms: C_3  and  N_16
REMARK    2  A    between atoms: C_4  and  C_13
REMARK    3  A    between atoms: C_5  and  C_18
REMARK    4  A    between atoms: C_7  and  S_23
REMARK    5  A    between atoms: C_9  and  N_24
REMARK    6  A    between atoms: S_23  and  N_24
REMARK    7  A    between atoms: N_24  and  C_27
REMARK                            x       y       z     vdW  Elec       q    Type
REMARK                         _______ _______ _______ _____ _____    ______ ____
ROOT
ATOM      1  C   UNL     1       0.245  -0.242   0.000  0.00  0.00    +0.000 A 
ATOM      2  C   UNL     1       0.658   0.472   0.000  0.00  0.00    +0.000 A 
ATOM      3  C   UNL     1       1.483   0.472   0.000  0.00  0.00    +0.000 A 
ATOM      4  C   UNL     1       1.895  -0.242   0.000  0.00  0.00    +0.000 A 
ATOM      5  C   UNL     1       0.658  -0.957   0.000  0.00  0.00    +0.000 A 
ATOM      6  C   UNL     1       1.483  -0.957   0.000  0.00  0.00    +0.000 A 
ATOM      7 CL   UNL     1       0.245  -1.671   0.000  0.00  0.00    +0.000 Cl
ENDROOT
BRANCH   1   9
ATOM      8  N   UNL     1      -0.992  -0.957   0.000  0.00  0.00    +0.000 NA
ATOM      9  C   UNL     1      -0.580  -0.242   0.000  0.00  0.00    +0.000 C 
ATOM     10  O   UNL     1      -0.992   0.472   0.000  0.00  0.00    +0.000 OA
BRANCH   8  13
ATOM     11  C   UNL     1      -3.871  -1.624   0.000  0.00  0.00    +0.000 C 
ATOM     12  C   UNL     1      -3.871  -0.289   0.000  0.00  0.00    +0.000 C 
ATOM     13  C   UNL     1      -1.817  -0.957   0.000  0.00  0.00    +0.000 A 
ATOM     14  C   UNL     1      -3.087  -1.369   0.000  0.00  0.00    +0.000 A 
ATOM     15  C   UNL     1      -3.087  -0.544   0.000  0.00  0.00    +0.000 A 
ATOM     16  C   UNL     1      -2.302  -1.624   0.000  0.00  0.00    +0.000 A 
ATOM     17  S   UNL     1      -2.302  -0.289   0.000  0.00  0.00    +0.000 S 
ATOM     18  C   UNL     1      -4.356  -0.957   0.000  0.00  0.00    +0.000 C 
BRANCH  16  19
ATOM     19  C   UNL     1      -2.047  -2.409   0.000  0.00  0.00    +0.000 C 
ATOM     20  N   UNL     1      -1.792  -3.193   0.000  0.00  0.00    +0.000 NA
ENDBRANCH  16  19
ENDBRANCH   8  13
ENDBRANCH   1   9
BRANCH   3  21
ATOM     21  S   UNL     1       1.895   1.187   0.000  0.00  0.00    +0.000 S 
ATOM     22  O   UNL     1       1.181   1.599   0.000  0.00  0.00    +0.000 OA
ATOM     23  O   UNL     1       2.610   0.774   0.000  0.00  0.00    +0.000 OA
BRANCH  21  24
ATOM     24  N   UNL     1       2.308   1.901   0.000  0.00  0.00    +0.000 NA
BRANCH  24  25
ATOM     25  C   UNL     1       3.133   1.901   0.000  0.00  0.00    +0.000 C 
ATOM     26  C   UNL     1       3.545   2.616   0.000  0.00  0.00    +0.000 C 
ENDBRANCH  24  25
BRANCH  24  27
ATOM     27  C   UNL     1       1.895   2.616   0.000  0.00  0.00    +0.000 C 
ATOM     28  C   UNL     1       1.070   2.616   0.000  0.00  0.00    +0.000 C 
ENDBRANCH  24  27
ENDBRANCH  21  24
ENDBRANCH   3  21
TORSDOF 7
