REMARK  Name = 2NI
REMARK  6 active torsions:
REMARK  status: ('A' for Active; 'I' for Inactive)
REMARK    1  A    between atoms: C_3  and  O_15
REMARK    2  A    between atoms: C_6  and  C_7
REMARK    3  A    between atoms: C_10  and  C_13
REMARK    4  A    between atoms: O_15  and  C_16
REMARK    5  A    between atoms: C_16  and  C_17
REMARK    6  A    between atoms: C_17  and  N_18
REMARK                            x       y       z     vdW  Elec       q    Type
REMARK                         _______ _______ _______ _____ _____    ______ ____
ROOT
ATOM      1  C   UNL     1      -1.433   0.530   0.000  0.00  0.00    +0.000 A 
ATOM      2  C   UNL     1      -0.718   0.942   0.000  0.00  0.00    +0.000 A 
ATOM      3  C   UNL     1      -0.004   0.530   0.000  0.00  0.00    +0.000 A 
ATOM      4  C   UNL     1      -0.004  -0.295   0.000  0.00  0.00    +0.000 A 
ATOM      5  C   UNL     1      -0.718  -0.708   0.000  0.00  0.00    +0.000 A 
ATOM      6  C   UNL     1      -1.433  -0.295   0.000  0.00  0.00    +0.000 A 
ENDROOT
BRANCH   6   7
ATOM      7  C   UNL     1      -2.147  -0.708   0.000  0.00  0.00    +0.000 A 
ATOM      8  C   UNL     1      -2.147  -1.533   0.000  0.00  0.00    +0.000 A 
ATOM      9  C   UNL     1      -2.862  -1.945   0.000  0.00  0.00    +0.000 A 
ATOM     10  C   UNL     1      -3.576  -1.533   0.000  0.00  0.00    +0.000 A 
ATOM     11  C   UNL     1      -3.576  -0.708   0.000  0.00  0.00    +0.000 A 
ATOM     12  C   UNL     1      -2.862  -0.295   0.000  0.00  0.00    +0.000 A 
BRANCH  10  13
ATOM     13  C   UNL     1      -4.291  -1.945   0.000  0.00  0.00    +0.000 C 
ATOM     14  N   UNL     1      -5.005  -2.358   0.000  0.00  0.00    +0.000 NA
ENDBRANCH  10  13
ENDBRANCH   6   7
BRANCH   3  15
ATOM     15  O   UNL     1       0.711   0.942   0.000  0.00  0.00    +0.000 OA
BRANCH  15  16
ATOM     16  C   UNL     1       1.425   0.530   0.000  0.00  0.00    +0.000 C 
BRANCH  16  17
ATOM     17  C   UNL     1       2.139   0.942   0.000  0.00  0.00    +0.000 C 
BRANCH  17  18
ATOM     18  N   UNL     1       2.854   0.530   0.000  0.00  0.00    +0.000 N 
ATOM     19  C   UNL     1       2.854  -0.295   0.000  0.00  0.00    +0.000 C 
ATOM     20  C   UNL     1       3.568   0.942   0.000  0.00  0.00    +0.000 C 
ATOM     21  O   UNL     1       3.568   1.767   0.000  0.00  0.00    +0.000 OA
ATOM     22  N   UNL     1       4.283   0.530   0.000  0.00  0.00    +0.000 NA
ATOM     23  O   UNL     1       4.997   0.942   0.000  0.00  0.00    +0.000 OA
ENDBRANCH  17  18
ENDBRANCH  16  17
ENDBRANCH  15  16
ENDBRANCH   3  15
TORSDOF 6
