REMARK  Name = 2O7
REMARK  5 active torsions:
REMARK  status: ('A' for Active; 'I' for Inactive)
REMARK    1  A    between atoms: C_1  and  C_23
REMARK    2  A    between atoms: C_5  and  C_18
REMARK    3  A    between atoms: C_6  and  C_7
REMARK    4  A    between atoms: C_12  and  C_23
REMARK    5  A    between atoms: C_24  and  C_27
REMARK                            x       y       z     vdW  Elec       q    Type
REMARK                         _______ _______ _______ _____ _____    ______ ____
ROOT
ATOM      1  C   UNL     1       0.262   2.748   0.000  0.00  0.00    +0.000 C 
ATOM      2  C   UNL     1      -0.523   3.828   0.000  0.00  0.00    +0.000 C 
ATOM      3  C   UNL     1      -0.523   2.494   0.000  0.00  0.00    +0.000 C 
ATOM      4  C   UNL     1       1.047   3.828   0.000  0.00  0.00    +0.000 C 
ATOM      5  C   UNL     1       1.532   3.161   0.000  0.00  0.00    +0.000 C 
ATOM      6  C   UNL     1       1.047   2.494   0.000  0.00  0.00    +0.000 C 
ATOM      7  O   UNL     1       1.302   4.613   0.000  0.00  0.00    +0.000 OA
ATOM      8  N   UNL     1       0.262   3.574   0.000  0.00  0.00    +0.000 N 
ATOM      9  C   UNL     1      -1.008   3.161   0.000  0.00  0.00    +0.000 C 
ENDROOT
BRANCH   5  13
ATOM     10  C   UNL     1       3.594   2.446   0.000  0.00  0.00    +0.000 A 
ATOM     11  C   UNL     1       4.006   3.161   0.000  0.00  0.00    +0.000 A 
ATOM     12  C   UNL     1       2.769   3.876   0.000  0.00  0.00    +0.000 A 
ATOM     13  C   UNL     1       2.357   3.161   0.000  0.00  0.00    +0.000 A 
ATOM     14  C   UNL     1       2.769   2.446   0.000  0.00  0.00    +0.000 A 
ATOM     15  C   UNL     1       3.594   3.876   0.000  0.00  0.00    +0.000 A 
ATOM     16 CL   UNL     1       4.006   4.590   0.000  0.00  0.00    +0.000 Cl
ATOM     17 CL   UNL     1       4.006   1.732   0.000  0.00  0.00    +0.000 Cl
ENDBRANCH   5  13
BRANCH   6  18
ATOM     18  C   UNL     1       1.302   1.709   0.000  0.00  0.00    +0.000 C 
ATOM     19  N   UNL     1       1.556   0.924   0.000  0.00  0.00    +0.000 NA
ENDBRANCH   6  18
BRANCH   1  20
ATOM     20  C   UNL     1       0.262   1.923   0.000  0.00  0.00    +0.000 C 
BRANCH  20  21
ATOM     21  C   UNL     1      -0.453   1.511   0.000  0.00  0.00    +0.000 A 
ATOM     22  C   UNL     1      -1.167   1.923   0.000  0.00  0.00    +0.000 A 
ATOM     23  C   UNL     1      -1.881   1.511   0.000  0.00  0.00    +0.000 A 
ATOM     24  C   UNL     1      -1.881   0.686   0.000  0.00  0.00    +0.000 A 
ATOM     25  C   UNL     1      -1.167   0.274   0.000  0.00  0.00    +0.000 A 
ATOM     26  C   UNL     1      -0.453   0.686   0.000  0.00  0.00    +0.000 A 
BRANCH  24  27
ATOM     27  C   UNL     1      -2.596   0.274   0.000  0.00  0.00    +0.000 C 
ATOM     28  N   UNL     1      -3.310  -0.139   0.000  0.00  0.00    +0.000 NA
ENDBRANCH  24  27
ENDBRANCH  20  21
ENDBRANCH   1  20
TORSDOF 5
