REMARK  Name = 2PD
REMARK  6 active torsions:
REMARK  status: ('A' for Active; 'I' for Inactive)
REMARK    1  A    between atoms: C_6  and  O_7
REMARK    2  A    between atoms: C_11  and  C_15
REMARK    3  A    between atoms: N_20  and  C_21
REMARK    4  A    between atoms: C_21  and  C_22
REMARK    5  A    between atoms: C_22  and  C_23
REMARK    6  A    between atoms: C_27  and  C_28
REMARK                            x       y       z     vdW  Elec       q    Type
REMARK                         _______ _______ _______ _____ _____    ______ ____
ROOT
ATOM      1  C   UNL     1      -0.258   0.140   0.000  0.00  0.00    +0.000 A 
ATOM      2  C   UNL     1      -0.258  -0.685   0.000  0.00  0.00    +0.000 A 
ATOM      3  O   UNL     1       0.456  -1.098   0.000  0.00  0.00    +0.000 OA
ATOM      4  C   UNL     1      -0.973   0.552   0.000  0.00  0.00    +0.000 A 
ATOM      5  O   UNL     1      -0.973   1.377   0.000  0.00  0.00    +0.000 OA
ATOM      6  N   UNL     1      -1.687   0.140   0.000  0.00  0.00    +0.000 N 
ATOM      7  N   UNL     1      -1.687  -0.685   0.000  0.00  0.00    +0.000 NA
ATOM      8  C   UNL     1      -0.973  -1.098   0.000  0.00  0.00    +0.000 A 
ENDROOT
BRANCH   1  17
ATOM      9  O   UNL     1       1.701   2.422   0.000  0.00  0.00    +0.000 OA
ATOM     10  S   UNL     1       1.171   1.790   0.000  0.00  0.00    +0.000 S 
ATOM     11  O   UNL     1       0.640   2.422   0.000  0.00  0.00    +0.000 OA
ATOM     12  C   UNL     1       1.885   1.377   0.000  0.00  0.00    +0.000 A 
ATOM     13  C   UNL     1       2.600   1.790   0.000  0.00  0.00    +0.000 A 
ATOM     14  C   UNL     1       3.314   1.377   0.000  0.00  0.00    +0.000 A 
ATOM     15  C   UNL     1       3.314   0.552   0.000  0.00  0.00    +0.000 A 
ATOM     16  N   UNL     1       0.456   1.377   0.000  0.00  0.00    +0.000 NA
ATOM     17  C   UNL     1       0.456   0.552   0.000  0.00  0.00    +0.000 C 
ATOM     18  N   UNL     1       1.171   0.140   0.000  0.00  0.00    +0.000 NA
ATOM     19  C   UNL     1       1.885   0.552   0.000  0.00  0.00    +0.000 A 
ATOM     20  C   UNL     1       2.600   0.140   0.000  0.00  0.00    +0.000 A 
BRANCH  14  21
ATOM     21  O   UNL     1       4.029   1.790   0.000  0.00  0.00    +0.000 OA
ATOM     22  C   UNL     1       4.743   1.377   0.000  0.00  0.00    +0.000 C 
ENDBRANCH  14  21
ENDBRANCH   1  17
BRANCH   8  23
ATOM     23  C   UNL     1      -0.973  -1.923   0.000  0.00  0.00    +0.000 A 
ATOM     24  C   UNL     1      -0.258  -2.335   0.000  0.00  0.00    +0.000 A 
ATOM     25  C   UNL     1      -0.258  -3.160   0.000  0.00  0.00    +0.000 A 
ATOM     26  C   UNL     1      -1.687  -2.335   0.000  0.00  0.00    +0.000 A 
ATOM     27  C   UNL     1      -1.687  -3.160   0.000  0.00  0.00    +0.000 A 
ATOM     28  C   UNL     1      -0.973  -3.573   0.000  0.00  0.00    +0.000 A 
ENDBRANCH   8  23
BRANCH   6  29
ATOM     29  C   UNL     1      -2.401   0.552   0.000  0.00  0.00    +0.000 C 
BRANCH  29  30
ATOM     30  C   UNL     1      -3.116   0.140   0.000  0.00  0.00    +0.000 C 
BRANCH  30  31
ATOM     31  C   UNL     1      -3.830   0.552   0.000  0.00  0.00    +0.000 C 
ATOM     32  C   UNL     1      -4.545   0.140   0.000  0.00  0.00    +0.000 C 
ATOM     33  C   UNL     1      -3.830   1.377   0.000  0.00  0.00    +0.000 C 
ENDBRANCH  30  31
ENDBRANCH  29  30
ENDBRANCH   6  29
TORSDOF 6
