REMARK  Name = 2PU
REMARK  2 active torsions:
REMARK  status: ('A' for Active; 'I' for Inactive)
REMARK    1  A    between atoms: C_4  and  N_10
REMARK    2  A    between atoms: C_21  and  C_23
REMARK                            x       y       z     vdW  Elec       q    Type
REMARK                         _______ _______ _______ _____ _____    ______ ____
ROOT
ATOM      1  N   UNL     1       1.944   0.428   0.000  0.00  0.00    +0.000 NA
ATOM      2  C   UNL     1       1.141   0.241   0.000  0.00  0.00    +0.000 C 
ATOM      3  N   UNL     1       0.902  -0.549   0.000  0.00  0.00    +0.000 NA
ATOM      4  O   UNL     1       0.577   0.843   0.000  0.00  0.00    +0.000 OA
ATOM      5  C   UNL     1       0.098  -0.736   0.000  0.00  0.00    +0.000 A 
ATOM      6  C   UNL     1      -0.223  -1.496   0.000  0.00  0.00    +0.000 A 
ATOM      7  N   UNL     1      -0.526  -0.196   0.000  0.00  0.00    +0.000 NA
ATOM      8  C   UNL     1      -1.044  -1.426   0.000  0.00  0.00    +0.000 A 
ATOM      9  N   UNL     1      -1.232  -0.623   0.000  0.00  0.00    +0.000 NA
ENDROOT
BRANCH   1  13
ATOM     10  C   UNL     1       1.620   1.820   0.000  0.00  0.00    +0.000 A 
ATOM     11  C   UNL     1       0.795   1.804   0.000  0.00  0.00    +0.000 C 
ATOM     12  C   UNL     1       1.859   2.609   0.000  0.00  0.00    +0.000 A 
ATOM     13  C   UNL     1       2.184   1.218   0.000  0.00  0.00    +0.000 A 
ATOM     14  N   UNL     1       0.525   2.583   0.000  0.00  0.00    +0.000 N 
ATOM     15  C   UNL     1       0.137   1.306   0.000  0.00  0.00    +0.000 C 
ATOM     16  C   UNL     1       1.182   3.081   0.000  0.00  0.00    +0.000 C 
ATOM     17  C   UNL     1       2.663   2.797   0.000  0.00  0.00    +0.000 A 
ATOM     18  C   UNL     1       2.987   1.405   0.000  0.00  0.00    +0.000 A 
ATOM     19  C   UNL     1      -0.300   2.567   0.000  0.00  0.00    +0.000 C 
ATOM     20  C   UNL     1      -0.540   1.777   0.000  0.00  0.00    +0.000 C 
ATOM     21  O   UNL     1       1.166   3.906   0.000  0.00  0.00    +0.000 OA
ATOM     22  C   UNL     1       3.227   2.195   0.000  0.00  0.00    +0.000 A 
ENDBRANCH   1  13
BRANCH   8  23
ATOM     23  C   UNL     1      -1.584  -2.050   0.000  0.00  0.00    +0.000 C 
ATOM     24  C   UNL     1      -1.397  -2.853   0.000  0.00  0.00    +0.000 C 
ATOM     25  N   UNL     1      -2.406  -1.980   0.000  0.00  0.00    +0.000 NA
ATOM     26  C   UNL     1      -2.103  -3.280   0.000  0.00  0.00    +0.000 C 
ATOM     27  C   UNL     1      -2.727  -2.740   0.000  0.00  0.00    +0.000 C 
ENDBRANCH   8  23
TORSDOF 2
