REMARK  Name = 2RB
REMARK  4 active torsions:
REMARK  status: ('A' for Active; 'I' for Inactive)
REMARK    1  A    between atoms: O_2  and  C_3
REMARK    2  A    between atoms: C_8  and  C_9
REMARK    3  A    between atoms: N_11  and  N_12
REMARK    4  A    between atoms: C_13  and  C_14
REMARK                            x       y       z     vdW  Elec       q    Type
REMARK                         _______ _______ _______ _____ _____    ______ ____
ROOT
ATOM      1  N   UNL     1      -1.162  -0.623   0.000  0.00  0.00    +0.000 NA
ATOM      2  C   UNL     1      -0.448  -1.035   0.000  0.00  0.00    +0.000 C 
ENDROOT
BRANCH   2   3
ATOM      3  C   UNL     1      -0.448  -1.860   0.000  0.00  0.00    +0.000 A 
ATOM      4  C   UNL     1       0.267  -2.273   0.000  0.00  0.00    +0.000 A 
ATOM      5  C   UNL     1       0.267  -3.098   0.000  0.00  0.00    +0.000 A 
ATOM      6 BR   UNL     1       0.981  -3.510   0.000  0.00  0.00    +0.000 Br
ATOM      7  C   UNL     1      -0.448  -3.510   0.000  0.00  0.00    +0.000 A 
ATOM      8  O   UNL     1      -0.448  -4.335   0.000  0.00  0.00    +0.000 OA
ATOM      9  C   UNL     1      -1.162  -3.098   0.000  0.00  0.00    +0.000 A 
ATOM     10 BR   UNL     1      -1.877  -3.510   0.000  0.00  0.00    +0.000 Br
ATOM     11  C   UNL     1      -1.162  -2.273   0.000  0.00  0.00    +0.000 A 
ATOM     12  O   UNL     1      -1.877  -1.860   0.000  0.00  0.00    +0.000 OA
ENDBRANCH   2   3
BRANCH   1  15
ATOM     13  C   UNL     1      -1.877   0.615   0.000  0.00  0.00    +0.000 C 
ATOM     14  O   UNL     1      -2.591   0.202   0.000  0.00  0.00    +0.000 OA
ATOM     15  N   UNL     1      -1.162   0.202   0.000  0.00  0.00    +0.000 NA
BRANCH  13  21
ATOM     16  C   UNL     1      -1.877   3.090   0.000  0.00  0.00    +0.000 A 
ATOM     17  C   UNL     1      -1.162   2.677   0.000  0.00  0.00    +0.000 A 
ATOM     18  C   UNL     1      -1.162   1.852   0.000  0.00  0.00    +0.000 A 
ATOM     19  C   UNL     1      -2.591   2.677   0.000  0.00  0.00    +0.000 A 
ATOM     20  C   UNL     1      -2.591   1.852   0.000  0.00  0.00    +0.000 A 
ATOM     21  C   UNL     1      -1.877   1.440   0.000  0.00  0.00    +0.000 A 
BRANCH  16  23
ATOM     22  C   UNL     1      -2.591   4.327   0.000  0.00  0.00    +0.000 C 
ATOM     23  O   UNL     1      -1.877   3.915   0.000  0.00  0.00    +0.000 OA
ENDBRANCH  16  23
ENDBRANCH  13  21
ENDBRANCH   1  15
TORSDOF 4
