REMARK  Name = 2RD
REMARK  13 active torsions:
REMARK  status: ('A' for Active; 'I' for Inactive)
REMARK    1  A    between atoms: C_2  and  C_3
REMARK    2  A    between atoms: C_3  and  C_4
REMARK    3  A    between atoms: C_4  and  C_5
REMARK    4  A    between atoms: C_5  and  C_6
REMARK    5  A    between atoms: C_6  and  C_7
REMARK    6  A    between atoms: C_7  and  C_8
REMARK    7  A    between atoms: C_8  and  C_9
REMARK    8  A    between atoms: C_9  and  C_10
REMARK    9  A    between atoms: C_10  and  C_11
REMARK   10  A    between atoms: C_11  and  C_12
REMARK   11  A    between atoms: C_12  and  S_13
REMARK   12  A    between atoms: S_13  and  C_14
REMARK   13  A    between atoms: C_18  and  C_19
REMARK                            x       y       z     vdW  Elec       q    Type
REMARK                         _______ _______ _______ _____ _____    ______ ____
ROOT
ATOM      1  C   UNL     1       3.258   0.224   0.000  0.00  0.00    +0.000 C 
ENDROOT
BRANCH   1   2
ATOM      2  C   UNL     1       2.544  -0.188   0.000  0.00  0.00    +0.000 C 
BRANCH   2   3
ATOM      3  C   UNL     1       1.829   0.224   0.000  0.00  0.00    +0.000 C 
BRANCH   3   4
ATOM      4  C   UNL     1       1.115  -0.188   0.000  0.00  0.00    +0.000 C 
BRANCH   4   5
ATOM      5  C   UNL     1       0.400   0.224   0.000  0.00  0.00    +0.000 C 
BRANCH   5   6
ATOM      6  C   UNL     1      -0.314  -0.188   0.000  0.00  0.00    +0.000 C 
BRANCH   6   7
ATOM      7  C   UNL     1      -1.029   0.224   0.000  0.00  0.00    +0.000 C 
BRANCH   7   8
ATOM      8  C   UNL     1      -1.743  -0.188   0.000  0.00  0.00    +0.000 C 
BRANCH   8   9
ATOM      9  C   UNL     1      -2.458   0.224   0.000  0.00  0.00    +0.000 C 
BRANCH   9  11
ATOM     10  C   UNL     1      -3.887   0.224   0.000  0.00  0.00    +0.000 C 
ATOM     11  C   UNL     1      -3.172  -0.188   0.000  0.00  0.00    +0.000 C 
ENDBRANCH   9  11
ENDBRANCH   8   9
ENDBRANCH   7   8
ENDBRANCH   6   7
ENDBRANCH   5   6
ENDBRANCH   4   5
ENDBRANCH   3   4
ENDBRANCH   2   3
ENDBRANCH   1   2
BRANCH   1  12
ATOM     12  C   UNL     1       3.973  -0.188   0.000  0.00  0.00    +0.000 C 
BRANCH  12  13
ATOM     13  S   UNL     1       4.687   0.224   0.000  0.00  0.00    +0.000 S 
BRANCH  13  14
ATOM     14  C   UNL     1       5.402  -0.188   0.000  0.00  0.00    +0.000 A 
ATOM     15  N   UNL     1       5.488  -1.009   0.000  0.00  0.00    +0.000 NA
ATOM     16  N   UNL     1       6.295  -1.180   0.000  0.00  0.00    +0.000 NA
ATOM     17  N   UNL     1       6.708  -0.466   0.000  0.00  0.00    +0.000 NA
ATOM     18  C   UNL     1       6.156   0.147   0.000  0.00  0.00    +0.000 A 
BRANCH  18  19
ATOM     19  C   UNL     1       6.327   0.954   0.000  0.00  0.00    +0.000 C 
ATOM     20  O   UNL     1       5.714   1.506   0.000  0.00  0.00    +0.000 OA
ATOM     21  O   UNL     1       7.112   1.209   0.000  0.00  0.00    +0.000 OA
ENDBRANCH  18  19
ENDBRANCH  13  14
ENDBRANCH  12  13
ENDBRANCH   1  12
TORSDOF 13
