REMARK  Name = 2S2
REMARK  5 active torsions:
REMARK  status: ('A' for Active; 'I' for Inactive)
REMARK    1  A    between atoms: C_2  and  C_4
REMARK    2  A    between atoms: C_4  and  C_5
REMARK    3  A    between atoms: C_4  and  C_9
REMARK    4  A    between atoms: C_5  and  C_6
REMARK    5  A    between atoms: C_6  and  C_7
REMARK                            x       y       z     vdW  Elec       q    Type
REMARK                         _______ _______ _______ _____ _____    ______ ____
ROOT
ATOM      1  C   UNL     1      -0.599   0.777   0.000  0.00  0.00    +0.000 A 
ATOM      2  C   UNL     1      -1.420   0.863   0.000  0.00  0.00    +0.000 A 
ATOM      3  C   UNL     1      -2.033   0.311   0.000  0.00  0.00    +0.000 A 
ATOM      4  C   UNL     1      -2.817   0.566   0.000  0.00  0.00    +0.000 A 
ATOM      5  C   UNL     1      -2.989   1.373   0.000  0.00  0.00    +0.000 A 
ATOM      6  C   UNL     1      -2.376   1.925   0.000  0.00  0.00    +0.000 A 
ATOM      7  C   UNL     1      -1.591   1.670   0.000  0.00  0.00    +0.000 A 
ATOM      8  N   UNL     1      -0.877   2.083   0.000  0.00  0.00    +0.000 NA
ATOM      9  C   UNL     1      -0.264   1.531   0.000  0.00  0.00    +0.000 A 
ENDROOT
BRANCH   1  10
ATOM     10  C   UNL     1      -0.187   0.063   0.000  0.00  0.00    +0.000 C 
BRANCH  10  12
ATOM     11  O   UNL     1      -0.187  -1.366   0.000  0.00  0.00    +0.000 OA
ATOM     12  C   UNL     1      -0.599  -0.652   0.000  0.00  0.00    +0.000 C 
ATOM     13  O   UNL     1      -1.424  -0.652   0.000  0.00  0.00    +0.000 OA
ENDBRANCH  10  12
BRANCH  10  14
ATOM     14  C   UNL     1       0.638   0.063   0.000  0.00  0.00    +0.000 C 
BRANCH  14  15
ATOM     15  C   UNL     1       1.051  -0.652   0.000  0.00  0.00    +0.000 C 
BRANCH  15  16
ATOM     16  C   UNL     1       1.876  -0.652   0.000  0.00  0.00    +0.000 C 
ATOM     17  C   UNL     1       2.288  -1.366   0.000  0.00  0.00    +0.000 C 
ENDBRANCH  15  16
ENDBRANCH  14  15
ENDBRANCH  10  14
ENDBRANCH   1  10
TORSDOF 5
