REMARK  Name = 2S3
REMARK  4 active torsions:
REMARK  status: ('A' for Active; 'I' for Inactive)
REMARK    1  A    between atoms: C_2  and  C_4
REMARK    2  A    between atoms: C_4  and  C_5
REMARK    3  A    between atoms: C_4  and  C_8
REMARK    4  A    between atoms: C_5  and  C_6
REMARK                            x       y       z     vdW  Elec       q    Type
REMARK                         _______ _______ _______ _____ _____    ______ ____
ROOT
ATOM      1  C   UNL     1      -0.135   0.170   0.000  0.00  0.00    +0.000 A 
ATOM      2  C   UNL     1      -0.888  -0.165   0.000  0.00  0.00    +0.000 A 
ATOM      3  C   UNL     1      -1.143  -0.950   0.000  0.00  0.00    +0.000 A 
ATOM      4  C   UNL     1      -1.950  -1.121   0.000  0.00  0.00    +0.000 A 
ATOM      5  C   UNL     1      -2.502  -0.508   0.000  0.00  0.00    +0.000 A 
ATOM      6  C   UNL     1      -2.247   0.276   0.000  0.00  0.00    +0.000 A 
ATOM      7  C   UNL     1      -1.440   0.448   0.000  0.00  0.00    +0.000 A 
ATOM      8  N   UNL     1      -1.028   1.162   0.000  0.00  0.00    +0.000 NA
ATOM      9  C   UNL     1      -0.221   0.991   0.000  0.00  0.00    +0.000 A 
ENDROOT
BRANCH   1  10
ATOM     10  C   UNL     1       0.580  -0.242   0.000  0.00  0.00    +0.000 C 
BRANCH  10  12
ATOM     11  O   UNL     1       1.294  -1.480   0.000  0.00  0.00    +0.000 OA
ATOM     12  C   UNL     1       0.580  -1.067   0.000  0.00  0.00    +0.000 C 
ATOM     13  O   UNL     1      -0.135  -1.480   0.000  0.00  0.00    +0.000 OA
ENDBRANCH  10  12
BRANCH  10  14
ATOM     14  C   UNL     1       1.294   0.170   0.000  0.00  0.00    +0.000 C 
BRANCH  14  15
ATOM     15  C   UNL     1       2.009  -0.242   0.000  0.00  0.00    +0.000 C 
ATOM     16  C   UNL     1       2.723   0.170   0.000  0.00  0.00    +0.000 C 
ENDBRANCH  14  15
ENDBRANCH  10  14
ENDBRANCH   1  10
TORSDOF 4
