REMARK  Name = 2S8
REMARK  11 active torsions:
REMARK  status: ('A' for Active; 'I' for Inactive)
REMARK    1  A    between atoms: C_2  and  C_4
REMARK    2  A    between atoms: C_4  and  C_5
REMARK    3  A    between atoms: C_4  and  C_14
REMARK    4  A    between atoms: C_14  and  C_15
REMARK    5  A    between atoms: C_15  and  C_16
REMARK    6  A    between atoms: C_16  and  C_17
REMARK    7  A    between atoms: C_17  and  C_18
REMARK    8  A    between atoms: C_18  and  C_19
REMARK    9  A    between atoms: C_19  and  N_20
REMARK   10  A    between atoms: C_21  and  O_23
REMARK   11  A    between atoms: O_23  and  C_24
REMARK                            x       y       z     vdW  Elec       q    Type
REMARK                         _______ _______ _______ _____ _____    ______ ____
ROOT
ATOM      1  C   UNL     1      -2.318   0.025   0.000  0.00  0.00    +0.000 C 
ENDROOT
BRANCH   1   2
ATOM      2  C   UNL     1      -1.603   0.437   0.000  0.00  0.00    +0.000 C 
BRANCH   2   3
ATOM      3  C   UNL     1      -0.889   0.025   0.000  0.00  0.00    +0.000 C 
BRANCH   3   4
ATOM      4  C   UNL     1      -0.174   0.437   0.000  0.00  0.00    +0.000 C 
BRANCH   4   5
ATOM      5  C   UNL     1       0.540   0.025   0.000  0.00  0.00    +0.000 C 
BRANCH   5   6
ATOM      6  C   UNL     1       1.254   0.437   0.000  0.00  0.00    +0.000 C 
BRANCH   6   7
ATOM      7  N   UNL     1       1.969   0.025   0.000  0.00  0.00    +0.000 NA
ATOM      8  C   UNL     1       2.683   0.437   0.000  0.00  0.00    +0.000 C 
ATOM      9  O   UNL     1       2.683   1.262   0.000  0.00  0.00    +0.000 OA
BRANCH   8  10
ATOM     10  O   UNL     1       3.398   0.025   0.000  0.00  0.00    +0.000 OA
BRANCH  10  11
ATOM     11  C   UNL     1       4.112   0.437   0.000  0.00  0.00    +0.000 C 
ATOM     12  C   UNL     1       4.827   0.850   0.000  0.00  0.00    +0.000 C 
ATOM     13  C   UNL     1       3.700   1.152   0.000  0.00  0.00    +0.000 C 
ATOM     14  C   UNL     1       4.525  -0.277   0.000  0.00  0.00    +0.000 C 
ENDBRANCH  10  11
ENDBRANCH   8  10
ENDBRANCH   6   7
ENDBRANCH   5   6
ENDBRANCH   4   5
ENDBRANCH   3   4
ENDBRANCH   2   3
ENDBRANCH   1   2
BRANCH   1  15
ATOM     15  C   UNL     1      -3.032   0.437   0.000  0.00  0.00    +0.000 C 
BRANCH  15  16
ATOM     16  C   UNL     1      -3.747   0.025   0.000  0.00  0.00    +0.000 A 
ATOM     17  C   UNL     1      -4.500   0.360   0.000  0.00  0.00    +0.000 A 
ATOM     18  N   UNL     1      -5.053  -0.253   0.000  0.00  0.00    +0.000 NA
ATOM     19  C   UNL     1      -4.640  -0.967   0.000  0.00  0.00    +0.000 A 
ATOM     20  C   UNL     1      -4.895  -1.752   0.000  0.00  0.00    +0.000 A 
ATOM     21  C   UNL     1      -4.343  -2.365   0.000  0.00  0.00    +0.000 A 
ATOM     22  C   UNL     1      -3.536  -2.193   0.000  0.00  0.00    +0.000 A 
ATOM     23  C   UNL     1      -3.281  -1.409   0.000  0.00  0.00    +0.000 A 
ATOM     24  C   UNL     1      -3.833  -0.796   0.000  0.00  0.00    +0.000 A 
ENDBRANCH  15  16
BRANCH  15  26
ATOM     25  O   UNL     1      -3.747   1.675   0.000  0.00  0.00    +0.000 OA
ATOM     26  C   UNL     1      -3.032   1.262   0.000  0.00  0.00    +0.000 C 
ATOM     27  O   UNL     1      -2.318   1.675   0.000  0.00  0.00    +0.000 OA
ENDBRANCH  15  26
ENDBRANCH   1  15
TORSDOF 11
