REMARK  Name = 2SC
REMARK  5 active torsions:
REMARK  status: ('A' for Active; 'I' for Inactive)
REMARK    1  A    between atoms: C_1  and  C_24
REMARK    2  A    between atoms: C_7  and  C_11
REMARK    3  A    between atoms: C_9  and  N_10
REMARK    4  A    between atoms: N_10  and  C_12
REMARK    5  A    between atoms: C_12  and  C_13
REMARK                            x       y       z     vdW  Elec       q    Type
REMARK                         _______ _______ _______ _____ _____    ______ ____
ROOT
ATOM      1  C   UNL     1      -1.486   1.143   0.000  0.00  0.00    +0.000 A 
ATOM      2  C   UNL     1      -0.701   0.888   0.000  0.00  0.00    +0.000 A 
ATOM      3  N   UNL     1      -0.701   0.063   0.000  0.00  0.00    +0.000 N 
ATOM      4  N   UNL     1      -1.486  -0.192   0.000  0.00  0.00    +0.000 NA
ATOM      5  C   UNL     1      -1.971   0.475   0.000  0.00  0.00    +0.000 A 
ATOM      6  N   UNL     1       0.013   1.300   0.000  0.00  0.00    +0.000 NA
ATOM      7  C   UNL     1       0.728   0.888   0.000  0.00  0.00    +0.000 A 
ATOM      8  C   UNL     1       0.728   0.063   0.000  0.00  0.00    +0.000 A 
ATOM      9  C   UNL     1       0.013  -0.350   0.000  0.00  0.00    +0.000 A 
ENDROOT
BRANCH   7  10
ATOM     10  C   UNL     1       1.442   1.300   0.000  0.00  0.00    +0.000 A 
ATOM     11  C   UNL     1       1.442   2.125   0.000  0.00  0.00    +0.000 A 
ATOM     12  C   UNL     1       2.157   2.538   0.000  0.00  0.00    +0.000 A 
ATOM     13  C   UNL     1       2.871   2.125   0.000  0.00  0.00    +0.000 A 
ATOM     14  C   UNL     1       2.871   1.300   0.000  0.00  0.00    +0.000 A 
ATOM     15  C   UNL     1       2.157   0.888   0.000  0.00  0.00    +0.000 A 
ENDBRANCH   7  10
BRANCH   1  16
ATOM     16  C   UNL     1      -1.741   1.927   0.000  0.00  0.00    +0.000 C 
ATOM     17  O   UNL     1      -2.548   2.099   0.000  0.00  0.00    +0.000 OA
ENDBRANCH   1  16
BRANCH   9  18
ATOM     18  N   UNL     1       0.013  -1.175   0.000  0.00  0.00    +0.000 NA
BRANCH  18  19
ATOM     19  C   UNL     1      -0.701  -1.587   0.000  0.00  0.00    +0.000 C 
BRANCH  19  20
ATOM     20  C   UNL     1      -0.701  -2.412   0.000  0.00  0.00    +0.000 A 
ATOM     21  C   UNL     1      -1.416  -2.825   0.000  0.00  0.00    +0.000 A 
ATOM     22  N   UNL     1      -1.416  -3.650   0.000  0.00  0.00    +0.000 NA
ATOM     23  C   UNL     1      -0.701  -4.062   0.000  0.00  0.00    +0.000 A 
ATOM     24  C   UNL     1       0.013  -3.650   0.000  0.00  0.00    +0.000 A 
ATOM     25  C   UNL     1       0.013  -2.825   0.000  0.00  0.00    +0.000 A 
ENDBRANCH  19  20
ENDBRANCH  18  19
ENDBRANCH   9  18
TORSDOF 5
