REMARK  Name = 2T1
REMARK  4 active torsions:
REMARK  status: ('A' for Active; 'I' for Inactive)
REMARK    1  A    between atoms: N_2  and  C_9
REMARK    2  A    between atoms: C_3  and  C_25
REMARK    3  A    between atoms: C_6  and  C_22
REMARK    4  A    between atoms: C_10  and  C_12
REMARK                            x       y       z     vdW  Elec       q    Type
REMARK                         _______ _______ _______ _____ _____    ______ ____
ROOT
ATOM      1  N   UNL     1       0.502   0.237   0.000  0.00  0.00    +0.000 N 
ATOM      2  N   UNL     1       1.216  -1.001   0.000  0.00  0.00    +0.000 NA
ATOM      3  C   UNL     1      -0.927   1.062   0.000  0.00  0.00    +0.000 C 
ATOM      4  C   UNL     1      -0.213   1.474   0.000  0.00  0.00    +0.000 C 
ATOM      5  C   UNL     1      -0.213  -0.176   0.000  0.00  0.00    +0.000 C 
ATOM      6  C   UNL     1       1.216  -0.176   0.000  0.00  0.00    +0.000 C 
ATOM      7  O   UNL     1       1.931   0.237   0.000  0.00  0.00    +0.000 OA
ATOM      8  C   UNL     1      -0.927   0.237   0.000  0.00  0.00    +0.000 C 
ATOM      9  C   UNL     1       0.502   1.062   0.000  0.00  0.00    +0.000 C 
ENDROOT
BRANCH   3  13
ATOM     10  C   UNL     1      -1.642   2.299   0.000  0.00  0.00    +0.000 A 
ATOM     11  C   UNL     1      -2.356   2.712   0.000  0.00  0.00    +0.000 A 
ATOM     12  C   UNL     1      -3.071   2.299   0.000  0.00  0.00    +0.000 A 
ATOM     13  C   UNL     1      -1.642   1.474   0.000  0.00  0.00    +0.000 A 
ATOM     14  C   UNL     1      -2.356   1.062   0.000  0.00  0.00    +0.000 A 
ATOM     15  C   UNL     1      -3.071   1.474   0.000  0.00  0.00    +0.000 A 
BRANCH  10  16
ATOM     16  C   UNL     1      -0.927   2.712   0.000  0.00  0.00    +0.000 C 
ATOM     17  F   UNL     1      -1.340   3.426   0.000  0.00  0.00    +0.000 F 
ATOM     18  F   UNL     1      -0.515   1.998   0.000  0.00  0.00    +0.000 F 
ATOM     19  F   UNL     1      -0.213   3.124   0.000  0.00  0.00    +0.000 F 
ENDBRANCH  10  16
ENDBRANCH   3  13
BRANCH   2  20
ATOM     20  C   UNL     1       1.931  -1.413   0.000  0.00  0.00    +0.000 A 
ATOM     21  C   UNL     1       1.931  -2.238   0.000  0.00  0.00    +0.000 A 
ATOM     22  C   UNL     1       2.645  -1.001   0.000  0.00  0.00    +0.000 A 
ATOM     23  C   UNL     1       2.645  -2.651   0.000  0.00  0.00    +0.000 A 
ATOM     24  C   UNL     1       3.360  -2.238   0.000  0.00  0.00    +0.000 A 
ATOM     25  C   UNL     1       3.360  -1.413   0.000  0.00  0.00    +0.000 A 
BRANCH  21  26
ATOM     26  C   UNL     1       1.216  -2.651   0.000  0.00  0.00    +0.000 C 
ATOM     27  O   UNL     1       1.216  -3.476   0.000  0.00  0.00    +0.000 OA
ATOM     28  O   UNL     1       0.502  -2.238   0.000  0.00  0.00    +0.000 OA
ENDBRANCH  21  26
ENDBRANCH   2  20
TORSDOF 4
