REMARK  Name = 2TH
REMARK  2 active torsions:
REMARK  status: ('A' for Active; 'I' for Inactive)
REMARK    1  A    between atoms: C_10  and  N_11
REMARK    2  A    between atoms: C_12  and  C_14
REMARK                            x       y       z     vdW  Elec       q    Type
REMARK                         _______ _______ _______ _____ _____    ______ ____
ROOT
ATOM      1  N   UNL     1       0.987   0.224   0.000  0.00  0.00    +0.000 NA
ATOM      2  C   UNL     1       1.400  -0.491   0.000  0.00  0.00    +0.000 C 
ATOM      3  O   UNL     1       0.987  -1.205   0.000  0.00  0.00    +0.000 OA
ENDROOT
BRANCH   1  13
ATOM      4  O   UNL     1      -0.068   1.676   0.000  0.00  0.00    +0.000 OA
ATOM      5  C   UNL     1      -0.323   0.891   0.000  0.00  0.00    +0.000 C 
ATOM      6  C   UNL     1      -1.107   0.636   0.000  0.00  0.00    +0.000 A 
ATOM      7  C   UNL     1      -1.107  -0.189   0.000  0.00  0.00    +0.000 A 
ATOM      8  C   UNL     1      -1.822  -0.602   0.000  0.00  0.00    +0.000 A 
ATOM      9  C   UNL     1      -2.536  -0.189   0.000  0.00  0.00    +0.000 A 
ATOM     10  C   UNL     1      -2.536   0.636   0.000  0.00  0.00    +0.000 A 
ATOM     11  C   UNL     1      -1.822   1.048   0.000  0.00  0.00    +0.000 A 
ATOM     12  C   UNL     1      -0.323  -0.444   0.000  0.00  0.00    +0.000 C 
ATOM     13  C   UNL     1       0.162   0.224   0.000  0.00  0.00    +0.000 C 
ENDBRANCH   1  13
BRANCH   2  14
ATOM     14  C   UNL     1       2.225  -0.491   0.000  0.00  0.00    +0.000 A 
ATOM     15  C   UNL     1       2.710  -1.158   0.000  0.00  0.00    +0.000 A 
ATOM     16  C   UNL     1       3.494  -0.903   0.000  0.00  0.00    +0.000 A 
ATOM     17  C   UNL     1       3.494  -0.079   0.000  0.00  0.00    +0.000 A 
ATOM     18  S   UNL     1       4.279   0.176   0.000  0.00  0.00    +0.000 S 
ATOM     19  C   UNL     1       4.764  -0.491   0.000  0.00  0.00    +0.000 A 
ATOM     20  C   UNL     1       4.279  -1.158   0.000  0.00  0.00    +0.000 A 
ATOM     21 CL   UNL     1       5.589  -0.491   0.000  0.00  0.00    +0.000 Cl
ATOM     22  N   UNL     1       2.710   0.176   0.000  0.00  0.00    +0.000 NA
ENDBRANCH   2  14
TORSDOF 2
