REMARK  Name = 2TY
REMARK  6 active torsions:
REMARK  status: ('A' for Active; 'I' for Inactive)
REMARK    1  A    between atoms: CA_2  and  C_3
REMARK    2  A    between atoms: CA_2  and  C_4
REMARK    3  A    between atoms: C_3  and  C_6
REMARK    4  A    between atoms: C_11  and  N_12
REMARK    5  A    between atoms: C_15  and  C_21
REMARK    6  A    between atoms: C_21  and  C_22
REMARK                            x       y       z     vdW  Elec       q    Type
REMARK                         _______ _______ _______ _____ _____    ______ ____
ROOT
ATOM      1  C   UNL     1       3.063  -1.528   0.000  0.00  0.00    +0.000 A 
ATOM      2  C   UNL     1       3.777  -1.940   0.000  0.00  0.00    +0.000 A 
ATOM      3  O   UNL     1       4.492  -1.528   0.000  0.00  0.00    +0.000 OA
ATOM      4  C   UNL     1       3.777  -2.765   0.000  0.00  0.00    +0.000 A 
ATOM      5  C   UNL     1       2.348  -1.940   0.000  0.00  0.00    +0.000 A 
ATOM      6  C   UNL     1       2.348  -2.765   0.000  0.00  0.00    +0.000 A 
ATOM      7  C   UNL     1       3.063  -3.178   0.000  0.00  0.00    +0.000 A 
ATOM      8  O   UNL     1       3.063  -4.003   0.000  0.00  0.00    +0.000 OA
ENDROOT
BRANCH   6   9
ATOM      9  N   UNL     1       1.634  -3.178   0.000  0.00  0.00    +0.000 NA
ATOM     10  C   UNL     1       0.919  -2.765   0.000  0.00  0.00    +0.000 C 
BRANCH  10  11
ATOM     11  C   UNL     1       0.205  -3.178   0.000  0.00  0.00    +0.000 C 
BRANCH  11  12
ATOM     12  C   UNL     1      -0.509  -2.765   0.000  0.00  0.00    +0.000 A 
ATOM     13  C   UNL     1      -1.224  -3.178   0.000  0.00  0.00    +0.000 A 
ATOM     14  C   UNL     1      -1.938  -2.765   0.000  0.00  0.00    +0.000 A 
ATOM     15  C   UNL     1      -1.938  -1.940   0.000  0.00  0.00    +0.000 A 
ATOM     16  C   UNL     1      -1.224  -1.528   0.000  0.00  0.00    +0.000 A 
ATOM     17  C   UNL     1      -0.509  -1.940   0.000  0.00  0.00    +0.000 A 
ENDBRANCH  11  12
ENDBRANCH  10  11
ENDBRANCH   6   9
BRANCH   1  18
ATOM     18  C   UNL     1       3.063  -0.703   0.000  0.00  0.00    +0.000 C 
BRANCH  18  20
ATOM     19  N   UNL     1       4.492  -0.703   0.000  0.00  0.00    +0.000 NA
ATOM     20  CA  UNL     1       3.777  -0.290   0.000  0.00  0.00    +0.000 C 
BRANCH  20  21
ATOM     21  C   UNL     1       3.777   0.535   0.000  0.00  0.00    +0.000 C 
ATOM     22  O   UNL     1       4.492   0.947   0.000  0.00  0.00    +0.000 OA
ATOM     23  OXT UNL     1       3.063   0.947   0.000  0.00  0.00    +0.000 OA
ENDBRANCH  20  21
ENDBRANCH  18  20
ENDBRANCH   1  18
TORSDOF 6
