REMARK  Name = 2UN
REMARK  10 active torsions:
REMARK  status: ('A' for Active; 'I' for Inactive)
REMARK    1  A    between atoms: S_2  and  N_5
REMARK    2  A    between atoms: N_5  and  C_6
REMARK    3  A    between atoms: C_10  and  C_12
REMARK    4  A    between atoms: C_12  and  C_13
REMARK    5  A    between atoms: C_13  and  C_14
REMARK    6  A    between atoms: C_13  and  C_18
REMARK    7  A    between atoms: C_13  and  C_22
REMARK    8  A    between atoms: C_14  and  O_16
REMARK    9  A    between atoms: C_18  and  O_19
REMARK   10  A    between atoms: C_22  and  C_23
REMARK                            x       y       z     vdW  Elec       q    Type
REMARK                         _______ _______ _______ _____ _____    ______ ____
ROOT
ATOM      1  C   UNL     1      -1.387   0.178   0.000  0.00  0.00    +0.000 C 
ENDROOT
BRANCH   1   2
ATOM      2  C   UNL     1      -0.990  -0.545   0.000  0.00  0.00    +0.000 C 
ATOM      3  O   UNL     1      -1.417  -1.250   0.000  0.00  0.00    +0.000 OA
BRANCH   2   4
ATOM      4  O   UNL     1      -0.333  -1.044   0.000  0.00  0.00    +0.000 OA
ATOM      5  C   UNL     1      -0.436  -1.862   0.000  0.00  0.00    +0.000 C 
ENDBRANCH   2   4
ENDBRANCH   1   2
BRANCH   1   6
ATOM      6  C   UNL     1      -2.110  -0.219   0.000  0.00  0.00    +0.000 C 
ATOM      7  O   UNL     1      -2.816   0.209   0.000  0.00  0.00    +0.000 OA
BRANCH   6   8
ATOM      8  O   UNL     1      -2.128  -1.044   0.000  0.00  0.00    +0.000 OA
ATOM      9  C   UNL     1      -2.851  -1.441   0.000  0.00  0.00    +0.000 C 
ENDBRANCH   6   8
ENDBRANCH   1   6
BRANCH   1  10
ATOM     10  C   UNL     1      -1.784   0.901   0.000  0.00  0.00    +0.000 C 
BRANCH  10  11
ATOM     11  C   UNL     1      -1.357   1.607   0.000  0.00  0.00    +0.000 A 
ATOM     12  C   UNL     1      -1.754   2.330   0.000  0.00  0.00    +0.000 A 
ATOM     13  C   UNL     1      -1.326   3.035   0.000  0.00  0.00    +0.000 A 
ATOM     14  C   UNL     1      -0.502   3.018   0.000  0.00  0.00    +0.000 A 
ATOM     15  C   UNL     1      -0.104   2.295   0.000  0.00  0.00    +0.000 A 
ATOM     16  C   UNL     1      -0.532   1.589   0.000  0.00  0.00    +0.000 A 
ENDBRANCH  10  11
ENDBRANCH   1  10
BRANCH   1  17
ATOM     17  C   UNL     1      -0.664   0.576   0.000  0.00  0.00    +0.000 C 
BRANCH  17  22
ATOM     18  C   UNL     1       1.453  -0.707   0.000  0.00  0.00    +0.000 A 
ATOM     19  C   UNL     1       0.730  -1.105   0.000  0.00  0.00    +0.000 A 
ATOM     20  C   UNL     1       1.470   0.118   0.000  0.00  0.00    +0.000 A 
ATOM     21  C   UNL     1       0.765   0.545   0.000  0.00  0.00    +0.000 A 
ATOM     22  C   UNL     1       0.042   0.148   0.000  0.00  0.00    +0.000 A 
ATOM     23  C   UNL     1       0.024  -0.677   0.000  0.00  0.00    +0.000 A 
BRANCH  18  24
ATOM     24  N   UNL     1       2.158  -1.135   0.000  0.00  0.00    +0.000 NA
BRANCH  24  26
ATOM     25  O   UNL     1       2.123  -2.784   0.000  0.00  0.00    +0.000 OA
ATOM     26  S   UNL     1       2.141  -1.960   0.000  0.00  0.00    +0.000 S 
ATOM     27  O   UNL     1       2.966  -1.977   0.000  0.00  0.00    +0.000 OA
ATOM     28  O   UNL     1       1.316  -1.942   0.000  0.00  0.00    +0.000 OA
ENDBRANCH  24  26
ENDBRANCH  18  24
ENDBRANCH  17  22
ENDBRANCH   1  17
TORSDOF 10
