REMARK  Name = 302
REMARK  8 active torsions:
REMARK  status: ('A' for Active; 'I' for Inactive)
REMARK    1  A    between atoms: C_1  and  C_23
REMARK    2  A    between atoms: C_8  and  C_10
REMARK    3  A    between atoms: C_15  and  C_16
REMARK    4  A    between atoms: N_17  and  O_18
REMARK    5  A    between atoms: O_18  and  C_19
REMARK    6  A    between atoms: C_19  and  C_20
REMARK    7  A    between atoms: C_20  and  O_21
REMARK    8  A    between atoms: O_21  and  N_22
REMARK                            x       y       z     vdW  Elec       q    Type
REMARK                         _______ _______ _______ _____ _____    ______ ____
ROOT
ATOM      1  C   UNL     1       0.817   1.242   0.000  0.00  0.00    +0.000 C 
ENDROOT
BRANCH   1   2
ATOM      2  C   UNL     1       1.531   1.655   0.000  0.00  0.00    +0.000 C 
BRANCH   2   3
ATOM      3  O   UNL     1       2.245   1.242   0.000  0.00  0.00    +0.000 OA
BRANCH   3   4
ATOM      4  N   UNL     1       2.960   1.655   0.000  0.00  0.00    +0.000 NA
ATOM      5  C   UNL     1       2.960   2.480   0.000  0.00  0.00    +0.000 C 
BRANCH   5   6
ATOM      6  C   UNL     1       3.674   2.892   0.000  0.00  0.00    +0.000 A 
ATOM      7  C   UNL     1       5.103   2.892   0.000  0.00  0.00    +0.000 A 
ATOM      8  C   UNL     1       4.389   4.130   0.000  0.00  0.00    +0.000 A 
ATOM      9  C   UNL     1       3.674   3.717   0.000  0.00  0.00    +0.000 A 
ATOM     10  N   UNL     1       4.389   2.480   0.000  0.00  0.00    +0.000 NA
ATOM     11  N   UNL     1       5.103   3.717   0.000  0.00  0.00    +0.000 NA
ATOM     12  O   UNL     1       4.389   4.955   0.000  0.00  0.00    +0.000 OA
ATOM     13  O   UNL     1       5.818   2.480   0.000  0.00  0.00    +0.000 OA
ENDBRANCH   5   6
ENDBRANCH   3   4
ENDBRANCH   2   3
ENDBRANCH   1   2
BRANCH   1  14
ATOM     14  O   UNL     1       0.102   1.655   0.000  0.00  0.00    +0.000 OA
BRANCH  14  16
ATOM     15  C   UNL     1      -1.327   1.655   0.000  0.00  0.00    +0.000 C 
ATOM     16  N   UNL     1      -0.612   1.242   0.000  0.00  0.00    +0.000 NA
BRANCH  15  22
ATOM     17  C   UNL     1      -3.470   0.417   0.000  0.00  0.00    +0.000 A 
ATOM     18  C   UNL     1      -3.470   1.242   0.000  0.00  0.00    +0.000 A 
ATOM     19  C   UNL     1      -2.756   1.655   0.000  0.00  0.00    +0.000 A 
ATOM     20  C   UNL     1      -2.756   0.005   0.000  0.00  0.00    +0.000 A 
ATOM     21  C   UNL     1      -2.041   0.417   0.000  0.00  0.00    +0.000 A 
ATOM     22  C   UNL     1      -2.041   1.242   0.000  0.00  0.00    +0.000 A 
BRANCH  17  24
ATOM     23  O   UNL     1      -4.185  -0.820   0.000  0.00  0.00    +0.000 OA
ATOM     24  C   UNL     1      -4.185   0.005   0.000  0.00  0.00    +0.000 C 
ATOM     25  O   UNL     1      -4.899   0.417   0.000  0.00  0.00    +0.000 OA
ENDBRANCH  17  24
ENDBRANCH  15  22
ENDBRANCH  14  16
ENDBRANCH   1  14
TORSDOF 8
