REMARK  Name = 303
REMARK  4 active torsions:
REMARK  status: ('A' for Active; 'I' for Inactive)
REMARK    1  A    between atoms: C_2  and  C_4
REMARK    2  A    between atoms: C_9  and  C_14
REMARK    3  A    between atoms: N_16  and  C_17
REMARK    4  A    between atoms: C_26  and  C_27
REMARK                            x       y       z     vdW  Elec       q    Type
REMARK                         _______ _______ _______ _____ _____    ______ ____
ROOT
ATOM      1  C   UNL     1      -0.680   0.818   0.000  0.00  0.00    +0.000 C 
ATOM      2  O   UNL     1      -0.680   1.643   0.000  0.00  0.00    +0.000 OA
ATOM      3  N   UNL     1       0.034   0.406   0.000  0.00  0.00    +0.000 NA
ENDROOT
BRANCH   1   9
ATOM      4  C   UNL     1      -3.538  -1.657   0.000  0.00  0.00    +0.000 A 
ATOM      5  C   UNL     1      -3.538  -0.832   0.000  0.00  0.00    +0.000 A 
ATOM      6  C   UNL     1      -2.824  -0.419   0.000  0.00  0.00    +0.000 A 
ATOM      7  C   UNL     1      -2.824   0.406   0.000  0.00  0.00    +0.000 A 
ATOM      8  C   UNL     1      -2.109   0.818   0.000  0.00  0.00    +0.000 A 
ATOM      9  C   UNL     1      -1.395   0.406   0.000  0.00  0.00    +0.000 A 
ATOM     10  C   UNL     1      -1.395  -0.419   0.000  0.00  0.00    +0.000 A 
ATOM     11  C   UNL     1      -2.109  -0.832   0.000  0.00  0.00    +0.000 A 
ATOM     12  C   UNL     1      -2.109  -1.657   0.000  0.00  0.00    +0.000 A 
ATOM     13  C   UNL     1      -2.824  -2.069   0.000  0.00  0.00    +0.000 A 
BRANCH   4  15
ATOM     14  N   UNL     1      -4.253  -2.894   0.000  0.00  0.00    +0.000 NA
ATOM     15  C   UNL     1      -4.253  -2.069   0.000  0.00  0.00    +0.000 C 
ATOM     16  N   UNL     1      -4.967  -1.657   0.000  0.00  0.00    +0.000 NA
ENDBRANCH   4  15
ENDBRANCH   1   9
BRANCH   3  17
ATOM     17  C   UNL     1       0.749   0.818   0.000  0.00  0.00    +0.000 A 
ATOM     18  C   UNL     1       1.463   0.406   0.000  0.00  0.00    +0.000 A 
ATOM     19  C   UNL     1       2.178   0.818   0.000  0.00  0.00    +0.000 A 
ATOM     20  C   UNL     1       2.178   1.643   0.000  0.00  0.00    +0.000 A 
ATOM     21  C   UNL     1       1.463   2.056   0.000  0.00  0.00    +0.000 A 
ATOM     22  C   UNL     1       0.749   1.643   0.000  0.00  0.00    +0.000 A 
ATOM     23  C   UNL     1       2.892   2.056   0.000  0.00  0.00    +0.000 C 
ATOM     24  C   UNL     1       3.607   1.643   0.000  0.00  0.00    +0.000 C 
ATOM     25  N   UNL     1       3.607   0.818   0.000  0.00  0.00    +0.000 NA
ATOM     26  C   UNL     1       2.892   0.406   0.000  0.00  0.00    +0.000 C 
BRANCH  26  27
ATOM     27  C   UNL     1       2.892  -0.419   0.000  0.00  0.00    +0.000 C 
ATOM     28  C   UNL     1       3.607  -0.832   0.000  0.00  0.00    +0.000 C 
ATOM     29  C   UNL     1       2.178  -0.832   0.000  0.00  0.00    +0.000 C 
ENDBRANCH  26  27
ENDBRANCH   3  17
TORSDOF 4
