REMARK  Name = 3033968
REMARK  2 active torsions:
REMARK  status: ('A' for Active; 'I' for Inactive)
REMARK    1  A    between atoms: C_3  and  C_12
REMARK    2  A    between atoms: C_10  and  C_21
REMARK                            x       y       z     vdW  Elec       q    Type
REMARK                         _______ _______ _______ _____ _____    ______ ____
ROOT
ATOM      1  O   UNL     1       6.626   1.555   0.000  0.00  0.00    +0.000 OA
ATOM      2  O   UNL     1       1.650  -2.000   0.000  0.00  0.00    +0.000 OA
ATOM      3  C   UNL     1       6.099   0.519   0.000  0.00  0.00    +0.000 C 
ATOM      4  C   UNL     1       5.385  -0.719   0.000  0.00  0.00    +0.000 C 
ATOM      5  C   UNL     1       6.099  -0.306   0.000  0.00  0.00    +0.000 C 
ATOM      6  C   UNL     1       4.670  -0.306   0.000  0.00  0.00    +0.000 C 
ATOM      7  C   UNL     1       5.385   0.931   0.000  0.00  0.00    +0.000 C 
ATOM      8  C   UNL     1       4.670   0.519   0.000  0.00  0.00    +0.000 C 
ATOM      9  C   UNL     1       3.920  -0.725   0.000  0.00  0.00    +0.000 C 
ATOM     10  C   UNL     1       6.880   0.770   0.000  0.00  0.00    +0.000 C 
ATOM     11  C   UNL     1       5.398  -1.578   0.000  0.00  0.00    +0.000 C 
ATOM     12  C   UNL     1       6.880  -0.558   0.000  0.00  0.00    +0.000 C 
ATOM     13  C   UNL     1       3.913  -1.584   0.000  0.00  0.00    +0.000 C 
ATOM     14  C   UNL     1       4.657  -2.014   0.000  0.00  0.00    +0.000 C 
ATOM     15  C   UNL     1       7.361   0.106   0.000  0.00  0.00    +0.000 C 
ATOM     16  C   UNL     1       3.155  -0.259   0.000  0.00  0.00    +0.000 C 
ATOM     17  C   UNL     1       2.373  -0.695   0.000  0.00  0.00    +0.000 C 
ATOM     18  C   UNL     1       3.141  -2.037   0.000  0.00  0.00    +0.000 C 
ATOM     19  C   UNL     1       2.366  -1.590   0.000  0.00  0.00    +0.000 C 
ENDROOT
BRANCH   3  20
ATOM     20  C   UNL     1       6.099   1.344   0.000  0.00  0.00    +0.000 C 
ATOM     21  C   UNL     1       5.385   1.756   0.000  0.00  0.00    +0.000 C 
ENDBRANCH   3  20
BRANCH  10  22
ATOM     22  C   UNL     1       7.548   1.254   0.000  0.00  0.00    +0.000 C 
ATOM     23  C   UNL     1       8.216   1.738   0.000  0.00  0.00    +0.000 C 
ENDBRANCH  10  22
TORSDOF 2
