REMARK  Name = 304
REMARK  5 active torsions:
REMARK  status: ('A' for Active; 'I' for Inactive)
REMARK    1  A    between atoms: C_5  and  C_10
REMARK    2  A    between atoms: C_7  and  N_19
REMARK    3  A    between atoms: C_8  and  C_11
REMARK    4  A    between atoms: C_16  and  C_17
REMARK    5  A    between atoms: C_17  and  N_20
REMARK                            x       y       z     vdW  Elec       q    Type
REMARK                         _______ _______ _______ _____ _____    ______ ____
ROOT
ATOM      1  C   UNL     1       0.596  -0.301   0.000  0.00  0.00    +0.000 C 
ATOM      2  N   UNL     1       0.767   0.506   0.000  0.00  0.00    +0.000 NA
ATOM      3  O   UNL     1       1.209  -0.853   0.000  0.00  0.00    +0.000 OA
ENDROOT
BRANCH   2   9
ATOM      4  C   UNL     1       3.121   1.270   0.000  0.00  0.00    +0.000 A 
ATOM      5  C   UNL     1       2.949   0.464   0.000  0.00  0.00    +0.000 A 
ATOM      6  C   UNL     1       1.723   1.567   0.000  0.00  0.00    +0.000 A 
ATOM      7  C   UNL     1       2.508   1.823   0.000  0.00  0.00    +0.000 A 
ATOM      8  C   UNL     1       2.165   0.208   0.000  0.00  0.00    +0.000 A 
ATOM      9  C   UNL     1       1.552   0.761   0.000  0.00  0.00    +0.000 A 
ATOM     10  C   UNL     1       1.993  -0.599   0.000  0.00  0.00    +0.000 C 
BRANCH   7  11
ATOM     11  C   UNL     1       2.679   2.629   0.000  0.00  0.00    +0.000 C 
ATOM     12  C   UNL     1       3.635   3.691   0.000  0.00  0.00    +0.000 C 
ATOM     13  N   UNL     1       3.464   2.884   0.000  0.00  0.00    +0.000 NA
ATOM     14  O   UNL     1       2.066   3.182   0.000  0.00  0.00    +0.000 OA
ENDBRANCH   7  11
ENDBRANCH   2   9
BRANCH   1  16
ATOM     15  C   UNL     1      -0.857  -0.071   0.000  0.00  0.00    +0.000 A 
ATOM     16  C   UNL     1      -0.189  -0.556   0.000  0.00  0.00    +0.000 A 
ATOM     17  C   UNL     1      -1.269  -1.341   0.000  0.00  0.00    +0.000 A 
ATOM     18  N   UNL     1      -1.524  -0.556   0.000  0.00  0.00    +0.000 NA
ATOM     19  N   UNL     1      -1.754  -2.008   0.000  0.00  0.00    +0.000 NA
ATOM     20  S   UNL     1      -0.444  -1.341   0.000  0.00  0.00    +0.000 S 
BRANCH  19  22
ATOM     21  C   UNL     1      -2.910  -1.168   0.000  0.00  0.00    +0.000 C 
ATOM     22  C   UNL     1      -2.575  -1.922   0.000  0.00  0.00    +0.000 C 
BRANCH  22  24
ATOM     23  C   UNL     1      -3.880  -2.503   0.000  0.00  0.00    +0.000 C 
ATOM     24  C   UNL     1      -3.059  -2.590   0.000  0.00  0.00    +0.000 C 
ENDBRANCH  22  24
ENDBRANCH  19  22
ENDBRANCH   1  16
TORSDOF 5
