REMARK  Name = 304
REMARK  2 active torsions:
REMARK  status: ('A' for Active; 'I' for Inactive)
REMARK    1  A    between atoms: C_2  and  C_13
REMARK    2  A    between atoms: C_6  and  C_18
REMARK                            x       y       z     vdW  Elec       q    Type
REMARK                         _______ _______ _______ _____ _____    ______ ____
ROOT
ATOM      1  O   UNL     1       5.910   1.555   0.000  0.00  0.00    +0.000 OA
ATOM      2  C   UNL     1       5.383   0.519   0.000  0.00  0.00    +0.000 C 
ATOM      3  C   UNL     1       5.383  -0.306   0.000  0.00  0.00    +0.000 C 
ATOM      4  C   UNL     1       4.669  -0.719   0.000  0.00  0.00    +0.000 C 
ATOM      5  C   UNL     1       3.954  -0.306   0.000  0.00  0.00    +0.000 C 
ATOM      6  C   UNL     1       6.164   0.770   0.000  0.00  0.00    +0.000 C 
ATOM      7  C   UNL     1       6.164  -0.558   0.000  0.00  0.00    +0.000 C 
ATOM      8  C   UNL     1       4.669   0.931   0.000  0.00  0.00    +0.000 C 
ATOM      9  C   UNL     1       6.646   0.106   0.000  0.00  0.00    +0.000 C 
ATOM     10  C   UNL     1       3.204  -0.725   0.000  0.00  0.00    +0.000 C 
ATOM     11  C   UNL     1       4.682  -1.578   0.000  0.00  0.00    +0.000 C 
ATOM     12  C   UNL     1       3.954   0.519   0.000  0.00  0.00    +0.000 C 
ATOM     13  C   UNL     1       3.941  -2.014   0.000  0.00  0.00    +0.000 C 
ATOM     14  C   UNL     1       3.197  -1.584   0.000  0.00  0.00    +0.000 C 
ATOM     15  C   UNL     1       2.439  -0.259   0.000  0.00  0.00    +0.000 C 
ATOM     16  C   UNL     1       1.657  -0.695   0.000  0.00  0.00    +0.000 C 
ATOM     17  C   UNL     1       2.425  -2.038   0.000  0.00  0.00    +0.000 C 
ATOM     18  C   UNL     1       3.240   0.931   0.000  0.00  0.00    +0.000 C 
ATOM     19  C   UNL     1       1.650  -1.590   0.000  0.00  0.00    +0.000 C 
ENDROOT
BRANCH   2  20
ATOM     20  C   UNL     1       5.383   1.344   0.000  0.00  0.00    +0.000 C 
ATOM     21  C   UNL     1       4.669   1.756   0.000  0.00  0.00    +0.000 C 
ENDBRANCH   2  20
BRANCH   6  22
ATOM     22  C   UNL     1       6.832   1.254   0.000  0.00  0.00    +0.000 C 
ATOM     23  C   UNL     1       7.501   1.738   0.000  0.00  0.00    +0.000 C 
ENDBRANCH   6  22
TORSDOF 2
