REMARK  Name = 307
REMARK  3 active torsions:
REMARK  status: ('A' for Active; 'I' for Inactive)
REMARK    1  A    between atoms: C_15  and  C_17
REMARK    2  A    between atoms: C_17  and  C_19
REMARK    3  A    between atoms: C_25  and  C_26
REMARK                            x       y       z     vdW  Elec       q    Type
REMARK                         _______ _______ _______ _____ _____    ______ ____
ROOT
ATOM      1  C   UNL     1       2.365   0.941   0.000  0.00  0.00    +0.000 C 
ATOM      2  C   UNL     1       2.365   2.591   0.000  0.00  0.00    +0.000 C 
ATOM      3  C   UNL     1       1.650   1.354   0.000  0.00  0.00    +0.000 C 
ATOM      4  C   UNL     1       1.650   2.179   0.000  0.00  0.00    +0.000 C 
ATOM      5  C   UNL     1       3.079   1.354   0.000  0.00  0.00    +0.000 A 
ATOM      6  C   UNL     1       3.079   2.179   0.000  0.00  0.00    +0.000 A 
ATOM      7  C   UNL     1       1.952   0.227   0.000  0.00  0.00    +0.000 C 
ATOM      8  C   UNL     1       2.777   0.227   0.000  0.00  0.00    +0.000 C 
ATOM      9  C   UNL     1       1.952   3.306   0.000  0.00  0.00    +0.000 C 
ATOM     10  C   UNL     1       2.777   3.306   0.000  0.00  0.00    +0.000 C 
ATOM     11  C   UNL     1       3.817   0.912   0.000  0.00  0.00    +0.000 A 
ATOM     12  C   UNL     1       3.817   2.620   0.000  0.00  0.00    +0.000 A 
ATOM     13  C   UNL     1       4.564   1.336   0.000  0.00  0.00    +0.000 A 
ATOM     14  C   UNL     1       4.564   2.196   0.000  0.00  0.00    +0.000 A 
ATOM     15  C   UNL     1       5.277   2.611   0.000  0.00  0.00    +0.000 C 
ENDROOT
BRANCH  13  16
ATOM     16  C   UNL     1       5.277   0.921   0.000  0.00  0.00    +0.000 C 
ATOM     17  C   UNL     1       5.993   1.331   0.000  0.00  0.00    +0.000 C 
BRANCH  16  18
ATOM     18  C   UNL     1       5.274   0.096   0.000  0.00  0.00    +0.000 A 
ATOM     19  C   UNL     1       4.558  -0.314   0.000  0.00  0.00    +0.000 A 
ATOM     20  C   UNL     1       5.987  -0.319   0.000  0.00  0.00    +0.000 A 
ATOM     21  C   UNL     1       4.554  -1.139   0.000  0.00  0.00    +0.000 A 
ATOM     22  C   UNL     1       5.983  -1.144   0.000  0.00  0.00    +0.000 A 
ATOM     23  C   UNL     1       5.267  -1.554   0.000  0.00  0.00    +0.000 A 
BRANCH  23  26
ATOM     24  O   UNL     1       5.977  -2.794   0.000  0.00  0.00    +0.000 OA
ATOM     25  O   UNL     1       4.548  -2.789   0.000  0.00  0.00    +0.000 OA
ATOM     26  C   UNL     1       5.264  -2.379   0.000  0.00  0.00    +0.000 C 
ENDBRANCH  23  26
ENDBRANCH  16  18
ENDBRANCH  13  16
TORSDOF 3
