REMARK  Name = 311
REMARK  2 active torsions:
REMARK  status: ('A' for Active; 'I' for Inactive)
REMARK    1  A    between atoms: C_3  and  C_6
REMARK    2  A    between atoms: C_4  and  C_5
REMARK                            x       y       z     vdW  Elec       q    Type
REMARK                         _______ _______ _______ _____ _____    ______ ____
ROOT
ATOM      1  C   UNL     1      -0.347  -0.364   0.000  0.00  0.00    +0.000 A 
ATOM      2  C   UNL     1      -1.776  -0.364   0.000  0.00  0.00    +0.000 A 
ATOM      3  C   UNL     1      -1.061  -1.601   0.000  0.00  0.00    +0.000 A 
ATOM      4  C   UNL     1      -1.776  -1.189   0.000  0.00  0.00    +0.000 A 
ATOM      5  C   UNL     1      -0.347  -1.189   0.000  0.00  0.00    +0.000 A 
ATOM      6  N   UNL     1      -1.061   0.049   0.000  0.00  0.00    +0.000 NA
ENDROOT
BRANCH   1   8
ATOM      7  C   UNL     1       1.797   0.049   0.000  0.00  0.00    +0.000 C 
ATOM      8  C   UNL     1       0.368   0.049   0.000  0.00  0.00    +0.000 C 
ATOM      9  C   UNL     1       2.511  -0.364   0.000  0.00  0.00    +0.000 C 
ATOM     10  C   UNL     1       2.511  -1.189   0.000  0.00  0.00    +0.000 C 
ATOM     11  C   UNL     1       1.082  -1.189   0.000  0.00  0.00    +0.000 C 
ATOM     12  C   UNL     1       2.949   0.336   0.000  0.00  0.00    +0.000 C 
ATOM     13  C   UNL     1       3.336  -0.335   0.000  0.00  0.00    +0.000 C 
ATOM     14  C   UNL     1       1.797  -1.601   0.000  0.00  0.00    +0.000 C 
ATOM     15  N   UNL     1       1.082  -0.364   0.000  0.00  0.00    +0.000 N 
ATOM     16  O   UNL     1       0.368   0.874   0.000  0.00  0.00    +0.000 OA
ENDBRANCH   1   8
BRANCH   2  18
ATOM     17  C   UNL     1      -3.204   1.286   0.000  0.00  0.00    +0.000 A 
ATOM     18  C   UNL     1      -2.490   0.049   0.000  0.00  0.00    +0.000 A 
ATOM     19  C   UNL     1      -4.633   1.286   0.000  0.00  0.00    +0.000 C 
ATOM     20  C   UNL     1      -3.919   0.049   0.000  0.00  0.00    +0.000 A 
ATOM     21  C   UNL     1      -3.204  -0.364   0.000  0.00  0.00    +0.000 A 
ATOM     22  C   UNL     1      -2.490   0.874   0.000  0.00  0.00    +0.000 A 
ATOM     23  C   UNL     1      -3.919   0.874   0.000  0.00  0.00    +0.000 A 
ATOM     24  F   UNL     1      -3.204   2.111   0.000  0.00  0.00    +0.000 F 
ENDBRANCH   2  18
TORSDOF 2
