REMARK  Name = 316
REMARK  1 active torsions:
REMARK  status: ('A' for Active; 'I' for Inactive)
REMARK    1  A    between atoms: N_3  and  C_4
REMARK                            x       y       z     vdW  Elec       q    Type
REMARK                         _______ _______ _______ _____ _____    ______ ____
ROOT
ATOM      1  O   UNL     1       2.365  -2.141   0.000  0.00  0.00    +0.000 OA
ATOM      2  C   UNL     1       2.365   0.334   0.000  0.00  0.00    +0.000 A 
ATOM      3  C   UNL     1       3.079  -0.078   0.000  0.00  0.00    +0.000 A 
ATOM      4  C   UNL     1       1.650  -0.078   0.000  0.00  0.00    +0.000 A 
ATOM      5  C   UNL     1       3.079  -0.903   0.000  0.00  0.00    +0.000 A 
ATOM      6  C   UNL     1       1.650  -0.903   0.000  0.00  0.00    +0.000 A 
ATOM      7  C   UNL     1       2.365  -1.316   0.000  0.00  0.00    +0.000 A 
ENDROOT
BRANCH   2   9
ATOM      8  O   UNL     1       3.793   1.159   0.000  0.00  0.00    +0.000 OA
ATOM      9  N   UNL     1       2.365   1.159   0.000  0.00  0.00    +0.000 NA
ATOM     10  C   UNL     1       3.079   1.572   0.000  0.00  0.00    +0.000 C 
ATOM     11  C   UNL     1       3.079   2.397   0.000  0.00  0.00    +0.000 C 
ENDBRANCH   2   9
TORSDOF 1
