REMARK  Name = 3162
REMARK  6 active torsions:
REMARK  status: ('A' for Active; 'I' for Inactive)
REMARK    1  A    between atoms: O_1  and  C_4
REMARK    2  A    between atoms: O_1  and  C_8
REMARK    3  A    between atoms: N_2  and  C_9
REMARK    4  A    between atoms: C_4  and  C_5
REMARK    5  A    between atoms: C_4  and  C_6
REMARK    6  A    between atoms: C_8  and  C_9
REMARK                            x       y       z     vdW  Elec       q    Type
REMARK                         _______ _______ _______ _____ _____    ______ ____
ROOT
ATOM      1  C   UNL     1       2.475   0.000   0.000  0.00  0.00    +0.000 C 
ATOM      2  C   UNL     1       1.650   0.000   0.000  0.00  0.00    +0.000 C 
ENDROOT
BRANCH   1   4
ATOM      3  N   UNL     1       3.189  -1.238   0.000  0.00  0.00    +0.000 NA
ATOM      4  C   UNL     1       2.475  -0.825   0.000  0.00  0.00    +0.000 A 
ATOM      5  C   UNL     1       1.761  -1.238   0.000  0.00  0.00    +0.000 A 
ATOM      6  C   UNL     1       1.761  -2.062   0.000  0.00  0.00    +0.000 A 
ATOM      7  C   UNL     1       3.189  -2.062   0.000  0.00  0.00    +0.000 A 
ATOM      8  C   UNL     1       2.475  -2.475   0.000  0.00  0.00    +0.000 A 
ENDBRANCH   1   4
BRANCH   1   9
ATOM      9  C   UNL     1       2.475   0.825   0.000  0.00  0.00    +0.000 A 
ATOM     10  C   UNL     1       1.761   1.238   0.000  0.00  0.00    +0.000 A 
ATOM     11  C   UNL     1       3.189   1.238   0.000  0.00  0.00    +0.000 A 
ATOM     12  C   UNL     1       1.761   2.062   0.000  0.00  0.00    +0.000 A 
ATOM     13  C   UNL     1       3.189   2.062   0.000  0.00  0.00    +0.000 A 
ATOM     14  C   UNL     1       2.475   2.475   0.000  0.00  0.00    +0.000 A 
ENDBRANCH   1   9
BRANCH   1  15
ATOM     15  O   UNL     1       3.300   0.000   0.000  0.00  0.00    +0.000 OA
BRANCH  15  16
ATOM     16  C   UNL     1       3.713  -0.715   0.000  0.00  0.00    +0.000 C 
BRANCH  16  17
ATOM     17  C   UNL     1       4.538  -0.715   0.000  0.00  0.00    +0.000 C 
BRANCH  17  18
ATOM     18  N   UNL     1       4.950  -1.429   0.000  0.00  0.00    +0.000 NA
ATOM     19  C   UNL     1       5.775  -1.429   0.000  0.00  0.00    +0.000 C 
ATOM     20  C   UNL     1       4.538  -2.143   0.000  0.00  0.00    +0.000 C 
ENDBRANCH  17  18
ENDBRANCH  16  17
ENDBRANCH  15  16
ENDBRANCH   1  15
TORSDOF 6
