REMARK  Name = 317
REMARK  7 active torsions:
REMARK  status: ('A' for Active; 'I' for Inactive)
REMARK    1  A    between atoms: C_1  and  C_2
REMARK    2  A    between atoms: C_1  and  C_7
REMARK    3  A    between atoms: C_1  and  C_15
REMARK    4  A    between atoms: C_2  and  C_3
REMARK    5  A    between atoms: C_7  and  C_12
REMARK    6  A    between atoms: C_17  and  C_20
REMARK    7  A    between atoms: C_23  and  S_26
REMARK                            x       y       z     vdW  Elec       q    Type
REMARK                         _______ _______ _______ _____ _____    ______ ____
ROOT
ATOM      1  C   UNL     1       0.187   0.786   0.000  0.00  0.00    +0.000 A 
ATOM      2  N   UNL     1       0.101  -0.035   0.000  0.00  0.00    +0.000 NA
ATOM      3  C   UNL     1      -0.706  -0.206   0.000  0.00  0.00    +0.000 A 
ATOM      4  N   UNL     1      -1.119   0.508   0.000  0.00  0.00    +0.000 NA
ATOM      5  O   UNL     1      -0.567   1.121   0.000  0.00  0.00    +0.000 OA
ENDROOT
BRANCH   3   6
ATOM      6  C   UNL     1      -1.042  -0.960   0.000  0.00  0.00    +0.000 A 
ATOM      7  C   UNL     1      -0.557  -1.627   0.000  0.00  0.00    +0.000 A 
ATOM      8  C   UNL     1      -0.892  -2.381   0.000  0.00  0.00    +0.000 A 
ATOM      9  C   UNL     1      -1.713  -2.467   0.000  0.00  0.00    +0.000 A 
ATOM     10  C   UNL     1      -2.198  -1.800   0.000  0.00  0.00    +0.000 A 
ATOM     11  C   UNL     1      -1.862  -1.046   0.000  0.00  0.00    +0.000 A 
ATOM     12 CL   UNL     1      -2.347  -0.379   0.000  0.00  0.00    +0.000 Cl
BRANCH   9  13
ATOM     13  S   UNL     1      -2.048  -3.221   0.000  0.00  0.00    +0.000 S 
ATOM     14  O   UNL     1      -2.384  -3.975   0.000  0.00  0.00    +0.000 OA
ATOM     15  O   UNL     1      -2.802  -2.885   0.000  0.00  0.00    +0.000 OA
ATOM     16  C   UNL     1      -1.295  -3.557   0.000  0.00  0.00    +0.000 C 
ENDBRANCH   9  13
ENDBRANCH   3   6
BRANCH   1  17
ATOM     17  C   UNL     1       0.901   1.198   0.000  0.00  0.00    +0.000 C 
BRANCH  17  18
ATOM     18  C   UNL     1       0.901   2.023   0.000  0.00  0.00    +0.000 C 
ATOM     19  N   UNL     1       0.187   2.436   0.000  0.00  0.00    +0.000 NA
BRANCH  18  20
ATOM     20  C   UNL     1       1.616   2.436   0.000  0.00  0.00    +0.000 C 
ATOM     21  C   UNL     1       2.330   2.023   0.000  0.00  0.00    +0.000 C 
ATOM     22  F   UNL     1       1.616   3.261   0.000  0.00  0.00    +0.000 F 
ATOM     23  C   UNL     1       3.084   2.359   0.000  0.00  0.00    +0.000 C 
ATOM     24  C   UNL     1       3.636   1.746   0.000  0.00  0.00    +0.000 C 
ATOM     25  C   UNL     1       3.224   1.031   0.000  0.00  0.00    +0.000 C 
ATOM     26  C   UNL     1       2.417   1.203   0.000  0.00  0.00    +0.000 C 
ENDBRANCH  18  20
ENDBRANCH  17  18
BRANCH  17  27
ATOM     27  C   UNL     1       1.616   0.786   0.000  0.00  0.00    +0.000 C 
BRANCH  27  28
ATOM     28  C   UNL     1       1.616  -0.039   0.000  0.00  0.00    +0.000 C 
ATOM     29  C   UNL     1       2.029  -0.754   0.000  0.00  0.00    +0.000 C 
ATOM     30  C   UNL     1       1.204  -0.754   0.000  0.00  0.00    +0.000 C 
ENDBRANCH  27  28
ENDBRANCH  17  27
ENDBRANCH   1  17
TORSDOF 7
