REMARK  Name = 317
REMARK  7 active torsions:
REMARK  status: ('A' for Active; 'I' for Inactive)
REMARK    1  A    between atoms: O_4  and  C_16
REMARK    2  A    between atoms: O_4  and  C_17
REMARK    3  A    between atoms: O_5  and  C_20
REMARK    4  A    between atoms: N_6  and  C_10
REMARK    5  A    between atoms: N_7  and  C_24
REMARK    6  A    between atoms: C_10  and  C_13
REMARK    7  A    between atoms: C_13  and  C_16
REMARK                            x       y       z     vdW  Elec       q    Type
REMARK                         _______ _______ _______ _____ _____    ______ ____
ROOT
ATOM      1  N   UNL     1       8.808  -0.419   0.000  0.00  0.00    +0.000 NA
ATOM      2  N   UNL     1       8.818   2.114   0.000  0.00  0.00    +0.000 NA
ATOM      3  N   UNL     1       9.565   0.830   0.000  0.00  0.00    +0.000 NA
ATOM      4  C   UNL     1       6.652   0.848   0.000  0.00  0.00    +0.000 A 
ATOM      5  C   UNL     1       8.080   0.848   0.000  0.00  0.00    +0.000 A 
ATOM      6  C   UNL     1       7.366   0.435   0.000  0.00  0.00    +0.000 A 
ATOM      7  C   UNL     1       6.652   1.673   0.000  0.00  0.00    +0.000 A 
ATOM      8  C   UNL     1       8.080   1.673   0.000  0.00  0.00    +0.000 A 
ATOM      9  C   UNL     1       7.366   2.085   0.000  0.00  0.00    +0.000 A 
ATOM     10  C   UNL     1       8.818   0.406   0.000  0.00  0.00    +0.000 A 
ATOM     11  C   UNL     1       9.565   1.690   0.000  0.00  0.00    +0.000 A 
ENDROOT
BRANCH   1  14
ATOM     12 CL   UNL     1      10.209  -2.910   0.000  0.00  0.00    +0.000 Cl
ATOM     13  F   UNL     1      11.647  -2.102   0.000  0.00  0.00    +0.000 F 
ATOM     14  C   UNL     1       9.518  -0.839   0.000  0.00  0.00    +0.000 A 
ATOM     15  C   UNL     1       9.508  -1.664   0.000  0.00  0.00    +0.000 A 
ATOM     16  C   UNL     1      10.237  -0.435   0.000  0.00  0.00    +0.000 A 
ATOM     17  C   UNL     1      10.218  -2.085   0.000  0.00  0.00    +0.000 A 
ATOM     18  C   UNL     1      10.947  -0.856   0.000  0.00  0.00    +0.000 A 
ATOM     19  C   UNL     1      10.937  -1.681   0.000  0.00  0.00    +0.000 A 
ENDBRANCH   1  14
BRANCH   7  20
ATOM     20  O   UNL     1       5.937   2.085   0.000  0.00  0.00    +0.000 OA
ATOM     21  C   UNL     1       5.937   2.910   0.000  0.00  0.00    +0.000 C 
ENDBRANCH   7  20
BRANCH   4  22
ATOM     22  O   UNL     1       5.937   0.435   0.000  0.00  0.00    +0.000 OA
BRANCH  22  23
ATOM     23  C   UNL     1       5.222   0.848   0.000  0.00  0.00    +0.000 C 
BRANCH  23  24
ATOM     24  C   UNL     1       4.508   0.435   0.000  0.00  0.00    +0.000 C 
BRANCH  24  25
ATOM     25  C   UNL     1       3.793   0.848   0.000  0.00  0.00    +0.000 C 
BRANCH  25  27
ATOM     26  O   UNL     1       1.650  -0.390   0.000  0.00  0.00    +0.000 OA
ATOM     27  N   UNL     1       3.079   0.435   0.000  0.00  0.00    +0.000 NA
ATOM     28  C   UNL     1       2.365   0.848   0.000  0.00  0.00    +0.000 C 
ATOM     29  C   UNL     1       3.079  -0.390   0.000  0.00  0.00    +0.000 C 
ATOM     30  C   UNL     1       1.650   0.435   0.000  0.00  0.00    +0.000 C 
ATOM     31  C   UNL     1       2.365  -0.803   0.000  0.00  0.00    +0.000 C 
ENDBRANCH  25  27
ENDBRANCH  24  25
ENDBRANCH  23  24
ENDBRANCH  22  23
ENDBRANCH   4  22
TORSDOF 7
