REMARK  Name = 319
REMARK  5 active torsions:
REMARK  status: ('A' for Active; 'I' for Inactive)
REMARK    1  A    between atoms: C_11  and  C_20
REMARK    2  A    between atoms: C_12  and  N_23
REMARK    3  A    between atoms: C_13  and  O_27
REMARK    4  A    between atoms: C_14  and  O_27
REMARK    5  A    between atoms: C_18  and  C_20
REMARK                            x       y       z     vdW  Elec       q    Type
REMARK                         _______ _______ _______ _____ _____    ______ ____
ROOT
ATOM      1  C   UNL     1       0.607   0.669   0.000  0.00  0.00    +0.000 A 
ATOM      2  C   UNL     1       1.321   1.082   0.000  0.00  0.00    +0.000 A 
ATOM      3  C   UNL     1       1.321  -0.568   0.000  0.00  0.00    +0.000 A 
ATOM      4  C   UNL     1       0.607  -0.156   0.000  0.00  0.00    +0.000 A 
ATOM      5  C   UNL     1       2.036   0.669   0.000  0.00  0.00    +0.000 A 
ATOM      6  C   UNL     1       2.036  -0.156   0.000  0.00  0.00    +0.000 A 
ATOM      7  F   UNL     1       2.750  -0.568   0.000  0.00  0.00    +0.000 F 
ENDROOT
BRANCH   4  10
ATOM      8  C   UNL     1      -2.251  -0.156   0.000  0.00  0.00    +0.000 C 
ATOM      9  C   UNL     1      -0.822  -0.156   0.000  0.00  0.00    +0.000 C 
ATOM     10  N   UNL     1      -0.107  -0.568   0.000  0.00  0.00    +0.000 NA
ATOM     11  N   UNL     1      -1.536  -0.568   0.000  0.00  0.00    +0.000 NA
ATOM     12  O   UNL     1      -2.251   0.669   0.000  0.00  0.00    +0.000 OA
ATOM     13  O   UNL     1      -0.822   0.669   0.000  0.00  0.00    +0.000 OA
BRANCH   8  14
ATOM     14  C   UNL     1      -2.965  -0.568   0.000  0.00  0.00    +0.000 C 
BRANCH  14  19
ATOM     15  C   UNL     1      -4.394  -0.568   0.000  0.00  0.00    +0.000 A 
ATOM     16  C   UNL     1      -3.680   0.669   0.000  0.00  0.00    +0.000 A 
ATOM     17  C   UNL     1      -5.109  -0.156   0.000  0.00  0.00    +0.000 A 
ATOM     18  C   UNL     1      -4.394   1.082   0.000  0.00  0.00    +0.000 A 
ATOM     19  C   UNL     1      -3.680  -0.156   0.000  0.00  0.00    +0.000 A 
ATOM     20  C   UNL     1      -5.109   0.669   0.000  0.00  0.00    +0.000 A 
ATOM     21  F   UNL     1      -5.823   1.082   0.000  0.00  0.00    +0.000 F 
ENDBRANCH  14  19
ENDBRANCH   8  14
ENDBRANCH   4  10
BRANCH   5  22
ATOM     22  O   UNL     1       2.750   1.082   0.000  0.00  0.00    +0.000 OA
BRANCH  22  26
ATOM     23  C   UNL     1       4.179   1.082   0.000  0.00  0.00    +0.000 A 
ATOM     24  C   UNL     1       3.465  -0.156   0.000  0.00  0.00    +0.000 A 
ATOM     25  C   UNL     1       4.894   0.669   0.000  0.00  0.00    +0.000 A 
ATOM     26  C   UNL     1       3.465   0.669   0.000  0.00  0.00    +0.000 A 
ATOM     27  C   UNL     1       4.179  -0.568   0.000  0.00  0.00    +0.000 A 
ATOM     28  N   UNL     1       4.894  -0.156   0.000  0.00  0.00    +0.000 NA
ATOM     29  N   UNL     1       4.179  -1.393   0.000  0.00  0.00    +0.000 NA
ENDBRANCH  22  26
ENDBRANCH   5  22
TORSDOF 5
