REMARK  Name = 31U
REMARK  7 active torsions:
REMARK  status: ('A' for Active; 'I' for Inactive)
REMARK    1  A    between atoms: C_2  and  C_3
REMARK    2  A    between atoms: N_5  and  C_6
REMARK    3  A    between atoms: C_6  and  C_7
REMARK    4  A    between atoms: C_10  and  C_11
REMARK    5  A    between atoms: C_19  and  C_20
REMARK    6  A    between atoms: C_20  and  C_22
REMARK    7  A    between atoms: C_22  and  C_23
REMARK                            x       y       z     vdW  Elec       q    Type
REMARK                         _______ _______ _______ _____ _____    ______ ____
ROOT
ATOM      1  N   UNL     1       0.330  -0.853   0.000  0.00  0.00    +0.000 N 
ATOM      2  C   UNL     1      -0.424  -0.517   0.000  0.00  0.00    +0.000 C 
ATOM      3  C   UNL     1      -0.976  -1.131   0.000  0.00  0.00    +0.000 C 
ATOM      4  C   UNL     1      -0.563  -1.845   0.000  0.00  0.00    +0.000 C 
ATOM      5  C   UNL     1       0.244  -1.673   0.000  0.00  0.00    +0.000 C 
ATOM      6  C   UNL     1       1.044  -0.441   0.000  0.00  0.00    +0.000 C 
ATOM      7  O   UNL     1       1.044   0.384   0.000  0.00  0.00    +0.000 OA
ENDROOT
BRANCH   2   8
ATOM      8  C   UNL     1      -0.595   0.289   0.000  0.00  0.00    +0.000 C 
ATOM      9  O   UNL     1       0.018   0.842   0.000  0.00  0.00    +0.000 OA
ATOM     10  N   UNL     1      -1.380   0.544   0.000  0.00  0.00    +0.000 NA
BRANCH  10  11
ATOM     11  C   UNL     1      -1.551   1.351   0.000  0.00  0.00    +0.000 C 
BRANCH  11  12
ATOM     12  C   UNL     1      -2.336   1.606   0.000  0.00  0.00    +0.000 A 
ATOM     13  C   UNL     1      -2.949   1.054   0.000  0.00  0.00    +0.000 A 
ATOM     14  C   UNL     1      -3.734   1.309   0.000  0.00  0.00    +0.000 A 
ATOM     15  C   UNL     1      -3.905   2.116   0.000  0.00  0.00    +0.000 A 
ATOM     16  C   UNL     1      -3.292   2.668   0.000  0.00  0.00    +0.000 A 
ATOM     17  C   UNL     1      -2.507   2.413   0.000  0.00  0.00    +0.000 A 
BRANCH  15  18
ATOM     18  C   UNL     1      -4.690   2.371   0.000  0.00  0.00    +0.000 C 
ATOM     19  N   UNL     1      -4.861   3.178   0.000  0.00  0.00    +0.000 NA
ATOM     20  N   UNL     1      -5.303   1.819   0.000  0.00  0.00    +0.000 NA
ENDBRANCH  15  18
ENDBRANCH  11  12
ENDBRANCH  10  11
ENDBRANCH   2   8
BRANCH   6  21
ATOM     21  C   UNL     1       1.759  -0.853   0.000  0.00  0.00    +0.000 C 
ATOM     22  N   UNL     1       1.759  -1.678   0.000  0.00  0.00    +0.000 NA
BRANCH  21  23
ATOM     23  C   UNL     1       2.473  -0.441   0.000  0.00  0.00    +0.000 C 
BRANCH  23  24
ATOM     24  C   UNL     1       3.188  -0.853   0.000  0.00  0.00    +0.000 C 
ATOM     25  C   UNL     1       3.902  -0.441   0.000  0.00  0.00    +0.000 C 
ATOM     26  C   UNL     1       3.188  -1.678   0.000  0.00  0.00    +0.000 C 
ENDBRANCH  23  24
ENDBRANCH  21  23
ENDBRANCH   6  21
TORSDOF 7
