REMARK  Name = 320
REMARK  5 active torsions:
REMARK  status: ('A' for Active; 'I' for Inactive)
REMARK    1  A    between atoms: C_7  and  C_8
REMARK    2  A    between atoms: C_8  and  C_9
REMARK    3  A    between atoms: N_14  and  C_15
REMARK    4  A    between atoms: C_21  and  O_22
REMARK    5  A    between atoms: O_22  and  C_23
REMARK                            x       y       z     vdW  Elec       q    Type
REMARK                         _______ _______ _______ _____ _____    ______ ____
ROOT
ATOM      1  C   UNL     1       0.400   0.299   0.000  0.00  0.00    +0.000 A 
ATOM      2  C   UNL     1       1.114   0.711   0.000  0.00  0.00    +0.000 A 
ATOM      3  C   UNL     1       1.829   0.299   0.000  0.00  0.00    +0.000 A 
ATOM      4  F   UNL     1       2.543   0.711   0.000  0.00  0.00    +0.000 F 
ATOM      5  C   UNL     1       0.400  -0.526   0.000  0.00  0.00    +0.000 A 
ATOM      6  C   UNL     1       1.114  -0.939   0.000  0.00  0.00    +0.000 A 
ATOM      7  C   UNL     1       1.829  -0.526   0.000  0.00  0.00    +0.000 A 
ENDROOT
BRANCH   1  13
ATOM      8  C   UNL     1      -2.458   0.299   0.000  0.00  0.00    +0.000 C 
ATOM      9  O   UNL     1      -2.458  -0.526   0.000  0.00  0.00    +0.000 OA
ATOM     10  N   UNL     1      -1.744   0.711   0.000  0.00  0.00    +0.000 NA
ATOM     11  C   UNL     1      -1.029   0.299   0.000  0.00  0.00    +0.000 C 
ATOM     12  O   UNL     1      -1.029  -0.526   0.000  0.00  0.00    +0.000 OA
ATOM     13  N   UNL     1      -0.315   0.711   0.000  0.00  0.00    +0.000 NA
BRANCH   8  14
ATOM     14  C   UNL     1      -3.172   0.711   0.000  0.00  0.00    +0.000 C 
BRANCH  14  21
ATOM     15  F   UNL     1      -6.030  -0.939   0.000  0.00  0.00    +0.000 F 
ATOM     16  C   UNL     1      -5.316  -0.526   0.000  0.00  0.00    +0.000 A 
ATOM     17  C   UNL     1      -5.316   0.299   0.000  0.00  0.00    +0.000 A 
ATOM     18  C   UNL     1      -4.601   0.711   0.000  0.00  0.00    +0.000 A 
ATOM     19  C   UNL     1      -4.601  -0.939   0.000  0.00  0.00    +0.000 A 
ATOM     20  C   UNL     1      -3.887  -0.526   0.000  0.00  0.00    +0.000 A 
ATOM     21  C   UNL     1      -3.887   0.299   0.000  0.00  0.00    +0.000 A 
ENDBRANCH  14  21
ENDBRANCH   8  14
ENDBRANCH   1  13
BRANCH   7  22
ATOM     22  O   UNL     1       2.543  -0.939   0.000  0.00  0.00    +0.000 OA
BRANCH  22  23
ATOM     23  C   UNL     1       3.258  -0.526   0.000  0.00  0.00    +0.000 A 
ATOM     24  C   UNL     1       3.258   0.299   0.000  0.00  0.00    +0.000 A 
ATOM     25  C   UNL     1       3.972   0.711   0.000  0.00  0.00    +0.000 A 
ATOM     26  N   UNL     1       4.687   0.299   0.000  0.00  0.00    +0.000 NA
ATOM     27  C   UNL     1       4.687  -0.526   0.000  0.00  0.00    +0.000 A 
ATOM     28  C   UNL     1       3.972  -0.939   0.000  0.00  0.00    +0.000 A 
ATOM     29  N   UNL     1       5.300  -1.079   0.000  0.00  0.00    +0.000 NA
ATOM     30  C   UNL     1       4.964  -1.832   0.000  0.00  0.00    +0.000 A 
ATOM     31  C   UNL     1       4.144  -1.746   0.000  0.00  0.00    +0.000 A 
ENDBRANCH  22  23
ENDBRANCH   7  22
TORSDOF 5
