REMARK  Name = 321
REMARK  3 active torsions:
REMARK  status: ('A' for Active; 'I' for Inactive)
REMARK    1  A    between atoms: N_1  and  C_15
REMARK    2  A    between atoms: C_9  and  C_10
REMARK    3  A    between atoms: C_10  and  C_15
REMARK                            x       y       z     vdW  Elec       q    Type
REMARK                         _______ _______ _______ _____ _____    ______ ____
ROOT
ATOM      1  C   UNL     1       3.616   2.554   0.000  0.00  0.00    +0.000 C 
ATOM      2  C   UNL     1       4.441   2.554   0.000  0.00  0.00    +0.000 C 
ATOM      3  C   UNL     1       4.029   0.746   0.000  0.00  0.00    +0.000 C 
ATOM      4  C   UNL     1       3.102   1.909   0.000  0.00  0.00    +0.000 A 
ATOM      5  C   UNL     1       4.955   1.909   0.000  0.00  0.00    +0.000 A 
ATOM      6  C   UNL     1       3.285   1.104   0.000  0.00  0.00    +0.000 A 
ATOM      7  C   UNL     1       4.772   1.104   0.000  0.00  0.00    +0.000 A 
ATOM      8  C   UNL     1       4.029  -0.079   0.000  0.00  0.00    +0.000 C 
ATOM      9  C   UNL     1       2.284   2.175   0.000  0.00  0.00    +0.000 A 
ATOM     10  C   UNL     1       5.772   2.175   0.000  0.00  0.00    +0.000 A 
ATOM     11  C   UNL     1       2.664   0.510   0.000  0.00  0.00    +0.000 A 
ATOM     12  C   UNL     1       5.393   0.510   0.000  0.00  0.00    +0.000 A 
ATOM     13  C   UNL     1       1.650   1.595   0.000  0.00  0.00    +0.000 A 
ATOM     14  C   UNL     1       6.407   1.595   0.000  0.00  0.00    +0.000 A 
ATOM     15  C   UNL     1       1.841   0.757   0.000  0.00  0.00    +0.000 A 
ATOM     16  C   UNL     1       6.216   0.757   0.000  0.00  0.00    +0.000 A 
ENDROOT
BRANCH   8  17
ATOM     17  C   UNL     1       3.314  -0.491   0.000  0.00  0.00    +0.000 C 
BRANCH  17  18
ATOM     18  C   UNL     1       3.314  -1.316   0.000  0.00  0.00    +0.000 C 
BRANCH  18  19
ATOM     19  N   UNL     1       2.599  -1.729   0.000  0.00  0.00    +0.000 NA
ATOM     20  C   UNL     1       2.599  -2.554   0.000  0.00  0.00    +0.000 C 
ATOM     21  C   UNL     1       1.885  -1.316   0.000  0.00  0.00    +0.000 C 
ENDBRANCH  18  19
ENDBRANCH  17  18
ENDBRANCH   8  17
TORSDOF 3
