REMARK  Name = 322
REMARK  6 active torsions:
REMARK  status: ('A' for Active; 'I' for Inactive)
REMARK    1  A    between atoms: C_1  and  C_3
REMARK    2  A    between atoms: C_3  and  N_13
REMARK    3  A    between atoms: C_5  and  C_6
REMARK    4  A    between atoms: C_6  and  C_10
REMARK    5  A    between atoms: C_7  and  O_15
REMARK    6  A    between atoms: C_8  and  O_15
REMARK                            x       y       z     vdW  Elec       q    Type
REMARK                         _______ _______ _______ _____ _____    ______ ____
ROOT
ATOM      1  C   UNL     1       0.033  -0.103   0.000  0.00  0.00    +0.000 A 
ATOM      2  C   UNL     1      -0.681   0.309   0.000  0.00  0.00    +0.000 A 
ATOM      3  C   UNL     1       0.748   0.309   0.000  0.00  0.00    +0.000 A 
ATOM      4 BR   UNL     1      -1.396   1.547   0.000  0.00  0.00    +0.000 Br
ATOM      5 BR   UNL     1       0.033   2.372   0.000  0.00  0.00    +0.000 Br
ATOM      6  C   UNL     1      -0.681   1.134   0.000  0.00  0.00    +0.000 A 
ATOM      7  C   UNL     1       0.033   1.547   0.000  0.00  0.00    +0.000 A 
ATOM      8  C   UNL     1       0.748   1.134   0.000  0.00  0.00    +0.000 A 
ATOM      9  O   UNL     1       1.462   1.547   0.000  0.00  0.00    +0.000 OA
ENDROOT
BRANCH   2  10
ATOM     10  C   UNL     1      -1.396  -0.103   0.000  0.00  0.00    +0.000 C 
BRANCH  10  12
ATOM     11  C   UNL     1      -0.983  -2.198   0.000  0.00  0.00    +0.000 C 
ATOM     12  C   UNL     1      -1.396  -0.928   0.000  0.00  0.00    +0.000 C 
ATOM     13  N   UNL     1      -1.808  -2.198   0.000  0.00  0.00    +0.000 N 
ATOM     14  S   UNL     1      -0.729  -1.413   0.000  0.00  0.00    +0.000 S 
ATOM     15  C   UNL     1      -2.063  -1.413   0.000  0.00  0.00    +0.000 C 
ATOM     16  S   UNL     1      -0.498  -2.865   0.000  0.00  0.00    +0.000 S 
ATOM     17  O   UNL     1      -2.848  -1.158   0.000  0.00  0.00    +0.000 OA
BRANCH  13  18
ATOM     18  C   UNL     1      -2.293  -2.865   0.000  0.00  0.00    +0.000 C 
BRANCH  18  19
ATOM     19  C   UNL     1      -3.114  -2.779   0.000  0.00  0.00    +0.000 C 
ATOM     20  O   UNL     1      -3.599  -3.447   0.000  0.00  0.00    +0.000 OA
ATOM     21  O   UNL     1      -3.449  -2.026   0.000  0.00  0.00    +0.000 OA
ENDBRANCH  18  19
ENDBRANCH  13  18
ENDBRANCH  10  12
ENDBRANCH   2  10
BRANCH   3  22
ATOM     22  O   UNL     1       1.462  -0.103   0.000  0.00  0.00    +0.000 OA
BRANCH  22  23
ATOM     23  C   UNL     1       2.176   0.309   0.000  0.00  0.00    +0.000 C 
ATOM     24  C   UNL     1       2.891  -0.103   0.000  0.00  0.00    +0.000 C 
ENDBRANCH  22  23
ENDBRANCH   3  22
TORSDOF 6
