REMARK  Name = 322
REMARK  2 active torsions:
REMARK  status: ('A' for Active; 'I' for Inactive)
REMARK    1  A    between atoms: N_7  and  C1*_10
REMARK    2  A    between atoms: C4*_12  and  C5*_13
REMARK                            x       y       z     vdW  Elec       q    Type
REMARK                         _______ _______ _______ _____ _____    ______ ____
ROOT
ATOM      1  F   UNL     1       4.508   1.957   0.000  0.00  0.00    +0.000 F 
ATOM      2  O   UNL     1       1.650   0.307   0.000  0.00  0.00    +0.000 OA
ATOM      3  O   UNL     1       3.079   2.782   0.000  0.00  0.00    +0.000 OA
ATOM      4  N   UNL     1       3.079   0.307   0.000  0.00  0.00    +0.000 N 
ATOM      5  N   UNL     1       2.365   1.545   0.000  0.00  0.00    +0.000 NA
ATOM      6  C   UNL     1       2.365   0.720   0.000  0.00  0.00    +0.000 A 
ATOM      7  C   UNL     1       3.793   0.720   0.000  0.00  0.00    +0.000 A 
ATOM      8  C   UNL     1       3.793   1.545   0.000  0.00  0.00    +0.000 A 
ATOM      9  C   UNL     1       3.079   1.957   0.000  0.00  0.00    +0.000 A 
ENDROOT
BRANCH   4  13
ATOM     10  O4* UNL     1       3.746  -1.003   0.000  0.00  0.00    +0.000 OA
ATOM     11  O3* UNL     1       2.182  -2.455   0.000  0.00  0.00    +0.000 OA
ATOM     12  C3* UNL     1       2.667  -1.787   0.000  0.00  0.00    +0.000 C 
ATOM     13  C1* UNL     1       3.079  -0.518   0.000  0.00  0.00    +0.000 C 
ATOM     14  C2* UNL     1       2.412  -1.003   0.000  0.00  0.00    +0.000 C 
ATOM     15  C4* UNL     1       3.491  -1.787   0.000  0.00  0.00    +0.000 C 
BRANCH  15  17
ATOM     16  O5* UNL     1       4.797  -2.369   0.000  0.00  0.00    +0.000 OA
ATOM     17  C5* UNL     1       3.976  -2.455   0.000  0.00  0.00    +0.000 C 
ENDBRANCH  15  17
ENDBRANCH   4  13
TORSDOF 2
