REMARK  Name = 323
REMARK  3 active torsions:
REMARK  status: ('A' for Active; 'I' for Inactive)
REMARK    1  A    between atoms: N_6  and  C_12
REMARK    2  A    between atoms: C_7  and  C_9
REMARK    3  A    between atoms: C_8  and  C_9
REMARK                            x       y       z     vdW  Elec       q    Type
REMARK                         _______ _______ _______ _____ _____    ______ ____
ROOT
ATOM      1  O   UNL     1       2.093   0.206   0.000  0.00  0.00    +0.000 OA
ATOM      2  O   UNL     1       2.093   1.856   0.000  0.00  0.00    +0.000 OA
ATOM      3  C   UNL     1       4.237   0.619   0.000  0.00  0.00    +0.000 A 
ATOM      4  C   UNL     1       4.237   1.444   0.000  0.00  0.00    +0.000 A 
ATOM      5  C   UNL     1       3.522   0.206   0.000  0.00  0.00    +0.000 A 
ATOM      6  C   UNL     1       3.522   1.856   0.000  0.00  0.00    +0.000 A 
ATOM      7  C   UNL     1       2.808   0.619   0.000  0.00  0.00    +0.000 A 
ATOM      8  C   UNL     1       2.808   1.444   0.000  0.00  0.00    +0.000 A 
ENDROOT
BRANCH   6  11
ATOM      9  O   UNL     1       4.237   3.094   0.000  0.00  0.00    +0.000 OA
ATOM     10  O   UNL     1       2.808   3.094   0.000  0.00  0.00    +0.000 OA
ATOM     11  N   UNL     1       3.522   2.681   0.000  0.00  0.00    +0.000 N 
ENDBRANCH   6  11
BRANCH   3  13
ATOM     12  O   UNL     1       5.665   0.619   0.000  0.00  0.00    +0.000 OA
ATOM     13  C   UNL     1       4.951   0.206   0.000  0.00  0.00    +0.000 C 
BRANCH  13  14
ATOM     14  C   UNL     1       4.951  -0.619   0.000  0.00  0.00    +0.000 A 
ATOM     15  C   UNL     1       4.951  -2.269   0.000  0.00  0.00    +0.000 A 
ATOM     16  C   UNL     1       4.237  -1.031   0.000  0.00  0.00    +0.000 A 
ATOM     17  C   UNL     1       5.665  -1.031   0.000  0.00  0.00    +0.000 A 
ATOM     18  C   UNL     1       4.237  -1.856   0.000  0.00  0.00    +0.000 A 
ATOM     19  C   UNL     1       5.665  -1.856   0.000  0.00  0.00    +0.000 A 
ATOM     20  C   UNL     1       4.951  -3.094   0.000  0.00  0.00    +0.000 C 
ENDBRANCH  13  14
ENDBRANCH   3  13
TORSDOF 3
