REMARK  Name = 32326
REMARK  2 active torsions:
REMARK  status: ('A' for Active; 'I' for Inactive)
REMARK    1  A    between atoms: N9_5  and  C1*_11
REMARK    2  A    between atoms: C4*_13  and  C5*_14
REMARK                            x       y       z     vdW  Elec       q    Type
REMARK                         _______ _______ _______ _____ _____    ______ ____
ROOT
ATOM      1  N9    A A   1       2.653   2.570   0.000  0.00  0.00    +0.000 N 
ATOM      2  N7    A A   1       2.653   1.242   0.000  0.00  0.00    +0.000 NA
ATOM      3  N3    A A   1       1.157   2.731   0.000  0.00  0.00    +0.000 NA
ATOM      4  N1    A A   1       0.443   1.493   0.000  0.00  0.00    +0.000 NA
ATOM      5  N6    A A   1       1.157   0.256   0.000  0.00  0.00    +0.000 NA
ATOM      6  C4    A A   1       1.872   2.318   0.000  0.00  0.00    +0.000 A 
ATOM      7  C8    A A   1       3.134   1.906   0.000  0.00  0.00    +0.000 A 
ATOM      8  C5    A A   1       1.872   1.493   0.000  0.00  0.00    +0.000 A 
ATOM      9  C6    A A   1       1.157   1.081   0.000  0.00  0.00    +0.000 A 
ATOM     10  C2    A A   1       0.443   2.318   0.000  0.00  0.00    +0.000 A 
ENDROOT
BRANCH   1  15
ATOM     11  O4*   A A   1       3.694   3.607   0.000  0.00  0.00    +0.000 OA
ATOM     12  O2*   A A   1       1.600   4.024   0.000  0.00  0.00    +0.000 OA
ATOM     13  O3*   A A   1       2.658   5.474   0.000  0.00  0.00    +0.000 OA
ATOM     14  C2*   A A   1       2.425   4.022   0.000  0.00  0.00    +0.000 C 
ATOM     15  C1*   A A   1       2.909   3.354   0.000  0.00  0.00    +0.000 C 
ATOM     16  C3*   A A   1       2.911   4.689   0.000  0.00  0.00    +0.000 C 
ATOM     17  C4*   A A   1       3.695   4.433   0.000  0.00  0.00    +0.000 C 
BRANCH  17  19
ATOM     18  O5*   A A   1       5.117   4.579   0.000  0.00  0.00    +0.000 OA
ATOM     19  C5*   A A   1       4.364   4.916   0.000  0.00  0.00    +0.000 C 
ENDBRANCH  17  19
ENDBRANCH   1  15
TORSDOF 2
