REMARK  Name = 324
REMARK  1 active torsions:
REMARK  status: ('A' for Active; 'I' for Inactive)
REMARK    1  A    between atoms: C_10  and  C_20
REMARK                            x       y       z     vdW  Elec       q    Type
REMARK                         _______ _______ _______ _____ _____    ______ ____
ROOT
ATOM      1  F   UNL     1       4.140   0.708   0.000  0.00  0.00    +0.000 F 
ATOM      2  O   UNL     1       6.626   1.937   0.000  0.00  0.00    +0.000 OA
ATOM      3  O   UNL     1       3.956   1.313   0.000  0.00  0.00    +0.000 OA
ATOM      4  O   UNL     1       1.650  -1.617   0.000  0.00  0.00    +0.000 OA
ATOM      5  C   UNL     1       6.099   0.901   0.000  0.00  0.00    +0.000 C 
ATOM      6  C   UNL     1       6.099   0.076   0.000  0.00  0.00    +0.000 C 
ATOM      7  C   UNL     1       5.385  -0.337   0.000  0.00  0.00    +0.000 C 
ATOM      8  C   UNL     1       4.670   0.076   0.000  0.00  0.00    +0.000 C 
ATOM      9  C   UNL     1       6.880   1.152   0.000  0.00  0.00    +0.000 C 
ATOM     10  C   UNL     1       5.385   1.313   0.000  0.00  0.00    +0.000 C 
ATOM     11  C   UNL     1       4.670   0.901   0.000  0.00  0.00    +0.000 C 
ATOM     12  C   UNL     1       6.880  -0.176   0.000  0.00  0.00    +0.000 C 
ATOM     13  C   UNL     1       3.920  -0.343   0.000  0.00  0.00    +0.000 C 
ATOM     14  C   UNL     1       7.361   0.488   0.000  0.00  0.00    +0.000 C 
ATOM     15  C   UNL     1       5.398  -1.196   0.000  0.00  0.00    +0.000 C 
ATOM     16  C   UNL     1       4.657  -1.631   0.000  0.00  0.00    +0.000 C 
ATOM     17  C   UNL     1       6.099   1.726   0.000  0.00  0.00    +0.000 C 
ATOM     18  C   UNL     1       3.913  -1.202   0.000  0.00  0.00    +0.000 C 
ATOM     19  C   UNL     1       3.643   0.435   0.000  0.00  0.00    +0.000 C 
ATOM     20  C   UNL     1       3.155   0.123   0.000  0.00  0.00    +0.000 C 
ATOM     21  C   UNL     1       4.660  -2.456   0.000  0.00  0.00    +0.000 C 
ATOM     22  C   UNL     1       3.141  -1.655   0.000  0.00  0.00    +0.000 C 
ATOM     23  C   UNL     1       2.373  -0.313   0.000  0.00  0.00    +0.000 C 
ATOM     24  C   UNL     1       2.366  -1.208   0.000  0.00  0.00    +0.000 C 
ENDROOT
BRANCH   9  26
ATOM     25  O   UNL     1       7.463   2.456   0.000  0.00  0.00    +0.000 OA
ATOM     26  C   UNL     1       7.548   1.636   0.000  0.00  0.00    +0.000 C 
ATOM     27  C   UNL     1       8.301   1.299   0.000  0.00  0.00    +0.000 C 
ENDBRANCH   9  26
TORSDOF 1
