REMARK  Name = 325
REMARK  6 active torsions:
REMARK  status: ('A' for Active; 'I' for Inactive)
REMARK    1  A    between atoms: C_2  and  C_3
REMARK    2  A    between atoms: C_2  and  C_17
REMARK    3  A    between atoms: C_6  and  N_7
REMARK    4  A    between atoms: N_7  and  S_8
REMARK    5  A    between atoms: S_8  and  C_9
REMARK    6  A    between atoms: C_25  and  C_26
REMARK                            x       y       z     vdW  Elec       q    Type
REMARK                         _______ _______ _______ _____ _____    ______ ____
ROOT
ATOM      1  O   UNL     1       0.644   1.334   0.000  0.00  0.00    +0.000 OA
ATOM      2  C   UNL     1       0.092   0.721   0.000  0.00  0.00    +0.000 C 
ENDROOT
BRANCH   2   3
ATOM      3  C   UNL     1       0.347  -0.063   0.000  0.00  0.00    +0.000 A 
ATOM      4  C   UNL     1       1.132  -0.318   0.000  0.00  0.00    +0.000 A 
ATOM      5  C   UNL     1       1.846   0.094   0.000  0.00  0.00    +0.000 A 
ATOM      6  C   UNL     1       1.132  -1.143   0.000  0.00  0.00    +0.000 A 
ATOM      7  N   UNL     1       0.347  -1.398   0.000  0.00  0.00    +0.000 NA
ATOM      8  C   UNL     1      -0.138  -0.731   0.000  0.00  0.00    +0.000 A 
ATOM      9  N   UNL     1       1.846  -1.556   0.000  0.00  0.00    +0.000 NA
ATOM     10  C   UNL     1       2.561  -1.143   0.000  0.00  0.00    +0.000 A 
ATOM     11  C   UNL     1       2.561  -0.318   0.000  0.00  0.00    +0.000 A 
BRANCH  11  12
ATOM     12  C   UNL     1       3.275   0.094   0.000  0.00  0.00    +0.000 A 
ATOM     13  C   UNL     1       3.275   0.919   0.000  0.00  0.00    +0.000 A 
ATOM     14  N   UNL     1       3.990   1.332   0.000  0.00  0.00    +0.000 NA
ATOM     15  C   UNL     1       4.704   0.919   0.000  0.00  0.00    +0.000 A 
ATOM     16  C   UNL     1       4.704   0.094   0.000  0.00  0.00    +0.000 A 
ATOM     17  C   UNL     1       3.990  -0.318   0.000  0.00  0.00    +0.000 A 
ENDBRANCH  11  12
ENDBRANCH   2   3
BRANCH   2  18
ATOM     18  C   UNL     1      -0.715   0.893   0.000  0.00  0.00    +0.000 A 
ATOM     19  C   UNL     1      -1.267   0.280   0.000  0.00  0.00    +0.000 A 
ATOM     20  F   UNL     1      -1.012  -0.505   0.000  0.00  0.00    +0.000 F 
ATOM     21  C   UNL     1      -2.074   0.451   0.000  0.00  0.00    +0.000 A 
ATOM     22  C   UNL     1      -2.329   1.236   0.000  0.00  0.00    +0.000 A 
ATOM     23  C   UNL     1      -1.777   1.849   0.000  0.00  0.00    +0.000 A 
ATOM     24  C   UNL     1      -0.970   1.677   0.000  0.00  0.00    +0.000 A 
ATOM     25  F   UNL     1      -0.418   2.291   0.000  0.00  0.00    +0.000 F 
BRANCH  21  26
ATOM     26  N   UNL     1      -2.626  -0.162   0.000  0.00  0.00    +0.000 NA
BRANCH  26  27
ATOM     27  S   UNL     1      -3.433   0.010   0.000  0.00  0.00    +0.000 S 
ATOM     28  O   UNL     1      -3.604  -0.797   0.000  0.00  0.00    +0.000 OA
ATOM     29  O   UNL     1      -3.261   0.817   0.000  0.00  0.00    +0.000 OA
BRANCH  27  30
ATOM     30  C   UNL     1      -4.240   0.181   0.000  0.00  0.00    +0.000 C 
ATOM     31  C   UNL     1      -4.792  -0.432   0.000  0.00  0.00    +0.000 C 
ENDBRANCH  27  30
ENDBRANCH  26  27
ENDBRANCH  21  26
ENDBRANCH   2  18
TORSDOF 6
