REMARK  Name = 3261
REMARK  1 active torsions:
REMARK  status: ('A' for Active; 'I' for Inactive)
REMARK    1  A    between atoms: C_8  and  C_11
REMARK                            x       y       z     vdW  Elec       q    Type
REMARK                         _______ _______ _______ _____ _____    ______ ____
ROOT
ATOM      1 CL   UNL     1       1.650  -0.445   0.000  0.00  0.00    +0.000 Cl
ATOM      2  N   UNL     1       4.816  -1.540   0.000  0.00  0.00    +0.000 N 
ATOM      3  N   UNL     1       5.228   0.268   0.000  0.00  0.00    +0.000 NA
ATOM      4  N   UNL     1       6.124  -1.776   0.000  0.00  0.00    +0.000 NA
ATOM      5  N   UNL     1       5.735  -2.498   0.000  0.00  0.00    +0.000 NA
ATOM      6  C   UNL     1       4.073  -1.182   0.000  0.00  0.00    +0.000 A 
ATOM      7  C   UNL     1       3.889  -0.377   0.000  0.00  0.00    +0.000 A 
ATOM      8  C   UNL     1       4.403   0.268   0.000  0.00  0.00    +0.000 C 
ATOM      9  C   UNL     1       5.559  -1.182   0.000  0.00  0.00    +0.000 A 
ATOM     10  C   UNL     1       5.743  -0.377   0.000  0.00  0.00    +0.000 C 
ATOM     11  C   UNL     1       3.452  -1.776   0.000  0.00  0.00    +0.000 A 
ATOM     12  C   UNL     1       3.072  -0.111   0.000  0.00  0.00    +0.000 A 
ATOM     13  C   UNL     1       4.928  -2.352   0.000  0.00  0.00    +0.000 A 
ATOM     14  C   UNL     1       2.629  -1.529   0.000  0.00  0.00    +0.000 A 
ATOM     15  C   UNL     1       2.437  -0.691   0.000  0.00  0.00    +0.000 A 
ENDROOT
BRANCH   8  16
ATOM     16  C   UNL     1       4.045   1.011   0.000  0.00  0.00    +0.000 A 
ATOM     17  C   UNL     1       4.510   1.693   0.000  0.00  0.00    +0.000 A 
ATOM     18  C   UNL     1       3.223   1.073   0.000  0.00  0.00    +0.000 A 
ATOM     19  C   UNL     1       4.152   2.436   0.000  0.00  0.00    +0.000 A 
ATOM     20  C   UNL     1       2.865   1.816   0.000  0.00  0.00    +0.000 A 
ATOM     21  C   UNL     1       3.329   2.498   0.000  0.00  0.00    +0.000 A 
ENDBRANCH   8  16
TORSDOF 1
