REMARK  Name = 327
REMARK  0 active torsions:
REMARK  status: ('A' for Active; 'I' for Inactive)
REMARK                            x       y       z     vdW  Elec       q    Type
REMARK                         _______ _______ _______ _____ _____    ______ ____
ROOT
ATOM      1  O   UNL     1       2.133  -0.237   0.000  0.00  0.00    +0.000 OA
ATOM      2  O   UNL     1       1.932  -2.366   0.000  0.00  0.00    +0.000 OA
ATOM      3  O   UNL     1       1.932   1.801   0.000  0.00  0.00    +0.000 OA
ATOM      4  N   UNL     1       5.541  -1.108   0.000  0.00  0.00    +0.000 NA
ATOM      5  C   UNL     1       3.398  -0.695   0.000  0.00  0.00    +0.000 C 
ATOM      6  C   UNL     1       4.112  -1.108   0.000  0.00  0.00    +0.000 C 
ATOM      7  C   UNL     1       4.827  -0.695   0.000  0.00  0.00    +0.000 C 
ATOM      8  C   UNL     1       2.683  -1.108   0.000  0.00  0.00    +0.000 C 
ATOM      9  C   UNL     1       3.874  -0.090   0.000  0.00  0.00    +0.000 C 
ATOM     10  C   UNL     1       3.398   0.130   0.000  0.00  0.00    +0.000 A 
ATOM     11  C   UNL     1       4.112  -1.933   0.000  0.00  0.00    +0.000 C 
ATOM     12  C   UNL     1       4.827   0.130   0.000  0.00  0.00    +0.000 C 
ATOM     13  C   UNL     1       5.048  -0.090   0.000  0.00  0.00    +0.000 C 
ATOM     14  C   UNL     1       4.112   0.542   0.000  0.00  0.00    +0.000 A 
ATOM     15  C   UNL     1       3.398  -2.345   0.000  0.00  0.00    +0.000 C 
ATOM     16  C   UNL     1       2.683  -1.933   0.000  0.00  0.00    +0.000 C 
ATOM     17  C   UNL     1       2.683   0.542   0.000  0.00  0.00    +0.000 A 
ATOM     18  C   UNL     1       6.132  -1.743   0.000  0.00  0.00    +0.000 C 
ATOM     19  C   UNL     1       4.112   1.367   0.000  0.00  0.00    +0.000 A 
ATOM     20  C   UNL     1       2.683   1.367   0.000  0.00  0.00    +0.000 A 
ATOM     21  C   UNL     1       3.398   1.780   0.000  0.00  0.00    +0.000 A 
ENDROOT
TORSDOF 0
