REMARK  Name = 328
REMARK  5 active torsions:
REMARK  status: ('A' for Active; 'I' for Inactive)
REMARK    1  A    between atoms: C_3  and  C_4
REMARK    2  A    between atoms: C_9  and  N_20
REMARK    3  A    between atoms: C_11  and  C_17
REMARK    4  A    between atoms: C_12  and  O_23
REMARK    5  A    between atoms: N_20  and  C_24
REMARK                            x       y       z     vdW  Elec       q    Type
REMARK                         _______ _______ _______ _____ _____    ______ ____
ROOT
ATOM      1  C   UNL     1       0.459   0.607   0.000  0.00  0.00    +0.000 C 
ATOM      2  C   UNL     1      -0.256   1.844   0.000  0.00  0.00    +0.000 C 
ATOM      3  C   UNL     1      -0.970   1.432   0.000  0.00  0.00    +0.000 C 
ATOM      4  C   UNL     1      -0.970   0.607   0.000  0.00  0.00    +0.000 C 
ATOM      5  C   UNL     1      -0.256   0.194   0.000  0.00  0.00    +0.000 C 
ATOM      6  C   UNL     1       1.173   1.844   0.000  0.00  0.00    +0.000 C 
ATOM      7  N   UNL     1       0.459   1.432   0.000  0.00  0.00    +0.000 N 
ATOM      8  O   UNL     1       1.173   2.669   0.000  0.00  0.00    +0.000 OA
ENDROOT
BRANCH   6  12
ATOM      9  C   UNL     1       2.602   1.844   0.000  0.00  0.00    +0.000 A 
ATOM     10  C   UNL     1       3.317   1.432   0.000  0.00  0.00    +0.000 A 
ATOM     11  C   UNL     1       3.317   0.607   0.000  0.00  0.00    +0.000 A 
ATOM     12  C   UNL     1       1.888   1.432   0.000  0.00  0.00    +0.000 A 
ATOM     13  C   UNL     1       1.888   0.607   0.000  0.00  0.00    +0.000 A 
ATOM     14  C   UNL     1       2.602   0.194   0.000  0.00  0.00    +0.000 A 
BRANCH  11  15
ATOM     15  C   UNL     1       4.031   0.194   0.000  0.00  0.00    +0.000 C 
ATOM     16  N   UNL     1       4.746  -0.218   0.000  0.00  0.00    +0.000 NA
ENDBRANCH  11  15
ENDBRANCH   6  12
BRANCH   4  17
ATOM     17  N   UNL     1      -1.685   0.194   0.000  0.00  0.00    +0.000 NA
BRANCH  17  22
ATOM     18  C   UNL     1      -0.970  -1.868   0.000  0.00  0.00    +0.000 A 
ATOM     19  C   UNL     1      -1.685  -2.281   0.000  0.00  0.00    +0.000 A 
ATOM     20  C   UNL     1      -2.399  -1.868   0.000  0.00  0.00    +0.000 A 
ATOM     21  C   UNL     1      -0.970  -1.043   0.000  0.00  0.00    +0.000 A 
ATOM     22  C   UNL     1      -1.685  -0.631   0.000  0.00  0.00    +0.000 A 
ATOM     23  N   UNL     1      -2.399  -1.043   0.000  0.00  0.00    +0.000 NA
BRANCH  18  25
ATOM     24  C   UNL     1      -0.256  -3.106   0.000  0.00  0.00    +0.000 C 
ATOM     25  O   UNL     1      -0.256  -2.281   0.000  0.00  0.00    +0.000 OA
ENDBRANCH  18  25
ENDBRANCH  17  22
ENDBRANCH   4  17
TORSDOF 5
