REMARK  Name = 329
REMARK  0 active torsions:
REMARK  status: ('A' for Active; 'I' for Inactive)
REMARK                            x       y       z     vdW  Elec       q    Type
REMARK                         _______ _______ _______ _____ _____    ______ ____
ROOT
ATOM      1  C   UNL     1      -1.807   0.610   0.000  0.00  0.00    +0.000 A 
ATOM      2  C   UNL     1      -1.023   0.355   0.000  0.00  0.00    +0.000 A 
ATOM      3  O   UNL     1      -0.378   0.870   0.000  0.00  0.00    +0.000 OA
ATOM      4  C   UNL     1       0.427   0.686   0.000  0.00  0.00    +0.000 C 
ATOM      5  C   UNL     1       0.941   1.331   0.000  0.00  0.00    +0.000 C 
ATOM      6  N   UNL     1       0.427  -0.800   0.000  0.00  0.00    +0.000 NA
ATOM      7  C   UNL     1      -0.378  -0.984   0.000  0.00  0.00    +0.000 C 
ATOM      8  N   UNL     1      -0.561  -1.788   0.000  0.00  0.00    +0.000 NA
ATOM      9  C   UNL     1      -1.023  -0.470   0.000  0.00  0.00    +0.000 A 
ATOM     10  S   UNL     1      -1.807  -0.725   0.000  0.00  0.00    +0.000 S 
ATOM     11  C   UNL     1      -2.292  -0.057   0.000  0.00  0.00    +0.000 A 
ATOM     12  C   UNL     1       0.785  -0.057   0.000  0.00  0.00    +0.000 C 
ENDROOT
TORSDOF 0
