REMARK  Name = 3290
REMARK  5 active torsions:
REMARK  status: ('A' for Active; 'I' for Inactive)
REMARK    1  A    between atoms: N_2  and  C_4
REMARK    2  A    between atoms: N_2  and  C_7
REMARK    3  A    between atoms: N_2  and  C_8
REMARK    4  A    between atoms: N_3  and  C_5
REMARK    5  A    between atoms: C_4  and  C_5
REMARK                            x       y       z     vdW  Elec       q    Type
REMARK                         _______ _______ _______ _____ _____    ______ ____
ROOT
ATOM      1  S   UNL     1       3.696  -2.362   0.000  0.00  0.00    +0.000 S 
ATOM      2  N   UNL     1       3.696  -0.778   0.000  0.00  0.00    +0.000 N 
ATOM      3  C   UNL     1       4.382  -1.174   0.000  0.00  0.00    +0.000 A 
ATOM      4  C   UNL     1       3.010  -1.174   0.000  0.00  0.00    +0.000 A 
ATOM      5  C   UNL     1       4.382  -1.966   0.000  0.00  0.00    +0.000 A 
ATOM      6  C   UNL     1       3.010  -1.966   0.000  0.00  0.00    +0.000 A 
ATOM      7  C   UNL     1       2.302  -0.751   0.000  0.00  0.00    +0.000 A 
ATOM      8  C   UNL     1       5.090  -0.751   0.000  0.00  0.00    +0.000 A 
ATOM      9  C   UNL     1       5.090  -2.390   0.000  0.00  0.00    +0.000 A 
ATOM     10  C   UNL     1       2.302  -2.390   0.000  0.00  0.00    +0.000 A 
ATOM     11  C   UNL     1       1.584  -1.158   0.000  0.00  0.00    +0.000 A 
ATOM     12  C   UNL     1       5.808  -1.158   0.000  0.00  0.00    +0.000 A 
ATOM     13  C   UNL     1       1.584  -1.983   0.000  0.00  0.00    +0.000 A 
ATOM     14  C   UNL     1       5.808  -1.983   0.000  0.00  0.00    +0.000 A 
ENDROOT
BRANCH   2  15
ATOM     15  C   UNL     1       3.696   0.014   0.000  0.00  0.00    +0.000 C 
BRANCH  15  16
ATOM     16  C   UNL     1       4.382   0.410   0.000  0.00  0.00    +0.000 C 
ATOM     17  C   UNL     1       5.068   0.014   0.000  0.00  0.00    +0.000 C 
BRANCH  16  18
ATOM     18  N   UNL     1       4.382   1.202   0.000  0.00  0.00    +0.000 NA
BRANCH  18  19
ATOM     19  C   UNL     1       5.068   1.598   0.000  0.00  0.00    +0.000 C 
ATOM     20  C   UNL     1       5.068   2.390   0.000  0.00  0.00    +0.000 C 
ENDBRANCH  18  19
BRANCH  18  21
ATOM     21  C   UNL     1       3.696   1.598   0.000  0.00  0.00    +0.000 C 
ATOM     22  C   UNL     1       3.696   2.390   0.000  0.00  0.00    +0.000 C 
ENDBRANCH  18  21
ENDBRANCH  16  18
ENDBRANCH  15  16
ENDBRANCH   2  15
TORSDOF 5
