REMARK  Name = 32A
REMARK  8 active torsions:
REMARK  status: ('A' for Active; 'I' for Inactive)
REMARK    1  A    between atoms: C_1  and  C_2
REMARK    2  A    between atoms: C_3  and  N_9
REMARK    3  A    between atoms: C_3  and  N_10
REMARK    4  A    between atoms: C_4  and  C_6
REMARK    5  A    between atoms: C_7  and  C_11
REMARK    6  A    between atoms: N_8  and  N_9
REMARK    7  A    between atoms: C_11  and  C_17
REMARK    8  A    between atoms: C_17  and  C_18
REMARK                            x       y       z     vdW  Elec       q    Type
REMARK                         _______ _______ _______ _____ _____    ______ ____
ROOT
ATOM      1  C   UNL     1       1.593   0.012   0.000  0.00  0.00    +0.000 A 
ATOM      2  C   UNL     1       0.287  -0.266   0.000  0.00  0.00    +0.000 A 
ATOM      3  C   UNL     1       1.507  -0.809   0.000  0.00  0.00    +0.000 A 
ATOM      4  C   UNL     1       0.700  -0.980   0.000  0.00  0.00    +0.000 A 
ATOM      5  O   UNL     1       0.840   0.347   0.000  0.00  0.00    +0.000 OA
ENDROOT
BRANCH   1   6
ATOM      6  C   UNL     1       2.308   0.424   0.000  0.00  0.00    +0.000 C 
ATOM      7  N   UNL     1       3.022   0.012   0.000  0.00  0.00    +0.000 NA
ATOM      8  O   UNL     1       2.308   1.249   0.000  0.00  0.00    +0.000 OA
BRANCH   7   9
ATOM      9  N   UNL     1       3.737   0.424   0.000  0.00  0.00    +0.000 NA
BRANCH   9  10
ATOM     10  C   UNL     1       4.451   0.012   0.000  0.00  0.00    +0.000 C 
ATOM     11  S   UNL     1       4.451  -0.813   0.000  0.00  0.00    +0.000 S 
BRANCH  10  12
ATOM     12  N   UNL     1       5.166   0.424   0.000  0.00  0.00    +0.000 NA
ATOM     13  C   UNL     1       5.880   0.012   0.000  0.00  0.00    +0.000 C 
ENDBRANCH  10  12
ENDBRANCH   9  10
ENDBRANCH   7   9
ENDBRANCH   1   6
BRANCH   2  14
ATOM     14  C   UNL     1      -0.533  -0.180   0.000  0.00  0.00    +0.000 C 
ATOM     15  C   UNL     1      -1.353  -0.093   0.000  0.00  0.00    +0.000 C 
BRANCH  15  16
ATOM     16  C   UNL     1      -2.174  -0.007   0.000  0.00  0.00    +0.000 C 
BRANCH  16  17
ATOM     17  C   UNL     1      -2.659  -0.675   0.000  0.00  0.00    +0.000 C 
BRANCH  17  18
ATOM     18  C   UNL     1      -3.479  -0.588   0.000  0.00  0.00    +0.000 C 
ATOM     19  C   UNL     1      -3.964  -1.256   0.000  0.00  0.00    +0.000 C 
ENDBRANCH  17  18
ENDBRANCH  16  17
ENDBRANCH  15  16
ENDBRANCH   2  14
TORSDOF 8
