REMARK  Name = 32U
REMARK  7 active torsions:
REMARK  status: ('A' for Active; 'I' for Inactive)
REMARK    1  A    between atoms: C_2  and  C_3
REMARK    2  A    between atoms: N_5  and  C_6
REMARK    3  A    between atoms: C_6  and  C_7
REMARK    4  A    between atoms: C_10  and  C_11
REMARK    5  A    between atoms: C_19  and  C_20
REMARK    6  A    between atoms: C_20  and  C_22
REMARK    7  A    between atoms: C_22  and  C_24
REMARK                            x       y       z     vdW  Elec       q    Type
REMARK                         _______ _______ _______ _____ _____    ______ ____
ROOT
ATOM      1  N   UNL     1      -0.072  -1.482   0.000  0.00  0.00    +0.000 N 
ATOM      2  C   UNL     1       0.595  -0.997   0.000  0.00  0.00    +0.000 C 
ATOM      3  C   UNL     1       1.263  -1.482   0.000  0.00  0.00    +0.000 C 
ATOM      4  C   UNL     1       1.008  -2.267   0.000  0.00  0.00    +0.000 C 
ATOM      5  C   UNL     1       0.183  -2.267   0.000  0.00  0.00    +0.000 C 
ATOM      6  C   UNL     1      -0.857  -1.227   0.000  0.00  0.00    +0.000 C 
ATOM      7  O   UNL     1      -1.028  -0.420   0.000  0.00  0.00    +0.000 OA
ENDROOT
BRANCH   2   8
ATOM      8  C   UNL     1       0.595  -0.172   0.000  0.00  0.00    +0.000 C 
ATOM      9  O   UNL     1       1.310   0.240   0.000  0.00  0.00    +0.000 OA
ATOM     10  N   UNL     1      -0.119   0.240   0.000  0.00  0.00    +0.000 NA
BRANCH  10  11
ATOM     11  C   UNL     1      -0.119   1.065   0.000  0.00  0.00    +0.000 C 
BRANCH  11  12
ATOM     12  C   UNL     1       0.595   1.478   0.000  0.00  0.00    +0.000 A 
ATOM     13  C   UNL     1       1.310   1.065   0.000  0.00  0.00    +0.000 A 
ATOM     14  C   UNL     1       2.024   1.478   0.000  0.00  0.00    +0.000 A 
ATOM     15  C   UNL     1       2.024   2.303   0.000  0.00  0.00    +0.000 A 
ATOM     16  C   UNL     1       1.310   2.716   0.000  0.00  0.00    +0.000 A 
ATOM     17  C   UNL     1       0.595   2.303   0.000  0.00  0.00    +0.000 A 
BRANCH  15  18
ATOM     18  C   UNL     1       2.739   2.716   0.000  0.00  0.00    +0.000 C 
ATOM     19  N   UNL     1       2.739   3.541   0.000  0.00  0.00    +0.000 NA
ATOM     20  N   UNL     1       3.453   2.303   0.000  0.00  0.00    +0.000 NA
ENDBRANCH  15  18
ENDBRANCH  11  12
ENDBRANCH  10  11
ENDBRANCH   2   8
BRANCH   6  21
ATOM     21  C   UNL     1      -1.470  -1.779   0.000  0.00  0.00    +0.000 C 
ATOM     22  N   UNL     1      -1.298  -2.586   0.000  0.00  0.00    +0.000 NA
BRANCH  21  23
ATOM     23  C   UNL     1      -2.255  -1.524   0.000  0.00  0.00    +0.000 C 
BRANCH  23  24
ATOM     24  C   UNL     1      -2.426  -0.717   0.000  0.00  0.00    +0.000 A 
ATOM     25  C   UNL     1      -1.813  -0.165   0.000  0.00  0.00    +0.000 A 
ATOM     26  C   UNL     1      -1.984   0.642   0.000  0.00  0.00    +0.000 A 
ATOM     27  C   UNL     1      -2.769   0.897   0.000  0.00  0.00    +0.000 A 
ATOM     28  C   UNL     1      -3.382   0.345   0.000  0.00  0.00    +0.000 A 
ATOM     29  C   UNL     1      -3.211  -0.462   0.000  0.00  0.00    +0.000 A 
ENDBRANCH  23  24
ENDBRANCH  21  23
ENDBRANCH   6  21
TORSDOF 7
