REMARK  Name = 330
REMARK  5 active torsions:
REMARK  status: ('A' for Active; 'I' for Inactive)
REMARK    1  A    between atoms: C_2  and  C_7
REMARK    2  A    between atoms: C_8  and  O_28
REMARK    3  A    between atoms: C_21  and  C_22
REMARK    4  A    between atoms: C_21  and  N_30
REMARK    5  A    between atoms: C_22  and  C_23
REMARK                            x       y       z     vdW  Elec       q    Type
REMARK                         _______ _______ _______ _____ _____    ______ ____
ROOT
ATOM      1  C   UNL     1      -0.314  -3.523   0.000  0.00  0.00    +0.000 A 
ATOM      2  C   UNL     1       0.445  -3.199   0.000  0.00  0.00    +0.000 A 
ATOM      3  C   UNL     1       0.544  -2.380   0.000  0.00  0.00    +0.000 A 
ATOM      4  C   UNL     1      -0.116  -1.885   0.000  0.00  0.00    +0.000 A 
ATOM      5  C   UNL     1       0.151  -1.104   0.000  0.00  0.00    +0.000 C 
ATOM      6  C   UNL     1       1.219  -1.905   0.000  0.00  0.00    +0.000 C 
ATOM      7  C   UNL     1      -0.875  -2.209   0.000  0.00  0.00    +0.000 A 
ATOM      8  C   UNL     1      -0.974  -3.028   0.000  0.00  0.00    +0.000 A 
ATOM      9  C   UNL     1      -1.623  -1.862   0.000  0.00  0.00    +0.000 A 
ATOM     10  C   UNL     1      -2.185  -2.466   0.000  0.00  0.00    +0.000 A 
ATOM     11  C   UNL     1      -1.866  -1.073   0.000  0.00  0.00    +0.000 A 
ATOM     12  C   UNL     1      -2.989  -2.283   0.000  0.00  0.00    +0.000 A 
ATOM     13  C   UNL     1      -2.671  -0.890   0.000  0.00  0.00    +0.000 A 
ATOM     14  C   UNL     1      -3.232  -1.494   0.000  0.00  0.00    +0.000 A 
ATOM     15  O   UNL     1      -0.324  -0.429   0.000  0.00  0.00    +0.000 OA
ATOM     16  N   UNL     1       0.976  -1.117   0.000  0.00  0.00    +0.000 NA
ATOM     17  O   UNL     1       1.999  -2.172   0.000  0.00  0.00    +0.000 OA
ATOM     18  O   UNL     1      -2.914  -0.101   0.000  0.00  0.00    +0.000 OA
ATOM     19  N   UNL     1      -1.783  -3.187   0.000  0.00  0.00    +0.000 N 
ENDROOT
BRANCH   2  20
ATOM     20  C   UNL     1       1.105  -3.694   0.000  0.00  0.00    +0.000 A 
ATOM     21  C   UNL     1       1.006  -4.513   0.000  0.00  0.00    +0.000 A 
ATOM     22  C   UNL     1       1.666  -5.008   0.000  0.00  0.00    +0.000 A 
ATOM     23  C   UNL     1       2.425  -4.684   0.000  0.00  0.00    +0.000 A 
ATOM     24  C   UNL     1       2.524  -3.865   0.000  0.00  0.00    +0.000 A 
ATOM     25  C   UNL     1       1.864  -3.370   0.000  0.00  0.00    +0.000 A 
BRANCH  21  26
ATOM     26  O   UNL     1       0.248  -4.837   0.000  0.00  0.00    +0.000 OA
ATOM     27  C   UNL     1       0.149  -5.656   0.000  0.00  0.00    +0.000 C 
ENDBRANCH  21  26
ENDBRANCH   2  20
BRANCH  19  28
ATOM     28  C   UNL     1      -2.130  -3.936   0.000  0.00  0.00    +0.000 C 
BRANCH  28  29
ATOM     29  C   UNL     1      -2.952  -4.009   0.000  0.00  0.00    +0.000 C 
BRANCH  29  30
ATOM     30  C   UNL     1      -3.299  -4.758   0.000  0.00  0.00    +0.000 C 
ATOM     31  O   UNL     1      -4.120  -4.832   0.000  0.00  0.00    +0.000 OA
ENDBRANCH  29  30
ENDBRANCH  28  29
ENDBRANCH  19  28
TORSDOF 5
