REMARK  Name = 332
REMARK  3 active torsions:
REMARK  status: ('A' for Active; 'I' for Inactive)
REMARK    1  A    between atoms: C_8  and  C_9
REMARK    2  A    between atoms: C_8  and  O_10
REMARK    3  A    between atoms: O_10  and  C_11
REMARK                            x       y       z     vdW  Elec       q    Type
REMARK                         _______ _______ _______ _____ _____    ______ ____
ROOT
ATOM      1  C   UNL     1      -0.206   0.103   0.000  0.00  0.00    +0.000 C 
ENDROOT
BRANCH   1   9
ATOM      2  C   UNL     1      -0.859  -1.132   0.000  0.00  0.00    +0.000 C 
ATOM      3  O   UNL     1      -1.464  -1.693   0.000  0.00  0.00    +0.000 OA
ATOM      4  C   UNL     1      -2.280  -1.570   0.000  0.00  0.00    +0.000 A 
ATOM      5  C   UNL     1      -2.692  -0.856   0.000  0.00  0.00    +0.000 A 
ATOM      6  C   UNL     1      -2.391  -0.088   0.000  0.00  0.00    +0.000 C 
ATOM      7  N   UNL     1      -2.952   0.517   0.000  0.00  0.00    +0.000 NA
ATOM      8  N   UNL     1      -1.602   0.155   0.000  0.00  0.00    +0.000 NA
ATOM      9  C   UNL     1      -0.921  -0.309   0.000  0.00  0.00    +0.000 C 
ATOM     10  S   UNL     1      -3.499  -1.027   0.000  0.00  0.00    +0.000 S 
ATOM     11  C   UNL     1      -3.585  -1.848   0.000  0.00  0.00    +0.000 A 
ATOM     12  C   UNL     1      -2.832  -2.183   0.000  0.00  0.00    +0.000 A 
ENDBRANCH   1   9
BRANCH   1  13
ATOM     13  O   UNL     1       0.508  -0.309   0.000  0.00  0.00    +0.000 OA
BRANCH  13  14
ATOM     14  C   UNL     1       1.223   0.103   0.000  0.00  0.00    +0.000 A 
ATOM     15  C   UNL     1       1.223   0.928   0.000  0.00  0.00    +0.000 A 
ATOM     16  C   UNL     1       1.937   1.341   0.000  0.00  0.00    +0.000 A 
ATOM     17  C   UNL     1       2.652   0.928   0.000  0.00  0.00    +0.000 A 
ATOM     18  C   UNL     1       3.366   1.341   0.000  0.00  0.00    +0.000 C 
ATOM     19  C   UNL     1       4.081   0.928   0.000  0.00  0.00    +0.000 C 
ATOM     20  N   UNL     1       4.081   0.103   0.000  0.00  0.00    +0.000 NA
ATOM     21  C   UNL     1       3.366  -0.309   0.000  0.00  0.00    +0.000 C 
ATOM     22  C   UNL     1       2.652   0.103   0.000  0.00  0.00    +0.000 A 
ATOM     23  C   UNL     1       1.937  -0.309   0.000  0.00  0.00    +0.000 A 
ENDBRANCH  13  14
ENDBRANCH   1  13
TORSDOF 3
