REMARK  Name = 333
REMARK  5 active torsions:
REMARK  status: ('A' for Active; 'I' for Inactive)
REMARK    1  A    between atoms: C_9  and  O_10
REMARK    2  A    between atoms: O_10  and  C_11
REMARK    3  A    between atoms: C_16  and  O_17
REMARK    4  A    between atoms: O_17  and  C_18
REMARK    5  A    between atoms: C_23  and  N_24
REMARK                            x       y       z     vdW  Elec       q    Type
REMARK                         _______ _______ _______ _____ _____    ______ ____
ROOT
ATOM      1  C   UNL     1      -1.097  -1.791   0.000  0.00  0.00    +0.000 A 
ATOM      2  N   UNL     1      -0.383  -1.378   0.000  0.00  0.00    +0.000 NA
ATOM      3  C   UNL     1      -1.811  -1.378   0.000  0.00  0.00    +0.000 A 
ATOM      4  C   UNL     1      -1.811  -0.553   0.000  0.00  0.00    +0.000 A 
ATOM      5  N   UNL     1      -1.097  -0.141   0.000  0.00  0.00    +0.000 NA
ATOM      6  C   UNL     1      -0.383  -0.553   0.000  0.00  0.00    +0.000 A 
ENDROOT
BRANCH   1   7
ATOM      7  O   UNL     1      -1.097  -2.616   0.000  0.00  0.00    +0.000 OA
BRANCH   7  16
ATOM      8  C   UNL     1      -2.526  -2.616   0.000  0.00  0.00    +0.000 A 
ATOM      9  C   UNL     1      -3.240  -3.028   0.000  0.00  0.00    +0.000 A 
ATOM     10  O   UNL     1      -4.025  -2.773   0.000  0.00  0.00    +0.000 OA
ATOM     11  C   UNL     1      -4.510  -3.441   0.000  0.00  0.00    +0.000 C 
ATOM     12  O   UNL     1      -4.025  -4.108   0.000  0.00  0.00    +0.000 OA
ATOM     13  C   UNL     1      -3.240  -3.853   0.000  0.00  0.00    +0.000 A 
ATOM     14  C   UNL     1      -2.526  -4.266   0.000  0.00  0.00    +0.000 A 
ATOM     15  C   UNL     1      -1.811  -3.853   0.000  0.00  0.00    +0.000 A 
ATOM     16  C   UNL     1      -1.811  -3.028   0.000  0.00  0.00    +0.000 A 
ENDBRANCH   7  16
ENDBRANCH   1   7
BRANCH   6  17
ATOM     17  O   UNL     1       0.332  -0.141   0.000  0.00  0.00    +0.000 OA
BRANCH  17  18
ATOM     18  C   UNL     1       1.046  -0.553   0.000  0.00  0.00    +0.000 A 
ATOM     19  C   UNL     1       1.761  -0.141   0.000  0.00  0.00    +0.000 A 
ATOM     20  C   UNL     1       2.475  -0.553   0.000  0.00  0.00    +0.000 A 
ATOM     21  C   UNL     1       1.046  -1.378   0.000  0.00  0.00    +0.000 A 
ATOM     22  C   UNL     1       1.761  -1.791   0.000  0.00  0.00    +0.000 A 
ATOM     23  C   UNL     1       2.475  -1.378   0.000  0.00  0.00    +0.000 A 
BRANCH  23  24
ATOM     24  N   UNL     1       3.190  -1.791   0.000  0.00  0.00    +0.000 N 
ATOM     25  C   UNL     1       3.944  -1.455   0.000  0.00  0.00    +0.000 A 
ATOM     26  C   UNL     1       4.496  -2.068   0.000  0.00  0.00    +0.000 A 
ATOM     27  N   UNL     1       4.083  -2.783   0.000  0.00  0.00    +0.000 NA
ATOM     28  C   UNL     1       3.276  -2.611   0.000  0.00  0.00    +0.000 A 
ENDBRANCH  23  24
ENDBRANCH  17  18
ENDBRANCH   6  17
TORSDOF 5
