REMARK  Name = 334
REMARK  2 active torsions:
REMARK  status: ('A' for Active; 'I' for Inactive)
REMARK    1  A    between atoms: C_1  and  C_7
REMARK    2  A    between atoms: C_12  and  C_13
REMARK                            x       y       z     vdW  Elec       q    Type
REMARK                         _______ _______ _______ _____ _____    ______ ____
ROOT
ATOM      1  C   UNL     1       1.354   0.697   0.000  0.00  0.00    +0.000 A 
ATOM      2  C   UNL     1       1.354  -0.128   0.000  0.00  0.00    +0.000 A 
ATOM      3  C   UNL     1       0.640  -0.541   0.000  0.00  0.00    +0.000 A 
ATOM      4  C   UNL     1      -0.075  -0.128   0.000  0.00  0.00    +0.000 A 
ATOM      5  C   UNL     1      -0.075   0.697   0.000  0.00  0.00    +0.000 A 
ATOM      6  C   UNL     1       0.640   1.109   0.000  0.00  0.00    +0.000 A 
ATOM      7  N   UNL     1      -0.859  -0.383   0.000  0.00  0.00    +0.000 NA
ATOM      8  N   UNL     1      -0.859   0.952   0.000  0.00  0.00    +0.000 NA
ATOM      9  C   UNL     1      -1.344   0.284   0.000  0.00  0.00    +0.000 A 
ENDROOT
BRANCH   9  10
ATOM     10  C   UNL     1      -2.169   0.284   0.000  0.00  0.00    +0.000 A 
ATOM     11  C   UNL     1      -2.582  -0.430   0.000  0.00  0.00    +0.000 A 
ATOM     12  C   UNL     1      -3.407  -0.430   0.000  0.00  0.00    +0.000 A 
ATOM     13  C   UNL     1      -3.819  -1.145   0.000  0.00  0.00    +0.000 C 
ATOM     14  C   UNL     1      -3.819   0.284   0.000  0.00  0.00    +0.000 A 
ATOM     15  C   UNL     1      -3.407   0.999   0.000  0.00  0.00    +0.000 A 
ATOM     16  C   UNL     1      -2.582   0.999   0.000  0.00  0.00    +0.000 A 
ATOM     17  O   UNL     1      -2.169   1.713   0.000  0.00  0.00    +0.000 OA
ATOM     18 BR   UNL     1      -3.819   1.713   0.000  0.00  0.00    +0.000 Br
ENDBRANCH   9  10
BRANCH   1  19
ATOM     19  C   UNL     1       2.069   1.109   0.000  0.00  0.00    +0.000 C 
ATOM     20  N   UNL     1       2.783   0.697   0.000  0.00  0.00    +0.000 NA
ATOM     21  N   UNL     1       2.069   1.934   0.000  0.00  0.00    +0.000 NA
ENDBRANCH   1  19
TORSDOF 2
