REMARK  Name = 335
REMARK  8 active torsions:
REMARK  status: ('A' for Active; 'I' for Inactive)
REMARK    1  A    between atoms: O_1  and  C_9
REMARK    2  A    between atoms: O_1  and  C_12
REMARK    3  A    between atoms: N_4  and  C_6
REMARK    4  A    between atoms: N_4  and  C_8
REMARK    5  A    between atoms: C_6  and  C_7
REMARK    6  A    between atoms: C_7  and  C_9
REMARK    7  A    between atoms: C_13  and  C_18
REMARK    8  A    between atoms: C_18  and  C_19
REMARK                            x       y       z     vdW  Elec       q    Type
REMARK                         _______ _______ _______ _____ _____    ______ ____
ROOT
ATOM      1  C   UNL     1       4.508   0.285   0.000  0.00  0.00    +0.000 A 
ATOM      2  C   UNL     1       4.508   1.935   0.000  0.00  0.00    +0.000 A 
ATOM      3  C   UNL     1       5.222   0.697   0.000  0.00  0.00    +0.000 A 
ATOM      4  C   UNL     1       3.793   0.697   0.000  0.00  0.00    +0.000 A 
ATOM      5  C   UNL     1       5.222   1.522   0.000  0.00  0.00    +0.000 A 
ATOM      6  C   UNL     1       3.793   1.522   0.000  0.00  0.00    +0.000 A 
ENDROOT
BRANCH   1   7
ATOM      7  O   UNL     1       4.508  -0.540   0.000  0.00  0.00    +0.000 OA
BRANCH   7   8
ATOM      8  C   UNL     1       3.793  -0.953   0.000  0.00  0.00    +0.000 C 
BRANCH   8  10
ATOM      9  O   UNL     1       4.508  -2.190   0.000  0.00  0.00    +0.000 OA
ATOM     10  C   UNL     1       3.793  -1.778   0.000  0.00  0.00    +0.000 C 
BRANCH  10  11
ATOM     11  C   UNL     1       3.079  -2.190   0.000  0.00  0.00    +0.000 C 
BRANCH  11  12
ATOM     12  N   UNL     1       3.079  -3.015   0.000  0.00  0.00    +0.000 NA
BRANCH  12  13
ATOM     13  C   UNL     1       2.365  -3.428   0.000  0.00  0.00    +0.000 C 
ATOM     14  C   UNL     1       2.365  -4.253   0.000  0.00  0.00    +0.000 C 
ATOM     15  C   UNL     1       1.650  -3.015   0.000  0.00  0.00    +0.000 C 
ENDBRANCH  12  13
ENDBRANCH  11  12
ENDBRANCH  10  11
ENDBRANCH   8  10
ENDBRANCH   7   8
ENDBRANCH   1   7
BRANCH   2  16
ATOM     16  C   UNL     1       4.508   2.760   0.000  0.00  0.00    +0.000 C 
BRANCH  16  19
ATOM     17  O   UNL     1       5.937   2.760   0.000  0.00  0.00    +0.000 OA
ATOM     18  N   UNL     1       5.222   3.997   0.000  0.00  0.00    +0.000 NA
ATOM     19  C   UNL     1       5.222   3.172   0.000  0.00  0.00    +0.000 C 
ENDBRANCH  16  19
ENDBRANCH   2  16
TORSDOF 8
