REMARK  Name = 336
REMARK  3 active torsions:
REMARK  status: ('A' for Active; 'I' for Inactive)
REMARK    1  A    between atoms: N_5  and  C_11
REMARK    2  A    between atoms: N_6  and  N_7
REMARK    3  A    between atoms: C_9  and  C_13
REMARK                            x       y       z     vdW  Elec       q    Type
REMARK                         _______ _______ _______ _____ _____    ______ ____
ROOT
ATOM      1  O   UNL     1       3.715  -0.654   0.000  0.00  0.00    +0.000 OA
ATOM      2  C   UNL     1       4.382  -0.170   0.000  0.00  0.00    +0.000 A 
ATOM      3  C   UNL     1       4.128   0.615   0.000  0.00  0.00    +0.000 A 
ATOM      4  C   UNL     1       3.048  -0.170   0.000  0.00  0.00    +0.000 A 
ATOM      5  C   UNL     1       3.303   0.615   0.000  0.00  0.00    +0.000 A 
ENDROOT
BRANCH   4   8
ATOM      6  O   UNL     1       1.650   0.128   0.000  0.00  0.00    +0.000 OA
ATOM      7  O   UNL     1       2.091  -1.232   0.000  0.00  0.00    +0.000 OA
ATOM      8  N   UNL     1       2.263  -0.424   0.000  0.00  0.00    +0.000 N 
ENDBRANCH   4   8
BRANCH   2  10
ATOM      9  N   UNL     1       5.780   0.128   0.000  0.00  0.00    +0.000 NA
ATOM     10  C   UNL     1       5.167  -0.424   0.000  0.00  0.00    +0.000 C 
BRANCH   9  12
ATOM     11  O   UNL     1       7.006   1.232   0.000  0.00  0.00    +0.000 OA
ATOM     12  N   UNL     1       6.565  -0.128   0.000  0.00  0.00    +0.000 NA
ATOM     13  N   UNL     1       7.962   0.170   0.000  0.00  0.00    +0.000 NA
ATOM     14  C   UNL     1       7.178   0.424   0.000  0.00  0.00    +0.000 C 
ENDBRANCH   9  12
ENDBRANCH   2  10
TORSDOF 3
