REMARK  Name = 338
REMARK  1 active torsions:
REMARK  status: ('A' for Active; 'I' for Inactive)
REMARK    1  A    between atoms: C_8  and  C_10
REMARK                            x       y       z     vdW  Elec       q    Type
REMARK                         _______ _______ _______ _____ _____    ______ ____
ROOT
ATOM      1  C   UNL     1      -0.463   0.654   0.000  0.00  0.00    +0.000 A 
ATOM      2  C   UNL     1       0.252   1.067   0.000  0.00  0.00    +0.000 A 
ATOM      3  C   UNL     1       0.252   1.891   0.000  0.00  0.00    +0.000 A 
ATOM      4  C   UNL     1      -0.463   2.304   0.000  0.00  0.00    +0.000 A 
ATOM      5  C   UNL     1      -1.177   1.891   0.000  0.00  0.00    +0.000 A 
ATOM      6  C   UNL     1      -1.177   1.067   0.000  0.00  0.00    +0.000 A 
ATOM      7  C   UNL     1       0.966   0.654   0.000  0.00  0.00    +0.000 A 
ATOM      8  C   UNL     1       1.681   1.067   0.000  0.00  0.00    +0.000 A 
ATOM      9  C   UNL     1       1.681   1.891   0.000  0.00  0.00    +0.000 A 
ATOM     10  C   UNL     1       0.966   2.304   0.000  0.00  0.00    +0.000 A 
ATOM     11  O   UNL     1       0.966   3.129   0.000  0.00  0.00    +0.000 OA
ENDROOT
BRANCH   1  19
ATOM     12  C   UNL     1      -0.875  -2.869   0.000  0.00  0.00    +0.000 A 
ATOM     13  C   UNL     1      -1.288  -2.155   0.000  0.00  0.00    +0.000 A 
ATOM     14  C   UNL     1      -0.875  -1.440   0.000  0.00  0.00    +0.000 A 
ATOM     15  C   UNL     1      -0.051  -1.440   0.000  0.00  0.00    +0.000 A 
ATOM     16  C   UNL     1       0.362  -2.155   0.000  0.00  0.00    +0.000 A 
ATOM     17  C   UNL     1      -0.051  -2.869   0.000  0.00  0.00    +0.000 A 
ATOM     18  O   UNL     1      -1.130  -0.656   0.000  0.00  0.00    +0.000 OA
ATOM     19  C   UNL     1      -0.463  -0.171   0.000  0.00  0.00    +0.000 A 
ATOM     20  N   UNL     1       0.204  -0.656   0.000  0.00  0.00    +0.000 NA
ATOM     21  O   UNL     1      -1.288  -3.584   0.000  0.00  0.00    +0.000 OA
ENDBRANCH   1  19
TORSDOF 1
