REMARK  Name = 338
REMARK  5 active torsions:
REMARK  status: ('A' for Active; 'I' for Inactive)
REMARK    1  A    between atoms: S_1  and  C_8
REMARK    2  A    between atoms: S_1  and  C_11
REMARK    3  A    between atoms: O_2  and  C_13
REMARK    4  A    between atoms: O_4  and  C_20
REMARK    5  A    between atoms: C_8  and  C_9
REMARK                            x       y       z     vdW  Elec       q    Type
REMARK                         _______ _______ _______ _____ _____    ______ ____
ROOT
ATOM      1  S   UNL     1       6.595   0.497   0.000  0.00  0.00    +0.000 S 
ATOM      2  O   UNL     1       7.008   1.211   0.000  0.00  0.00    +0.000 OA
ENDROOT
BRANCH   1   5
ATOM      3  N   UNL     1       5.289   1.161   0.000  0.00  0.00    +0.000 NA
ATOM      4  N   UNL     1       5.289  -0.167   0.000  0.00  0.00    +0.000 NA
ATOM      5  C   UNL     1       5.770   0.497   0.000  0.00  0.00    +0.000 A 
ATOM      6  C   UNL     1       4.508   0.909   0.000  0.00  0.00    +0.000 A 
ATOM      7  C   UNL     1       4.508   0.084   0.000  0.00  0.00    +0.000 A 
ATOM      8  C   UNL     1       3.793   1.322   0.000  0.00  0.00    +0.000 A 
ATOM      9  C   UNL     1       3.793  -0.328   0.000  0.00  0.00    +0.000 A 
ATOM     10  C   UNL     1       3.079   0.909   0.000  0.00  0.00    +0.000 A 
ATOM     11  C   UNL     1       3.079   0.084   0.000  0.00  0.00    +0.000 A 
BRANCH  10  12
ATOM     12  O   UNL     1       2.365   1.322   0.000  0.00  0.00    +0.000 OA
ATOM     13  C   UNL     1       1.650   0.909   0.000  0.00  0.00    +0.000 C 
ENDBRANCH  10  12
ENDBRANCH   1   5
BRANCH   1  14
ATOM     14  C   UNL     1       7.008  -0.218   0.000  0.00  0.00    +0.000 C 
BRANCH  14  16
ATOM     15  N   UNL     1       8.245   0.497   0.000  0.00  0.00    +0.000 NA
ATOM     16  C   UNL     1       7.833  -0.218   0.000  0.00  0.00    +0.000 A 
ATOM     17  C   UNL     1       8.245  -0.932   0.000  0.00  0.00    +0.000 A 
ATOM     18  C   UNL     1       9.070  -0.932   0.000  0.00  0.00    +0.000 A 
ATOM     19  C   UNL     1       9.483  -0.218   0.000  0.00  0.00    +0.000 A 
ATOM     20  C   UNL     1       7.833  -1.647   0.000  0.00  0.00    +0.000 C 
ATOM     21  C   UNL     1       9.070   0.497   0.000  0.00  0.00    +0.000 A 
ATOM     22  C   UNL     1      10.308  -0.218   0.000  0.00  0.00    +0.000 C 
BRANCH  18  23
ATOM     23  O   UNL     1       9.483  -1.647   0.000  0.00  0.00    +0.000 OA
ATOM     24  C   UNL     1      10.308  -1.647   0.000  0.00  0.00    +0.000 C 
ENDBRANCH  18  23
ENDBRANCH  14  16
ENDBRANCH   1  14
TORSDOF 5
