REMARK  Name = 339
REMARK  1 active torsions:
REMARK  status: ('A' for Active; 'I' for Inactive)
REMARK    1  A    between atoms: C_5  and  C_7
REMARK                            x       y       z     vdW  Elec       q    Type
REMARK                         _______ _______ _______ _____ _____    ______ ____
ROOT
ATOM      1  N   UNL     1       4.237  -0.412   0.000  0.00  0.00    +0.000 NA
ATOM      2  N   UNL     1       4.237   1.238   0.000  0.00  0.00    +0.000 NA
ATOM      3  C   UNL     1       3.522   0.000   0.000  0.00  0.00    +0.000 A 
ATOM      4  C   UNL     1       3.522   0.825   0.000  0.00  0.00    +0.000 A 
ATOM      5  C   UNL     1       4.951   0.000   0.000  0.00  0.00    +0.000 A 
ATOM      6  C   UNL     1       4.951   0.825   0.000  0.00  0.00    +0.000 A 
ENDROOT
BRANCH   3   9
ATOM      7  O   UNL     1       2.808  -1.238   0.000  0.00  0.00    +0.000 OA
ATOM      8  N   UNL     1       2.093   0.000   0.000  0.00  0.00    +0.000 NA
ATOM      9  C   UNL     1       2.808  -0.412   0.000  0.00  0.00    +0.000 C 
ENDBRANCH   3   9
TORSDOF 1
