REMARK  Name = 33A
REMARK  5 active torsions:
REMARK  status: ('A' for Active; 'I' for Inactive)
REMARK    1  A    between atoms: C_5  and  C_7
REMARK    2  A    between atoms: C_12  and  C_13
REMARK    3  A    between atoms: C_16  and  C_18
REMARK    4  A    between atoms: N_20  and  C_21
REMARK    5  A    between atoms: C_21  and  C_22
REMARK                            x       y       z     vdW  Elec       q    Type
REMARK                         _______ _______ _______ _____ _____    ______ ____
ROOT
ATOM      1  C   UNL     1       4.020  -0.035   0.000  0.00  0.00    +0.000 A 
ATOM      2  C   UNL     1       4.275   0.750   0.000  0.00  0.00    +0.000 A 
ATOM      3  N   UNL     1       5.100   0.750   0.000  0.00  0.00    +0.000 NA
ATOM      4  C   UNL     1       5.355  -0.035   0.000  0.00  0.00    +0.000 A 
ATOM      5  C   UNL     1       4.687  -0.520   0.000  0.00  0.00    +0.000 A 
ENDROOT
BRANCH   1  10
ATOM      6  C   UNL     1       2.568   0.195   0.000  0.00  0.00    +0.000 A 
ATOM      7  C   UNL     1       1.901  -0.290   0.000  0.00  0.00    +0.000 A 
ATOM      8  N   UNL     1       2.155  -1.074   0.000  0.00  0.00    +0.000 NA
ATOM      9  N   UNL     1       2.980  -1.074   0.000  0.00  0.00    +0.000 NA
ATOM     10  C   UNL     1       3.235  -0.290   0.000  0.00  0.00    +0.000 A 
BRANCH   6  15
ATOM     11  C   UNL     1       3.282   2.258   0.000  0.00  0.00    +0.000 A 
ATOM     12  C   UNL     1       2.568   2.670   0.000  0.00  0.00    +0.000 A 
ATOM     13  C   UNL     1       1.853   2.258   0.000  0.00  0.00    +0.000 A 
ATOM     14  C   UNL     1       1.853   1.433   0.000  0.00  0.00    +0.000 A 
ATOM     15  C   UNL     1       2.568   1.020   0.000  0.00  0.00    +0.000 A 
ATOM     16  C   UNL     1       3.282   1.433   0.000  0.00  0.00    +0.000 A 
ATOM     17 CL   UNL     1       3.997   2.670   0.000  0.00  0.00    +0.000 Cl
ENDBRANCH   6  15
ENDBRANCH   1  10
BRANCH   4  18
ATOM     18  C   UNL     1       6.139  -0.290   0.000  0.00  0.00    +0.000 C 
ATOM     19  O   UNL     1       6.753   0.262   0.000  0.00  0.00    +0.000 OA
ATOM     20  N   UNL     1       6.311  -1.097   0.000  0.00  0.00    +0.000 NA
BRANCH  20  21
ATOM     21  C   UNL     1       7.096  -1.351   0.000  0.00  0.00    +0.000 C 
BRANCH  21  22
ATOM     22  C   UNL     1       7.267  -2.159   0.000  0.00  0.00    +0.000 A 
ATOM     23  C   UNL     1       8.052  -2.413   0.000  0.00  0.00    +0.000 A 
ATOM     24  C   UNL     1       8.223  -3.220   0.000  0.00  0.00    +0.000 A 
ATOM     25  C   UNL     1       7.610  -3.772   0.000  0.00  0.00    +0.000 A 
ATOM     26  C   UNL     1       6.826  -3.518   0.000  0.00  0.00    +0.000 A 
ATOM     27  C   UNL     1       6.654  -2.711   0.000  0.00  0.00    +0.000 A 
ENDBRANCH  21  22
ENDBRANCH  20  21
ENDBRANCH   4  18
TORSDOF 5
