REMARK  Name = 340
REMARK  4 active torsions:
REMARK  status: ('A' for Active; 'I' for Inactive)
REMARK    1  A    between atoms: C_6  and  O_22
REMARK    2  A    between atoms: C_9  and  C_13
REMARK    3  A    between atoms: C_13  and  O_14
REMARK    4  A    between atoms: O_14  and  C_15
REMARK                            x       y       z     vdW  Elec       q    Type
REMARK                         _______ _______ _______ _____ _____    ______ ____
ROOT
ATOM      1  C   UNL     1       2.025  -1.534   0.000  0.00  0.00    +0.000 C 
ATOM      2  C   UNL     1       1.311  -1.947   0.000  0.00  0.00    +0.000 C 
ATOM      3  C   UNL     1       0.597  -1.534   0.000  0.00  0.00    +0.000 A 
ATOM      4  C   UNL     1       0.597  -0.709   0.000  0.00  0.00    +0.000 A 
ATOM      5  C   UNL     1       1.311  -0.297   0.000  0.00  0.00    +0.000 C 
ATOM      6  C   UNL     1       2.025  -0.709   0.000  0.00  0.00    +0.000 C 
ATOM      7  N   UNL     1      -0.188  -1.789   0.000  0.00  0.00    +0.000 N 
ATOM      8  C   UNL     1      -0.673  -1.122   0.000  0.00  0.00    +0.000 A 
ATOM      9  C   UNL     1      -0.188  -0.454   0.000  0.00  0.00    +0.000 A 
ATOM     10  O   UNL     1       1.311   0.528   0.000  0.00  0.00    +0.000 OA
ATOM     11  O   UNL     1       1.311  -2.772   0.000  0.00  0.00    +0.000 OA
ATOM     12  C   UNL     1      -0.443  -2.574   0.000  0.00  0.00    +0.000 C 
ATOM     13  C   UNL     1      -1.498  -1.122   0.000  0.00  0.00    +0.000 C 
ENDROOT
BRANCH   6  14
ATOM     14  O   UNL     1       2.740  -0.297   0.000  0.00  0.00    +0.000 OA
ATOM     15  C   UNL     1       2.740   0.528   0.000  0.00  0.00    +0.000 C 
ENDBRANCH   6  14
BRANCH   9  16
ATOM     16  C   UNL     1      -0.443   0.331   0.000  0.00  0.00    +0.000 C 
BRANCH  16  17
ATOM     17  O   UNL     1      -1.250   0.502   0.000  0.00  0.00    +0.000 OA
BRANCH  17  18
ATOM     18  C   UNL     1      -1.505   1.287   0.000  0.00  0.00    +0.000 A 
ATOM     19  C   UNL     1      -2.312   1.458   0.000  0.00  0.00    +0.000 A 
ATOM     20  C   UNL     1      -2.567   2.243   0.000  0.00  0.00    +0.000 A 
ATOM     21  C   UNL     1      -2.015   2.856   0.000  0.00  0.00    +0.000 A 
ATOM     22  C   UNL     1      -1.208   2.684   0.000  0.00  0.00    +0.000 A 
ATOM     23  C   UNL     1      -0.953   1.900   0.000  0.00  0.00    +0.000 A 
ENDBRANCH  17  18
ENDBRANCH  16  17
ENDBRANCH   9  16
TORSDOF 4
