REMARK  Name = 341
REMARK  8 active torsions:
REMARK  status: ('A' for Active; 'I' for Inactive)
REMARK    1  A    between atoms: O_2  and  C_15
REMARK    2  A    between atoms: O_2  and  C_26
REMARK    3  A    between atoms: N_5  and  C_11
REMARK    4  A    between atoms: N_6  and  C_12
REMARK    5  A    between atoms: C_11  and  C_13
REMARK    6  A    between atoms: C_11  and  C_14
REMARK    7  A    between atoms: C_12  and  C_15
REMARK    8  A    between atoms: C_26  and  C_27
REMARK                            x       y       z     vdW  Elec       q    Type
REMARK                         _______ _______ _______ _____ _____    ______ ____
ROOT
ATOM      1  C   UNL     1       4.508  -2.525   0.000  0.00  0.00    +0.000 C 
ENDROOT
BRANCH   1   3
ATOM      2 CL   UNL     1       1.650  -4.175   0.000  0.00  0.00    +0.000 Cl
ATOM      3  C   UNL     1       3.793  -2.937   0.000  0.00  0.00    +0.000 A 
ATOM      4  C   UNL     1       3.793  -3.762   0.000  0.00  0.00    +0.000 A 
ATOM      5  C   UNL     1       3.079  -2.525   0.000  0.00  0.00    +0.000 A 
ATOM      6  C   UNL     1       3.079  -4.175   0.000  0.00  0.00    +0.000 A 
ATOM      7  C   UNL     1       2.365  -2.937   0.000  0.00  0.00    +0.000 A 
ATOM      8  C   UNL     1       2.365  -3.762   0.000  0.00  0.00    +0.000 A 
ENDBRANCH   1   3
BRANCH   1   9
ATOM      9  C   UNL     1       5.222  -2.937   0.000  0.00  0.00    +0.000 A 
ATOM     10  C   UNL     1       5.937  -2.525   0.000  0.00  0.00    +0.000 A 
ATOM     11  C   UNL     1       5.222  -3.762   0.000  0.00  0.00    +0.000 A 
ATOM     12  C   UNL     1       6.652  -2.937   0.000  0.00  0.00    +0.000 A 
ATOM     13  C   UNL     1       5.937  -4.175   0.000  0.00  0.00    +0.000 A 
ATOM     14  C   UNL     1       6.652  -3.762   0.000  0.00  0.00    +0.000 A 
ENDBRANCH   1   9
BRANCH   1  15
ATOM     15  N   UNL     1       4.508  -1.700   0.000  0.00  0.00    +0.000 NA
ATOM     16  N   UNL     1       4.508  -0.050   0.000  0.00  0.00    +0.000 NA
ATOM     17  C   UNL     1       5.222  -1.287   0.000  0.00  0.00    +0.000 C 
ATOM     18  C   UNL     1       3.793  -1.287   0.000  0.00  0.00    +0.000 C 
ATOM     19  C   UNL     1       5.222  -0.462   0.000  0.00  0.00    +0.000 C 
ATOM     20  C   UNL     1       3.793  -0.462   0.000  0.00  0.00    +0.000 C 
BRANCH  16  21
ATOM     21  C   UNL     1       4.508   0.775   0.000  0.00  0.00    +0.000 C 
BRANCH  21  22
ATOM     22  C   UNL     1       5.222   1.188   0.000  0.00  0.00    +0.000 C 
BRANCH  22  23
ATOM     23  O   UNL     1       5.222   2.013   0.000  0.00  0.00    +0.000 OA
BRANCH  23  24
ATOM     24  C   UNL     1       5.937   2.426   0.000  0.00  0.00    +0.000 C 
BRANCH  24  27
ATOM     25  O   UNL     1       6.652   3.663   0.000  0.00  0.00    +0.000 OA
ATOM     26  O   UNL     1       5.222   3.663   0.000  0.00  0.00    +0.000 OA
ATOM     27  C   UNL     1       5.937   3.251   0.000  0.00  0.00    +0.000 C 
ENDBRANCH  24  27
ENDBRANCH  23  24
ENDBRANCH  22  23
ENDBRANCH  21  22
ENDBRANCH  16  21
ENDBRANCH   1  15
TORSDOF 8
