REMARK  Name = 34154
REMARK  4 active torsions:
REMARK  status: ('A' for Active; 'I' for Inactive)
REMARK    1  A    between atoms: O_1  and  C_6
REMARK    2  A    between atoms: O_1  and  C_12
REMARK    3  A    between atoms: C_4  and  C_5
REMARK    4  A    between atoms: C_7  and  C_12
REMARK                            x       y       z     vdW  Elec       q    Type
REMARK                         _______ _______ _______ _____ _____    ______ ____
ROOT
ATOM      1  C   UNL     1       3.079  -1.254   0.000  0.00  0.00    +0.000 A 
ATOM      2  C   UNL     1       3.793  -0.841   0.000  0.00  0.00    +0.000 A 
ATOM      3  C   UNL     1       3.079  -2.079   0.000  0.00  0.00    +0.000 A 
ATOM      4  C   UNL     1       4.508  -1.254   0.000  0.00  0.00    +0.000 A 
ATOM      5  C   UNL     1       4.508  -2.079   0.000  0.00  0.00    +0.000 A 
ATOM      6  C   UNL     1       3.793  -2.491   0.000  0.00  0.00    +0.000 A 
ATOM      7  C   UNL     1       5.222  -2.491   0.000  0.00  0.00    +0.000 C 
ENDROOT
BRANCH   1   8
ATOM      8  C   UNL     1       2.365  -0.841   0.000  0.00  0.00    +0.000 C 
ATOM      9  C   UNL     1       1.650  -1.254   0.000  0.00  0.00    +0.000 C 
ATOM     10  C   UNL     1       2.365  -0.016   0.000  0.00  0.00    +0.000 C 
ENDBRANCH   1   8
BRANCH   2  11
ATOM     11  O   UNL     1       3.793  -0.016   0.000  0.00  0.00    +0.000 OA
BRANCH  11  12
ATOM     12  C   UNL     1       4.508   0.397   0.000  0.00  0.00    +0.000 C 
BRANCH  12  15
ATOM     13  N   UNL     1       3.841   1.706   0.000  0.00  0.00    +0.000 NA
ATOM     14  N   UNL     1       5.175   1.706   0.000  0.00  0.00    +0.000 NA
ATOM     15  C   UNL     1       4.508   1.222   0.000  0.00  0.00    +0.000 C 
ATOM     16  C   UNL     1       4.096   2.491   0.000  0.00  0.00    +0.000 C 
ATOM     17  C   UNL     1       4.920   2.491   0.000  0.00  0.00    +0.000 C 
ENDBRANCH  12  15
ENDBRANCH  11  12
ENDBRANCH   2  11
TORSDOF 4
