REMARK  Name = 342
REMARK  5 active torsions:
REMARK  status: ('A' for Active; 'I' for Inactive)
REMARK    1  A    between atoms: C_9  and  C_10
REMARK    2  A    between atoms: C_10  and  N_11
REMARK    3  A    between atoms: C_16  and  O_17
REMARK    4  A    between atoms: O_17  and  C_18
REMARK    5  A    between atoms: C_23  and  N_24
REMARK                            x       y       z     vdW  Elec       q    Type
REMARK                         _______ _______ _______ _____ _____    ______ ____
ROOT
ATOM      1  N   UNL     1      -0.035  -1.781   0.000  0.00  0.00    +0.000 NA
ATOM      2  C   UNL     1       0.680  -1.369   0.000  0.00  0.00    +0.000 C 
ATOM      3  C   UNL     1      -0.749  -1.369   0.000  0.00  0.00    +0.000 C 
ATOM      4  C   UNL     1      -0.749  -0.544   0.000  0.00  0.00    +0.000 C 
ATOM      5  C   UNL     1      -0.035  -0.131   0.000  0.00  0.00    +0.000 C 
ATOM      6  C   UNL     1       0.680  -0.544   0.000  0.00  0.00    +0.000 C 
ENDROOT
BRANCH   1   7
ATOM      7  C   UNL     1      -0.035  -2.606   0.000  0.00  0.00    +0.000 C 
BRANCH   7  16
ATOM      8  C   UNL     1      -1.464  -2.606   0.000  0.00  0.00    +0.000 A 
ATOM      9  C   UNL     1      -2.178  -3.019   0.000  0.00  0.00    +0.000 A 
ATOM     10  O   UNL     1      -2.963  -2.764   0.000  0.00  0.00    +0.000 OA
ATOM     11  C   UNL     1      -3.448  -3.431   0.000  0.00  0.00    +0.000 C 
ATOM     12  O   UNL     1      -2.963  -4.099   0.000  0.00  0.00    +0.000 OA
ATOM     13  C   UNL     1      -2.178  -3.844   0.000  0.00  0.00    +0.000 A 
ATOM     14  C   UNL     1      -1.464  -4.256   0.000  0.00  0.00    +0.000 A 
ATOM     15  C   UNL     1      -0.749  -3.844   0.000  0.00  0.00    +0.000 A 
ATOM     16  C   UNL     1      -0.749  -3.019   0.000  0.00  0.00    +0.000 A 
ENDBRANCH   7  16
ENDBRANCH   1   7
BRANCH   6  17
ATOM     17  O   UNL     1       1.394  -0.131   0.000  0.00  0.00    +0.000 OA
BRANCH  17  18
ATOM     18  C   UNL     1       2.108  -0.544   0.000  0.00  0.00    +0.000 A 
ATOM     19  C   UNL     1       2.823  -0.131   0.000  0.00  0.00    +0.000 A 
ATOM     20  C   UNL     1       3.538  -0.544   0.000  0.00  0.00    +0.000 A 
ATOM     21  C   UNL     1       2.108  -1.369   0.000  0.00  0.00    +0.000 A 
ATOM     22  C   UNL     1       2.823  -1.781   0.000  0.00  0.00    +0.000 A 
ATOM     23  C   UNL     1       3.538  -1.369   0.000  0.00  0.00    +0.000 A 
BRANCH  23  24
ATOM     24  N   UNL     1       4.252  -1.781   0.000  0.00  0.00    +0.000 N 
ATOM     25  C   UNL     1       5.006  -1.446   0.000  0.00  0.00    +0.000 A 
ATOM     26  C   UNL     1       5.558  -2.059   0.000  0.00  0.00    +0.000 A 
ATOM     27  N   UNL     1       5.145  -2.773   0.000  0.00  0.00    +0.000 NA
ATOM     28  C   UNL     1       4.338  -2.602   0.000  0.00  0.00    +0.000 A 
ENDBRANCH  23  24
ENDBRANCH  17  18
ENDBRANCH   6  17
TORSDOF 5
