REMARK  Name = 3468
REMARK  4 active torsions:
REMARK  status: ('A' for Active; 'I' for Inactive)
REMARK    1  A    between atoms: N_1  and  C_14
REMARK    2  A    between atoms: N_2  and  C_15
REMARK    3  A    between atoms: C_4  and  C_5
REMARK    4  A    between atoms: C_4  and  C_6
REMARK                            x       y       z     vdW  Elec       q    Type
REMARK                         _______ _______ _______ _____ _____    ______ ____
ROOT
ATOM      1  N   UNL     1       5.222  -2.681   0.000  0.00  0.00    +0.000 N 
ATOM      2  C   UNL     1       5.222   0.619   0.000  0.00  0.00    +0.000 C 
ATOM      3  C   UNL     1       5.222  -0.206   0.000  0.00  0.00    +0.000 C 
ATOM      4  C   UNL     1       5.937  -0.619   0.000  0.00  0.00    +0.000 C 
ATOM      5  C   UNL     1       4.508  -0.619   0.000  0.00  0.00    +0.000 C 
ATOM      6  C   UNL     1       5.222  -1.856   0.000  0.00  0.00    +0.000 C 
ATOM      7  C   UNL     1       5.937  -1.444   0.000  0.00  0.00    +0.000 C 
ATOM      8  C   UNL     1       4.508  -1.444   0.000  0.00  0.00    +0.000 C 
ATOM      9  C   UNL     1       4.508  -3.094   0.000  0.00  0.00    +0.000 C 
ATOM     10  C   UNL     1       5.937  -3.094   0.000  0.00  0.00    +0.000 C 
ENDROOT
BRANCH   2  11
ATOM     11  C   UNL     1       5.937   1.031   0.000  0.00  0.00    +0.000 A 
ATOM     12  C   UNL     1       5.937   1.856   0.000  0.00  0.00    +0.000 A 
ATOM     13  C   UNL     1       6.652   0.619   0.000  0.00  0.00    +0.000 A 
ATOM     14  C   UNL     1       7.366   1.856   0.000  0.00  0.00    +0.000 A 
ATOM     15  C   UNL     1       6.652   2.269   0.000  0.00  0.00    +0.000 A 
ATOM     16  C   UNL     1       7.366   1.031   0.000  0.00  0.00    +0.000 A 
BRANCH  14  17
ATOM     17  N   UNL     1       8.080   2.269   0.000  0.00  0.00    +0.000 N 
ATOM     18  C   UNL     1       8.080   3.094   0.000  0.00  0.00    +0.000 C 
ATOM     19  C   UNL     1       8.795   1.856   0.000  0.00  0.00    +0.000 C 
ENDBRANCH  14  17
ENDBRANCH   2  11
BRANCH   2  20
ATOM     20  C   UNL     1       4.508   1.031   0.000  0.00  0.00    +0.000 A 
ATOM     21  C   UNL     1       3.793   0.619   0.000  0.00  0.00    +0.000 A 
ATOM     22  C   UNL     1       4.508   1.856   0.000  0.00  0.00    +0.000 A 
ATOM     23  C   UNL     1       3.079   1.856   0.000  0.00  0.00    +0.000 A 
ATOM     24  C   UNL     1       3.079   1.031   0.000  0.00  0.00    +0.000 A 
ATOM     25  C   UNL     1       3.793   2.269   0.000  0.00  0.00    +0.000 A 
BRANCH  23  26
ATOM     26  N   UNL     1       2.365   2.269   0.000  0.00  0.00    +0.000 N 
ATOM     27  C   UNL     1       2.365   3.094   0.000  0.00  0.00    +0.000 C 
ATOM     28  C   UNL     1       1.650   1.856   0.000  0.00  0.00    +0.000 C 
ENDBRANCH  23  26
ENDBRANCH   2  20
TORSDOF 4
