REMARK  Name = 347
REMARK  9 active torsions:
REMARK  status: ('A' for Active; 'I' for Inactive)
REMARK    1  A    between atoms: C_3  and  C_4
REMARK    2  A    between atoms: C_4  and  N_5
REMARK    3  A    between atoms: N_5  and  C_6
REMARK    4  A    between atoms: C_9  and  S_12
REMARK    5  A    between atoms: S_12  and  C_15
REMARK    6  A    between atoms: C_15  and  C_16
REMARK    7  A    between atoms: C_16  and  C_29
REMARK    8  A    between atoms: C_22  and  O_24
REMARK    9  A    between atoms: O_24  and  C_25
REMARK                            x       y       z     vdW  Elec       q    Type
REMARK                         _______ _______ _______ _____ _____    ______ ____
ROOT
ATOM      1  C   UNL     1       0.928  -1.013   0.000  0.00  0.00    +0.000 C 
ATOM      2  C   UNL     1       1.560  -1.543   0.000  0.00  0.00    +0.000 C 
ATOM      3  C   UNL     1       1.417  -2.356   0.000  0.00  0.00    +0.000 C 
ATOM      4  N   UNL     1       0.641  -2.638   0.000  0.00  0.00    +0.000 N 
ATOM      5  C   UNL     1       0.009  -2.107   0.000  0.00  0.00    +0.000 C 
ATOM      6  C   UNL     1       0.153  -1.295   0.000  0.00  0.00    +0.000 C 
ATOM      7  C   UNL     1       0.498  -3.450   0.000  0.00  0.00    +0.000 C 
ATOM      8  O   UNL     1       1.130  -3.981   0.000  0.00  0.00    +0.000 OA
ENDROOT
BRANCH   1   9
ATOM      9  C   UNL     1       1.560  -0.482   0.000  0.00  0.00    +0.000 C 
ATOM     10  O   UNL     1       2.335  -0.765   0.000  0.00  0.00    +0.000 OA
ATOM     11  N   UNL     1       1.417   0.330   0.000  0.00  0.00    +0.000 NA
ATOM     12  O   UNL     1       0.641   0.612   0.000  0.00  0.00    +0.000 OA
ENDBRANCH   1   9
BRANCH   7  13
ATOM     13  O   UNL     1      -0.277  -3.732   0.000  0.00  0.00    +0.000 OA
BRANCH  13  14
ATOM     14  C   UNL     1      -0.909  -3.202   0.000  0.00  0.00    +0.000 C 
ATOM     15  C   UNL     1      -1.541  -2.672   0.000  0.00  0.00    +0.000 C 
ATOM     16  C   UNL     1      -0.379  -2.570   0.000  0.00  0.00    +0.000 C 
ATOM     17  C   UNL     1      -1.439  -3.834   0.000  0.00  0.00    +0.000 C 
ENDBRANCH  13  14
ENDBRANCH   7  13
BRANCH   1  18
ATOM     18  C   UNL     1       0.516  -0.298   0.000  0.00  0.00    +0.000 C 
BRANCH  18  19
ATOM     19  S   UNL     1      -0.309  -0.298   0.000  0.00  0.00    +0.000 S 
ATOM     20  O   UNL     1      -1.134  -0.298   0.000  0.00  0.00    +0.000 OA
ATOM     21  O   UNL     1      -0.309  -1.123   0.000  0.00  0.00    +0.000 OA
BRANCH  19  25
ATOM     22  C   UNL     1      -0.309   2.177   0.000  0.00  0.00    +0.000 A 
ATOM     23  C   UNL     1       0.405   1.764   0.000  0.00  0.00    +0.000 A 
ATOM     24  C   UNL     1       0.405   0.939   0.000  0.00  0.00    +0.000 A 
ATOM     25  C   UNL     1      -0.309   0.527   0.000  0.00  0.00    +0.000 A 
ATOM     26  C   UNL     1      -1.024   0.939   0.000  0.00  0.00    +0.000 A 
ATOM     27  C   UNL     1      -1.024   1.764   0.000  0.00  0.00    +0.000 A 
BRANCH  22  28
ATOM     28  N   UNL     1      -0.309   3.002   0.000  0.00  0.00    +0.000 NA
BRANCH  28  29
ATOM     29  C   UNL     1      -1.024   3.414   0.000  0.00  0.00    +0.000 C 
BRANCH  29  32
ATOM     30  C   UNL     1      -1.024   5.889   0.000  0.00  0.00    +0.000 C 
ATOM     31  C   UNL     1      -1.024   5.064   0.000  0.00  0.00    +0.000 C 
ATOM     32  C   UNL     1      -1.024   4.239   0.000  0.00  0.00    +0.000 C 
ENDBRANCH  29  32
ENDBRANCH  28  29
ENDBRANCH  22  28
ENDBRANCH  19  25
ENDBRANCH  18  19
ENDBRANCH   1  18
TORSDOF 9
