REMARK  Name = 347
REMARK  0 active torsions:
REMARK  status: ('A' for Active; 'I' for Inactive)
REMARK                            x       y       z     vdW  Elec       q    Type
REMARK                         _______ _______ _______ _____ _____    ______ ____
ROOT
ATOM      1  O   UNL     1       2.690   0.635   0.000  0.00  0.00    +0.000 OA
ATOM      2  O   UNL     1       4.554  -0.405   0.000  0.00  0.00    +0.000 OA
ATOM      3  O   UNL     1       1.650  -0.405   0.000  0.00  0.00    +0.000 OA
ATOM      4  N   UNL     1       3.102  -0.635   0.000  0.00  0.00    +0.000 N 
ATOM      5  C   UNL     1       3.515   0.635   0.000  0.00  0.00    +0.000 C 
ATOM      6  C   UNL     1       3.770  -0.150   0.000  0.00  0.00    +0.000 C 
ATOM      7  C   UNL     1       4.299   0.890   0.000  0.00  0.00    +0.000 C 
ATOM      8  C   UNL     1       3.515   1.460   0.000  0.00  0.00    +0.000 C 
ATOM      9  C   UNL     1       2.435  -0.150   0.000  0.00  0.00    +0.000 C 
ATOM     10  C   UNL     1       3.102  -1.460   0.000  0.00  0.00    +0.000 C 
ENDROOT
TORSDOF 0
