REMARK  Name = 348
REMARK  4 active torsions:
REMARK  status: ('A' for Active; 'I' for Inactive)
REMARK    1  A    between atoms: N_9  and  C_18
REMARK    2  A    between atoms: C_10  and  C_16
REMARK    3  A    between atoms: C_16  and  C_17
REMARK    4  A    between atoms: C_20  and  C_23
REMARK                            x       y       z     vdW  Elec       q    Type
REMARK                         _______ _______ _______ _____ _____    ______ ____
ROOT
ATOM      1  C   UNL     1       3.793   0.412   0.000  0.00  0.00    +0.000 A 
ATOM      2  C   UNL     1       3.079   0.000   0.000  0.00  0.00    +0.000 A 
ATOM      3  C   UNL     1       4.508   0.000   0.000  0.00  0.00    +0.000 A 
ATOM      4  C   UNL     1       3.793  -1.238   0.000  0.00  0.00    +0.000 A 
ATOM      5  C   UNL     1       3.079  -0.825   0.000  0.00  0.00    +0.000 A 
ATOM      6  C   UNL     1       4.508  -0.825   0.000  0.00  0.00    +0.000 A 
ENDROOT
BRANCH   4  10
ATOM      7  F   UNL     1       3.793  -2.888   0.000  0.00  0.00    +0.000 F 
ATOM      8  F   UNL     1       4.619  -2.062   0.000  0.00  0.00    +0.000 F 
ATOM      9  F   UNL     1       2.969  -2.062   0.000  0.00  0.00    +0.000 F 
ATOM     10  C   UNL     1       3.793  -2.062   0.000  0.00  0.00    +0.000 C 
ENDBRANCH   4  10
BRANCH   2  13
ATOM     11  O   UNL     1       1.650   0.000   0.000  0.00  0.00    +0.000 OA
ATOM     12  O   UNL     1       2.365   1.238   0.000  0.00  0.00    +0.000 OA
ATOM     13  N   UNL     1       2.365   0.412   0.000  0.00  0.00    +0.000 N 
ENDBRANCH   2  13
BRANCH   1  15
ATOM     14  O   UNL     1       3.079   1.650   0.000  0.00  0.00    +0.000 OA
ATOM     15  C   UNL     1       3.793   1.238   0.000  0.00  0.00    +0.000 C 
BRANCH  15  18
ATOM     16  O   UNL     1       5.222   0.412   0.000  0.00  0.00    +0.000 OA
ATOM     17  O   UNL     1       3.793   2.888   0.000  0.00  0.00    +0.000 OA
ATOM     18  C   UNL     1       4.508   1.650   0.000  0.00  0.00    +0.000 C 
ATOM     19  C   UNL     1       5.937   2.475   0.000  0.00  0.00    +0.000 C 
ATOM     20  C   UNL     1       5.937   1.650   0.000  0.00  0.00    +0.000 C 
ATOM     21  C   UNL     1       5.222   2.888   0.000  0.00  0.00    +0.000 C 
ATOM     22  C   UNL     1       5.222   1.238   0.000  0.00  0.00    +0.000 C 
ATOM     23  C   UNL     1       4.508   2.475   0.000  0.00  0.00    +0.000 C 
ENDBRANCH  15  18
ENDBRANCH   1  15
TORSDOF 4
