REMARK  Name = 34C
REMARK  5 active torsions:
REMARK  status: ('A' for Active; 'I' for Inactive)
REMARK    1  A    between atoms: C_4  and  C_8
REMARK    2  A    between atoms: C_7  and  O_13
REMARK    3  A    between atoms: C_8  and  C_9
REMARK    4  A    between atoms: C_10  and  C_11
REMARK    5  A    between atoms: C_10  and  O_13
REMARK                            x       y       z     vdW  Elec       q    Type
REMARK                         _______ _______ _______ _____ _____    ______ ____
ROOT
ATOM      1 CL   UNL     1       2.283   0.279   0.000  0.00  0.00    +0.000 Cl
ATOM      2  C   UNL     1       1.569  -0.133   0.000  0.00  0.00    +0.000 A 
ATOM      3  C   UNL     1       1.569  -0.958   0.000  0.00  0.00    +0.000 A 
ATOM      4  C   UNL     1       0.855  -1.371   0.000  0.00  0.00    +0.000 A 
ATOM      5  C   UNL     1       0.140  -0.958   0.000  0.00  0.00    +0.000 A 
ATOM      6  C   UNL     1       0.140  -0.133   0.000  0.00  0.00    +0.000 A 
ATOM      7  C   UNL     1       0.855   0.279   0.000  0.00  0.00    +0.000 A 
ENDROOT
BRANCH   4   8
ATOM      8  C   UNL     1       0.855  -2.196   0.000  0.00  0.00    +0.000 C 
BRANCH   8   9
ATOM      9  C   UNL     1       0.140  -2.608   0.000  0.00  0.00    +0.000 C 
ATOM     10  O   UNL     1       0.140  -3.433   0.000  0.00  0.00    +0.000 OA
ATOM     11  O   UNL     1      -0.575  -2.196   0.000  0.00  0.00    +0.000 OA
ENDBRANCH   8   9
ENDBRANCH   4   8
BRANCH   7  12
ATOM     12  O   UNL     1       0.855   1.104   0.000  0.00  0.00    +0.000 OA
BRANCH  12  13
ATOM     13  C   UNL     1       0.140   1.517   0.000  0.00  0.00    +0.000 C 
BRANCH  13  14
ATOM     14  C   UNL     1       0.140   2.342   0.000  0.00  0.00    +0.000 C 
ATOM     15  C   UNL     1      -0.575   2.754   0.000  0.00  0.00    +0.000 C 
ENDBRANCH  13  14
ENDBRANCH  12  13
ENDBRANCH   7  12
TORSDOF 5
