REMARK  Name = 34O
REMARK  5 active torsions:
REMARK  status: ('A' for Active; 'I' for Inactive)
REMARK    1  A    between atoms: C_2  and  C_8
REMARK    2  A    between atoms: C_11  and  O_12
REMARK    3  A    between atoms: C_17  and  C_18
REMARK    4  A    between atoms: C_18  and  S_19
REMARK    5  A    between atoms: S_19  and  C_20
REMARK                            x       y       z     vdW  Elec       q    Type
REMARK                         _______ _______ _______ _____ _____    ______ ____
ROOT
ATOM      1  C   UNL     1      -1.334   0.544   0.000  0.00  0.00    +0.000 A 
ATOM      2  C   UNL     1      -0.028   0.822   0.000  0.00  0.00    +0.000 A 
ATOM      3  N   UNL     1      -0.440   1.536   0.000  0.00  0.00    +0.000 NA
ATOM      4  N   UNL     1      -1.247   1.365   0.000  0.00  0.00    +0.000 NA
ATOM      5  O   UNL     1      -0.580   0.209   0.000  0.00  0.00    +0.000 OA
ENDROOT
BRANCH   1  12
ATOM      6  C   UNL     1      -4.747  -0.281   0.000  0.00  0.00    +0.000 C 
ATOM      7  C   UNL     1      -3.477  -0.693   0.000  0.00  0.00    +0.000 A 
ATOM      8  C   UNL     1      -3.477   0.132   0.000  0.00  0.00    +0.000 A 
ATOM      9  C   UNL     1      -2.763   0.544   0.000  0.00  0.00    +0.000 A 
ATOM     10  C   UNL     1      -2.763  -1.106   0.000  0.00  0.00    +0.000 A 
ATOM     11  C   UNL     1      -2.048  -0.693   0.000  0.00  0.00    +0.000 A 
ATOM     12  C   UNL     1      -2.048   0.132   0.000  0.00  0.00    +0.000 A 
ATOM     13  O   UNL     1      -4.262  -0.948   0.000  0.00  0.00    +0.000 OA
ATOM     14  O   UNL     1      -4.262   0.387   0.000  0.00  0.00    +0.000 OA
ENDBRANCH   1  12
BRANCH   2  15
ATOM     15  S   UNL     1       0.792   0.736   0.000  0.00  0.00    +0.000 S 
BRANCH  15  16
ATOM     16  C   UNL     1       1.128  -0.018   0.000  0.00  0.00    +0.000 C 
BRANCH  16  23
ATOM     17  F   UNL     1       3.739   1.145   0.000  0.00  0.00    +0.000 F 
ATOM     18  C   UNL     1       3.254   0.477   0.000  0.00  0.00    +0.000 A 
ATOM     19  C   UNL     1       3.590  -0.277   0.000  0.00  0.00    +0.000 A 
ATOM     20  C   UNL     1       3.105  -0.944   0.000  0.00  0.00    +0.000 A 
ATOM     21  C   UNL     1       2.284  -0.858   0.000  0.00  0.00    +0.000 A 
ATOM     22  C   UNL     1       2.433   0.563   0.000  0.00  0.00    +0.000 A 
ATOM     23  C   UNL     1       1.949  -0.104   0.000  0.00  0.00    +0.000 A 
BRANCH  19  24
ATOM     24  O   UNL     1       4.410  -0.363   0.000  0.00  0.00    +0.000 OA
ATOM     25  C   UNL     1       4.895   0.304   0.000  0.00  0.00    +0.000 C 
ENDBRANCH  19  24
ENDBRANCH  16  23
ENDBRANCH  15  16
ENDBRANCH   2  15
TORSDOF 5
