REMARK  Name = 34Q
REMARK  2 active torsions:
REMARK  status: ('A' for Active; 'I' for Inactive)
REMARK    1  A    between atoms: C_3  and  C_21
REMARK    2  A    between atoms: C_8  and  C_11
REMARK                            x       y       z     vdW  Elec       q    Type
REMARK                         _______ _______ _______ _____ _____    ______ ____
ROOT
ATOM      1  N   UNL     1       0.446   0.686   0.000  0.00  0.00    +0.000 N 
ATOM      2  N   UNL     1      -1.680   0.494   0.000  0.00  0.00    +0.000 NA
ATOM      3  C   UNL     1       1.160   1.098   0.000  0.00  0.00    +0.000 C 
ATOM      4  O   UNL     1       1.160   1.923   0.000  0.00  0.00    +0.000 OA
ATOM      5  C   UNL     1       0.360  -0.135   0.000  0.00  0.00    +0.000 C 
ATOM      6  C   UNL     1      -0.447  -0.306   0.000  0.00  0.00    +0.000 C 
ATOM      7  C   UNL     1      -0.860   0.408   0.000  0.00  0.00    +0.000 C 
ATOM      8  C   UNL     1      -0.308   1.021   0.000  0.00  0.00    +0.000 C 
ENDROOT
BRANCH   3  11
ATOM      9  C   UNL     1       3.304  -0.139   0.000  0.00  0.00    +0.000 A 
ATOM     10  C   UNL     1       4.018   1.098   0.000  0.00  0.00    +0.000 A 
ATOM     11  C   UNL     1       1.875   0.686   0.000  0.00  0.00    +0.000 A 
ATOM     12  C   UNL     1       1.875  -0.139   0.000  0.00  0.00    +0.000 A 
ATOM     13  N   UNL     1       2.589  -0.552   0.000  0.00  0.00    +0.000 NA
ATOM     14  C   UNL     1       3.304   0.686   0.000  0.00  0.00    +0.000 A 
ATOM     15  N   UNL     1       2.589   1.098   0.000  0.00  0.00    +0.000 NA
ATOM     16  C   UNL     1       4.733   0.686   0.000  0.00  0.00    +0.000 A 
ATOM     17  C   UNL     1       4.018  -0.552   0.000  0.00  0.00    +0.000 A 
ATOM     18  C   UNL     1       4.733  -0.139   0.000  0.00  0.00    +0.000 A 
ENDBRANCH   3  11
BRANCH   6  19
ATOM     19  C   UNL     1      -0.783  -1.060   0.000  0.00  0.00    +0.000 C 
ATOM     20  C   UNL     1      -2.016  -1.861   0.000  0.00  0.00    +0.000 C 
ATOM     21  C   UNL     1      -2.823  -1.689   0.000  0.00  0.00    +0.000 C 
ATOM     22  C   UNL     1      -2.155  -0.533   0.000  0.00  0.00    +0.000 C 
ATOM     23  C   UNL     1      -2.909  -0.869   0.000  0.00  0.00    +0.000 C 
ATOM     24  O   UNL     1      -0.298  -1.728   0.000  0.00  0.00    +0.000 OA
ATOM     25  N   UNL     1      -1.603  -1.146   0.000  0.00  0.00    +0.000 N 
ENDBRANCH   6  19
TORSDOF 2
