REMARK  Name = 34T
REMARK  1 active torsions:
REMARK  status: ('A' for Active; 'I' for Inactive)
REMARK    1  A    between atoms: S_1  and  C_10
REMARK                            x       y       z     vdW  Elec       q    Type
REMARK                         _______ _______ _______ _____ _____    ______ ____
ROOT
ATOM      1  C   UNL     1      -1.579   0.279   0.000  0.00  0.00    +0.000 C 
ATOM      2  C   UNL     1      -1.579  -0.546   0.000  0.00  0.00    +0.000 C 
ATOM      3  C   UNL     1      -0.865  -0.959   0.000  0.00  0.00    +0.000 C 
ATOM      4  C   UNL     1      -0.150  -0.546   0.000  0.00  0.00    +0.000 A 
ATOM      5  C   UNL     1       0.564  -0.959   0.000  0.00  0.00    +0.000 A 
ATOM      6  C   UNL     1       1.279  -0.546   0.000  0.00  0.00    +0.000 A 
ATOM      7  C   UNL     1       1.279   0.279   0.000  0.00  0.00    +0.000 A 
ATOM      8  C   UNL     1       0.564   0.692   0.000  0.00  0.00    +0.000 A 
ATOM      9  C   UNL     1      -0.150   0.279   0.000  0.00  0.00    +0.000 A 
ATOM     10  C   UNL     1      -2.294  -0.959   0.000  0.00  0.00    +0.000 C 
ATOM     11  N   UNL     1      -0.865   0.692   0.000  0.00  0.00    +0.000 NA
ENDROOT
BRANCH   8  12
ATOM     12  S   UNL     1       0.564   1.516   0.000  0.00  0.00    +0.000 S 
ATOM     13  O   UNL     1       1.279   1.929   0.000  0.00  0.00    +0.000 OA
ATOM     14  O   UNL     1      -0.150   1.929   0.000  0.00  0.00    +0.000 OA
ENDBRANCH   8  12
TORSDOF 1
