REMARK  Name = 3516
REMARK  1 active torsions:
REMARK  status: ('A' for Active; 'I' for Inactive)
REMARK    1  A    between atoms: C_5  and  C_9
REMARK                            x       y       z     vdW  Elec       q    Type
REMARK                         _______ _______ _______ _____ _____    ______ ____
ROOT
ATOM      1  O   UNL     1       2.808  -0.903   0.000  0.00  0.00    +0.000 OA
ATOM      2  O   UNL     1       5.665  -0.903   0.000  0.00  0.00    +0.000 OA
ATOM      3  N   UNL     1       4.237  -0.903   0.000  0.00  0.00    +0.000 NA
ATOM      4  N   UNL     1       4.951   0.334   0.000  0.00  0.00    +0.000 NA
ATOM      5  C   UNL     1       3.522   0.334   0.000  0.00  0.00    +0.000 A 
ATOM      6  C   UNL     1       3.522  -0.491   0.000  0.00  0.00    +0.000 A 
ATOM      7  C   UNL     1       4.237   0.747   0.000  0.00  0.00    +0.000 A 
ATOM      8  C   UNL     1       4.951  -0.491   0.000  0.00  0.00    +0.000 A 
ENDROOT
BRANCH   5   9
ATOM      9  C   UNL     1       2.808   0.747   0.000  0.00  0.00    +0.000 C 
ATOM     10  C   UNL     1       2.093   1.159   0.000  0.00  0.00    +0.000 C 
ENDBRANCH   5   9
TORSDOF 1
