REMARK  Name = 354
REMARK  6 active torsions:
REMARK  status: ('A' for Active; 'I' for Inactive)
REMARK    1  A    between atoms: N_2  and  C_8
REMARK    2  A    between atoms: N_3  and  C_9
REMARK    3  A    between atoms: C_8  and  C_10
REMARK    4  A    between atoms: C_8  and  C_11
REMARK    5  A    between atoms: C_9  and  C_12
REMARK    6  A    between atoms: C_13  and  C_14
REMARK                            x       y       z     vdW  Elec       q    Type
REMARK                         _______ _______ _______ _____ _____    ______ ____
ROOT
ATOM      1  N   UNL     1       4.508  -1.182   0.000  0.00  0.00    +0.000 NA
ATOM      2  N   UNL     1       4.508   0.468   0.000  0.00  0.00    +0.000 NA
ATOM      3  C   UNL     1       3.793  -0.770   0.000  0.00  0.00    +0.000 C 
ATOM      4  C   UNL     1       5.222  -0.770   0.000  0.00  0.00    +0.000 C 
ATOM      5  C   UNL     1       3.793   0.055   0.000  0.00  0.00    +0.000 C 
ATOM      6  C   UNL     1       5.222   0.055   0.000  0.00  0.00    +0.000 C 
ENDROOT
BRANCH   1   7
ATOM      7  C   UNL     1       4.508  -2.007   0.000  0.00  0.00    +0.000 C 
BRANCH   7   9
ATOM      8 CL   UNL     1       1.650  -3.657   0.000  0.00  0.00    +0.000 Cl
ATOM      9  C   UNL     1       3.793  -2.420   0.000  0.00  0.00    +0.000 A 
ATOM     10  C   UNL     1       3.793  -3.245   0.000  0.00  0.00    +0.000 A 
ATOM     11  C   UNL     1       3.079  -2.007   0.000  0.00  0.00    +0.000 A 
ATOM     12  C   UNL     1       3.079  -3.657   0.000  0.00  0.00    +0.000 A 
ATOM     13  C   UNL     1       2.365  -2.420   0.000  0.00  0.00    +0.000 A 
ATOM     14  C   UNL     1       2.365  -3.245   0.000  0.00  0.00    +0.000 A 
ENDBRANCH   7   9
BRANCH   7  15
ATOM     15  C   UNL     1       5.222  -2.420   0.000  0.00  0.00    +0.000 A 
ATOM     16  C   UNL     1       5.937  -2.007   0.000  0.00  0.00    +0.000 A 
ATOM     17  C   UNL     1       5.222  -3.245   0.000  0.00  0.00    +0.000 A 
ATOM     18  C   UNL     1       6.652  -2.420   0.000  0.00  0.00    +0.000 A 
ATOM     19  C   UNL     1       5.937  -3.657   0.000  0.00  0.00    +0.000 A 
ATOM     20  C   UNL     1       6.652  -3.245   0.000  0.00  0.00    +0.000 A 
ENDBRANCH   7  15
ENDBRANCH   1   7
BRANCH   2  21
ATOM     21  C   UNL     1       4.508   1.293   0.000  0.00  0.00    +0.000 C 
BRANCH  21  22
ATOM     22  C   UNL     1       5.222   1.705   0.000  0.00  0.00    +0.000 A 
ATOM     23  C   UNL     1       6.652   2.530   0.000  0.00  0.00    +0.000 A 
ATOM     24  C   UNL     1       5.222   2.530   0.000  0.00  0.00    +0.000 A 
ATOM     25  C   UNL     1       5.937   1.293   0.000  0.00  0.00    +0.000 A 
ATOM     26  C   UNL     1       5.937   2.943   0.000  0.00  0.00    +0.000 A 
ATOM     27  C   UNL     1       6.652   1.705   0.000  0.00  0.00    +0.000 A 
BRANCH  23  28
ATOM     28  C   UNL     1       7.366   2.943   0.000  0.00  0.00    +0.000 C 
ATOM     29  C   UNL     1       8.080   3.355   0.000  0.00  0.00    +0.000 C 
ATOM     30  C   UNL     1       6.953   3.657   0.000  0.00  0.00    +0.000 C 
ATOM     31  C   UNL     1       7.778   2.228   0.000  0.00  0.00    +0.000 C 
ENDBRANCH  23  28
ENDBRANCH  21  22
ENDBRANCH   2  21
TORSDOF 6
