REMARK  Name = 357
REMARK  7 active torsions:
REMARK  status: ('A' for Active; 'I' for Inactive)
REMARK    1  A    between atoms: C_2  and  N_13
REMARK    2  A    between atoms: C_3  and  C_9
REMARK    3  A    between atoms: C_4  and  C_6
REMARK    4  A    between atoms: C_8  and  C_9
REMARK    5  A    between atoms: N_13  and  C_15
REMARK    6  A    between atoms: C_15  and  C_16
REMARK    7  A    between atoms: C_16  and  O_17
REMARK                            x       y       z     vdW  Elec       q    Type
REMARK                         _______ _______ _______ _____ _____    ______ ____
ROOT
ATOM      1  C   UNL     1       0.755   1.427   0.000  0.00  0.00    +0.000 A 
ATOM      2  C   UNL     1       0.755   0.602   0.000  0.00  0.00    +0.000 A 
ATOM      3  C   UNL     1       0.040   0.189   0.000  0.00  0.00    +0.000 A 
ATOM      4  C   UNL     1      -0.674   0.602   0.000  0.00  0.00    +0.000 A 
ATOM      5  O   UNL     1       1.469   1.839   0.000  0.00  0.00    +0.000 OA
ATOM      6  C   UNL     1      -0.674   1.427   0.000  0.00  0.00    +0.000 A 
ATOM      7  C   UNL     1      -1.389   1.839   0.000  0.00  0.00    +0.000 C 
ATOM      8  N   UNL     1       0.040   1.839   0.000  0.00  0.00    +0.000 NA
ENDROOT
BRANCH   4   9
ATOM      9  C   UNL     1      -1.389   0.189   0.000  0.00  0.00    +0.000 C 
ATOM     10  C   UNL     1      -2.103   0.602   0.000  0.00  0.00    +0.000 C 
ENDBRANCH   4   9
BRANCH   2  11
ATOM     11  N   UNL     1       1.469   0.189   0.000  0.00  0.00    +0.000 N 
ATOM     12  C   UNL     1       1.469  -0.636   0.000  0.00  0.00    +0.000 C 
BRANCH  11  13
ATOM     13  C   UNL     1       2.183   0.602   0.000  0.00  0.00    +0.000 C 
BRANCH  13  14
ATOM     14  C   UNL     1       2.898   0.189   0.000  0.00  0.00    +0.000 C 
BRANCH  14  15
ATOM     15  O   UNL     1       3.612   0.602   0.000  0.00  0.00    +0.000 OA
ATOM     16  C   UNL     1       4.327   0.189   0.000  0.00  0.00    +0.000 C 
ENDBRANCH  14  15
ENDBRANCH  13  14
ENDBRANCH  11  13
ENDBRANCH   2  11
BRANCH   3  17
ATOM     17  C   UNL     1       0.040  -0.636   0.000  0.00  0.00    +0.000 C 
BRANCH  17  18
ATOM     18  C   UNL     1      -0.674  -1.048   0.000  0.00  0.00    +0.000 A 
ATOM     19  C   UNL     1      -0.674  -1.873   0.000  0.00  0.00    +0.000 A 
ATOM     20  C   UNL     1      -1.389  -2.286   0.000  0.00  0.00    +0.000 A 
ATOM     21  C   UNL     1      -2.103  -1.873   0.000  0.00  0.00    +0.000 A 
ATOM     22  C   UNL     1      -2.103  -1.048   0.000  0.00  0.00    +0.000 A 
ATOM     23  C   UNL     1      -2.818  -0.636   0.000  0.00  0.00    +0.000 C 
ATOM     24  C   UNL     1      -1.389  -0.636   0.000  0.00  0.00    +0.000 A 
ENDBRANCH  17  18
ENDBRANCH   3  17
TORSDOF 7
