REMARK  Name = 357
REMARK  2 active torsions:
REMARK  status: ('A' for Active; 'I' for Inactive)
REMARK    1  A    between atoms: C_5  and  C_7
REMARK    2  A    between atoms: C_5  and  C_8
REMARK                            x       y       z     vdW  Elec       q    Type
REMARK                         _______ _______ _______ _____ _____    ______ ____
ROOT
ATOM      1  O   UNL     1       1.650  -0.413   0.000  0.00  0.00    +0.000 OA
ATOM      2  O   UNL     1       3.079  -2.888   0.000  0.00  0.00    +0.000 OA
ATOM      3  N   UNL     1       2.365  -1.650   0.000  0.00  0.00    +0.000 NA
ATOM      4  C   UNL     1       3.079  -0.413   0.000  0.00  0.00    +0.000 C 
ATOM      5  C   UNL     1       3.793  -0.825   0.000  0.00  0.00    +0.000 C 
ATOM      6  C   UNL     1       3.793  -1.650   0.000  0.00  0.00    +0.000 C 
ATOM      7  C   UNL     1       2.365  -0.825   0.000  0.00  0.00    +0.000 C 
ATOM      8  C   UNL     1       3.079  -2.063   0.000  0.00  0.00    +0.000 C 
ENDROOT
BRANCH   4  10
ATOM      9  N   UNL     1       4.729   2.445   0.000  0.00  0.00    +0.000 NA
ATOM     10  C   UNL     1       3.492   0.301   0.000  0.00  0.00    +0.000 A 
ATOM     11  C   UNL     1       3.079   1.016   0.000  0.00  0.00    +0.000 A 
ATOM     12  C   UNL     1       4.317   0.301   0.000  0.00  0.00    +0.000 A 
ATOM     13  C   UNL     1       3.492   1.731   0.000  0.00  0.00    +0.000 A 
ATOM     14  C   UNL     1       4.729   1.016   0.000  0.00  0.00    +0.000 A 
ATOM     15  C   UNL     1       4.317   1.731   0.000  0.00  0.00    +0.000 A 
ENDBRANCH   4  10
BRANCH   4  16
ATOM     16  C   UNL     1       2.667   0.301   0.000  0.00  0.00    +0.000 C 
ATOM     17  C   UNL     1       1.841   0.301   0.000  0.00  0.00    +0.000 C 
ENDBRANCH   4  16
TORSDOF 2
