REMARK  Name = 358
REMARK  4 active torsions:
REMARK  status: ('A' for Active; 'I' for Inactive)
REMARK    1  A    between atoms: C_10  and  C_12
REMARK    2  A    between atoms: C_12  and  C_16
REMARK    3  A    between atoms: C_20  and  C_25
REMARK    4  A    between atoms: C_22  and  C_26
REMARK                            x       y       z     vdW  Elec       q    Type
REMARK                         _______ _______ _______ _____ _____    ______ ____
ROOT
ATOM      1  N   UNL     1       3.793  -1.223   0.000  0.00  0.00    +0.000 NA
ATOM      2  C   UNL     1       3.793   0.427   0.000  0.00  0.00    +0.000 A 
ATOM      3  C   UNL     1       4.508   0.014   0.000  0.00  0.00    +0.000 A 
ATOM      4  C   UNL     1       3.079   0.014   0.000  0.00  0.00    +0.000 A 
ATOM      5  C   UNL     1       4.508  -0.811   0.000  0.00  0.00    +0.000 A 
ATOM      6  C   UNL     1       3.079  -0.811   0.000  0.00  0.00    +0.000 A 
ATOM      7  C   UNL     1       5.245   0.455   0.000  0.00  0.00    +0.000 A 
ATOM      8  C   UNL     1       5.245  -1.252   0.000  0.00  0.00    +0.000 A 
ATOM      9  C   UNL     1       5.993   0.031   0.000  0.00  0.00    +0.000 A 
ATOM     10  C   UNL     1       5.993  -0.828   0.000  0.00  0.00    +0.000 A 
ENDROOT
BRANCH   6  14
ATOM     11  F   UNL     1       1.952  -0.509   0.000  0.00  0.00    +0.000 F 
ATOM     12  F   UNL     1       1.650  -1.636   0.000  0.00  0.00    +0.000 F 
ATOM     13  F   UNL     1       2.777  -1.938   0.000  0.00  0.00    +0.000 F 
ATOM     14  C   UNL     1       2.364  -1.223   0.000  0.00  0.00    +0.000 C 
ENDBRANCH   6  14
BRANCH   8  18
ATOM     15  F   UNL     1       4.411  -2.067   0.000  0.00  0.00    +0.000 F 
ATOM     16  F   UNL     1       6.061  -2.086   0.000  0.00  0.00    +0.000 F 
ATOM     17  F   UNL     1       5.226  -2.902   0.000  0.00  0.00    +0.000 F 
ATOM     18  C   UNL     1       5.236  -2.077   0.000  0.00  0.00    +0.000 C 
ENDBRANCH   8  18
BRANCH   2  20
ATOM     19  O   UNL     1       4.508   1.664   0.000  0.00  0.00    +0.000 OA
ATOM     20  C   UNL     1       3.793   1.252   0.000  0.00  0.00    +0.000 C 
BRANCH  20  22
ATOM     21  N   UNL     1       2.364   1.252   0.000  0.00  0.00    +0.000 NA
ATOM     22  C   UNL     1       3.079   1.664   0.000  0.00  0.00    +0.000 C 
ATOM     23  C   UNL     1       3.079   2.489   0.000  0.00  0.00    +0.000 C 
ATOM     24  C   UNL     1       2.364   2.902   0.000  0.00  0.00    +0.000 C 
ATOM     25  C   UNL     1       1.650   2.489   0.000  0.00  0.00    +0.000 C 
ATOM     26  C   UNL     1       1.650   1.664   0.000  0.00  0.00    +0.000 C 
ENDBRANCH  20  22
ENDBRANCH   2  20
TORSDOF 4
