REMARK  Name = 3585
REMARK  5 active torsions:
REMARK  status: ('A' for Active; 'I' for Inactive)
REMARK    1  A    between atoms: N_4  and  C_12
REMARK    2  A    between atoms: N_5  and  C_13
REMARK    3  A    between atoms: C_6  and  C_7
REMARK    4  A    between atoms: C_7  and  C_10
REMARK    5  A    between atoms: C_10  and  C_11
REMARK                            x       y       z     vdW  Elec       q    Type
REMARK                         _______ _______ _______ _____ _____    ______ ____
ROOT
ATOM      1  O   UNL     1       1.650  -0.048   0.000  0.00  0.00    +0.000 OA
ATOM      2  O   UNL     1       3.999   1.659   0.000  0.00  0.00    +0.000 OA
ATOM      3  N   UNL     1       3.102  -0.278   0.000  0.00  0.00    +0.000 N 
ATOM      4  N   UNL     1       3.769   0.207   0.000  0.00  0.00    +0.000 N 
ATOM      5  C   UNL     1       2.690   0.992   0.000  0.00  0.00    +0.000 C 
ATOM      6  C   UNL     1       2.435   0.207   0.000  0.00  0.00    +0.000 C 
ATOM      7  C   UNL     1       3.515   0.992   0.000  0.00  0.00    +0.000 C 
ENDROOT
BRANCH   3   9
ATOM      8  O   UNL     1       3.102  -3.578   0.000  0.00  0.00    +0.000 OA
ATOM      9  C   UNL     1       3.102  -1.103   0.000  0.00  0.00    +0.000 A 
ATOM     10  C   UNL     1       3.817  -1.516   0.000  0.00  0.00    +0.000 A 
ATOM     11  C   UNL     1       2.388  -1.516   0.000  0.00  0.00    +0.000 A 
ATOM     12  C   UNL     1       3.817  -2.341   0.000  0.00  0.00    +0.000 A 
ATOM     13  C   UNL     1       2.388  -2.341   0.000  0.00  0.00    +0.000 A 
ATOM     14  C   UNL     1       3.102  -2.753   0.000  0.00  0.00    +0.000 A 
ENDBRANCH   3   9
BRANCH   4  15
ATOM     15  C   UNL     1       4.554  -0.048   0.000  0.00  0.00    +0.000 A 
ATOM     16  C   UNL     1       5.167   0.504   0.000  0.00  0.00    +0.000 A 
ATOM     17  C   UNL     1       4.726  -0.855   0.000  0.00  0.00    +0.000 A 
ATOM     18  C   UNL     1       5.952   0.249   0.000  0.00  0.00    +0.000 A 
ATOM     19  C   UNL     1       5.510  -1.110   0.000  0.00  0.00    +0.000 A 
ATOM     20  C   UNL     1       6.123  -0.558   0.000  0.00  0.00    +0.000 A 
ENDBRANCH   4  15
BRANCH   5  21
ATOM     21  C   UNL     1       2.205   1.659   0.000  0.00  0.00    +0.000 C 
BRANCH  21  22
ATOM     22  C   UNL     1       2.540   2.413   0.000  0.00  0.00    +0.000 C 
BRANCH  22  23
ATOM     23  C   UNL     1       2.055   3.080   0.000  0.00  0.00    +0.000 C 
ATOM     24  C   UNL     1       2.391   3.834   0.000  0.00  0.00    +0.000 C 
ENDBRANCH  22  23
ENDBRANCH  21  22
ENDBRANCH   5  21
TORSDOF 5
