REMARK  Name = 359
REMARK  2 active torsions:
REMARK  status: ('A' for Active; 'I' for Inactive)
REMARK    1  A    between atoms: S_1  and  N_4
REMARK    2  A    between atoms: S_1  and  C_8
REMARK                            x       y       z     vdW  Elec       q    Type
REMARK                         _______ _______ _______ _____ _____    ______ ____
ROOT
ATOM      1  S   UNL     1       2.475   0.540   0.000  0.00  0.00    +0.000 S 
ATOM      2  O   UNL     1       1.650   0.540   0.000  0.00  0.00    +0.000 OA
ATOM      3  O   UNL     1       3.300   0.540   0.000  0.00  0.00    +0.000 OA
ENDROOT
BRANCH   1   4
ATOM      4  N   UNL     1       2.475   1.365   0.000  0.00  0.00    +0.000 NA
ATOM      5  N   UNL     1       3.189   2.603   0.000  0.00  0.00    +0.000 NA
ATOM      6  N   UNL     1       3.904   1.365   0.000  0.00  0.00    +0.000 NA
ATOM      7  C   UNL     1       3.189   1.778   0.000  0.00  0.00    +0.000 A 
ATOM      8  C   UNL     1       3.904   3.015   0.000  0.00  0.00    +0.000 A 
ATOM      9  C   UNL     1       4.619   1.778   0.000  0.00  0.00    +0.000 A 
ATOM     10  C   UNL     1       4.619   2.603   0.000  0.00  0.00    +0.000 A 
ENDBRANCH   1   4
BRANCH   1  12
ATOM     11  N   UNL     1       2.475  -2.760   0.000  0.00  0.00    +0.000 NA
ATOM     12  C   UNL     1       2.475  -0.285   0.000  0.00  0.00    +0.000 A 
ATOM     13  C   UNL     1       1.761  -0.697   0.000  0.00  0.00    +0.000 A 
ATOM     14  C   UNL     1       3.189  -0.697   0.000  0.00  0.00    +0.000 A 
ATOM     15  C   UNL     1       2.475  -1.935   0.000  0.00  0.00    +0.000 A 
ATOM     16  C   UNL     1       1.761  -1.522   0.000  0.00  0.00    +0.000 A 
ATOM     17  C   UNL     1       3.189  -1.522   0.000  0.00  0.00    +0.000 A 
ENDBRANCH   1  12
TORSDOF 2
