REMARK  Name = 35A
REMARK  2 active torsions:
REMARK  status: ('A' for Active; 'I' for Inactive)
REMARK    1  A    between atoms: C_21  and  N_22
REMARK    2  A    between atoms: N_22  and  S_23
REMARK                            x       y       z     vdW  Elec       q    Type
REMARK                         _______ _______ _______ _____ _____    ______ ____
ROOT
ATOM      1  C   UNL     1      -0.993   0.745   0.000  0.00  0.00    +0.000 A 
ATOM      2  C   UNL     1      -0.610   0.014   0.000  0.00  0.00    +0.000 A 
ATOM      3  C   UNL     1       4.126   0.014   0.000  0.00  0.00    +0.000 A 
ATOM      4  C   UNL     1       3.743   0.745   0.000  0.00  0.00    +0.000 A 
ATOM      5  O   UNL     1       0.204   2.031   0.000  0.00  0.00    +0.000 OA
ATOM      6  C   UNL     1      -0.500   1.601   0.000  0.00  0.00    +0.000 C 
ATOM      7  C   UNL     1       2.918   0.777   0.000  0.00  0.00    +0.000 A 
ATOM      8  C   UNL     1       2.488   1.481   0.000  0.00  0.00    +0.000 C 
ATOM      9  C   UNL     1       1.821   1.967   0.000  0.00  0.00    +0.000 C 
ATOM     10  C   UNL     1       3.686  -0.683   0.000  0.00  0.00    +0.000 A 
ATOM     11  C   UNL     1       2.861  -0.650   0.000  0.00  0.00    +0.000 A 
ATOM     12  C   UNL     1       2.478   0.080   0.000  0.00  0.00    +0.000 A 
ATOM     13  C   UNL     1       0.047  -1.873   0.000  0.00  0.00    +0.000 C 
ATOM     14  C   UNL     1       0.850  -2.066   0.000  0.00  0.00    +0.000 C 
ATOM     15  C   UNL     1       1.664  -1.937   0.000  0.00  0.00    +0.000 C 
ATOM     16  C   UNL     1       2.368  -1.507   0.000  0.00  0.00    +0.000 C 
ATOM     17  C   UNL     1      -1.050  -0.683   0.000  0.00  0.00    +0.000 A 
ATOM     18  C   UNL     1      -0.620  -1.387   0.000  0.00  0.00    +0.000 C 
ATOM     19  N   UNL     1      -1.875  -0.650   0.000  0.00  0.00    +0.000 NA
ATOM     20  C   UNL     1      -1.817   0.777   0.000  0.00  0.00    +0.000 A 
ATOM     21  C   UNL     1      -2.258   0.080   0.000  0.00  0.00    +0.000 A 
ATOM     22  C   UNL     1       0.817  -2.890   0.000  0.00  0.00    +0.000 C 
ATOM     23  C   UNL     1       1.019   2.160   0.000  0.00  0.00    +0.000 C 
ATOM     24  O   UNL     1       1.052   2.984   0.000  0.00  0.00    +0.000 OA
ATOM     25  C   UNL     1       2.438   2.514   0.000  0.00  0.00    +0.000 C 
ATOM     26  N   UNL     1       1.837   2.791   0.000  0.00  0.00    +0.000 NA
ENDROOT
BRANCH  21  27
ATOM     27  N   UNL     1      -3.083   0.113   0.000  0.00  0.00    +0.000 N 
ATOM     28  C   UNL     1      -3.466   0.843   0.000  0.00  0.00    +0.000 C 
BRANCH  27  29
ATOM     29  S   UNL     1      -3.523  -0.584   0.000  0.00  0.00    +0.000 S 
ATOM     30  C   UNL     1      -3.964  -1.282   0.000  0.00  0.00    +0.000 C 
ATOM     31  O   UNL     1      -4.221  -0.144   0.000  0.00  0.00    +0.000 OA
ATOM     32  O   UNL     1      -2.826  -1.025   0.000  0.00  0.00    +0.000 OA
ENDBRANCH  27  29
ENDBRANCH  21  27
TORSDOF 2
