REMARK  Name = 35F
REMARK  4 active torsions:
REMARK  status: ('A' for Active; 'I' for Inactive)
REMARK    1  A    between atoms: C_4  and  C_20
REMARK    2  A    between atoms: C_7  and  C_25
REMARK    3  A    between atoms: C_9  and  C_10
REMARK    4  A    between atoms: N_16  and  C_17
REMARK                            x       y       z     vdW  Elec       q    Type
REMARK                         _______ _______ _______ _____ _____    ______ ____
ROOT
ATOM      1  C   UNL     1      -0.073  -0.131   0.000  0.00  0.00    +0.000 A 
ATOM      2  C   UNL     1      -0.582  -1.700   0.000  0.00  0.00    +0.000 A 
ATOM      3  C   UNL     1       0.479  -0.744   0.000  0.00  0.00    +0.000 A 
ATOM      4  C   UNL     1      -1.135  -1.087   0.000  0.00  0.00    +0.000 A 
ATOM      5  C   UNL     1      -0.879  -0.302   0.000  0.00  0.00    +0.000 A 
ATOM      6  C   UNL     1       0.225  -1.528   0.000  0.00  0.00    +0.000 A 
ENDROOT
BRANCH   1  10
ATOM      7  C   UNL     1       1.681   0.496   0.000  0.00  0.00    +0.000 A 
ATOM      8  C   UNL     1       0.967   0.909   0.000  0.00  0.00    +0.000 A 
ATOM      9  C   UNL     1       0.967   1.734   0.000  0.00  0.00    +0.000 A 
ATOM     10  C   UNL     1       0.182   0.654   0.000  0.00  0.00    +0.000 A 
ATOM     11  N   UNL     1      -0.303   1.321   0.000  0.00  0.00    +0.000 NA
ATOM     12  N   UNL     1       0.182   1.989   0.000  0.00  0.00    +0.000 NA
ATOM     13  C   UNL     1       1.681   2.146   0.000  0.00  0.00    +0.000 A 
ATOM     14  C   UNL     1       2.396   1.734   0.000  0.00  0.00    +0.000 A 
ATOM     15  C   UNL     1       2.396   0.909   0.000  0.00  0.00    +0.000 A 
BRANCH  15  16
ATOM     16  C   UNL     1       3.110   0.496   0.000  0.00  0.00    +0.000 A 
ATOM     17  C   UNL     1       4.416   0.219   0.000  0.00  0.00    +0.000 A 
ATOM     18  N   UNL     1       3.864   0.832   0.000  0.00  0.00    +0.000 NA
ATOM     19  N   UNL     1       4.004  -0.496   0.000  0.00  0.00    +0.000 NA
ATOM     20  N   UNL     1       3.197  -0.324   0.000  0.00  0.00    +0.000 NA
ENDBRANCH  15  16
ENDBRANCH   1  10
BRANCH   4  23
ATOM     21  C   UNL     1      -2.494  -0.645   0.000  0.00  0.00    +0.000 C 
ATOM     22  O   UNL     1      -2.239   0.139   0.000  0.00  0.00    +0.000 OA
ATOM     23  N   UNL     1      -1.941  -1.258   0.000  0.00  0.00    +0.000 NA
BRANCH  21  24
ATOM     24  C   UNL     1      -3.300  -0.817   0.000  0.00  0.00    +0.000 A 
ATOM     25  C   UNL     1      -4.628  -0.677   0.000  0.00  0.00    +0.000 A 
ATOM     26  O   UNL     1      -3.636  -1.571   0.000  0.00  0.00    +0.000 OA
ATOM     27  C   UNL     1      -4.457  -1.484   0.000  0.00  0.00    +0.000 A 
ATOM     28  C   UNL     1      -3.913  -0.265   0.000  0.00  0.00    +0.000 A 
ENDBRANCH  21  24
ENDBRANCH   4  23
TORSDOF 4
