REMARK  Name = 361
REMARK  1 active torsions:
REMARK  status: ('A' for Active; 'I' for Inactive)
REMARK    1  A    between atoms: C_6  and  C_10
REMARK                            x       y       z     vdW  Elec       q    Type
REMARK                         _______ _______ _______ _____ _____    ______ ____
ROOT
ATOM      1  C   UNL     1      -0.766   0.238   0.000  0.00  0.00    +0.000 C 
ATOM      2  C   UNL     1      -0.511  -0.546   0.000  0.00  0.00    +0.000 C 
ATOM      3  N   UNL     1      -1.063  -1.160   0.000  0.00  0.00    +0.000 NA
ATOM      4  C   UNL     1       0.296  -0.718   0.000  0.00  0.00    +0.000 C 
ATOM      5  N   UNL     1       0.848  -0.105   0.000  0.00  0.00    +0.000 N 
ATOM      6  C   UNL     1       1.673  -0.105   0.000  0.00  0.00    +0.000 A 
ATOM      7  C   UNL     1       1.928   0.680   0.000  0.00  0.00    +0.000 A 
ATOM      8  N   UNL     1       1.261   1.165   0.000  0.00  0.00    +0.000 NA
ATOM      9  C   UNL     1       0.593   0.680   0.000  0.00  0.00    +0.000 A 
ATOM     10  C   UNL     1      -0.214   0.851   0.000  0.00  0.00    +0.000 C 
ATOM     11  C   UNL     1       2.735   0.851   0.000  0.00  0.00    +0.000 A 
ATOM     12  N   UNL     1       3.287   0.238   0.000  0.00  0.00    +0.000 NA
ATOM     13  C   UNL     1       3.032  -0.546   0.000  0.00  0.00    +0.000 A 
ATOM     14  C   UNL     1       2.225  -0.718   0.000  0.00  0.00    +0.000 A 
ENDROOT
BRANCH   1  20
ATOM     15  F   UNL     1      -3.484  -0.645   0.000  0.00  0.00    +0.000 F 
ATOM     16  C   UNL     1      -2.932  -0.032   0.000  0.00  0.00    +0.000 A 
ATOM     17  C   UNL     1      -3.187   0.753   0.000  0.00  0.00    +0.000 A 
ATOM     18  F   UNL     1      -3.994   0.924   0.000  0.00  0.00    +0.000 F 
ATOM     19  C   UNL     1      -2.125  -0.203   0.000  0.00  0.00    +0.000 A 
ATOM     20  C   UNL     1      -1.573   0.410   0.000  0.00  0.00    +0.000 A 
ATOM     21  C   UNL     1      -1.828   1.194   0.000  0.00  0.00    +0.000 A 
ATOM     22  F   UNL     1      -1.276   1.807   0.000  0.00  0.00    +0.000 F 
ATOM     23  C   UNL     1      -2.635   1.366   0.000  0.00  0.00    +0.000 A 
ENDBRANCH   1  20
TORSDOF 1
