REMARK  Name = 365
REMARK  3 active torsions:
REMARK  status: ('A' for Active; 'I' for Inactive)
REMARK    1  A    between atoms: N_5  and  C_8
REMARK    2  A    between atoms: N_6  and  C_14
REMARK    3  A    between atoms: C_21  and  C_26
REMARK                            x       y       z     vdW  Elec       q    Type
REMARK                         _______ _______ _______ _____ _____    ______ ____
ROOT
ATOM      1  F   UNL     1       7.149   1.461   0.000  0.00  0.00    +0.000 F 
ATOM      2  O   UNL     1       4.236   2.266   0.000  0.00  0.00    +0.000 OA
ATOM      3  N   UNL     1       4.236  -0.209   0.000  0.00  0.00    +0.000 N 
ATOM      4  C   UNL     1       4.951   0.203   0.000  0.00  0.00    +0.000 A 
ATOM      5  C   UNL     1       3.522   0.203   0.000  0.00  0.00    +0.000 A 
ATOM      6  C   UNL     1       4.951   1.028   0.000  0.00  0.00    +0.000 A 
ATOM      7  C   UNL     1       6.436   0.186   0.000  0.00  0.00    +0.000 A 
ATOM      8  C   UNL     1       5.688  -0.238   0.000  0.00  0.00    +0.000 A 
ATOM      9  C   UNL     1       5.688   1.469   0.000  0.00  0.00    +0.000 A 
ATOM     10  C   UNL     1       3.522   1.028   0.000  0.00  0.00    +0.000 A 
ATOM     11  C   UNL     1       4.236   1.441   0.000  0.00  0.00    +0.000 A 
ATOM     12  C   UNL     1       6.436   1.046   0.000  0.00  0.00    +0.000 A 
ATOM     13  C   UNL     1       5.679   2.294   0.000  0.00  0.00    +0.000 C 
ENDROOT
BRANCH   7  14
ATOM     14  N   UNL     1       7.149  -0.229   0.000  0.00  0.00    +0.000 N 
ATOM     15  N   UNL     1       8.575  -1.060   0.000  0.00  0.00    +0.000 NA
ATOM     16  C   UNL     1       7.146  -1.054   0.000  0.00  0.00    +0.000 C 
ATOM     17  C   UNL     1       7.859  -1.469   0.000  0.00  0.00    +0.000 C 
ATOM     18  C   UNL     1       7.865   0.181   0.000  0.00  0.00    +0.000 C 
ATOM     19  C   UNL     1       8.578  -0.235   0.000  0.00  0.00    +0.000 C 
ATOM     20  C   UNL     1       7.855  -2.294   0.000  0.00  0.00    +0.000 C 
ENDBRANCH   7  14
BRANCH  10  23
ATOM     21  O   UNL     1       2.093   1.028   0.000  0.00  0.00    +0.000 OA
ATOM     22  O   UNL     1       2.808   2.266   0.000  0.00  0.00    +0.000 OA
ATOM     23  C   UNL     1       2.808   1.441   0.000  0.00  0.00    +0.000 C 
ENDBRANCH  10  23
BRANCH   3  24
ATOM     24  C   UNL     1       4.236  -1.034   0.000  0.00  0.00    +0.000 C 
ATOM     25  C   UNL     1       4.649  -1.749   0.000  0.00  0.00    +0.000 C 
ATOM     26  C   UNL     1       3.824  -1.749   0.000  0.00  0.00    +0.000 C 
ENDBRANCH   3  24
TORSDOF 3
