REMARK  Name = 367
REMARK  8 active torsions:
REMARK  status: ('A' for Active; 'I' for Inactive)
REMARK    1  A    between atoms: C_2  and  N_14
REMARK    2  A    between atoms: C_8  and  C_11
REMARK    3  A    between atoms: C_15  and  C_17
REMARK    4  A    between atoms: C_21  and  S_23
REMARK    5  A    between atoms: S_23  and  O_24
REMARK    6  A    between atoms: O_24  and  C_27
REMARK    7  A    between atoms: C_27  and  C_28
REMARK    8  A    between atoms: C_28  and  C_29
REMARK                            x       y       z     vdW  Elec       q    Type
REMARK                         _______ _______ _______ _____ _____    ______ ____
ROOT
ATOM      1  N   UNL     1       0.346   0.375   0.000  0.00  0.00    +0.000 NA
ATOM      2  C   UNL     1       1.060   0.787   0.000  0.00  0.00    +0.000 C 
ATOM      3  O   UNL     1       1.775   0.375   0.000  0.00  0.00    +0.000 OA
ENDROOT
BRANCH   1   5
ATOM      4  C   UNL     1      -0.369  -0.863   0.000  0.00  0.00    +0.000 A 
ATOM      5  C   UNL     1       0.346  -0.450   0.000  0.00  0.00    +0.000 A 
ATOM      6  C   UNL     1       1.060  -0.863   0.000  0.00  0.00    +0.000 A 
ATOM      7  C   UNL     1       1.060  -1.688   0.000  0.00  0.00    +0.000 A 
ATOM      8  C   UNL     1       0.346  -2.100   0.000  0.00  0.00    +0.000 A 
ATOM      9  C   UNL     1      -0.369  -1.688   0.000  0.00  0.00    +0.000 A 
ATOM     10  C   UNL     1      -1.083  -0.450   0.000  0.00  0.00    +0.000 A 
ATOM     11  C   UNL     1      -1.798  -0.863   0.000  0.00  0.00    +0.000 A 
ATOM     12  C   UNL     1      -1.083  -2.100   0.000  0.00  0.00    +0.000 A 
ATOM     13  C   UNL     1      -1.798  -1.688   0.000  0.00  0.00    +0.000 A 
BRANCH  11  14
ATOM     14  C   UNL     1      -2.512  -0.450   0.000  0.00  0.00    +0.000 C 
ATOM     15  N   UNL     1      -3.227  -0.863   0.000  0.00  0.00    +0.000 NA
ATOM     16  N   UNL     1      -2.512   0.375   0.000  0.00  0.00    +0.000 NA
ENDBRANCH  11  14
ENDBRANCH   1   5
BRANCH   2  17
ATOM     17  C   UNL     1       1.060   1.612   0.000  0.00  0.00    +0.000 A 
ATOM     18  C   UNL     1       0.346   2.025   0.000  0.00  0.00    +0.000 A 
ATOM     19  C   UNL     1       0.346   2.850   0.000  0.00  0.00    +0.000 A 
ATOM     20  C   UNL     1       1.060   3.262   0.000  0.00  0.00    +0.000 A 
ATOM     21  C   UNL     1       1.775   2.850   0.000  0.00  0.00    +0.000 A 
ATOM     22  C   UNL     1       1.775   2.025   0.000  0.00  0.00    +0.000 A 
BRANCH  21  23
ATOM     23  S   UNL     1       2.489   3.262   0.000  0.00  0.00    +0.000 S 
ATOM     24  O   UNL     1       2.902   2.548   0.000  0.00  0.00    +0.000 OA
ATOM     25  O   UNL     1       2.077   3.977   0.000  0.00  0.00    +0.000 OA
BRANCH  23  26
ATOM     26  O   UNL     1       3.204   3.675   0.000  0.00  0.00    +0.000 OA
BRANCH  26  27
ATOM     27  C   UNL     1       3.918   3.262   0.000  0.00  0.00    +0.000 C 
BRANCH  27  28
ATOM     28  C   UNL     1       4.633   3.675   0.000  0.00  0.00    +0.000 C 
BRANCH  28  29
ATOM     29  C   UNL     1       5.347   3.262   0.000  0.00  0.00    +0.000 C 
ATOM     30  O   UNL     1       6.061   3.675   0.000  0.00  0.00    +0.000 OA
ENDBRANCH  28  29
ENDBRANCH  27  28
ENDBRANCH  26  27
ENDBRANCH  23  26
ENDBRANCH  21  23
ENDBRANCH   2  17
TORSDOF 8
