REMARK  Name = 369
REMARK  6 active torsions:
REMARK  status: ('A' for Active; 'I' for Inactive)
REMARK    1  A    between atoms: P_1  and  C_14
REMARK    2  A    between atoms: O_2  and  C_11
REMARK    3  A    between atoms: O_2  and  C_14
REMARK    4  A    between atoms: N_8  and  C_12
REMARK    5  A    between atoms: C_11  and  C_12
REMARK    6  A    between atoms: C_11  and  C_13
REMARK                            x       y       z     vdW  Elec       q    Type
REMARK                         _______ _______ _______ _____ _____    ______ ____
ROOT
ATOM      1  C   UNL     1       3.793  -0.412   0.000  0.00  0.00    +0.000 C 
ENDROOT
BRANCH   1   3
ATOM      2  O   UNL     1       5.222  -0.412   0.000  0.00  0.00    +0.000 OA
ATOM      3  C   UNL     1       4.508   0.000   0.000  0.00  0.00    +0.000 C 
ENDBRANCH   1   3
BRANCH   1   4
ATOM      4  O   UNL     1       3.793  -1.238   0.000  0.00  0.00    +0.000 OA
BRANCH   4   5
ATOM      5  C   UNL     1       4.508  -1.650   0.000  0.00  0.00    +0.000 C 
BRANCH   5   6
ATOM      6  P   UNL     1       4.508  -2.475   0.000  0.00  0.00    +0.000 P 
ATOM      7  O   UNL     1       4.508  -3.300   0.000  0.00  0.00    +0.000 OA
ATOM      8  O   UNL     1       5.333  -2.475   0.000  0.00  0.00    +0.000 OA
ATOM      9  O   UNL     1       3.683  -2.475   0.000  0.00  0.00    +0.000 OA
ENDBRANCH   5   6
ENDBRANCH   4   5
ENDBRANCH   1   4
BRANCH   1  10
ATOM     10  C   UNL     1       3.079   0.000   0.000  0.00  0.00    +0.000 C 
BRANCH  10  12
ATOM     11  O   UNL     1       1.650   0.825   0.000  0.00  0.00    +0.000 OA
ATOM     12  N   UNL     1       3.079   0.825   0.000  0.00  0.00    +0.000 N 
ATOM     13  N   UNL     1       2.365   2.062   0.000  0.00  0.00    +0.000 NA
ATOM     14  N   UNL     1       3.079   3.300   0.000  0.00  0.00    +0.000 NA
ATOM     15  C   UNL     1       3.793   1.238   0.000  0.00  0.00    +0.000 A 
ATOM     16  C   UNL     1       2.365   1.238   0.000  0.00  0.00    +0.000 A 
ATOM     17  C   UNL     1       3.793   2.062   0.000  0.00  0.00    +0.000 A 
ATOM     18  C   UNL     1       3.079   2.475   0.000  0.00  0.00    +0.000 A 
ENDBRANCH  10  12
ENDBRANCH   1  10
TORSDOF 6
