REMARK  Name = 371
REMARK  2 active torsions:
REMARK  status: ('A' for Active; 'I' for Inactive)
REMARK    1  A    between atoms: C_2  and  C_12
REMARK    2  A    between atoms: C_8  and  N_24
REMARK                            x       y       z     vdW  Elec       q    Type
REMARK                         _______ _______ _______ _____ _____    ______ ____
ROOT
ATOM      1  O   UNL     1      -0.105  -2.339   0.000  0.00  0.00    +0.000 OA
ATOM      2  C   UNL     1      -0.820  -2.751   0.000  0.00  0.00    +0.000 A 
ATOM      3  C   UNL     1      -0.820  -3.576   0.000  0.00  0.00    +0.000 A 
ATOM      4  C   UNL     1      -0.105  -3.989   0.000  0.00  0.00    +0.000 A 
ATOM      5  C   UNL     1       1.324  -3.989   0.000  0.00  0.00    +0.000 A 
ATOM      6  C   UNL     1       2.038  -3.576   0.000  0.00  0.00    +0.000 A 
ATOM      7  C   UNL     1       2.038  -2.751   0.000  0.00  0.00    +0.000 A 
ATOM      8  C   UNL     1       1.324  -2.339   0.000  0.00  0.00    +0.000 A 
ATOM      9  C   UNL     1       0.609  -2.751   0.000  0.00  0.00    +0.000 A 
ATOM     10  C   UNL     1       0.609  -3.576   0.000  0.00  0.00    +0.000 A 
ATOM     11  O   UNL     1      -0.105  -4.814   0.000  0.00  0.00    +0.000 OA
ATOM     12  C   UNL     1       2.753  -3.989   0.000  0.00  0.00    +0.000 C 
ATOM     13  O   UNL     1      -1.534  -3.989   0.000  0.00  0.00    +0.000 OA
ENDROOT
BRANCH   2  14
ATOM     14  C   UNL     1      -1.534  -2.339   0.000  0.00  0.00    +0.000 A 
ATOM     15  C   UNL     1      -2.248  -2.751   0.000  0.00  0.00    +0.000 A 
ATOM     16  C   UNL     1      -2.963  -2.339   0.000  0.00  0.00    +0.000 A 
ATOM     17  C   UNL     1      -2.963  -1.514   0.000  0.00  0.00    +0.000 A 
ATOM     18  C   UNL     1      -2.248  -1.101   0.000  0.00  0.00    +0.000 A 
ATOM     19  C   UNL     1      -1.534  -1.514   0.000  0.00  0.00    +0.000 A 
ATOM     20  O   UNL     1      -2.248  -0.276   0.000  0.00  0.00    +0.000 OA
ATOM     21  O   UNL     1      -3.677  -1.101   0.000  0.00  0.00    +0.000 OA
ENDBRANCH   2  14
BRANCH   8  24
ATOM     22  C   UNL     1       0.911  -0.244   0.000  0.00  0.00    +0.000 C 
ATOM     23  C   UNL     1       0.656  -1.029   0.000  0.00  0.00    +0.000 C 
ATOM     24  N   UNL     1       1.324  -1.514   0.000  0.00  0.00    +0.000 N 
ATOM     25  S   UNL     1       1.991  -1.029   0.000  0.00  0.00    +0.000 S 
ATOM     26  C   UNL     1       1.736  -0.244   0.000  0.00  0.00    +0.000 C 
ATOM     27  O   UNL     1       2.550  -1.636   0.000  0.00  0.00    +0.000 OA
ATOM     28  O   UNL     1       2.800  -0.866   0.000  0.00  0.00    +0.000 OA
ENDBRANCH   8  24
TORSDOF 2
