REMARK  Name = 372
REMARK  6 active torsions:
REMARK  status: ('A' for Active; 'I' for Inactive)
REMARK    1  A    between atoms: S_2  and  C_21
REMARK    2  A    between atoms: S_2  and  C_26
REMARK    3  A    between atoms: N_3  and  C_8
REMARK    4  A    between atoms: N_5  and  C_12
REMARK    5  A    between atoms: C_8  and  C_11
REMARK    6  A    between atoms: C_11  and  C_12
REMARK                            x       y       z     vdW  Elec       q    Type
REMARK                         _______ _______ _______ _____ _____    ______ ____
ROOT
ATOM      1  S   UNL     1       5.222  -2.667   0.000  0.00  0.00    +0.000 S 
ATOM      2  N   UNL     1       5.222  -1.017   0.000  0.00  0.00    +0.000 N 
ATOM      3  C   UNL     1       5.936  -1.429   0.000  0.00  0.00    +0.000 A 
ATOM      4  C   UNL     1       4.507  -1.429   0.000  0.00  0.00    +0.000 A 
ATOM      5  C   UNL     1       5.936  -2.254   0.000  0.00  0.00    +0.000 A 
ATOM      6  C   UNL     1       4.507  -2.254   0.000  0.00  0.00    +0.000 A 
ATOM      7  C   UNL     1       6.673  -0.988   0.000  0.00  0.00    +0.000 A 
ATOM      8  C   UNL     1       3.770  -0.988   0.000  0.00  0.00    +0.000 A 
ATOM      9  C   UNL     1       6.673  -2.695   0.000  0.00  0.00    +0.000 A 
ATOM     10  C   UNL     1       7.421  -1.412   0.000  0.00  0.00    +0.000 A 
ATOM     11  C   UNL     1       3.770  -2.695   0.000  0.00  0.00    +0.000 A 
ATOM     12  C   UNL     1       7.421  -2.271   0.000  0.00  0.00    +0.000 A 
ATOM     13  C   UNL     1       3.022  -1.412   0.000  0.00  0.00    +0.000 A 
ATOM     14  C   UNL     1       3.022  -2.271   0.000  0.00  0.00    +0.000 A 
ENDROOT
BRANCH  10  15
ATOM     15  S   UNL     1       8.134  -0.997   0.000  0.00  0.00    +0.000 S 
BRANCH  15  16
ATOM     16  C   UNL     1       8.850  -1.407   0.000  0.00  0.00    +0.000 C 
ATOM     17  C   UNL     1       9.562  -0.991   0.000  0.00  0.00    +0.000 C 
ENDBRANCH  15  16
ENDBRANCH  10  15
BRANCH   2  18
ATOM     18  C   UNL     1       5.222  -0.192   0.000  0.00  0.00    +0.000 C 
BRANCH  18  19
ATOM     19  C   UNL     1       4.507   0.221   0.000  0.00  0.00    +0.000 C 
BRANCH  19  20
ATOM     20  C   UNL     1       4.507   1.045   0.000  0.00  0.00    +0.000 C 
BRANCH  20  21
ATOM     21  N   UNL     1       3.793   1.458   0.000  0.00  0.00    +0.000 NA
ATOM     22  N   UNL     1       2.364   2.283   0.000  0.00  0.00    +0.000 NA
ATOM     23  C   UNL     1       3.079   1.045   0.000  0.00  0.00    +0.000 C 
ATOM     24  C   UNL     1       3.793   2.283   0.000  0.00  0.00    +0.000 C 
ATOM     25  C   UNL     1       2.364   1.458   0.000  0.00  0.00    +0.000 C 
ATOM     26  C   UNL     1       3.079   2.695   0.000  0.00  0.00    +0.000 C 
ATOM     27  C   UNL     1       1.650   2.695   0.000  0.00  0.00    +0.000 C 
ENDBRANCH  20  21
ENDBRANCH  19  20
ENDBRANCH  18  19
ENDBRANCH   2  18
TORSDOF 6
