REMARK  Name = 373
REMARK  4 active torsions:
REMARK  status: ('A' for Active; 'I' for Inactive)
REMARK    1  A    between atoms: C_9  and  C_11
REMARK    2  A    between atoms: C_18  and  C_20
REMARK    3  A    between atoms: C_20  and  N_21
REMARK    4  A    between atoms: C_24  and  C_27
REMARK                            x       y       z     vdW  Elec       q    Type
REMARK                         _______ _______ _______ _____ _____    ______ ____
ROOT
ATOM      1  C   UNL     1      -2.451  -0.711   0.000  0.00  0.00    +0.000 A 
ATOM      2  N   UNL     1      -1.966  -0.043   0.000  0.00  0.00    +0.000 NA
ATOM      3  C   UNL     1      -1.181  -0.298   0.000  0.00  0.00    +0.000 A 
ATOM      4  C   UNL     1      -1.181  -1.123   0.000  0.00  0.00    +0.000 A 
ATOM      5  C   UNL     1      -1.966  -1.378   0.000  0.00  0.00    +0.000 A 
ATOM      6  C   UNL     1      -0.467   0.115   0.000  0.00  0.00    +0.000 A 
ATOM      7  C   UNL     1       0.248  -0.298   0.000  0.00  0.00    +0.000 A 
ATOM      8  C   UNL     1       0.248  -1.123   0.000  0.00  0.00    +0.000 A 
ATOM      9  C   UNL     1      -0.467  -1.536   0.000  0.00  0.00    +0.000 A 
ENDROOT
BRANCH   1  18
ATOM     10  C   UNL     1      -4.513  -1.425   0.000  0.00  0.00    +0.000 A 
ATOM     11  C   UNL     1      -4.926  -2.139   0.000  0.00  0.00    +0.000 A 
ATOM     12  C   UNL     1      -5.751  -2.139   0.000  0.00  0.00    +0.000 A 
ATOM     13  C   UNL     1      -6.163  -1.425   0.000  0.00  0.00    +0.000 A 
ATOM     14  C   UNL     1      -5.751  -0.711   0.000  0.00  0.00    +0.000 A 
ATOM     15  C   UNL     1      -4.926  -0.711   0.000  0.00  0.00    +0.000 A 
ATOM     16  N   UNL     1      -4.513   0.004   0.000  0.00  0.00    +0.000 NA
ATOM     17  C   UNL     1      -3.688   0.004   0.000  0.00  0.00    +0.000 A 
ATOM     18  C   UNL     1      -3.276  -0.711   0.000  0.00  0.00    +0.000 A 
ATOM     19  C   UNL     1      -3.688  -1.425   0.000  0.00  0.00    +0.000 A 
ATOM     20  O   UNL     1      -3.276   0.719   0.000  0.00  0.00    +0.000 OA
ENDBRANCH   1  18
BRANCH   8  21
ATOM     21  C   UNL     1       0.962  -1.536   0.000  0.00  0.00    +0.000 C 
BRANCH  21  22
ATOM     22  N   UNL     1       0.962  -2.361   0.000  0.00  0.00    +0.000 NA
ATOM     23  C   UNL     1       1.677  -2.773   0.000  0.00  0.00    +0.000 C 
ATOM     24  C   UNL     1       1.677  -3.598   0.000  0.00  0.00    +0.000 C 
ATOM     25  C   UNL     1       0.962  -4.011   0.000  0.00  0.00    +0.000 C 
ATOM     26  C   UNL     1       0.248  -3.598   0.000  0.00  0.00    +0.000 C 
ATOM     27  C   UNL     1       0.248  -2.773   0.000  0.00  0.00    +0.000 C 
BRANCH  25  28
ATOM     28  C   UNL     1       0.962  -4.835   0.000  0.00  0.00    +0.000 C 
ATOM     29  N   UNL     1       1.677  -5.248   0.000  0.00  0.00    +0.000 NA
ENDBRANCH  25  28
ENDBRANCH  21  22
ENDBRANCH   8  21
TORSDOF 4
