REMARK  Name = 376
REMARK  5 active torsions:
REMARK  status: ('A' for Active; 'I' for Inactive)
REMARK    1  A    between atoms: N_2  and  C_11
REMARK    2  A    between atoms: C_3  and  C_4
REMARK    3  A    between atoms: C_4  and  C_7
REMARK    4  A    between atoms: C_4  and  C_12
REMARK    5  A    between atoms: C_7  and  C_11
REMARK                            x       y       z     vdW  Elec       q    Type
REMARK                         _______ _______ _______ _____ _____    ______ ____
ROOT
ATOM      1  O   UNL     1       1.906   0.000   0.000  0.00  0.00    +0.000 OA
ATOM      2  C   UNL     1       2.731   0.000   0.000  0.00  0.00    +0.000 C 
ENDROOT
BRANCH   2   3
ATOM      3  C   UNL     1       2.731   0.825   0.000  0.00  0.00    +0.000 C 
ATOM      4  C   UNL     1       3.445   1.238   0.000  0.00  0.00    +0.000 C 
ATOM      5  C   UNL     1       2.016   1.238   0.000  0.00  0.00    +0.000 C 
ATOM      6  C   UNL     1       3.445   2.062   0.000  0.00  0.00    +0.000 C 
ATOM      7  C   UNL     1       2.016   2.062   0.000  0.00  0.00    +0.000 C 
ATOM      8  C   UNL     1       2.731   2.475   0.000  0.00  0.00    +0.000 C 
ENDBRANCH   2   3
BRANCH   2   9
ATOM      9  C   UNL     1       2.731  -0.825   0.000  0.00  0.00    +0.000 A 
ATOM     10  C   UNL     1       3.445  -1.238   0.000  0.00  0.00    +0.000 A 
ATOM     11  C   UNL     1       2.016  -1.238   0.000  0.00  0.00    +0.000 A 
ATOM     12  C   UNL     1       3.445  -2.062   0.000  0.00  0.00    +0.000 A 
ATOM     13  C   UNL     1       2.016  -2.062   0.000  0.00  0.00    +0.000 A 
ATOM     14  C   UNL     1       2.731  -2.475   0.000  0.00  0.00    +0.000 A 
ENDBRANCH   2   9
BRANCH   2  15
ATOM     15  C   UNL     1       3.556   0.000   0.000  0.00  0.00    +0.000 C 
BRANCH  15  16
ATOM     16  C   UNL     1       3.968  -0.715   0.000  0.00  0.00    +0.000 C 
BRANCH  16  17
ATOM     17  N   UNL     1       4.793  -0.715   0.000  0.00  0.00    +0.000 NA
ATOM     18  C   UNL     1       5.206  -1.429   0.000  0.00  0.00    +0.000 C 
ATOM     19  C   UNL     1       5.206   0.000   0.000  0.00  0.00    +0.000 C 
ATOM     20  C   UNL     1       6.031  -1.429   0.000  0.00  0.00    +0.000 C 
ATOM     21  C   UNL     1       6.031   0.000   0.000  0.00  0.00    +0.000 C 
ATOM     22  C   UNL     1       6.443  -0.715   0.000  0.00  0.00    +0.000 C 
ENDBRANCH  16  17
ENDBRANCH  15  16
ENDBRANCH   2  15
TORSDOF 5
