REMARK  Name = 3781
REMARK  3 active torsions:
REMARK  status: ('A' for Active; 'I' for Inactive)
REMARK    1  A    between atoms: N_2  and  C_6
REMARK    2  A    between atoms: N_3  and  C_5
REMARK    3  A    between atoms: C_5  and  C_6
REMARK                            x       y       z     vdW  Elec       q    Type
REMARK                         _______ _______ _______ _____ _____    ______ ____
ROOT
ATOM      1  S   UNL     1       3.696  -1.967   0.000  0.00  0.00    +0.000 S 
ATOM      2  N   UNL     1       3.696  -0.382   0.000  0.00  0.00    +0.000 N 
ATOM      3  N   UNL     1       5.090  -0.355   0.000  0.00  0.00    +0.000 NA
ATOM      4  C   UNL     1       3.010  -0.778   0.000  0.00  0.00    +0.000 A 
ATOM      5  C   UNL     1       4.382  -0.778   0.000  0.00  0.00    +0.000 A 
ATOM      6  C   UNL     1       3.010  -1.571   0.000  0.00  0.00    +0.000 A 
ATOM      7  C   UNL     1       4.382  -1.571   0.000  0.00  0.00    +0.000 A 
ATOM      8  C   UNL     1       2.302  -0.355   0.000  0.00  0.00    +0.000 A 
ATOM      9  C   UNL     1       2.302  -1.994   0.000  0.00  0.00    +0.000 A 
ATOM     10  C   UNL     1       5.090  -1.994   0.000  0.00  0.00    +0.000 A 
ATOM     11  C   UNL     1       1.584  -0.762   0.000  0.00  0.00    +0.000 A 
ATOM     12  C   UNL     1       1.584  -1.587   0.000  0.00  0.00    +0.000 A 
ATOM     13  C   UNL     1       5.808  -0.762   0.000  0.00  0.00    +0.000 A 
ATOM     14  C   UNL     1       5.808  -1.587   0.000  0.00  0.00    +0.000 A 
ENDROOT
BRANCH   2  15
ATOM     15  C   UNL     1       3.696   0.410   0.000  0.00  0.00    +0.000 C 
BRANCH  15  16
ATOM     16  C   UNL     1       4.382   0.806   0.000  0.00  0.00    +0.000 C 
ATOM     17  C   UNL     1       5.068   0.410   0.000  0.00  0.00    +0.000 C 
BRANCH  16  18
ATOM     18  N   UNL     1       4.382   1.598   0.000  0.00  0.00    +0.000 NA
ATOM     19  C   UNL     1       5.068   1.994   0.000  0.00  0.00    +0.000 C 
ATOM     20  C   UNL     1       3.696   1.994   0.000  0.00  0.00    +0.000 C 
ENDBRANCH  16  18
ENDBRANCH  15  16
ENDBRANCH   2  15
TORSDOF 3
