REMARK  Name = 3783
REMARK  3 active torsions:
REMARK  status: ('A' for Active; 'I' for Inactive)
REMARK    1  A    between atoms: O_1  and  C_5
REMARK    2  A    between atoms: O_1  and  C_10
REMARK    3  A    between atoms: N_3  and  C_4
REMARK                            x       y       z     vdW  Elec       q    Type
REMARK                         _______ _______ _______ _____ _____    ______ ____
ROOT
ATOM      1  C   UNL     1       2.364   0.825   0.000  0.00  0.00    +0.000 A 
ATOM      2  C   UNL     1       2.364  -0.825   0.000  0.00  0.00    +0.000 A 
ATOM      3  C   UNL     1       3.079   0.412   0.000  0.00  0.00    +0.000 A 
ATOM      4  C   UNL     1       1.650   0.412   0.000  0.00  0.00    +0.000 A 
ATOM      5  C   UNL     1       3.079  -0.412   0.000  0.00  0.00    +0.000 A 
ATOM      6  C   UNL     1       1.650  -0.412   0.000  0.00  0.00    +0.000 A 
ENDROOT
BRANCH   1   8
ATOM      7  O   UNL     1       3.793   1.650   0.000  0.00  0.00    +0.000 OA
ATOM      8  N   UNL     1       2.364   1.650   0.000  0.00  0.00    +0.000 NA
ATOM      9  C   UNL     1       3.079   2.062   0.000  0.00  0.00    +0.000 C 
ATOM     10  C   UNL     1       3.079   2.888   0.000  0.00  0.00    +0.000 C 
ENDBRANCH   1   8
BRANCH   2  11
ATOM     11  O   UNL     1       2.364  -1.650   0.000  0.00  0.00    +0.000 OA
BRANCH  11  12
ATOM     12  C   UNL     1       1.650  -2.062   0.000  0.00  0.00    +0.000 C 
ATOM     13  C   UNL     1       1.650  -2.888   0.000  0.00  0.00    +0.000 C 
ENDBRANCH  11  12
ENDBRANCH   2  11
TORSDOF 3
