REMARK  Name = 379
REMARK  3 active torsions:
REMARK  status: ('A' for Active; 'I' for Inactive)
REMARK    1  A    between atoms: O_1  and  C_4
REMARK    2  A    between atoms: O_1  and  C_5
REMARK    3  A    between atoms: C_3  and  C_4
REMARK                            x       y       z     vdW  Elec       q    Type
REMARK                         _______ _______ _______ _____ _____    ______ ____
ROOT
ATOM      1  C   UNL     1       3.079  -0.668   0.000  0.00  0.00    +0.000 A 
ATOM      2  C   UNL     1       3.793  -1.081   0.000  0.00  0.00    +0.000 A 
ATOM      3  C   UNL     1       2.365  -1.081   0.000  0.00  0.00    +0.000 A 
ATOM      4  C   UNL     1       3.793  -1.906   0.000  0.00  0.00    +0.000 A 
ATOM      5  C   UNL     1       2.365  -1.906   0.000  0.00  0.00    +0.000 A 
ATOM      6  C   UNL     1       3.079  -2.318   0.000  0.00  0.00    +0.000 A 
ATOM      7  C   UNL     1       4.508  -0.668   0.000  0.00  0.00    +0.000 C 
ATOM      8  C   UNL     1       1.650  -0.668   0.000  0.00  0.00    +0.000 C 
ENDROOT
BRANCH   1   9
ATOM      9  O   UNL     1       3.079   0.157   0.000  0.00  0.00    +0.000 OA
BRANCH   9  10
ATOM     10  C   UNL     1       3.793   0.569   0.000  0.00  0.00    +0.000 C 
BRANCH  10  12
ATOM     11  N   UNL     1       4.508   1.807   0.000  0.00  0.00    +0.000 NA
ATOM     12  C   UNL     1       3.793   1.394   0.000  0.00  0.00    +0.000 C 
ATOM     13  C   UNL     1       3.079   1.807   0.000  0.00  0.00    +0.000 C 
ENDBRANCH  10  12
ENDBRANCH   9  10
ENDBRANCH   1   9
TORSDOF 3
