REMARK  Name = 37A
REMARK  4 active torsions:
REMARK  status: ('A' for Active; 'I' for Inactive)
REMARK    1  A    between atoms: C_2  and  C_3
REMARK    2  A    between atoms: N_15  and  C_16
REMARK    3  A    between atoms: C_16  and  C_17
REMARK    4  A    between atoms: C_20  and  C_23
REMARK                            x       y       z     vdW  Elec       q    Type
REMARK                         _______ _______ _______ _____ _____    ______ ____
ROOT
ATOM      1  O   UNL     1       2.455   1.194   0.000  0.00  0.00    +0.000 OA
ATOM      2  C   UNL     1       1.630   1.187   0.000  0.00  0.00    +0.000 C 
ATOM      3  N   UNL     1       1.466   0.379   0.000  0.00  0.00    +0.000 NA
ENDROOT
BRANCH   2   4
ATOM      4  C   UNL     1       1.013   1.734   0.000  0.00  0.00    +0.000 C 
ATOM      5  O   UNL     1       0.392   1.357   0.000  0.00  0.00    +0.000 OA
ATOM      6  C   UNL     1       1.333   2.443   0.000  0.00  0.00    +0.000 C 
ATOM      7  C   UNL     1       2.262   2.458   0.000  0.00  0.00    +0.000 C 
ATOM      8  N   UNL     1       2.400   1.641   0.000  0.00  0.00    +0.000 N 
ATOM      9  C   UNL     1       2.812   0.926   0.000  0.00  0.00    +0.000 C 
ATOM     10  O   UNL     1       3.637   0.925   0.000  0.00  0.00    +0.000 OA
ATOM     11  N   UNL     1       2.399   0.212   0.000  0.00  0.00    +0.000 NA
ATOM     12  O   UNL     1       2.811  -0.503   0.000  0.00  0.00    +0.000 OA
ATOM     13  C   UNL     1       1.884   2.069   0.000  0.00  0.00    +0.000 C 
ATOM     14  O   UNL     1       0.772   2.883   0.000  0.00  0.00    +0.000 OA
ATOM     15  C   UNL     1       0.912   2.069   0.000  0.00  0.00    +0.000 C 
ENDBRANCH   2   4
BRANCH   3  16
ATOM     16  C   UNL     1       2.083  -0.168   0.000  0.00  0.00    +0.000 C 
BRANCH  16  17
ATOM     17  C   UNL     1       1.918  -0.977   0.000  0.00  0.00    +0.000 A 
ATOM     18  C   UNL     1       1.136  -1.238   0.000  0.00  0.00    +0.000 A 
ATOM     19  C   UNL     1       0.971  -2.047   0.000  0.00  0.00    +0.000 A 
ATOM     20  C   UNL     1       1.589  -2.594   0.000  0.00  0.00    +0.000 A 
ATOM     21  C   UNL     1       2.371  -2.332   0.000  0.00  0.00    +0.000 A 
ATOM     22  C   UNL     1       2.536  -1.524   0.000  0.00  0.00    +0.000 A 
BRANCH  20  23
ATOM     23  C   UNL     1       1.424  -3.402   0.000  0.00  0.00    +0.000 A 
ATOM     24  C   UNL     1       2.041  -3.949   0.000  0.00  0.00    +0.000 A 
ATOM     25  C   UNL     1       1.876  -4.757   0.000  0.00  0.00    +0.000 A 
ATOM     26  C   UNL     1       0.641  -3.663   0.000  0.00  0.00    +0.000 A 
ATOM     27  C   UNL     1       0.476  -4.472   0.000  0.00  0.00    +0.000 A 
ATOM     28  C   UNL     1       1.094  -5.019   0.000  0.00  0.00    +0.000 A 
ENDBRANCH  20  23
ENDBRANCH  16  17
ENDBRANCH   3  16
TORSDOF 4
