REMARK  Name = 37U
REMARK  6 active torsions:
REMARK  status: ('A' for Active; 'I' for Inactive)
REMARK    1  A    between atoms: C_2  and  C_3
REMARK    2  A    between atoms: C_3  and  N_4
REMARK    3  A    between atoms: C_5  and  C_7
REMARK    4  A    between atoms: C_9  and  C_11
REMARK    5  A    between atoms: C_11  and  C_13
REMARK    6  A    between atoms: C_13  and  C_14
REMARK                            x       y       z     vdW  Elec       q    Type
REMARK                         _______ _______ _______ _____ _____    ______ ____
ROOT
ATOM      1  C   UNL     1      -2.045   0.004   0.000  0.00  0.00    +0.000 C 
ATOM      2  N   UNL     1      -1.378  -0.481   0.000  0.00  0.00    +0.000 N 
ATOM      3  C   UNL     1      -0.593  -0.227   0.000  0.00  0.00    +0.000 C 
ATOM      4  O   UNL     1      -0.422   0.581   0.000  0.00  0.00    +0.000 OA
ATOM      5  C   UNL     1      -1.633  -1.266   0.000  0.00  0.00    +0.000 C 
ATOM      6  C   UNL     1      -2.458  -1.266   0.000  0.00  0.00    +0.000 C 
ATOM      7  C   UNL     1      -2.713  -0.481   0.000  0.00  0.00    +0.000 C 
ENDROOT
BRANCH   1   9
ATOM      8  N   UNL     1      -1.331   1.241   0.000  0.00  0.00    +0.000 NA
ATOM      9  C   UNL     1      -2.045   0.829   0.000  0.00  0.00    +0.000 C 
ATOM     10  O   UNL     1      -2.760   1.241   0.000  0.00  0.00    +0.000 OA
BRANCH   8  11
ATOM     11  C   UNL     1      -1.331   2.066   0.000  0.00  0.00    +0.000 C 
BRANCH  11  13
ATOM     12  C   UNL     1       0.098   2.066   0.000  0.00  0.00    +0.000 A 
ATOM     13  C   UNL     1      -0.616   2.478   0.000  0.00  0.00    +0.000 A 
ATOM     14  C   UNL     1      -0.616   3.304   0.000  0.00  0.00    +0.000 A 
ATOM     15  C   UNL     1       0.098   3.716   0.000  0.00  0.00    +0.000 A 
ATOM     16  F   UNL     1       0.098   4.541   0.000  0.00  0.00    +0.000 F 
ATOM     17  C   UNL     1       0.812   3.304   0.000  0.00  0.00    +0.000 A 
ATOM     18  C   UNL     1       0.812   2.478   0.000  0.00  0.00    +0.000 A 
ENDBRANCH  11  13
ENDBRANCH   8  11
ENDBRANCH   1   9
BRANCH   3  19
ATOM     19  C   UNL     1       0.020  -0.778   0.000  0.00  0.00    +0.000 C 
ATOM     20  N   UNL     1      -0.152  -1.585   0.000  0.00  0.00    +0.000 NA
BRANCH  19  21
ATOM     21  C   UNL     1       0.804  -0.523   0.000  0.00  0.00    +0.000 C 
BRANCH  21  22
ATOM     22  C   UNL     1       1.417  -1.076   0.000  0.00  0.00    +0.000 A 
ATOM     23  C   UNL     1       2.202  -0.821   0.000  0.00  0.00    +0.000 A 
ATOM     24  C   UNL     1       2.815  -1.373   0.000  0.00  0.00    +0.000 A 
ATOM     25  C   UNL     1       2.644  -2.180   0.000  0.00  0.00    +0.000 A 
ATOM     26  C   UNL     1       1.859  -2.435   0.000  0.00  0.00    +0.000 A 
ATOM     27  C   UNL     1       1.246  -1.883   0.000  0.00  0.00    +0.000 A 
ENDBRANCH  21  22
ENDBRANCH  19  21
ENDBRANCH   3  19
TORSDOF 6
