REMARK  Name = 380
REMARK  3 active torsions:
REMARK  status: ('A' for Active; 'I' for Inactive)
REMARK    1  A    between atoms: N_5  and  C_9
REMARK    2  A    between atoms: N_6  and  C_10
REMARK    3  A    between atoms: C_9  and  C_10
REMARK                            x       y       z     vdW  Elec       q    Type
REMARK                         _______ _______ _______ _____ _____    ______ ____
ROOT
ATOM      1  C   UNL     1       3.793   0.206   0.000  0.00  0.00    +0.000 C 
ATOM      2  C   UNL     1       4.508  -0.206   0.000  0.00  0.00    +0.000 C 
ENDROOT
BRANCH   1   5
ATOM      3  O   UNL     1       5.222   2.681   0.000  0.00  0.00    +0.000 OA
ATOM      4  O   UNL     1       2.365   2.681   0.000  0.00  0.00    +0.000 OA
ATOM      5  N   UNL     1       3.793   1.031   0.000  0.00  0.00    +0.000 NA
ATOM      6  N   UNL     1       3.793   2.681   0.000  0.00  0.00    +0.000 NA
ATOM      7  C   UNL     1       4.508   1.444   0.000  0.00  0.00    +0.000 C 
ATOM      8  C   UNL     1       3.079   1.444   0.000  0.00  0.00    +0.000 C 
ATOM      9  C   UNL     1       4.508   2.269   0.000  0.00  0.00    +0.000 C 
ATOM     10  C   UNL     1       3.079   2.269   0.000  0.00  0.00    +0.000 C 
ENDBRANCH   1   5
BRANCH   1  11
ATOM     11  C   UNL     1       3.079  -0.206   0.000  0.00  0.00    +0.000 C 
BRANCH  11  14
ATOM     12  O   UNL     1       4.508  -2.681   0.000  0.00  0.00    +0.000 OA
ATOM     13  O   UNL     1       1.650  -2.681   0.000  0.00  0.00    +0.000 OA
ATOM     14  N   UNL     1       3.079  -1.031   0.000  0.00  0.00    +0.000 NA
ATOM     15  N   UNL     1       3.079  -2.681   0.000  0.00  0.00    +0.000 NA
ATOM     16  C   UNL     1       3.793  -1.444   0.000  0.00  0.00    +0.000 C 
ATOM     17  C   UNL     1       2.365  -1.444   0.000  0.00  0.00    +0.000 C 
ATOM     18  C   UNL     1       3.793  -2.269   0.000  0.00  0.00    +0.000 C 
ATOM     19  C   UNL     1       2.365  -2.269   0.000  0.00  0.00    +0.000 C 
ENDBRANCH  11  14
ENDBRANCH   1  11
TORSDOF 3
