REMARK  Name = 382
REMARK  0 active torsions:
REMARK  status: ('A' for Active; 'I' for Inactive)
REMARK                            x       y       z     vdW  Elec       q    Type
REMARK                         _______ _______ _______ _____ _____    ______ ____
ROOT
ATOM      1  N   UNL     1       3.696  -1.297   0.000  0.00  0.00    +0.000 NA
ATOM      2  N   UNL     1       3.696   1.079   0.000  0.00  0.00    +0.000 NA
ATOM      3  C   UNL     1       1.584  -0.093   0.000  0.00  0.00    +0.000 C 
ATOM      4  C   UNL     1       2.302   0.315   0.000  0.00  0.00    +0.000 C 
ATOM      5  C   UNL     1       1.584  -0.918   0.000  0.00  0.00    +0.000 C 
ATOM      6  C   UNL     1       3.010  -0.109   0.000  0.00  0.00    +0.000 A 
ATOM      7  C   UNL     1       2.302  -1.325   0.000  0.00  0.00    +0.000 C 
ATOM      8  C   UNL     1       3.010  -0.901   0.000  0.00  0.00    +0.000 A 
ATOM      9  C   UNL     1       3.696   0.287   0.000  0.00  0.00    +0.000 A 
ATOM     10  C   UNL     1       4.382  -0.109   0.000  0.00  0.00    +0.000 A 
ATOM     11  C   UNL     1       4.382  -0.901   0.000  0.00  0.00    +0.000 A 
ATOM     12  C   UNL     1       5.090   0.315   0.000  0.00  0.00    +0.000 A 
ATOM     13  C   UNL     1       5.090  -1.325   0.000  0.00  0.00    +0.000 A 
ATOM     14  C   UNL     1       5.808  -0.093   0.000  0.00  0.00    +0.000 A 
ATOM     15  C   UNL     1       5.808  -0.918   0.000  0.00  0.00    +0.000 A 
ENDROOT
TORSDOF 0
