REMARK  Name = 383
REMARK  6 active torsions:
REMARK  status: ('A' for Active; 'I' for Inactive)
REMARK    1  A    between atoms: O_2  and  C_14
REMARK    2  A    between atoms: O_2  and  C_17
REMARK    3  A    between atoms: C_6  and  C_9
REMARK    4  A    between atoms: C_9  and  C_13
REMARK    5  A    between atoms: C_9  and  C_14
REMARK    6  A    between atoms: C_17  and  C_20
REMARK                            x       y       z     vdW  Elec       q    Type
REMARK                         _______ _______ _______ _____ _____    ______ ____
ROOT
ATOM      1  O   UNL     1       1.906   0.192   0.000  0.00  0.00    +0.000 OA
ATOM      2  C   UNL     1       2.731   0.192   0.000  0.00  0.00    +0.000 C 
ENDROOT
BRANCH   2   3
ATOM      3  C   UNL     1       2.731  -0.633   0.000  0.00  0.00    +0.000 A 
ATOM      4  C   UNL     1       3.445  -1.046   0.000  0.00  0.00    +0.000 A 
ATOM      5  C   UNL     1       2.016  -1.046   0.000  0.00  0.00    +0.000 A 
ATOM      6  C   UNL     1       3.445  -1.871   0.000  0.00  0.00    +0.000 A 
ATOM      7  C   UNL     1       2.016  -1.871   0.000  0.00  0.00    +0.000 A 
ATOM      8  C   UNL     1       2.731  -2.284   0.000  0.00  0.00    +0.000 A 
ENDBRANCH   2   3
BRANCH   2   9
ATOM      9  C   UNL     1       2.731   1.016   0.000  0.00  0.00    +0.000 C 
ATOM     10  C   UNL     1       2.016   1.429   0.000  0.00  0.00    +0.000 C 
ATOM     11  C   UNL     1       3.445   1.429   0.000  0.00  0.00    +0.000 C 
ATOM     12  C   UNL     1       2.016   2.254   0.000  0.00  0.00    +0.000 C 
ATOM     13  C   UNL     1       3.445   2.254   0.000  0.00  0.00    +0.000 C 
ATOM     14  C   UNL     1       2.731   2.667   0.000  0.00  0.00    +0.000 C 
ENDBRANCH   2   9
BRANCH   2  16
ATOM     15  O   UNL     1       3.968   0.906   0.000  0.00  0.00    +0.000 OA
ATOM     16  C   UNL     1       3.556   0.192   0.000  0.00  0.00    +0.000 C 
BRANCH  16  17
ATOM     17  O   UNL     1       3.968  -0.523   0.000  0.00  0.00    +0.000 OA
BRANCH  17  18
ATOM     18  C   UNL     1       4.793  -0.523   0.000  0.00  0.00    +0.000 C 
BRANCH  18  21
ATOM     19  N   UNL     1       6.031  -1.238   0.000  0.00  0.00    +0.000 N 
ATOM     20  N   UNL     1       4.793  -1.952   0.000  0.00  0.00    +0.000 NA
ATOM     21  C   UNL     1       5.206  -1.238   0.000  0.00  0.00    +0.000 C 
ATOM     22  C   UNL     1       6.443  -1.952   0.000  0.00  0.00    +0.000 C 
ATOM     23  C   UNL     1       6.031  -2.667   0.000  0.00  0.00    +0.000 C 
ATOM     24  C   UNL     1       5.206  -2.667   0.000  0.00  0.00    +0.000 C 
ATOM     25  C   UNL     1       6.443  -0.523   0.000  0.00  0.00    +0.000 C 
ENDBRANCH  18  21
ENDBRANCH  17  18
ENDBRANCH  16  17
ENDBRANCH   2  16
TORSDOF 6
