REMARK  Name = 384
REMARK  1 active torsions:
REMARK  status: ('A' for Active; 'I' for Inactive)
REMARK    1  A    between atoms: C_8  and  C_10
REMARK                            x       y       z     vdW  Elec       q    Type
REMARK                         _______ _______ _______ _____ _____    ______ ____
ROOT
ATOM      1  N   UNL     1       4.508  -0.472   0.000  0.00  0.00    +0.000 NA
ATOM      2  N   UNL     1       4.508   1.178   0.000  0.00  0.00    +0.000 NA
ATOM      3  N   UNL     1       5.960   1.207   0.000  0.00  0.00    +0.000 NA
ATOM      4  N   UNL     1       6.707  -0.077   0.000  0.00  0.00    +0.000 NA
ATOM      5  N   UNL     1       3.079   1.178   0.000  0.00  0.00    +0.000 NA
ATOM      6  N   UNL     1       5.950  -1.325   0.000  0.00  0.00    +0.000 NA
ATOM      7  N   UNL     1       7.420   1.198   0.000  0.00  0.00    +0.000 NA
ATOM      8  C   UNL     1       3.793  -0.059   0.000  0.00  0.00    +0.000 A 
ATOM      9  C   UNL     1       5.222  -0.059   0.000  0.00  0.00    +0.000 A 
ATOM     10  C   UNL     1       5.222   0.765   0.000  0.00  0.00    +0.000 A 
ATOM     11  C   UNL     1       3.793   0.765   0.000  0.00  0.00    +0.000 A 
ATOM     12  C   UNL     1       5.960  -0.500   0.000  0.00  0.00    +0.000 A 
ATOM     13  C   UNL     1       6.707   0.783   0.000  0.00  0.00    +0.000 A 
ENDROOT
BRANCH   8  14
ATOM     14  C   UNL     1       3.079  -0.472   0.000  0.00  0.00    +0.000 A 
ATOM     15  C   UNL     1       3.079  -1.297   0.000  0.00  0.00    +0.000 A 
ATOM     16  C   UNL     1       2.364  -0.059   0.000  0.00  0.00    +0.000 A 
ATOM     17  C   UNL     1       2.364  -1.710   0.000  0.00  0.00    +0.000 A 
ATOM     18  C   UNL     1       1.650  -0.472   0.000  0.00  0.00    +0.000 A 
ATOM     19  C   UNL     1       1.650  -1.297   0.000  0.00  0.00    +0.000 A 
ENDBRANCH   8  14
TORSDOF 1
