REMARK  Name = 38521
REMARK  2 active torsions:
REMARK  status: ('A' for Active; 'I' for Inactive)
REMARK    1  A    between atoms: N_3  and  C_14
REMARK    2  A    between atoms: C_12  and  C_14
REMARK                            x       y       z     vdW  Elec       q    Type
REMARK                         _______ _______ _______ _____ _____    ______ ____
ROOT
ATOM      1  O   UNL     1       3.785  -0.059   0.000  0.00  0.00    +0.000 OA
ATOM      2  O   UNL     1       3.785  -1.394   0.000  0.00  0.00    +0.000 OA
ATOM      3  C   UNL     1       3.300  -0.727   0.000  0.00  0.00    +0.000 C 
ATOM      4  C   UNL     1       2.888  -1.441   0.000  0.00  0.00    +0.000 C 
ATOM      5  C   UNL     1       2.888  -0.012   0.000  0.00  0.00    +0.000 C 
ATOM      6  C   UNL     1       2.062  -0.012   0.000  0.00  0.00    +0.000 C 
ATOM      7  C   UNL     1       2.062  -1.441   0.000  0.00  0.00    +0.000 C 
ATOM      8  C   UNL     1       1.650  -0.727   0.000  0.00  0.00    +0.000 C 
ATOM      9  C   UNL     1       4.570  -0.314   0.000  0.00  0.00    +0.000 C 
ATOM     10  C   UNL     1       4.570  -1.139   0.000  0.00  0.00    +0.000 C 
ENDROOT
BRANCH   9  11
ATOM     11  C   UNL     1       5.237   0.171   0.000  0.00  0.00    +0.000 C 
BRANCH  11  12
ATOM     12  N   UNL     1       5.991  -0.165   0.000  0.00  0.00    +0.000 NA
ATOM     13  N   UNL     1       7.412  -0.015   0.000  0.00  0.00    +0.000 NA
ATOM     14  N   UNL     1       6.572   1.141   0.000  0.00  0.00    +0.000 NA
ATOM     15  C   UNL     1       6.658   0.320   0.000  0.00  0.00    +0.000 C 
ENDBRANCH  11  12
ENDBRANCH   9  11
TORSDOF 2
