REMARK  Name = 388
REMARK  6 active torsions:
REMARK  status: ('A' for Active; 'I' for Inactive)
REMARK    1  A    between atoms: C_1  and  N_2
REMARK    2  A    between atoms: C_1  and  C_5
REMARK    3  A    between atoms: C_3  and  C_13
REMARK    4  A    between atoms: C_19  and  O_20
REMARK    5  A    between atoms: O_20  and  C_21
REMARK    6  A    between atoms: C_21  and  C_22
REMARK                            x       y       z     vdW  Elec       q    Type
REMARK                         _______ _______ _______ _____ _____    ______ ____
ROOT
ATOM      1  N   UNL     1       2.144  -1.287   0.000  0.00  0.00    +0.000 NA
ATOM      2  C   UNL     1       2.144  -0.462   0.000  0.00  0.00    +0.000 C 
ATOM      3  O   UNL     1       2.859  -0.050   0.000  0.00  0.00    +0.000 OA
ENDROOT
BRANCH   2   4
ATOM      4  C   UNL     1       1.430  -0.050   0.000  0.00  0.00    +0.000 A 
ATOM      5  C   UNL     1       0.715  -0.462   0.000  0.00  0.00    +0.000 A 
ATOM      6  C   UNL     1       0.001  -0.050   0.000  0.00  0.00    +0.000 A 
ATOM      7  C   UNL     1       0.001   0.775   0.000  0.00  0.00    +0.000 A 
ATOM      8 CL   UNL     1      -0.714   1.188   0.000  0.00  0.00    +0.000 Cl
ATOM      9  C   UNL     1       0.715   1.188   0.000  0.00  0.00    +0.000 A 
ATOM     10  C   UNL     1       1.430   0.775   0.000  0.00  0.00    +0.000 A 
BRANCH  10  11
ATOM     11  O   UNL     1       2.144   1.188   0.000  0.00  0.00    +0.000 OA
BRANCH  11  12
ATOM     12  C   UNL     1       2.144   2.013   0.000  0.00  0.00    +0.000 C 
BRANCH  12  13
ATOM     13  C   UNL     1       2.859   2.425   0.000  0.00  0.00    +0.000 C 
ATOM     14  O   UNL     1       2.859   3.250   0.000  0.00  0.00    +0.000 OA
ATOM     15  O   UNL     1       3.573   2.013   0.000  0.00  0.00    +0.000 OA
ENDBRANCH  12  13
ENDBRANCH  11  12
ENDBRANCH  10  11
ENDBRANCH   2   4
BRANCH   1  16
ATOM     16  C   UNL     1       2.859  -1.700   0.000  0.00  0.00    +0.000 C 
BRANCH  16  17
ATOM     17  C   UNL     1       2.859  -2.525   0.000  0.00  0.00    +0.000 A 
ATOM     18  C   UNL     1       3.573  -2.937   0.000  0.00  0.00    +0.000 A 
ATOM     19  F   UNL     1       4.288  -2.525   0.000  0.00  0.00    +0.000 F 
ATOM     20  C   UNL     1       3.573  -3.762   0.000  0.00  0.00    +0.000 A 
ATOM     21  C   UNL     1       2.859  -4.175   0.000  0.00  0.00    +0.000 A 
ATOM     22 BR   UNL     1       2.859  -5.000   0.000  0.00  0.00    +0.000 Br
ATOM     23  C   UNL     1       2.144  -3.762   0.000  0.00  0.00    +0.000 A 
ATOM     24  C   UNL     1       2.144  -2.937   0.000  0.00  0.00    +0.000 A 
ENDBRANCH  16  17
ENDBRANCH   1  16
TORSDOF 6
