REMARK  Name = 389
REMARK  2 active torsions:
REMARK  status: ('A' for Active; 'I' for Inactive)
REMARK    1  A    between atoms: O_2  and  C_10
REMARK    2  A    between atoms: O_2  and  C_11
REMARK                            x       y       z     vdW  Elec       q    Type
REMARK                         _______ _______ _______ _____ _____    ______ ____
ROOT
ATOM      1  S   UNL     1       4.531   0.499   0.000  0.00  0.00    +0.000 S 
ATOM      2  O   UNL     1       3.793  -0.969   0.000  0.00  0.00    +0.000 OA
ATOM      3  N   UNL     1       3.492   1.539   0.000  0.00  0.00    +0.000 N 
ATOM      4  N   UNL     1       3.079   0.269   0.000  0.00  0.00    +0.000 N 
ATOM      5  C   UNL     1       3.747   0.754   0.000  0.00  0.00    +0.000 A 
ATOM      6  C   UNL     1       2.412   0.754   0.000  0.00  0.00    +0.000 A 
ATOM      7  C   UNL     1       2.667   1.539   0.000  0.00  0.00    +0.000 A 
ATOM      8  C   UNL     1       3.976   2.206   0.000  0.00  0.00    +0.000 C 
ATOM      9  C   UNL     1       3.079  -0.556   0.000  0.00  0.00    +0.000 C 
ENDROOT
BRANCH   9  10
ATOM     10  O   UNL     1       2.365  -0.969   0.000  0.00  0.00    +0.000 OA
BRANCH  10  11
ATOM     11  C   UNL     1       2.365  -1.794   0.000  0.00  0.00    +0.000 C 
ATOM     12  C   UNL     1       1.650  -2.206   0.000  0.00  0.00    +0.000 C 
ENDBRANCH  10  11
ENDBRANCH   9  10
TORSDOF 2
