REMARK  Name = 391
REMARK  5 active torsions:
REMARK  status: ('A' for Active; 'I' for Inactive)
REMARK    1  A    between atoms: C_9  and  O_10
REMARK    2  A    between atoms: O_10  and  C_11
REMARK    3  A    between atoms: C_17  and  O_18
REMARK    4  A    between atoms: O_18  and  C_19
REMARK    5  A    between atoms: C_24  and  N_25
REMARK                            x       y       z     vdW  Elec       q    Type
REMARK                         _______ _______ _______ _____ _____    ______ ____
ROOT
ATOM      1  C   UNL     1      -0.734  -1.739   0.000  0.00  0.00    +0.000 A 
ATOM      2  N   UNL     1      -0.019  -1.327   0.000  0.00  0.00    +0.000 NA
ATOM      3  C   UNL     1      -1.448  -1.327   0.000  0.00  0.00    +0.000 A 
ATOM      4  C   UNL     1      -1.448  -0.501   0.000  0.00  0.00    +0.000 A 
ATOM      5  C   UNL     1      -2.163  -0.089   0.000  0.00  0.00    +0.000 C 
ATOM      6  N   UNL     1      -0.734  -0.089   0.000  0.00  0.00    +0.000 NA
ATOM      7  C   UNL     1      -0.019  -0.501   0.000  0.00  0.00    +0.000 A 
ENDROOT
BRANCH   1   8
ATOM      8  O   UNL     1      -0.734  -2.564   0.000  0.00  0.00    +0.000 OA
BRANCH   8  17
ATOM      9  C   UNL     1      -2.163  -2.564   0.000  0.00  0.00    +0.000 A 
ATOM     10  C   UNL     1      -2.877  -2.977   0.000  0.00  0.00    +0.000 A 
ATOM     11  O   UNL     1      -3.662  -2.722   0.000  0.00  0.00    +0.000 OA
ATOM     12  C   UNL     1      -4.147  -3.389   0.000  0.00  0.00    +0.000 C 
ATOM     13  O   UNL     1      -3.662  -4.056   0.000  0.00  0.00    +0.000 OA
ATOM     14  C   UNL     1      -2.877  -3.801   0.000  0.00  0.00    +0.000 A 
ATOM     15  C   UNL     1      -2.163  -4.214   0.000  0.00  0.00    +0.000 A 
ATOM     16  C   UNL     1      -1.448  -3.801   0.000  0.00  0.00    +0.000 A 
ATOM     17  C   UNL     1      -1.448  -2.977   0.000  0.00  0.00    +0.000 A 
ENDBRANCH   8  17
ENDBRANCH   1   8
BRANCH   7  18
ATOM     18  O   UNL     1       0.695  -0.089   0.000  0.00  0.00    +0.000 OA
BRANCH  18  19
ATOM     19  C   UNL     1       1.409  -0.501   0.000  0.00  0.00    +0.000 A 
ATOM     20  C   UNL     1       2.124  -0.089   0.000  0.00  0.00    +0.000 A 
ATOM     21  C   UNL     1       2.838  -0.501   0.000  0.00  0.00    +0.000 A 
ATOM     22  C   UNL     1       1.409  -1.327   0.000  0.00  0.00    +0.000 A 
ATOM     23  C   UNL     1       2.124  -1.739   0.000  0.00  0.00    +0.000 A 
ATOM     24  C   UNL     1       2.838  -1.327   0.000  0.00  0.00    +0.000 A 
BRANCH  24  25
ATOM     25  N   UNL     1       3.553  -1.739   0.000  0.00  0.00    +0.000 N 
ATOM     26  C   UNL     1       4.306  -1.403   0.000  0.00  0.00    +0.000 A 
ATOM     27  C   UNL     1       4.859  -2.017   0.000  0.00  0.00    +0.000 A 
ATOM     28  N   UNL     1       4.446  -2.731   0.000  0.00  0.00    +0.000 NA
ATOM     29  C   UNL     1       3.639  -2.559   0.000  0.00  0.00    +0.000 A 
ENDBRANCH  24  25
ENDBRANCH  18  19
ENDBRANCH   7  18
TORSDOF 5
