REMARK  Name = 391
REMARK  6 active torsions:
REMARK  status: ('A' for Active; 'I' for Inactive)
REMARK    1  A    between atoms: S_1  and  C_20
REMARK    2  A    between atoms: O_3  and  C_19
REMARK    3  A    between atoms: N_6  and  C_14
REMARK    4  A    between atoms: N_7  and  C_13
REMARK    5  A    between atoms: C_9  and  C_13
REMARK    6  A    between atoms: C_16  and  C_17
REMARK                            x       y       z     vdW  Elec       q    Type
REMARK                         _______ _______ _______ _____ _____    ______ ____
ROOT
ATOM      1  C   UNL     1       3.793  -0.447   0.000  0.00  0.00    +0.000 A 
ATOM      2  C   UNL     1       4.508  -0.859   0.000  0.00  0.00    +0.000 A 
ATOM      3  C   UNL     1       3.079  -0.859   0.000  0.00  0.00    +0.000 A 
ATOM      4  C   UNL     1       4.508  -1.684   0.000  0.00  0.00    +0.000 A 
ATOM      5  C   UNL     1       3.079  -1.684   0.000  0.00  0.00    +0.000 A 
ATOM      6  C   UNL     1       3.793  -2.096   0.000  0.00  0.00    +0.000 A 
ENDROOT
BRANCH   4   7
ATOM      7  S   UNL     1       5.222  -2.096   0.000  0.00  0.00    +0.000 S 
ATOM      8  O   UNL     1       5.635  -1.382   0.000  0.00  0.00    +0.000 OA
ATOM      9  O   UNL     1       4.810  -2.811   0.000  0.00  0.00    +0.000 OA
ATOM     10  N   UNL     1       5.937  -2.509   0.000  0.00  0.00    +0.000 NA
ENDBRANCH   4   7
BRANCH   1  13
ATOM     11  O   UNL     1       3.079   0.791   0.000  0.00  0.00    +0.000 OA
ATOM     12  N   UNL     1       4.508   0.791   0.000  0.00  0.00    +0.000 NA
ATOM     13  C   UNL     1       3.793   0.379   0.000  0.00  0.00    +0.000 C 
BRANCH  12  14
ATOM     14  C   UNL     1       4.508   1.616   0.000  0.00  0.00    +0.000 C 
BRANCH  14  16
ATOM     15  N   UNL     1       5.976   1.693   0.000  0.00  0.00    +0.000 NA
ATOM     16  C   UNL     1       5.222   2.029   0.000  0.00  0.00    +0.000 C 
ATOM     17  C   UNL     1       5.309   2.849   0.000  0.00  0.00    +0.000 C 
ATOM     18  C   UNL     1       6.116   3.021   0.000  0.00  0.00    +0.000 C 
ATOM     19  C   UNL     1       6.528   2.306   0.000  0.00  0.00    +0.000 C 
BRANCH  15  20
ATOM     20  C   UNL     1       6.148   0.886   0.000  0.00  0.00    +0.000 C 
ATOM     21  C   UNL     1       6.932   0.631   0.000  0.00  0.00    +0.000 C 
ENDBRANCH  15  20
ENDBRANCH  14  16
ENDBRANCH  12  14
ENDBRANCH   1  13
BRANCH   3  22
ATOM     22  O   UNL     1       2.365  -0.447   0.000  0.00  0.00    +0.000 OA
ATOM     23  C   UNL     1       1.650  -0.859   0.000  0.00  0.00    +0.000 C 
ENDBRANCH   3  22
TORSDOF 6
