REMARK  Name = 393
REMARK  7 active torsions:
REMARK  status: ('A' for Active; 'I' for Inactive)
REMARK    1  A    between atoms: C_1  and  N_2
REMARK    2  A    between atoms: C_6  and  C_7
REMARK    3  A    between atoms: C_7  and  N_8
REMARK    4  A    between atoms: C_9  and  C_10
REMARK    5  A    between atoms: C_16  and  O_17
REMARK    6  A    between atoms: O_17  and  C_18
REMARK    7  A    between atoms: C_18  and  C_19
REMARK                            x       y       z     vdW  Elec       q    Type
REMARK                         _______ _______ _______ _____ _____    ______ ____
ROOT
ATOM      1  N   UNL     1       2.521  -0.837   0.000  0.00  0.00    +0.000 NA
ATOM      2  C   UNL     1       1.806  -1.250   0.000  0.00  0.00    +0.000 C 
ATOM      3  O   UNL     1       1.091  -0.837   0.000  0.00  0.00    +0.000 OA
ENDROOT
BRANCH   2   4
ATOM      4  C   UNL     1       1.806  -2.075   0.000  0.00  0.00    +0.000 A 
ATOM      5  C   UNL     1       2.521  -2.487   0.000  0.00  0.00    +0.000 A 
ATOM      6  C   UNL     1       2.521  -3.312   0.000  0.00  0.00    +0.000 A 
ATOM      7  C   UNL     1       1.806  -3.725   0.000  0.00  0.00    +0.000 A 
ATOM      8 CL   UNL     1       1.806  -4.550   0.000  0.00  0.00    +0.000 Cl
ATOM      9  C   UNL     1       1.091  -3.312   0.000  0.00  0.00    +0.000 A 
ATOM     10  C   UNL     1       1.091  -2.487   0.000  0.00  0.00    +0.000 A 
BRANCH  10  11
ATOM     11  O   UNL     1       0.377  -2.075   0.000  0.00  0.00    +0.000 OA
BRANCH  11  12
ATOM     12  C   UNL     1      -0.337  -2.487   0.000  0.00  0.00    +0.000 C 
BRANCH  12  13
ATOM     13  C   UNL     1      -1.052  -2.075   0.000  0.00  0.00    +0.000 C 
ATOM     14  O   UNL     1      -1.766  -2.487   0.000  0.00  0.00    +0.000 OA
ATOM     15  O   UNL     1      -1.052  -1.250   0.000  0.00  0.00    +0.000 OA
ENDBRANCH  12  13
ENDBRANCH  11  12
ENDBRANCH  10  11
ENDBRANCH   2   4
BRANCH   1  16
ATOM     16  C   UNL     1       2.521  -0.012   0.000  0.00  0.00    +0.000 C 
BRANCH  16  19
ATOM     17  C   UNL     1       3.949   1.638   0.000  0.00  0.00    +0.000 A 
ATOM     18  C   UNL     1       3.235   1.225   0.000  0.00  0.00    +0.000 A 
ATOM     19  C   UNL     1       3.235   0.400   0.000  0.00  0.00    +0.000 A 
ATOM     20  C   UNL     1       3.949  -0.012   0.000  0.00  0.00    +0.000 A 
ATOM     21  C   UNL     1       4.664   0.400   0.000  0.00  0.00    +0.000 A 
ATOM     22  C   UNL     1       4.664   1.225   0.000  0.00  0.00    +0.000 A 
BRANCH  17  23
ATOM     23  N   UNL     1       3.949   2.463   0.000  0.00  0.00    +0.000 N 
ATOM     24  O   UNL     1       4.664   2.875   0.000  0.00  0.00    +0.000 OA
ATOM     25  O   UNL     1       3.235   2.875   0.000  0.00  0.00    +0.000 OA
ENDBRANCH  17  23
ENDBRANCH  16  19
ENDBRANCH   1  16
TORSDOF 7
