REMARK  Name = 393
REMARK  10 active torsions:
REMARK  status: ('A' for Active; 'I' for Inactive)
REMARK    1  A    between atoms: O_1  and  C_16
REMARK    2  A    between atoms: O_1  and  C_24
REMARK    3  A    between atoms: O_2  and  C_18
REMARK    4  A    between atoms: O_2  and  C_26
REMARK    5  A    between atoms: O_5  and  C_29
REMARK    6  A    between atoms: N_9  and  C_22
REMARK    7  A    between atoms: C_10  and  C_13
REMARK    8  A    between atoms: C_11  and  C_16
REMARK    9  A    between atoms: C_12  and  C_18
REMARK   10  A    between atoms: C_26  and  C_29
REMARK                            x       y       z     vdW  Elec       q    Type
REMARK                         _______ _______ _______ _____ _____    ______ ____
ROOT
ATOM      1  N   UNL     1       5.222  -2.219   0.000  0.00  0.00    +0.000 NA
ATOM      2  C   UNL     1       5.222  -0.569   0.000  0.00  0.00    +0.000 C 
ATOM      3  C   UNL     1       4.508  -0.982   0.000  0.00  0.00    +0.000 C 
ATOM      4  C   UNL     1       5.937  -0.982   0.000  0.00  0.00    +0.000 C 
ATOM      5  C   UNL     1       4.508  -1.807   0.000  0.00  0.00    +0.000 C 
ATOM      6  C   UNL     1       5.937  -1.807   0.000  0.00  0.00    +0.000 C 
ATOM      7  C   UNL     1       3.793  -2.219   0.000  0.00  0.00    +0.000 C 
ATOM      8  C   UNL     1       6.652  -2.219   0.000  0.00  0.00    +0.000 C 
ENDROOT
BRANCH   2   9
ATOM      9  C   UNL     1       5.222   0.256   0.000  0.00  0.00    +0.000 A 
ATOM     10  C   UNL     1       5.937   0.668   0.000  0.00  0.00    +0.000 A 
ATOM     11  C   UNL     1       4.508   0.668   0.000  0.00  0.00    +0.000 A 
ATOM     12  C   UNL     1       5.937   1.493   0.000  0.00  0.00    +0.000 A 
ATOM     13  C   UNL     1       4.508   1.493   0.000  0.00  0.00    +0.000 A 
ATOM     14  C   UNL     1       5.222   1.906   0.000  0.00  0.00    +0.000 A 
BRANCH  12  17
ATOM     15  O   UNL     1       6.652   2.731   0.000  0.00  0.00    +0.000 OA
ATOM     16  O   UNL     1       7.366   1.493   0.000  0.00  0.00    +0.000 OA
ATOM     17  N   UNL     1       6.652   1.906   0.000  0.00  0.00    +0.000 N 
ENDBRANCH  12  17
ENDBRANCH   2   9
BRANCH   3  19
ATOM     18  O   UNL     1       3.793   0.256   0.000  0.00  0.00    +0.000 OA
ATOM     19  C   UNL     1       3.793  -0.569   0.000  0.00  0.00    +0.000 C 
BRANCH  19  20
ATOM     20  O   UNL     1       3.079  -0.982   0.000  0.00  0.00    +0.000 OA
BRANCH  20  21
ATOM     21  C   UNL     1       2.365  -0.569   0.000  0.00  0.00    +0.000 C 
ATOM     22  C   UNL     1       1.650  -0.982   0.000  0.00  0.00    +0.000 C 
ATOM     23  C   UNL     1       2.365   0.256   0.000  0.00  0.00    +0.000 C 
ENDBRANCH  20  21
ENDBRANCH  19  20
ENDBRANCH   3  19
BRANCH   4  25
ATOM     24  O   UNL     1       6.652   0.256   0.000  0.00  0.00    +0.000 OA
ATOM     25  C   UNL     1       6.652  -0.569   0.000  0.00  0.00    +0.000 C 
BRANCH  25  26
ATOM     26  O   UNL     1       7.366  -0.982   0.000  0.00  0.00    +0.000 OA
BRANCH  26  27
ATOM     27  C   UNL     1       8.080  -0.569   0.000  0.00  0.00    +0.000 C 
BRANCH  27  28
ATOM     28  C   UNL     1       8.795  -0.982   0.000  0.00  0.00    +0.000 C 
BRANCH  28  29
ATOM     29  O   UNL     1       9.509  -0.569   0.000  0.00  0.00    +0.000 OA
ATOM     30  C   UNL     1      10.224  -0.982   0.000  0.00  0.00    +0.000 C 
ENDBRANCH  28  29
ENDBRANCH  27  28
ENDBRANCH  26  27
ENDBRANCH  25  26
ENDBRANCH   4  25
TORSDOF 10
