REMARK  Name = 395
REMARK  9 active torsions:
REMARK  status: ('A' for Active; 'I' for Inactive)
REMARK    1  A    between atoms: O_1  and  C_9
REMARK    2  A    between atoms: O_1  and  C_14
REMARK    3  A    between atoms: O_2  and  C_10
REMARK    4  A    between atoms: O_2  and  C_16
REMARK    5  A    between atoms: N_5  and  C_15
REMARK    6  A    between atoms: C_7  and  C_8
REMARK    7  A    between atoms: C_7  and  C_9
REMARK    8  A    between atoms: C_7  and  C_10
REMARK    9  A    between atoms: C_8  and  C_12
REMARK                            x       y       z     vdW  Elec       q    Type
REMARK                         _______ _______ _______ _____ _____    ______ ____
ROOT
ATOM      1  C   UNL     1       4.951  -0.453   0.000  0.00  0.00    +0.000 C 
ATOM      2  C   UNL     1       5.363  -1.167   0.000  0.00  0.00    +0.000 C 
ENDROOT
BRANCH   1   3
ATOM      3  C   UNL     1       5.665  -0.040   0.000  0.00  0.00    +0.000 C 
BRANCH   3   4
ATOM      4  O   UNL     1       6.380  -0.453   0.000  0.00  0.00    +0.000 OA
BRANCH   4   7
ATOM      5  O   UNL     1       7.094   0.785   0.000  0.00  0.00    +0.000 OA
ATOM      6  N   UNL     1       7.809  -0.453   0.000  0.00  0.00    +0.000 NA
ATOM      7  C   UNL     1       7.094  -0.040   0.000  0.00  0.00    +0.000 C 
BRANCH   6   8
ATOM      8  C   UNL     1       8.523  -0.040   0.000  0.00  0.00    +0.000 C 
ATOM      9  C   UNL     1       8.523   0.785   0.000  0.00  0.00    +0.000 C 
ATOM     10  C   UNL     1       9.238  -0.453   0.000  0.00  0.00    +0.000 C 
ENDBRANCH   6   8
ENDBRANCH   4   7
ENDBRANCH   3   4
ENDBRANCH   1   3
BRANCH   1  11
ATOM     11  C   UNL     1       4.237  -0.865   0.000  0.00  0.00    +0.000 C 
BRANCH  11  12
ATOM     12  O   UNL     1       3.522  -0.453   0.000  0.00  0.00    +0.000 OA
BRANCH  12  15
ATOM     13  O   UNL     1       2.808  -1.690   0.000  0.00  0.00    +0.000 OA
ATOM     14  N   UNL     1       2.093  -0.453   0.000  0.00  0.00    +0.000 NA
ATOM     15  C   UNL     1       2.808  -0.865   0.000  0.00  0.00    +0.000 C 
ENDBRANCH  12  15
ENDBRANCH  11  12
ENDBRANCH   1  11
BRANCH   1  16
ATOM     16  C   UNL     1       4.538   0.262   0.000  0.00  0.00    +0.000 C 
BRANCH  16  17
ATOM     17  C   UNL     1       4.951   0.976   0.000  0.00  0.00    +0.000 C 
ATOM     18  C   UNL     1       4.538   1.690   0.000  0.00  0.00    +0.000 C 
ENDBRANCH  16  17
ENDBRANCH   1  16
TORSDOF 9
