REMARK  Name = 396
REMARK  1 active torsions:
REMARK  status: ('A' for Active; 'I' for Inactive)
REMARK    1  A    between atoms: C_8  and  C_19
REMARK                            x       y       z     vdW  Elec       q    Type
REMARK                         _______ _______ _______ _____ _____    ______ ____
ROOT
ATOM      1  O   UNL     1       1.650  -2.065   0.000  0.00  0.00    +0.000 OA
ATOM      2  C   UNL     1       6.099  -0.372   0.000  0.00  0.00    +0.000 C 
ATOM      3  C   UNL     1       6.099   0.453   0.000  0.00  0.00    +0.000 C 
ATOM      4  C   UNL     1       5.385  -0.784   0.000  0.00  0.00    +0.000 C 
ATOM      5  C   UNL     1       4.670  -0.372   0.000  0.00  0.00    +0.000 C 
ATOM      6  C   UNL     1       3.919  -0.790   0.000  0.00  0.00    +0.000 C 
ATOM      7  C   UNL     1       6.880   0.705   0.000  0.00  0.00    +0.000 C 
ATOM      8  C   UNL     1       5.385   0.866   0.000  0.00  0.00    +0.000 C 
ATOM      9  C   UNL     1       4.670   0.453   0.000  0.00  0.00    +0.000 C 
ATOM     10  C   UNL     1       6.880  -0.623   0.000  0.00  0.00    +0.000 C 
ATOM     11  C   UNL     1       5.398  -1.643   0.000  0.00  0.00    +0.000 C 
ATOM     12  C   UNL     1       7.361   0.041   0.000  0.00  0.00    +0.000 C 
ATOM     13  C   UNL     1       3.913  -1.649   0.000  0.00  0.00    +0.000 C 
ATOM     14  C   UNL     1       6.099   1.278   0.000  0.00  0.00    +0.000 C 
ATOM     15  C   UNL     1       4.657  -2.079   0.000  0.00  0.00    +0.000 C 
ATOM     16  C   UNL     1       3.155  -0.325   0.000  0.00  0.00    +0.000 C 
ATOM     17  C   UNL     1       3.926   0.035   0.000  0.00  0.00    +0.000 C 
ATOM     18  C   UNL     1       2.373  -0.760   0.000  0.00  0.00    +0.000 C 
ATOM     19  C   UNL     1       3.141  -2.103   0.000  0.00  0.00    +0.000 C 
ATOM     20  C   UNL     1       2.366  -1.655   0.000  0.00  0.00    +0.000 C 
ENDROOT
BRANCH   7  22
ATOM     21  O   UNL     1       6.585   2.103   0.000  0.00  0.00    +0.000 OA
ATOM     22  C   UNL     1       7.136   1.489   0.000  0.00  0.00    +0.000 C 
ATOM     23  C   UNL     1       7.943   1.659   0.000  0.00  0.00    +0.000 C 
ENDBRANCH   7  22
TORSDOF 1
