REMARK  Name = 397
REMARK  1 active torsions:
REMARK  status: ('A' for Active; 'I' for Inactive)
REMARK    1  A    between atoms: C_8  and  C_10
REMARK                            x       y       z     vdW  Elec       q    Type
REMARK                         _______ _______ _______ _____ _____    ______ ____
ROOT
ATOM      1  C   UNL     1       2.514  -0.500   0.000  0.00  0.00    +0.000 A 
ATOM      2  C   UNL     1       1.800  -0.912   0.000  0.00  0.00    +0.000 A 
ATOM      3  C   UNL     1       1.085  -0.500   0.000  0.00  0.00    +0.000 A 
ATOM      4  C   UNL     1       1.085   0.325   0.000  0.00  0.00    +0.000 A 
ATOM      5  C   UNL     1       1.800   0.738   0.000  0.00  0.00    +0.000 A 
ATOM      6  C   UNL     1       2.514   0.325   0.000  0.00  0.00    +0.000 A 
ATOM      7  O   UNL     1       0.301  -0.755   0.000  0.00  0.00    +0.000 OA
ATOM      8  C   UNL     1      -0.184  -0.087   0.000  0.00  0.00    +0.000 A 
ATOM      9  C   UNL     1       0.301   0.580   0.000  0.00  0.00    +0.000 A 
ATOM     10  O   UNL     1       3.229   0.738   0.000  0.00  0.00    +0.000 OA
ENDROOT
BRANCH   8  11
ATOM     11  C   UNL     1      -1.009  -0.087   0.000  0.00  0.00    +0.000 A 
ATOM     12  C   UNL     1      -1.422  -0.802   0.000  0.00  0.00    +0.000 A 
ATOM     13  C   UNL     1      -2.247  -0.802   0.000  0.00  0.00    +0.000 A 
ATOM     14  C   UNL     1      -2.659  -0.087   0.000  0.00  0.00    +0.000 A 
ATOM     15  C   UNL     1      -2.247   0.627   0.000  0.00  0.00    +0.000 A 
ATOM     16  C   UNL     1      -1.422   0.627   0.000  0.00  0.00    +0.000 A 
ATOM     17  O   UNL     1      -3.484  -0.087   0.000  0.00  0.00    +0.000 OA
ENDBRANCH   8  11
TORSDOF 1
