REMARK  Name = 398
REMARK  6 active torsions:
REMARK  status: ('A' for Active; 'I' for Inactive)
REMARK    1  A    between atoms: O_5  and  C_17
REMARK    2  A    between atoms: O_5  and  C_26
REMARK    3  A    between atoms: N_8  and  C_12
REMARK    4  A    between atoms: N_9  and  C_15
REMARK    5  A    between atoms: C_13  and  C_25
REMARK    6  A    between atoms: C_28  and  C_31
REMARK                            x       y       z     vdW  Elec       q    Type
REMARK                         _______ _______ _______ _____ _____    ______ ____
ROOT
ATOM      1  C   UNL     1       5.222  -0.619   0.000  0.00  0.00    +0.000 A 
ATOM      2  C   UNL     1       5.222  -2.269   0.000  0.00  0.00    +0.000 A 
ATOM      3  C   UNL     1       5.937  -1.031   0.000  0.00  0.00    +0.000 A 
ATOM      4  C   UNL     1       4.508  -1.031   0.000  0.00  0.00    +0.000 A 
ATOM      5  C   UNL     1       5.937  -1.856   0.000  0.00  0.00    +0.000 A 
ATOM      6  C   UNL     1       4.508  -1.856   0.000  0.00  0.00    +0.000 A 
ENDROOT
BRANCH   1   9
ATOM      7  O   UNL     1       3.793   0.206   0.000  0.00  0.00    +0.000 OA
ATOM      8  N   UNL     1       4.508   1.444   0.000  0.00  0.00    +0.000 NA
ATOM      9  N   UNL     1       5.222   0.206   0.000  0.00  0.00    +0.000 NA
ATOM     10  C   UNL     1       4.508   0.619   0.000  0.00  0.00    +0.000 C 
BRANCH   8  12
ATOM     11 CL   UNL     1       1.650   3.094   0.000  0.00  0.00    +0.000 Cl
ATOM     12  C   UNL     1       3.793   1.856   0.000  0.00  0.00    +0.000 A 
ATOM     13  C   UNL     1       3.079   3.094   0.000  0.00  0.00    +0.000 A 
ATOM     14  C   UNL     1       3.793   2.681   0.000  0.00  0.00    +0.000 A 
ATOM     15  C   UNL     1       3.079   1.444   0.000  0.00  0.00    +0.000 A 
ATOM     16  C   UNL     1       2.365   2.681   0.000  0.00  0.00    +0.000 A 
ATOM     17  C   UNL     1       2.365   1.856   0.000  0.00  0.00    +0.000 A 
BRANCH  13  21
ATOM     18  F   UNL     1       2.254   3.919   0.000  0.00  0.00    +0.000 F 
ATOM     19  F   UNL     1       3.904   3.919   0.000  0.00  0.00    +0.000 F 
ATOM     20  F   UNL     1       3.079   4.744   0.000  0.00  0.00    +0.000 F 
ATOM     21  C   UNL     1       3.079   3.919   0.000  0.00  0.00    +0.000 C 
ENDBRANCH  13  21
ENDBRANCH   8  12
ENDBRANCH   1   9
BRANCH   2  22
ATOM     22  O   UNL     1       5.222  -3.094   0.000  0.00  0.00    +0.000 OA
BRANCH  22  24
ATOM     23  N   UNL     1       7.366  -4.331   0.000  0.00  0.00    +0.000 NA
ATOM     24  C   UNL     1       5.937  -3.506   0.000  0.00  0.00    +0.000 A 
ATOM     25  C   UNL     1       6.652  -3.094   0.000  0.00  0.00    +0.000 A 
ATOM     26  C   UNL     1       7.366  -3.506   0.000  0.00  0.00    +0.000 A 
ATOM     27  C   UNL     1       5.937  -4.331   0.000  0.00  0.00    +0.000 A 
ATOM     28  C   UNL     1       6.652  -4.744   0.000  0.00  0.00    +0.000 A 
BRANCH  26  31
ATOM     29  O   UNL     1       8.080  -2.269   0.000  0.00  0.00    +0.000 OA
ATOM     30  N   UNL     1       8.795  -3.506   0.000  0.00  0.00    +0.000 NA
ATOM     31  C   UNL     1       8.080  -3.094   0.000  0.00  0.00    +0.000 C 
ATOM     32  C   UNL     1       9.509  -3.094   0.000  0.00  0.00    +0.000 C 
ENDBRANCH  26  31
ENDBRANCH  22  24
ENDBRANCH   2  22
TORSDOF 6
