REMARK  Name = 39Z
REMARK  2 active torsions:
REMARK  status: ('A' for Active; 'I' for Inactive)
REMARK    1  A    between atoms: C_2  and  C_9
REMARK    2  A    between atoms: C_9  and  C_11
REMARK                            x       y       z     vdW  Elec       q    Type
REMARK                         _______ _______ _______ _____ _____    ______ ____
ROOT
ATOM      1  C   UNL     1      -2.360  -0.985   0.000  0.00  0.00    +0.000 C 
ATOM      2  C   UNL     1      -1.875  -1.652   0.000  0.00  0.00    +0.000 C 
ATOM      3  C   UNL     1      -1.090  -0.572   0.000  0.00  0.00    +0.000 A 
ATOM      4  C   UNL     1      -1.090  -1.397   0.000  0.00  0.00    +0.000 A 
ATOM      5  C   UNL     1      -0.376  -1.810   0.000  0.00  0.00    +0.000 A 
ATOM      6  C   UNL     1       0.339  -1.397   0.000  0.00  0.00    +0.000 A 
ATOM      7  C   UNL     1       0.339  -0.572   0.000  0.00  0.00    +0.000 A 
ATOM      8  C   UNL     1      -0.376  -0.160   0.000  0.00  0.00    +0.000 A 
ATOM      9  O   UNL     1      -3.185  -0.985   0.000  0.00  0.00    +0.000 OA
ATOM     10  N   UNL     1      -1.875  -0.317   0.000  0.00  0.00    +0.000 NA
ATOM     11  O   UNL     1       1.053  -1.810   0.000  0.00  0.00    +0.000 OA
ENDROOT
BRANCH   2  12
ATOM     12  C   UNL     1      -2.130  -2.437   0.000  0.00  0.00    +0.000 C 
ATOM     13  C   UNL     1      -2.937  -2.608   0.000  0.00  0.00    +0.000 C 
BRANCH  12  14
ATOM     14  C   UNL     1      -1.578  -3.050   0.000  0.00  0.00    +0.000 A 
ATOM     15  C   UNL     1      -1.749  -3.857   0.000  0.00  0.00    +0.000 A 
ATOM     16  C   UNL     1      -1.035  -4.269   0.000  0.00  0.00    +0.000 A 
ATOM     17  C   UNL     1      -0.422  -3.717   0.000  0.00  0.00    +0.000 A 
ATOM     18  N   UNL     1      -0.757  -2.964   0.000  0.00  0.00    +0.000 NA
ENDBRANCH  12  14
ENDBRANCH   2  12
TORSDOF 2
