REMARK  Name = 3A3
REMARK  6 active torsions:
REMARK  status: ('A' for Active; 'I' for Inactive)
REMARK    1  A    between atoms: C_2  and  C_4
REMARK    2  A    between atoms: C_4  and  O_5
REMARK    3  A    between atoms: O_5  and  C_6
REMARK    4  A    between atoms: C_20  and  O_21
REMARK    5  A    between atoms: O_21  and  C_22
REMARK    6  A    between atoms: C_22  and  C_23
REMARK                            x       y       z     vdW  Elec       q    Type
REMARK                         _______ _______ _______ _____ _____    ______ ____
ROOT
ATOM      1  C   UNL     1       2.001   0.053   0.000  0.00  0.00    +0.000 A 
ATOM      2  C   UNL     1       1.449  -0.560   0.000  0.00  0.00    +0.000 A 
ATOM      3  C   UNL     1       1.746   0.837   0.000  0.00  0.00    +0.000 A 
ATOM      4  C   UNL     1       0.939   1.009   0.000  0.00  0.00    +0.000 A 
ATOM      5  C   UNL     1       0.387   0.396   0.000  0.00  0.00    +0.000 A 
ATOM      6  C   UNL     1       0.642  -0.389   0.000  0.00  0.00    +0.000 A 
ATOM      7  C   UNL     1      -0.025  -0.874   0.000  0.00  0.00    +0.000 C 
ATOM      8  N   UNL     1      -0.025  -1.699   0.000  0.00  0.00    +0.000 NA
ATOM      9  O   UNL     1      -0.740  -2.111   0.000  0.00  0.00    +0.000 OA
ATOM     10  C   UNL     1      -0.693  -0.389   0.000  0.00  0.00    +0.000 A 
ATOM     11  C   UNL     1      -1.500  -0.560   0.000  0.00  0.00    +0.000 A 
ATOM     12  C   UNL     1      -0.438   0.396   0.000  0.00  0.00    +0.000 A 
ATOM     13  C   UNL     1      -0.990   1.009   0.000  0.00  0.00    +0.000 A 
ATOM     14  C   UNL     1      -1.797   0.837   0.000  0.00  0.00    +0.000 A 
ATOM     15  C   UNL     1      -2.052   0.053   0.000  0.00  0.00    +0.000 A 
ENDROOT
BRANCH   1  16
ATOM     16  O   UNL     1       2.808  -0.119   0.000  0.00  0.00    +0.000 OA
BRANCH  16  17
ATOM     17  C   UNL     1       3.360   0.494   0.000  0.00  0.00    +0.000 C 
BRANCH  17  19
ATOM     18  O   UNL     1       4.719   0.936   0.000  0.00  0.00    +0.000 OA
ATOM     19  C   UNL     1       4.167   0.323   0.000  0.00  0.00    +0.000 C 
ATOM     20  O   UNL     1       4.422  -0.462   0.000  0.00  0.00    +0.000 OA
ENDBRANCH  17  19
ENDBRANCH  16  17
ENDBRANCH   1  16
BRANCH  15  21
ATOM     21  O   UNL     1      -2.859  -0.119   0.000  0.00  0.00    +0.000 OA
BRANCH  21  22
ATOM     22  C   UNL     1      -3.114  -0.903   0.000  0.00  0.00    +0.000 C 
BRANCH  22  23
ATOM     23  C   UNL     1      -3.921  -1.075   0.000  0.00  0.00    +0.000 C 
ATOM     24  O   UNL     1      -4.176  -1.860   0.000  0.00  0.00    +0.000 OA
ATOM     25  O   UNL     1      -4.473  -0.462   0.000  0.00  0.00    +0.000 OA
ENDBRANCH  22  23
ENDBRANCH  21  22
ENDBRANCH  15  21
TORSDOF 6
