REMARK  Name = 3AC
REMARK  5 active torsions:
REMARK  status: ('A' for Active; 'I' for Inactive)
REMARK    1  A    between atoms: O_1  and  C_2
REMARK    2  A    between atoms: O_1  and  C_13
REMARK    3  A    between atoms: C_10  and  C_11
REMARK    4  A    between atoms: C_17  and  C_19
REMARK    5  A    between atoms: C_20  and  C_22
REMARK                            x       y       z     vdW  Elec       q    Type
REMARK                         _______ _______ _______ _____ _____    ______ ____
ROOT
ATOM      1  O   UNL     1       1.275   0.964   0.000  0.00  0.00    +0.000 OA
ENDROOT
BRANCH   1   2
ATOM      2  C   UNL     1       1.275   0.139   0.000  0.00  0.00    +0.000 A 
ATOM      3  C   UNL     1       1.989  -0.274   0.000  0.00  0.00    +0.000 A 
ATOM      4  I   UNL     1       2.704   0.139   0.000  0.00  0.00    +0.000 I 
ATOM      5  C   UNL     1       1.989  -1.099   0.000  0.00  0.00    +0.000 A 
ATOM      6  O   UNL     1       2.704  -1.511   0.000  0.00  0.00    +0.000 OA
ATOM      7  N   UNL     1       1.275  -1.511   0.000  0.00  0.00    +0.000 NA
ATOM      8  C   UNL     1       0.560  -1.099   0.000  0.00  0.00    +0.000 A 
ATOM      9  C   UNL     1      -0.154  -1.511   0.000  0.00  0.00    +0.000 C 
ATOM     10  C   UNL     1       0.560  -0.274   0.000  0.00  0.00    +0.000 A 
BRANCH  10  11
ATOM     11  C   UNL     1      -0.154   0.139   0.000  0.00  0.00    +0.000 C 
ATOM     12  C   UNL     1      -0.869  -0.274   0.000  0.00  0.00    +0.000 C 
ENDBRANCH  10  11
ENDBRANCH   1   2
BRANCH   1  13
ATOM     13  C   UNL     1       0.560   1.376   0.000  0.00  0.00    +0.000 A 
ATOM     14  C   UNL     1      -0.154   0.964   0.000  0.00  0.00    +0.000 A 
ATOM     15  C   UNL     1      -0.869   1.376   0.000  0.00  0.00    +0.000 A 
ATOM     16  C   UNL     1      -0.869   2.201   0.000  0.00  0.00    +0.000 A 
ATOM     17  C   UNL     1      -0.154   2.614   0.000  0.00  0.00    +0.000 A 
ATOM     18  C   UNL     1       0.560   2.201   0.000  0.00  0.00    +0.000 A 
BRANCH  17  19
ATOM     19  C   UNL     1      -0.154   3.439   0.000  0.00  0.00    +0.000 C 
ATOM     20  C   UNL     1       0.560   3.851   0.000  0.00  0.00    +0.000 C 
BRANCH  20  22
ATOM     21  N   UNL     1       0.560   5.501   0.000  0.00  0.00    +0.000 NA
ATOM     22  C   UNL     1       0.560   4.676   0.000  0.00  0.00    +0.000 C 
ENDBRANCH  20  22
ENDBRANCH  17  19
ENDBRANCH   1  13
TORSDOF 5
