REMARK  Name = 3AS
REMARK  3 active torsions:
REMARK  status: ('A' for Active; 'I' for Inactive)
REMARK    1  A    between atoms: C_3  and  C_23
REMARK    2  A    between atoms: C_6  and  C_7
REMARK    3  A    between atoms: C_23  and  O_24
REMARK                            x       y       z     vdW  Elec       q    Type
REMARK                         _______ _______ _______ _____ _____    ______ ____
ROOT
ATOM      1  C   UNL     1      -1.755  -2.041   0.000  0.00  0.00    +0.000 A 
ATOM      2  C   UNL     1      -2.145  -1.314   0.000  0.00  0.00    +0.000 A 
ATOM      3  C   UNL     1      -1.711  -0.612   0.000  0.00  0.00    +0.000 A 
ATOM      4  C   UNL     1      -0.886  -0.638   0.000  0.00  0.00    +0.000 A 
ATOM      5  O   UNL     1      -0.451   0.063   0.000  0.00  0.00    +0.000 OA
ATOM      6  C   UNL     1       0.373   0.037   0.000  0.00  0.00    +0.000 C 
ATOM      7  C   UNL     1       0.763  -0.690   0.000  0.00  0.00    +0.000 C 
ATOM      8  C   UNL     1       0.329  -1.391   0.000  0.00  0.00    +0.000 C 
ATOM      9  C   UNL     1      -0.496  -1.365   0.000  0.00  0.00    +0.000 A 
ATOM     10  C   UNL     1      -0.931  -2.066   0.000  0.00  0.00    +0.000 A 
ATOM     11  C   UNL     1       0.861  -2.021   0.000  0.00  0.00    +0.000 C 
ATOM     12  C   UNL     1       1.625  -1.709   0.000  0.00  0.00    +0.000 C 
ATOM     13  F   UNL     1       1.855  -2.501   0.000  0.00  0.00    +0.000 F 
ATOM     14  F   UNL     1       2.437  -1.563   0.000  0.00  0.00    +0.000 F 
ATOM     15  C   UNL     1       1.564  -0.886   0.000  0.00  0.00    +0.000 C 
ATOM     16  O   UNL     1      -2.190  -2.742   0.000  0.00  0.00    +0.000 OA
ENDROOT
BRANCH   6  17
ATOM     17  C   UNL     1       0.808   0.739   0.000  0.00  0.00    +0.000 A 
ATOM     18  C   UNL     1       0.418   1.466   0.000  0.00  0.00    +0.000 A 
ATOM     19  C   UNL     1       0.852   2.167   0.000  0.00  0.00    +0.000 A 
ATOM     20  C   UNL     1       1.677   2.141   0.000  0.00  0.00    +0.000 A 
ATOM     21  O   UNL     1       2.112   2.842   0.000  0.00  0.00    +0.000 OA
ATOM     22  C   UNL     1       2.067   1.414   0.000  0.00  0.00    +0.000 A 
ATOM     23  C   UNL     1       1.632   0.713   0.000  0.00  0.00    +0.000 A 
ENDBRANCH   6  17
BRANCH   3  24
ATOM     24  C   UNL     1      -2.101   0.115   0.000  0.00  0.00    +0.000 C 
BRANCH  24  25
ATOM     25  O   UNL     1      -1.666   0.816   0.000  0.00  0.00    +0.000 OA
ATOM     26  C   UNL     1      -2.056   1.543   0.000  0.00  0.00    +0.000 C 
ENDBRANCH  24  25
ENDBRANCH   3  24
TORSDOF 3
