REMARK  Name = 3B3
REMARK  5 active torsions:
REMARK  status: ('A' for Active; 'I' for Inactive)
REMARK    1  A    between atoms: C_6  and  N_7
REMARK    2  A    between atoms: N_7  and  C_8
REMARK    3  A    between atoms: C_8  and  C_13
REMARK    4  A    between atoms: C_11  and  N_18
REMARK    5  A    between atoms: C_13  and  C_14
REMARK                            x       y       z     vdW  Elec       q    Type
REMARK                         _______ _______ _______ _____ _____    ______ ____
ROOT
ATOM      1  C   UNL     1      -0.868   1.533   0.000  0.00  0.00    +0.000 A 
ATOM      2  C   UNL     1      -0.154   1.945   0.000  0.00  0.00    +0.000 A 
ATOM      3  C   UNL     1       0.561   1.533   0.000  0.00  0.00    +0.000 A 
ATOM      4  N   UNL     1       0.561   0.708   0.000  0.00  0.00    +0.000 NA
ATOM      5  C   UNL     1      -0.154   0.295   0.000  0.00  0.00    +0.000 A 
ATOM      6  C   UNL     1      -0.154  -0.530   0.000  0.00  0.00    +0.000 A 
ATOM      7  C   UNL     1      -0.868  -0.942   0.000  0.00  0.00    +0.000 A 
ATOM      8  C   UNL     1      -1.583  -0.530   0.000  0.00  0.00    +0.000 A 
ATOM      9  C   UNL     1      -1.583   0.295   0.000  0.00  0.00    +0.000 A 
ATOM     10  C   UNL     1      -0.868   0.708   0.000  0.00  0.00    +0.000 A 
ENDROOT
BRANCH   9  13
ATOM     11  O   UNL     1      -3.012   0.295   0.000  0.00  0.00    +0.000 OA
ATOM     12  O   UNL     1      -2.297   1.533   0.000  0.00  0.00    +0.000 OA
ATOM     13  N   UNL     1      -2.297   0.708   0.000  0.00  0.00    +0.000 N 
ENDBRANCH   9  13
BRANCH   6  14
ATOM     14  N   UNL     1       0.561  -0.942   0.000  0.00  0.00    +0.000 NA
BRANCH  14  15
ATOM     15  C   UNL     1       1.275  -0.530   0.000  0.00  0.00    +0.000 C 
BRANCH  15  16
ATOM     16  C   UNL     1       1.990  -0.942   0.000  0.00  0.00    +0.000 C 
ATOM     17  O   UNL     1       1.990  -1.767   0.000  0.00  0.00    +0.000 OA
BRANCH  16  18
ATOM     18  C   UNL     1       2.704  -0.530   0.000  0.00  0.00    +0.000 C 
ATOM     19  N   UNL     1       3.419  -0.942   0.000  0.00  0.00    +0.000 NA
ENDBRANCH  16  18
ENDBRANCH  15  16
ENDBRANCH  14  15
ENDBRANCH   6  14
TORSDOF 5
