REMARK  Name = 3B4
REMARK  3 active torsions:
REMARK  status: ('A' for Active; 'I' for Inactive)
REMARK    1  A    between atoms: C_6  and  N_7
REMARK    2  A    between atoms: N_7  and  C_8
REMARK    3  A    between atoms: C_13  and  C_14
REMARK                            x       y       z     vdW  Elec       q    Type
REMARK                         _______ _______ _______ _____ _____    ______ ____
ROOT
ATOM      1  C   UNL     1       0.216  -0.503   0.000  0.00  0.00    +0.000 A 
ATOM      2  C   UNL     1      -0.498  -0.916   0.000  0.00  0.00    +0.000 A 
ATOM      3  C   UNL     1      -0.498  -1.741   0.000  0.00  0.00    +0.000 A 
ATOM      4  C   UNL     1       0.216  -2.153   0.000  0.00  0.00    +0.000 A 
ATOM      5  C   UNL     1       0.931  -1.741   0.000  0.00  0.00    +0.000 A 
ATOM      6  C   UNL     1       0.931  -0.916   0.000  0.00  0.00    +0.000 A 
ENDROOT
BRANCH   6   7
ATOM      7  C   UNL     1       1.645  -0.503   0.000  0.00  0.00    +0.000 C 
ATOM      8  O   UNL     1       2.360  -0.916   0.000  0.00  0.00    +0.000 OA
ATOM      9  O   UNL     1       1.645   0.322   0.000  0.00  0.00    +0.000 OA
ENDBRANCH   6   7
BRANCH   1  10
ATOM     10  N   UNL     1       0.216   0.322   0.000  0.00  0.00    +0.000 NA
BRANCH  10  16
ATOM     11  C   UNL     1      -0.498   1.559   0.000  0.00  0.00    +0.000 C 
ATOM     12  C   UNL     1      -1.212   1.972   0.000  0.00  0.00    +0.000 C 
ATOM     13  C   UNL     1      -1.927   1.559   0.000  0.00  0.00    +0.000 C 
ATOM     14  C   UNL     1      -1.927   0.734   0.000  0.00  0.00    +0.000 C 
ATOM     15  C   UNL     1      -1.212   0.322   0.000  0.00  0.00    +0.000 C 
ATOM     16  C   UNL     1      -0.498   0.734   0.000  0.00  0.00    +0.000 C 
ENDBRANCH  10  16
ENDBRANCH   1  10
TORSDOF 3
