REMARK  Name = 3B6
REMARK  7 active torsions:
REMARK  status: ('A' for Active; 'I' for Inactive)
REMARK    1  A    between atoms: C_4  and  C_5
REMARK    2  A    between atoms: C_9  and  N_10
REMARK    3  A    between atoms: C_11  and  C_13
REMARK    4  A    between atoms: C_13  and  C_16
REMARK    5  A    between atoms: C_16  and  O_17
REMARK    6  A    between atoms: O_17  and  C_18
REMARK    7  A    between atoms: C_21  and  C_22
REMARK                            x       y       z     vdW  Elec       q    Type
REMARK                         _______ _______ _______ _____ _____    ______ ____
ROOT
ATOM      1  C   UNL     1       1.184  -0.031   0.000  0.00  0.00    +0.000 C 
ATOM      2  O   UNL     1       0.771  -0.746   0.000  0.00  0.00    +0.000 OA
ATOM      3  C   UNL     1       1.597   0.683   0.000  0.00  0.00    +0.000 C 
ENDROOT
BRANCH   1   5
ATOM      4  N   UNL     1      -0.245  -0.031   0.000  0.00  0.00    +0.000 NA
ATOM      5  C   UNL     1       0.469   0.382   0.000  0.00  0.00    +0.000 C 
ATOM      6  O   UNL     1       0.469   1.206   0.000  0.00  0.00    +0.000 OA
BRANCH   4  13
ATOM      7  C   UNL     1      -1.674  -0.031   0.000  0.00  0.00    +0.000 A 
ATOM      8  C   UNL     1      -2.388   0.382   0.000  0.00  0.00    +0.000 A 
ATOM      9  I   UNL     1      -3.103  -0.031   0.000  0.00  0.00    +0.000 I 
ATOM     10  C   UNL     1      -2.388   1.206   0.000  0.00  0.00    +0.000 A 
ATOM     11  C   UNL     1      -1.674   1.619   0.000  0.00  0.00    +0.000 A 
ATOM     12  C   UNL     1      -0.959   1.206   0.000  0.00  0.00    +0.000 A 
ATOM     13  C   UNL     1      -0.959   0.382   0.000  0.00  0.00    +0.000 A 
BRANCH  10  14
ATOM     14  C   UNL     1      -3.103   1.619   0.000  0.00  0.00    +0.000 C 
ATOM     15  N   UNL     1      -3.817   2.031   0.000  0.00  0.00    +0.000 NA
ENDBRANCH  10  14
ENDBRANCH   4  13
ENDBRANCH   1   5
BRANCH   1  16
ATOM     16  C   UNL     1       1.899  -0.444   0.000  0.00  0.00    +0.000 C 
BRANCH  16  17
ATOM     17  O   UNL     1       2.613  -0.031   0.000  0.00  0.00    +0.000 OA
BRANCH  17  18
ATOM     18  C   UNL     1       3.327  -0.444   0.000  0.00  0.00    +0.000 A 
ATOM     19  C   UNL     1       4.042  -0.031   0.000  0.00  0.00    +0.000 A 
ATOM     20  C   UNL     1       4.756  -0.444   0.000  0.00  0.00    +0.000 A 
ATOM     21  C   UNL     1       4.756  -1.268   0.000  0.00  0.00    +0.000 A 
ATOM     22  C   UNL     1       4.042  -1.681   0.000  0.00  0.00    +0.000 A 
ATOM     23  C   UNL     1       3.327  -1.268   0.000  0.00  0.00    +0.000 A 
BRANCH  21  24
ATOM     24  C   UNL     1       5.471  -1.681   0.000  0.00  0.00    +0.000 C 
ATOM     25  N   UNL     1       6.185  -2.094   0.000  0.00  0.00    +0.000 NA
ENDBRANCH  21  24
ENDBRANCH  17  18
ENDBRANCH  16  17
ENDBRANCH   1  16
TORSDOF 7
