REMARK  Name = 3B8
REMARK  1 active torsions:
REMARK  status: ('A' for Active; 'I' for Inactive)
REMARK    1  A    between atoms: C_14  and  C_20
REMARK                            x       y       z     vdW  Elec       q    Type
REMARK                         _______ _______ _______ _____ _____    ______ ____
ROOT
ATOM      1  C   UNL     1       2.619  -0.671   0.000  0.00  0.00    +0.000 A 
ATOM      2  C   UNL     1       1.904  -1.084   0.000  0.00  0.00    +0.000 A 
ATOM      3  C   UNL     1       1.904   0.566   0.000  0.00  0.00    +0.000 A 
ATOM      4  C   UNL     1       1.190   0.153   0.000  0.00  0.00    +0.000 A 
ATOM      5  C   UNL     1       1.190  -0.671   0.000  0.00  0.00    +0.000 A 
ATOM      6  C   UNL     1       2.619   0.153   0.000  0.00  0.00    +0.000 A 
ATOM      7  O   UNL     1       0.475  -1.084   0.000  0.00  0.00    +0.000 OA
ATOM      8  C   UNL     1       0.475   0.566   0.000  0.00  0.00    +0.000 A 
ATOM      9  F   UNL     1       3.333   0.566   0.000  0.00  0.00    +0.000 F 
ATOM     10  O   UNL     1       0.475   1.391   0.000  0.00  0.00    +0.000 OA
ATOM     11  C   UNL     1      -1.668  -0.671   0.000  0.00  0.00    +0.000 A 
ATOM     12  C   UNL     1      -1.668   0.153   0.000  0.00  0.00    +0.000 A 
ATOM     13  C   UNL     1      -0.954   0.566   0.000  0.00  0.00    +0.000 A 
ATOM     14  C   UNL     1      -0.239   0.153   0.000  0.00  0.00    +0.000 A 
ATOM     15  C   UNL     1      -0.239  -0.671   0.000  0.00  0.00    +0.000 A 
ATOM     16  N   UNL     1      -0.954  -1.084   0.000  0.00  0.00    +0.000 NA
ATOM     17  N   UNL     1      -2.383  -1.084   0.000  0.00  0.00    +0.000 NA
ENDROOT
BRANCH  12  20
ATOM     18  O   UNL     1      -3.097   0.153   0.000  0.00  0.00    +0.000 OA
ATOM     19  N   UNL     1      -2.383   1.391   0.000  0.00  0.00    +0.000 NA
ATOM     20  C   UNL     1      -2.383   0.566   0.000  0.00  0.00    +0.000 C 
ENDBRANCH  12  20
TORSDOF 1
