REMARK  Name = 3B9
REMARK  6 active torsions:
REMARK  status: ('A' for Active; 'I' for Inactive)
REMARK    1  A    between atoms: C_5  and  C_9
REMARK    2  A    between atoms: C_5  and  C_10
REMARK    3  A    between atoms: C_10  and  N_18
REMARK    4  A    between atoms: C_19  and  C_21
REMARK    5  A    between atoms: C_23  and  O_26
REMARK    6  A    between atoms: O_26  and  C_27
REMARK                            x       y       z     vdW  Elec       q    Type
REMARK                         _______ _______ _______ _____ _____    ______ ____
ROOT
ATOM      1  C   UNL     1      -0.600  -0.753   0.000  0.00  0.00    +0.000 C 
ENDROOT
BRANCH   1   2
ATOM      2  C   UNL     1      -1.315  -0.341   0.000  0.00  0.00    +0.000 C 
ATOM      3  C   UNL     1      -1.727  -1.055   0.000  0.00  0.00    +0.000 C 
ATOM      4  C   UNL     1      -0.902   0.374   0.000  0.00  0.00    +0.000 C 
BRANCH   2  11
ATOM      5  C   UNL     1      -4.887   0.072   0.000  0.00  0.00    +0.000 A 
ATOM      6  C   UNL     1      -4.173   1.309   0.000  0.00  0.00    +0.000 A 
ATOM      7  C   UNL     1      -3.458   0.072   0.000  0.00  0.00    +0.000 A 
ATOM      8  C   UNL     1      -3.458   0.897   0.000  0.00  0.00    +0.000 A 
ATOM      9  C   UNL     1      -2.744   1.309   0.000  0.00  0.00    +0.000 A 
ATOM     10  C   UNL     1      -2.029   0.897   0.000  0.00  0.00    +0.000 A 
ATOM     11  C   UNL     1      -2.029   0.072   0.000  0.00  0.00    +0.000 A 
ATOM     12  N   UNL     1      -4.887   0.897   0.000  0.00  0.00    +0.000 NA
ATOM     13  N   UNL     1      -4.173  -0.341   0.000  0.00  0.00    +0.000 NA
ATOM     14  N   UNL     1      -2.744  -0.341   0.000  0.00  0.00    +0.000 NA
ATOM     15  N   UNL     1      -5.602  -0.341   0.000  0.00  0.00    +0.000 NA
ATOM     16  N   UNL     1      -4.173   2.134   0.000  0.00  0.00    +0.000 NA
ENDBRANCH   2  11
ENDBRANCH   1   2
BRANCH   1  17
ATOM     17  N   UNL     1       0.114  -0.341   0.000  0.00  0.00    +0.000 NA
ATOM     18  C   UNL     1       0.829  -0.753   0.000  0.00  0.00    +0.000 C 
ATOM     19  O   UNL     1       0.829  -1.578   0.000  0.00  0.00    +0.000 OA
BRANCH  18  21
ATOM     20  C   UNL     1       2.972  -0.341   0.000  0.00  0.00    +0.000 A 
ATOM     21  C   UNL     1       1.543  -0.341   0.000  0.00  0.00    +0.000 A 
ATOM     22  C   UNL     1       2.257  -0.753   0.000  0.00  0.00    +0.000 A 
ATOM     23  C   UNL     1       2.972   0.484   0.000  0.00  0.00    +0.000 A 
ATOM     24  C   UNL     1       2.257   0.897   0.000  0.00  0.00    +0.000 A 
ATOM     25  C   UNL     1       1.543   0.484   0.000  0.00  0.00    +0.000 A 
BRANCH  23  26
ATOM     26  O   UNL     1       3.686   0.897   0.000  0.00  0.00    +0.000 OA
BRANCH  26  27
ATOM     27  C   UNL     1       4.401   0.484   0.000  0.00  0.00    +0.000 A 
ATOM     28  C   UNL     1       5.115   0.897   0.000  0.00  0.00    +0.000 A 
ATOM     29  C   UNL     1       5.830   0.484   0.000  0.00  0.00    +0.000 A 
ATOM     30  C   UNL     1       5.830  -0.341   0.000  0.00  0.00    +0.000 A 
ATOM     31  C   UNL     1       5.115  -0.753   0.000  0.00  0.00    +0.000 A 
ATOM     32  C   UNL     1       4.401  -0.341   0.000  0.00  0.00    +0.000 A 
ENDBRANCH  26  27
ENDBRANCH  23  26
ENDBRANCH  18  21
ENDBRANCH   1  17
TORSDOF 6
