REMARK  Name = 3BA
REMARK  5 active torsions:
REMARK  status: ('A' for Active; 'I' for Inactive)
REMARK    1  A    between atoms: C_6  and  C_7
REMARK    2  A    between atoms: C_11  and  C_18
REMARK    3  A    between atoms: C_12  and  C_13
REMARK    4  A    between atoms: C_12  and  N_24
REMARK    5  A    between atoms: C_13  and  C_14
REMARK                            x       y       z     vdW  Elec       q    Type
REMARK                         _______ _______ _______ _____ _____    ______ ____
ROOT
ATOM      1  N   UNL     1      -1.827  -1.882   0.000  0.00  0.00    +0.000 NA
ATOM      2  C   UNL     1      -1.827  -0.232   0.000  0.00  0.00    +0.000 A 
ATOM      3  N   UNL     1       0.316  -0.645   0.000  0.00  0.00    +0.000 NA
ATOM      4  C   UNL     1      -1.113  -1.470   0.000  0.00  0.00    +0.000 A 
ATOM      5  C   UNL     1       0.316  -1.470   0.000  0.00  0.00    +0.000 A 
ATOM      6  C   UNL     1      -0.398  -0.232   0.000  0.00  0.00    +0.000 A 
ATOM      7  C   UNL     1      -1.113  -0.645   0.000  0.00  0.00    +0.000 A 
ATOM      8  C   UNL     1      -2.542  -1.470   0.000  0.00  0.00    +0.000 A 
ATOM      9  C   UNL     1      -2.542  -0.645   0.000  0.00  0.00    +0.000 A 
ATOM     10  N   UNL     1      -0.398  -1.882   0.000  0.00  0.00    +0.000 NA
ATOM     11  N   UNL     1      -3.256  -1.882   0.000  0.00  0.00    +0.000 NA
ATOM     12  N   UNL     1      -0.398   0.593   0.000  0.00  0.00    +0.000 NA
ENDROOT
BRANCH   5  14
ATOM     13  C   UNL     1       1.745  -2.295   0.000  0.00  0.00    +0.000 C 
ATOM     14  C   UNL     1       1.031  -1.882   0.000  0.00  0.00    +0.000 C 
ATOM     15  C   UNL     1       0.618  -2.597   0.000  0.00  0.00    +0.000 C 
ATOM     16  C   UNL     1       1.443  -1.168   0.000  0.00  0.00    +0.000 C 
ENDBRANCH   5  14
BRANCH   9  17
ATOM     17  C   UNL     1      -3.256  -0.232   0.000  0.00  0.00    +0.000 C 
ATOM     18  O   UNL     1      -3.970  -0.645   0.000  0.00  0.00    +0.000 OA
ATOM     19  N   UNL     1      -3.256   0.593   0.000  0.00  0.00    +0.000 NA
ENDBRANCH   9  17
BRANCH  12  20
ATOM     20  C   UNL     1       0.316   1.005   0.000  0.00  0.00    +0.000 C 
BRANCH  20  21
ATOM     21  C   UNL     1       0.316   1.830   0.000  0.00  0.00    +0.000 C 
BRANCH  21  22
ATOM     22  C   UNL     1       1.031   2.243   0.000  0.00  0.00    +0.000 A 
ATOM     23  C   UNL     1       2.337   2.520   0.000  0.00  0.00    +0.000 A 
ATOM     24  C   UNL     1       1.117   3.063   0.000  0.00  0.00    +0.000 A 
ATOM     25  N   UNL     1       1.784   1.907   0.000  0.00  0.00    +0.000 NA
ATOM     26  N   UNL     1       1.924   3.235   0.000  0.00  0.00    +0.000 NA
ENDBRANCH  21  22
ENDBRANCH  20  21
ENDBRANCH  12  20
TORSDOF 5
