REMARK  Name = 3BD
REMARK  3 active torsions:
REMARK  status: ('A' for Active; 'I' for Inactive)
REMARK    1  A    between atoms: C_1  and  C_12
REMARK    2  A    between atoms: C_3  and  C_15
REMARK    3  A    between atoms: C_19  and  N_22
REMARK                            x       y       z     vdW  Elec       q    Type
REMARK                         _______ _______ _______ _____ _____    ______ ____
ROOT
ATOM      1  N   UNL     1      -0.162   2.407   0.000  0.00  0.00    +0.000 NA
ATOM      2  C   UNL     1       1.981   1.994   0.000  0.00  0.00    +0.000 A 
ATOM      3  C   UNL     1       1.981   1.169   0.000  0.00  0.00    +0.000 A 
ATOM      4  C   UNL     1       1.267   0.757   0.000  0.00  0.00    +0.000 A 
ATOM      5  C   UNL     1       0.552   1.994   0.000  0.00  0.00    +0.000 A 
ATOM      6  C   UNL     1      -0.877   1.994   0.000  0.00  0.00    +0.000 A 
ATOM      7  N   UNL     1       1.267   2.407   0.000  0.00  0.00    +0.000 NA
ATOM      8  N   UNL     1      -0.877   1.169   0.000  0.00  0.00    +0.000 NA
ATOM      9  C   UNL     1       0.552   1.169   0.000  0.00  0.00    +0.000 A 
ATOM     10  C   UNL     1      -0.162   0.757   0.000  0.00  0.00    +0.000 A 
ATOM     11  N   UNL     1       2.696   2.407   0.000  0.00  0.00    +0.000 NA
ENDROOT
BRANCH  10  15
ATOM     12  C   UNL     1       0.552  -0.480   0.000  0.00  0.00    +0.000 C 
ATOM     13  C   UNL     1       0.552  -1.306   0.000  0.00  0.00    +0.000 C 
ATOM     14  C   UNL     1      -0.877  -1.306   0.000  0.00  0.00    +0.000 C 
ATOM     15  N   UNL     1      -0.162  -0.068   0.000  0.00  0.00    +0.000 N 
ATOM     16  N   UNL     1      -0.162  -1.718   0.000  0.00  0.00    +0.000 N 
ATOM     17  C   UNL     1      -0.877  -0.480   0.000  0.00  0.00    +0.000 C 
ATOM     18  C   UNL     1      -0.162  -2.543   0.000  0.00  0.00    +0.000 A 
ATOM     19  N   UNL     1       0.552  -2.955   0.000  0.00  0.00    +0.000 NA
ATOM     20  C   UNL     1       0.552  -3.780   0.000  0.00  0.00    +0.000 A 
ATOM     21  C   UNL     1      -0.162  -4.193   0.000  0.00  0.00    +0.000 A 
ATOM     22  C   UNL     1      -0.877  -3.780   0.000  0.00  0.00    +0.000 A 
ATOM     23  N   UNL     1      -0.877  -2.955   0.000  0.00  0.00    +0.000 NA
ENDBRANCH  10  15
BRANCH   6  24
ATOM     24  C   UNL     1      -1.591   2.407   0.000  0.00  0.00    +0.000 C 
ATOM     25  C   UNL     1      -2.305   2.820   0.000  0.00  0.00    +0.000 C 
ATOM     26  C   UNL     1      -2.003   1.693   0.000  0.00  0.00    +0.000 C 
ATOM     27  C   UNL     1      -1.179   3.122   0.000  0.00  0.00    +0.000 C 
ENDBRANCH   6  24
BRANCH   3  28
ATOM     28  C   UNL     1       2.696   0.757   0.000  0.00  0.00    +0.000 C 
ATOM     29  O   UNL     1       3.410   1.169   0.000  0.00  0.00    +0.000 OA
ATOM     30  N   UNL     1       2.696  -0.068   0.000  0.00  0.00    +0.000 NA
ENDBRANCH   3  28
TORSDOF 3
