REMARK  Name = 3BE
REMARK  3 active torsions:
REMARK  status: ('A' for Active; 'I' for Inactive)
REMARK    1  A    between atoms: C_7  and  C_8
REMARK    2  A    between atoms: N_10  and  N_11
REMARK    3  A    between atoms: C_12  and  C_13
REMARK                            x       y       z     vdW  Elec       q    Type
REMARK                         _______ _______ _______ _____ _____    ______ ____
ROOT
ATOM      1  N   UNL     1      -0.617   0.453   0.000  0.00  0.00    +0.000 NA
ATOM      2  C   UNL     1      -1.332   0.041   0.000  0.00  0.00    +0.000 C 
ENDROOT
BRANCH   2   3
ATOM      3  C   UNL     1      -2.046   0.453   0.000  0.00  0.00    +0.000 A 
ATOM      4  C   UNL     1      -2.761   0.041   0.000  0.00  0.00    +0.000 A 
ATOM      5  C   UNL     1      -3.475   0.453   0.000  0.00  0.00    +0.000 A 
ATOM      6 BR   UNL     1      -4.190   0.041   0.000  0.00  0.00    +0.000 Br
ATOM      7  C   UNL     1      -3.475   1.278   0.000  0.00  0.00    +0.000 A 
ATOM      8  O   UNL     1      -4.190   1.690   0.000  0.00  0.00    +0.000 OA
ATOM      9  C   UNL     1      -2.761   1.690   0.000  0.00  0.00    +0.000 A 
ATOM     10 BR   UNL     1      -2.761   2.515   0.000  0.00  0.00    +0.000 Br
ATOM     11  C   UNL     1      -2.046   1.278   0.000  0.00  0.00    +0.000 A 
ATOM     12  O   UNL     1      -1.332   1.690   0.000  0.00  0.00    +0.000 OA
ENDBRANCH   2   3
BRANCH   1  15
ATOM     13  C   UNL     1       0.811   0.453   0.000  0.00  0.00    +0.000 C 
ATOM     14  O   UNL     1       0.811   1.278   0.000  0.00  0.00    +0.000 OA
ATOM     15  N   UNL     1       0.097   0.041   0.000  0.00  0.00    +0.000 NA
BRANCH  13  22
ATOM     16  C   UNL     1       2.240   0.453   0.000  0.00  0.00    +0.000 A 
ATOM     17  C   UNL     1       2.955   0.041   0.000  0.00  0.00    +0.000 A 
ATOM     18 BR   UNL     1       3.669   0.453   0.000  0.00  0.00    +0.000 Br
ATOM     19  C   UNL     1       2.955  -0.784   0.000  0.00  0.00    +0.000 A 
ATOM     20  C   UNL     1       2.240  -1.197   0.000  0.00  0.00    +0.000 A 
ATOM     21  C   UNL     1       1.526  -0.784   0.000  0.00  0.00    +0.000 A 
ATOM     22  C   UNL     1       1.526   0.041   0.000  0.00  0.00    +0.000 A 
ENDBRANCH  13  22
ENDBRANCH   1  15
TORSDOF 3
