REMARK  Name = 3BK
REMARK  4 active torsions:
REMARK  status: ('A' for Active; 'I' for Inactive)
REMARK    1  A    between atoms: C_8  and  C_9
REMARK    2  A    between atoms: C_9  and  N_10
REMARK    3  A    between atoms: N_20  and  C1*_21
REMARK    4  A    between atoms: C4*_23  and  C5*_24
REMARK                            x       y       z     vdW  Elec       q    Type
REMARK                         _______ _______ _______ _____ _____    ______ ____
ROOT
ATOM      1  N   UNL     1       0.040   0.702   0.000  0.00  0.00    +0.000 NA
ATOM      2  C   UNL     1       0.865   0.702   0.000  0.00  0.00    +0.000 A 
ATOM      3  N   UNL     1       1.350   1.369   0.000  0.00  0.00    +0.000 NA
ATOM      4  C   UNL     1       2.135   1.114   0.000  0.00  0.00    +0.000 A 
ATOM      5  C   UNL     1       2.849   1.527   0.000  0.00  0.00    +0.000 A 
ATOM      6  N   UNL     1       2.849   2.352   0.000  0.00  0.00    +0.000 NA
ATOM      7  N   UNL     1       3.564   1.114   0.000  0.00  0.00    +0.000 NA
ATOM      8  C   UNL     1       3.564   0.289   0.000  0.00  0.00    +0.000 A 
ATOM      9  N   UNL     1       2.849  -0.123   0.000  0.00  0.00    +0.000 NA
ATOM     10  C   UNL     1       2.135   0.289   0.000  0.00  0.00    +0.000 A 
ATOM     11  N   UNL     1       1.350   0.034   0.000  0.00  0.00    +0.000 N 
ENDROOT
BRANCH  11  12
ATOM     12  C1* UNL     1       1.095  -0.750   0.000  0.00  0.00    +0.000 C 
ATOM     13  O4* UNL     1       1.580  -1.418   0.000  0.00  0.00    +0.000 OA
ATOM     14  C4* UNL     1       1.095  -2.085   0.000  0.00  0.00    +0.000 C 
ATOM     15  C3* UNL     1       0.311  -1.830   0.000  0.00  0.00    +0.000 C 
ATOM     16  O3* UNL     1      -0.357  -2.315   0.000  0.00  0.00    +0.000 OA
ATOM     17  C2* UNL     1       0.311  -1.005   0.000  0.00  0.00    +0.000 C 
ATOM     18  O2* UNL     1      -0.357  -0.520   0.000  0.00  0.00    +0.000 OA
BRANCH  14  19
ATOM     19  C5* UNL     1       1.350  -2.870   0.000  0.00  0.00    +0.000 C 
ATOM     20  O5* UNL     1       2.157  -3.041   0.000  0.00  0.00    +0.000 OA
ENDBRANCH  14  19
ENDBRANCH  11  12
BRANCH   1  21
ATOM     21  C   UNL     1      -0.372   1.416   0.000  0.00  0.00    +0.000 C 
BRANCH  21  29
ATOM     22  C   UNL     1      -1.610   0.702   0.000  0.00  0.00    +0.000 A 
ATOM     23  C   UNL     1      -2.435   0.702   0.000  0.00  0.00    +0.000 A 
ATOM     24 CL   UNL     1      -2.847  -0.013   0.000  0.00  0.00    +0.000 Cl
ATOM     25  C   UNL     1      -2.847   1.416   0.000  0.00  0.00    +0.000 A 
ATOM     26 CL   UNL     1      -3.672   1.416   0.000  0.00  0.00    +0.000 Cl
ATOM     27  C   UNL     1      -2.435   2.131   0.000  0.00  0.00    +0.000 A 
ATOM     28  C   UNL     1      -1.610   2.131   0.000  0.00  0.00    +0.000 A 
ATOM     29  C   UNL     1      -1.197   1.416   0.000  0.00  0.00    +0.000 A 
ENDBRANCH  21  29
ENDBRANCH   1  21
TORSDOF 4
