REMARK  Name = 3BT
REMARK  8 active torsions:
REMARK  status: ('A' for Active; 'I' for Inactive)
REMARK    1  A    between atoms: C_1  and  C_2
REMARK    2  A    between atoms: C_1  and  S_6
REMARK    3  A    between atoms: C_2  and  C_9
REMARK    4  A    between atoms: C_5  and  S_6
REMARK    5  A    between atoms: C_7  and  C_14
REMARK    6  A    between atoms: C_13  and  C_14
REMARK    7  A    between atoms: C_13  and  S_18
REMARK    8  A    between atoms: C_17  and  S_18
REMARK                            x       y       z     vdW  Elec       q    Type
REMARK                         _______ _______ _______ _____ _____    ______ ____
ROOT
ATOM      1  C   UNL     1       0.165   1.186   0.000  0.00  0.00    +0.000 A 
ATOM      2  C   UNL     1       0.165   0.361   0.000  0.00  0.00    +0.000 A 
ATOM      3  C   UNL     1      -0.549  -0.052   0.000  0.00  0.00    +0.000 A 
ATOM      4  C   UNL     1      -1.264   0.361   0.000  0.00  0.00    +0.000 A 
ATOM      5  C   UNL     1      -1.264   1.186   0.000  0.00  0.00    +0.000 A 
ATOM      6  C   UNL     1      -0.549   1.598   0.000  0.00  0.00    +0.000 A 
ENDROOT
BRANCH   1   7
ATOM      7  C   UNL     1       0.880   1.598   0.000  0.00  0.00    +0.000 C 
BRANCH   7   8
ATOM      8  C   UNL     1       1.594   1.186   0.000  0.00  0.00    +0.000 C 
BRANCH   8   9
ATOM      9  S   UNL     1       2.309   1.598   0.000  0.00  0.00    +0.000 S 
BRANCH   9  12
ATOM     10  N   UNL     1       3.738   1.598   0.000  0.00  0.00    +0.000 NA
ATOM     11  N   UNL     1       3.023   0.361   0.000  0.00  0.00    +0.000 NA
ATOM     12  C   UNL     1       3.023   1.186   0.000  0.00  0.00    +0.000 C 
ENDBRANCH   9  12
ENDBRANCH   8   9
ENDBRANCH   7   8
ENDBRANCH   1   7
BRANCH   3  13
ATOM     13  C   UNL     1      -0.549  -0.877   0.000  0.00  0.00    +0.000 C 
BRANCH  13  14
ATOM     14  C   UNL     1      -1.264  -1.289   0.000  0.00  0.00    +0.000 C 
BRANCH  14  15
ATOM     15  S   UNL     1      -1.264  -2.114   0.000  0.00  0.00    +0.000 S 
BRANCH  15  18
ATOM     16  N   UNL     1      -1.978  -3.352   0.000  0.00  0.00    +0.000 NA
ATOM     17  N   UNL     1      -2.693  -2.114   0.000  0.00  0.00    +0.000 NA
ATOM     18  C   UNL     1      -1.978  -2.527   0.000  0.00  0.00    +0.000 C 
ENDBRANCH  15  18
ENDBRANCH  14  15
ENDBRANCH  13  14
ENDBRANCH   3  13
TORSDOF 8
