REMARK  Name = 3CA
REMARK  2 active torsions:
REMARK  status: ('A' for Active; 'I' for Inactive)
REMARK    1  A    between atoms: C_2  and  C_4
REMARK    2  A    between atoms: C_9  and  C_11
REMARK                            x       y       z     vdW  Elec       q    Type
REMARK                         _______ _______ _______ _____ _____    ______ ____
ROOT
ATOM      1  C   UNL     1       1.016   0.781   0.000  0.00  0.00    +0.000 A 
ATOM      2  C   UNL     1       1.731   0.369   0.000  0.00  0.00    +0.000 A 
ATOM      3  O   UNL     1       2.445   0.781   0.000  0.00  0.00    +0.000 OA
ATOM      4  C   UNL     1       1.731  -0.456   0.000  0.00  0.00    +0.000 A 
ATOM      5  C   UNL     1       1.016  -0.869   0.000  0.00  0.00    +0.000 A 
ATOM      6  C   UNL     1       0.302  -0.456   0.000  0.00  0.00    +0.000 A 
ATOM      7  C   UNL     1       0.302   0.369   0.000  0.00  0.00    +0.000 A 
ENDROOT
BRANCH   6   8
ATOM      8  C   UNL     1      -0.413  -0.869   0.000  0.00  0.00    +0.000 A 
ATOM      9  C   UNL     1      -0.413  -1.694   0.000  0.00  0.00    +0.000 A 
ATOM     10  C   UNL     1      -1.127  -0.456   0.000  0.00  0.00    +0.000 A 
ATOM     11 CL   UNL     1      -1.127   0.369   0.000  0.00  0.00    +0.000 Cl
ATOM     12  C   UNL     1      -1.842  -0.869   0.000  0.00  0.00    +0.000 A 
ATOM     13  C   UNL     1      -1.842  -1.694   0.000  0.00  0.00    +0.000 A 
ATOM     14 CL   UNL     1      -2.556  -2.106   0.000  0.00  0.00    +0.000 Cl
ATOM     15  C   UNL     1      -1.127  -2.106   0.000  0.00  0.00    +0.000 A 
ENDBRANCH   6   8
BRANCH   1  17
ATOM     16  O   UNL     1       1.731   2.019   0.000  0.00  0.00    +0.000 OA
ATOM     17  C   UNL     1       1.016   1.606   0.000  0.00  0.00    +0.000 C 
ATOM     18  O   UNL     1       0.302   2.019   0.000  0.00  0.00    +0.000 OA
ENDBRANCH   1  17
TORSDOF 2
