REMARK  Name = 3CC
REMARK  7 active torsions:
REMARK  status: ('A' for Active; 'I' for Inactive)
REMARK    1  A    between atoms: C_2  and  S_10
REMARK    2  A    between atoms: C_8  and  N_14
REMARK    3  A    between atoms: C_15  and  C_17
REMARK    4  A    between atoms: C_17  and  C_18
REMARK    5  A    between atoms: C_17  and  C_21
REMARK    6  A    between atoms: C_18  and  C_19
REMARK    7  A    between atoms: C_21  and  C_22
REMARK                            x       y       z     vdW  Elec       q    Type
REMARK                         _______ _______ _______ _____ _____    ______ ____
ROOT
ATOM      1  C   UNL     1       1.966  -2.612   0.000  0.00  0.00    +0.000 A 
ATOM      2  C   UNL     1       1.553  -3.327   0.000  0.00  0.00    +0.000 A 
ATOM      3  C   UNL     1       0.728  -3.327   0.000  0.00  0.00    +0.000 A 
ATOM      4  C   UNL     1       0.316  -2.612   0.000  0.00  0.00    +0.000 A 
ATOM      5  C   UNL     1       1.553  -1.898   0.000  0.00  0.00    +0.000 A 
ATOM      6  C   UNL     1       0.728  -1.898   0.000  0.00  0.00    +0.000 A 
ATOM      7  C   UNL     1       0.473  -1.113   0.000  0.00  0.00    +0.000 C 
ATOM      8  C   UNL     1       1.141  -0.628   0.000  0.00  0.00    +0.000 C 
ATOM      9  C   UNL     1       1.808  -1.113   0.000  0.00  0.00    +0.000 C 
ENDROOT
BRANCH   2  10
ATOM     10  S   UNL     1       1.966  -4.041   0.000  0.00  0.00    +0.000 S 
ATOM     11  O   UNL     1       2.378  -4.756   0.000  0.00  0.00    +0.000 OA
ATOM     12  O   UNL     1       2.680  -3.629   0.000  0.00  0.00    +0.000 OA
ATOM     13  N   UNL     1       1.251  -4.454   0.000  0.00  0.00    +0.000 NA
ENDBRANCH   2  10
BRANCH   8  14
ATOM     14  N   UNL     1       1.141   0.197   0.000  0.00  0.00    +0.000 NA
ATOM     15  C   UNL     1       0.426   0.609   0.000  0.00  0.00    +0.000 C 
ATOM     16  O   UNL     1      -0.288   0.197   0.000  0.00  0.00    +0.000 OA
BRANCH  15  17
ATOM     17  C   UNL     1       0.426   1.434   0.000  0.00  0.00    +0.000 C 
BRANCH  17  18
ATOM     18  C   UNL     1       1.141   1.847   0.000  0.00  0.00    +0.000 C 
BRANCH  18  19
ATOM     19  C   UNL     1       1.141   2.672   0.000  0.00  0.00    +0.000 C 
ATOM     20  C   UNL     1       1.855   3.084   0.000  0.00  0.00    +0.000 C 
ENDBRANCH  18  19
ENDBRANCH  17  18
BRANCH  17  21
ATOM     21  C   UNL     1      -0.288   1.847   0.000  0.00  0.00    +0.000 C 
BRANCH  21  22
ATOM     22  C   UNL     1      -0.288   2.672   0.000  0.00  0.00    +0.000 C 
ATOM     23  C   UNL     1      -1.003   3.084   0.000  0.00  0.00    +0.000 C 
ENDBRANCH  21  22
ENDBRANCH  17  21
ENDBRANCH  15  17
ENDBRANCH   8  14
TORSDOF 7
