REMARK  Name = 3CZ
REMARK  5 active torsions:
REMARK  status: ('A' for Active; 'I' for Inactive)
REMARK    1  A    between atoms: N_2  and  C_4
REMARK    2  A    between atoms: C_9  and  N_10
REMARK    3  A    between atoms: N_16  and  S_17
REMARK    4  A    between atoms: S_17  and  C_20
REMARK    5  A    between atoms: C_25  and  C_26
REMARK                            x       y       z     vdW  Elec       q    Type
REMARK                         _______ _______ _______ _____ _____    ______ ____
ROOT
ATOM      1  N   UNL     1      -0.620   1.894   0.000  0.00  0.00    +0.000 N 
ATOM      2  C   UNL     1       0.094   1.481   0.000  0.00  0.00    +0.000 C 
ATOM      3  C   UNL     1       0.094   0.656   0.000  0.00  0.00    +0.000 C 
ATOM      4  C   UNL     1       0.809   0.244   0.000  0.00  0.00    +0.000 C 
ATOM      5  C   UNL     1      -1.335   1.481   0.000  0.00  0.00    +0.000 C 
ATOM      6  C   UNL     1      -1.335   0.656   0.000  0.00  0.00    +0.000 C 
ATOM      7  N   UNL     1      -0.620   0.244   0.000  0.00  0.00    +0.000 NA
ENDROOT
BRANCH   1  13
ATOM      8  C   UNL     1      -0.620   4.369   0.000  0.00  0.00    +0.000 A 
ATOM      9  C   UNL     1       0.094   3.956   0.000  0.00  0.00    +0.000 A 
ATOM     10  C   UNL     1       0.094   3.131   0.000  0.00  0.00    +0.000 A 
ATOM     11  C   UNL     1      -1.335   3.956   0.000  0.00  0.00    +0.000 A 
ATOM     12  C   UNL     1      -1.335   3.131   0.000  0.00  0.00    +0.000 A 
ATOM     13  C   UNL     1      -0.620   2.719   0.000  0.00  0.00    +0.000 A 
BRANCH   8  15
ATOM     14  O   UNL     1      -1.335   5.606   0.000  0.00  0.00    +0.000 OA
ATOM     15  N   UNL     1      -0.620   5.194   0.000  0.00  0.00    +0.000 N 
ATOM     16  O   UNL     1       0.094   5.606   0.000  0.00  0.00    +0.000 OA
ENDBRANCH   8  15
ENDBRANCH   1  13
BRANCH   7  17
ATOM     17  S   UNL     1      -0.620  -0.581   0.000  0.00  0.00    +0.000 S 
ATOM     18  O   UNL     1      -1.445  -0.581   0.000  0.00  0.00    +0.000 OA
ATOM     19  O   UNL     1       0.205  -0.581   0.000  0.00  0.00    +0.000 OA
BRANCH  17  20
ATOM     20  C   UNL     1      -0.620  -1.406   0.000  0.00  0.00    +0.000 A 
ATOM     21  C   UNL     1       0.094  -1.819   0.000  0.00  0.00    +0.000 A 
ATOM     22  C   UNL     1       0.094  -2.644   0.000  0.00  0.00    +0.000 A 
ATOM     23  C   UNL     1      -1.335  -1.819   0.000  0.00  0.00    +0.000 A 
ATOM     24  C   UNL     1      -1.335  -2.644   0.000  0.00  0.00    +0.000 A 
ATOM     25  C   UNL     1      -0.620  -3.056   0.000  0.00  0.00    +0.000 A 
BRANCH  25  26
ATOM     26  C   UNL     1      -0.620  -3.881   0.000  0.00  0.00    +0.000 C 
ATOM     27  C   UNL     1      -0.620  -4.706   0.000  0.00  0.00    +0.000 C 
ATOM     28  C   UNL     1      -1.445  -3.881   0.000  0.00  0.00    +0.000 C 
ATOM     29  C   UNL     1       0.205  -3.881   0.000  0.00  0.00    +0.000 C 
ENDBRANCH  25  26
ENDBRANCH  17  20
ENDBRANCH   7  17
TORSDOF 5
