REMARK  Name = 3DH
REMARK  4 active torsions:
REMARK  status: ('A' for Active; 'I' for Inactive)
REMARK    1  A    between atoms: C_2  and  S_3
REMARK    2  A    between atoms: S_3  and  C_4
REMARK    3  A    between atoms: C_4  and  C_5
REMARK    4  A    between atoms: C_11  and  N_12
REMARK                            x       y       z     vdW  Elec       q    Type
REMARK                         _______ _______ _______ _____ _____    ______ ____
ROOT
ATOM      1  C   UNL     1      -0.434  -0.628   0.000  0.00  0.00    +0.000 C 
ATOM      2  O   UNL     1      -0.434   0.197   0.000  0.00  0.00    +0.000 OA
ATOM      3  C   UNL     1       0.350  -0.883   0.000  0.00  0.00    +0.000 C 
ATOM      4  O   UNL     1       0.605  -1.668   0.000  0.00  0.00    +0.000 OA
ATOM      5  C   UNL     1       0.835  -0.216   0.000  0.00  0.00    +0.000 C 
ATOM      6  O   UNL     1       1.660  -0.216   0.000  0.00  0.00    +0.000 OA
ATOM      7  C   UNL     1       0.350   0.451   0.000  0.00  0.00    +0.000 C 
ENDROOT
BRANCH   7   8
ATOM      8  N   UNL     1       0.605   1.236   0.000  0.00  0.00    +0.000 N 
ATOM      9  C   UNL     1       0.120   1.903   0.000  0.00  0.00    +0.000 A 
ATOM     10  N   UNL     1       0.605   2.571   0.000  0.00  0.00    +0.000 NA
ATOM     11  C   UNL     1       1.390   2.316   0.000  0.00  0.00    +0.000 A 
ATOM     12  C   UNL     1       1.390   1.491   0.000  0.00  0.00    +0.000 A 
ATOM     13  N   UNL     1       2.104   1.079   0.000  0.00  0.00    +0.000 NA
ATOM     14  C   UNL     1       2.819   1.491   0.000  0.00  0.00    +0.000 A 
ATOM     15  N   UNL     1       2.819   2.316   0.000  0.00  0.00    +0.000 NA
ATOM     16  C   UNL     1       2.104   2.728   0.000  0.00  0.00    +0.000 A 
ATOM     17  N   UNL     1       2.104   3.554   0.000  0.00  0.00    +0.000 NA
ENDBRANCH   7   8
BRANCH   1  18
ATOM     18  C   UNL     1      -1.102  -1.113   0.000  0.00  0.00    +0.000 C 
BRANCH  18  19
ATOM     19  S   UNL     1      -1.015  -1.934   0.000  0.00  0.00    +0.000 S 
BRANCH  19  21
ATOM     20  C   UNL     1      -1.597  -3.239   0.000  0.00  0.00    +0.000 C 
ATOM     21  C   UNL     1      -1.683  -2.419   0.000  0.00  0.00    +0.000 C 
ENDBRANCH  19  21
ENDBRANCH  18  19
ENDBRANCH   1  18
TORSDOF 4
