REMARK  Name = 3EA
REMARK  11 active torsions:
REMARK  status: ('A' for Active; 'I' for Inactive)
REMARK    1  A    between atoms: C_2  and  C_3
REMARK    2  A    between atoms: C_3  and  C_4
REMARK    3  A    between atoms: C_8  and  C_9
REMARK    4  A    between atoms: C_16  and  O_17
REMARK    5  A    between atoms: O_17  and  C_18
REMARK    6  A    between atoms: C_18  and  C_19
REMARK    7  A    between atoms: C_19  and  C_20
REMARK    8  A    between atoms: C_20  and  O_21
REMARK    9  A    between atoms: O_21  and  C_22
REMARK   10  A    between atoms: N_30  and  C_31
REMARK   11  A    between atoms: C_31  and  C_32
REMARK                            x       y       z     vdW  Elec       q    Type
REMARK                         _______ _______ _______ _____ _____    ______ ____
ROOT
ATOM      1  O   UNL     1      -1.754  -0.309   0.000  0.00  0.00    +0.000 OA
ENDROOT
BRANCH   1  10
ATOM      2  C   UNL     1      -3.183  -0.309   0.000  0.00  0.00    +0.000 A 
ATOM      3  C   UNL     1      -3.897   0.104   0.000  0.00  0.00    +0.000 A 
ATOM      4  O   UNL     1      -4.682  -0.151   0.000  0.00  0.00    +0.000 OA
ATOM      5  N   UNL     1      -5.167   0.516   0.000  0.00  0.00    +0.000 NA
ATOM      6  C   UNL     1      -4.682   1.184   0.000  0.00  0.00    +0.000 A 
ATOM      7  C   UNL     1      -3.897   0.929   0.000  0.00  0.00    +0.000 A 
ATOM      8  C   UNL     1      -3.183   1.341   0.000  0.00  0.00    +0.000 A 
ATOM      9  C   UNL     1      -2.468   0.929   0.000  0.00  0.00    +0.000 A 
ATOM     10  C   UNL     1      -2.468   0.104   0.000  0.00  0.00    +0.000 A 
BRANCH   6  11
ATOM     11  C   UNL     1      -4.937   1.968   0.000  0.00  0.00    +0.000 C 
ATOM     12  F   UNL     1      -5.192   2.753   0.000  0.00  0.00    +0.000 F 
ATOM     13  F   UNL     1      -5.721   1.713   0.000  0.00  0.00    +0.000 F 
ATOM     14  F   UNL     1      -4.152   2.223   0.000  0.00  0.00    +0.000 F 
ENDBRANCH   6  11
BRANCH   2  15
ATOM     15  C   UNL     1      -3.183  -1.134   0.000  0.00  0.00    +0.000 C 
BRANCH  15  17
ATOM     16  C   UNL     1      -2.468  -2.371   0.000  0.00  0.00    +0.000 C 
ATOM     17  C   UNL     1      -2.468  -1.546   0.000  0.00  0.00    +0.000 C 
ENDBRANCH  15  17
ENDBRANCH   2  15
ENDBRANCH   1  10
BRANCH   1  18
ATOM     18  C   UNL     1      -1.040   0.104   0.000  0.00  0.00    +0.000 C 
BRANCH  18  19
ATOM     19  C   UNL     1      -0.325  -0.309   0.000  0.00  0.00    +0.000 C 
BRANCH  19  20
ATOM     20  C   UNL     1       0.390   0.104   0.000  0.00  0.00    +0.000 C 
BRANCH  20  21
ATOM     21  O   UNL     1       1.104  -0.309   0.000  0.00  0.00    +0.000 OA
BRANCH  21  22
ATOM     22  C   UNL     1       1.818   0.104   0.000  0.00  0.00    +0.000 A 
ATOM     23  C   UNL     1       1.818   0.929   0.000  0.00  0.00    +0.000 A 
ATOM     24  C   UNL     1       2.533  -0.309   0.000  0.00  0.00    +0.000 A 
ATOM     25  C   UNL     1       3.247   0.104   0.000  0.00  0.00    +0.000 A 
ATOM     26  C   UNL     1       3.247   0.929   0.000  0.00  0.00    +0.000 A 
ATOM     27  C   UNL     1       2.533   1.341   0.000  0.00  0.00    +0.000 A 
ATOM     28  C   UNL     1       2.704   2.148   0.000  0.00  0.00    +0.000 A 
ATOM     29  C   UNL     1       3.525   2.234   0.000  0.00  0.00    +0.000 A 
ATOM     30  N   UNL     1       3.860   1.481   0.000  0.00  0.00    +0.000 N 
BRANCH  30  31
ATOM     31  C   UNL     1       4.667   1.309   0.000  0.00  0.00    +0.000 C 
BRANCH  31  32
ATOM     32  C   UNL     1       4.922   0.525   0.000  0.00  0.00    +0.000 C 
ATOM     33  O   UNL     1       5.729   0.353   0.000  0.00  0.00    +0.000 OA
ATOM     34  O   UNL     1       4.370  -0.088   0.000  0.00  0.00    +0.000 OA
ENDBRANCH  31  32
ENDBRANCH  30  31
ENDBRANCH  21  22
ENDBRANCH  20  21
ENDBRANCH  19  20
ENDBRANCH  18  19
ENDBRANCH   1  18
TORSDOF 11
