REMARK  Name = 3FP
REMARK  9 active torsions:
REMARK  status: ('A' for Active; 'I' for Inactive)
REMARK    1  A    between atoms: C_1  and  N_20
REMARK    2  A    between atoms: C_7  and  N_20
REMARK    3  A    between atoms: C_10  and  N_22
REMARK    4  A    between atoms: C_12  and  C_24
REMARK    5  A    between atoms: C_14  and  O_23
REMARK    6  A    between atoms: C_14  and  C_28
REMARK    7  A    between atoms: C_16  and  O_23
REMARK    8  A    between atoms: C_28  and  C_29
REMARK    9  A    between atoms: C_29  and  N_32
REMARK                            x       y       z     vdW  Elec       q    Type
REMARK                         _______ _______ _______ _____ _____    ______ ____
ROOT
ATOM      1  C   UNL     1      -1.588   1.415   0.000  0.00  0.00    +0.000 A 
ATOM      2  N   UNL     1      -3.017   0.590   0.000  0.00  0.00    +0.000 NA
ATOM      3  C   UNL     1      -1.588   0.590   0.000  0.00  0.00    +0.000 A 
ATOM      4  C   UNL     1      -2.303   0.177   0.000  0.00  0.00    +0.000 A 
ATOM      5  C   UNL     1      -3.017   1.415   0.000  0.00  0.00    +0.000 A 
ATOM      6  N   UNL     1      -2.303   1.827   0.000  0.00  0.00    +0.000 NA
ATOM      7  N   UNL     1      -2.303  -0.648   0.000  0.00  0.00    +0.000 NA
ENDROOT
BRANCH   7   9
ATOM      8  C   UNL     1      -1.588  -1.885   0.000  0.00  0.00    +0.000 A 
ATOM      9  C   UNL     1      -1.588  -1.060   0.000  0.00  0.00    +0.000 A 
ATOM     10  C   UNL     1      -0.874  -2.298   0.000  0.00  0.00    +0.000 A 
ATOM     11  C   UNL     1      -0.159  -1.060   0.000  0.00  0.00    +0.000 A 
ATOM     12  C   UNL     1      -0.159  -1.885   0.000  0.00  0.00    +0.000 A 
ATOM     13  C   UNL     1      -0.874  -0.648   0.000  0.00  0.00    +0.000 A 
BRANCH  12  14
ATOM     14  O   UNL     1       0.555  -2.298   0.000  0.00  0.00    +0.000 OA
BRANCH  14  15
ATOM     15  C   UNL     1       1.270  -1.885   0.000  0.00  0.00    +0.000 C 
BRANCH  15  16
ATOM     16  C   UNL     1       1.984  -2.298   0.000  0.00  0.00    +0.000 C 
ATOM     17  O   UNL     1       1.984  -3.123   0.000  0.00  0.00    +0.000 OA
BRANCH  16  18
ATOM     18  C   UNL     1       2.699  -1.885   0.000  0.00  0.00    +0.000 C 
BRANCH  18  21
ATOM     19  C   UNL     1       4.128  -1.885   0.000  0.00  0.00    +0.000 C 
ATOM     20  C   UNL     1       3.413  -3.123   0.000  0.00  0.00    +0.000 C 
ATOM     21  N   UNL     1       3.413  -2.298   0.000  0.00  0.00    +0.000 NA
ENDBRANCH  18  21
ENDBRANCH  16  18
ENDBRANCH  15  16
ENDBRANCH  14  15
ENDBRANCH  12  14
ENDBRANCH   7   9
BRANCH   1  22
ATOM     22  N   UNL     1      -0.874   1.827   0.000  0.00  0.00    +0.000 NA
BRANCH  22  26
ATOM     23  C   UNL     1      -0.874   4.302   0.000  0.00  0.00    +0.000 A 
ATOM     24  C   UNL     1      -0.159   3.889   0.000  0.00  0.00    +0.000 A 
ATOM     25  C   UNL     1      -0.159   3.064   0.000  0.00  0.00    +0.000 A 
ATOM     26  C   UNL     1      -0.874   2.652   0.000  0.00  0.00    +0.000 A 
ATOM     27  C   UNL     1      -1.588   3.064   0.000  0.00  0.00    +0.000 A 
ATOM     28  C   UNL     1      -1.588   3.889   0.000  0.00  0.00    +0.000 A 
ATOM     29  F   UNL     1       0.555   2.652   0.000  0.00  0.00    +0.000 F 
BRANCH  28  30
ATOM     30  C   UNL     1      -2.303   4.302   0.000  0.00  0.00    +0.000 C 
ATOM     31  F   UNL     1      -3.017   4.715   0.000  0.00  0.00    +0.000 F 
ATOM     32  F   UNL     1      -2.715   3.587   0.000  0.00  0.00    +0.000 F 
ATOM     33  F   UNL     1      -1.890   5.016   0.000  0.00  0.00    +0.000 F 
ENDBRANCH  28  30
ENDBRANCH  22  26
ENDBRANCH   1  22
TORSDOF 9
