REMARK  Name = 3G3
REMARK  3 active torsions:
REMARK  status: ('A' for Active; 'I' for Inactive)
REMARK    1  A    between atoms: N_9  and  C_12
REMARK    2  A    between atoms: C_12  and  C_13
REMARK    3  A    between atoms: C_13  and  C_14
REMARK                            x       y       z     vdW  Elec       q    Type
REMARK                         _______ _______ _______ _____ _____    ______ ____
ROOT
ATOM      1  O   UNL     1       0.403   1.612   0.000  0.00  0.00    +0.000 OA
ATOM      2  C   UNL     1       0.658   0.828   0.000  0.00  0.00    +0.000 C 
ATOM      3  C   UNL     1       1.442   0.573   0.000  0.00  0.00    +0.000 A 
ATOM      4  C   UNL     1       2.157   0.985   0.000  0.00  0.00    +0.000 A 
ATOM      5  C   UNL     1       2.871   0.573   0.000  0.00  0.00    +0.000 A 
ATOM      6  C   UNL     1       2.871  -0.252   0.000  0.00  0.00    +0.000 A 
ATOM      7  C   UNL     1       2.157  -0.665   0.000  0.00  0.00    +0.000 A 
ATOM      8  C   UNL     1       1.442  -0.252   0.000  0.00  0.00    +0.000 A 
ATOM      9  N   UNL     1       0.173   0.160   0.000  0.00  0.00    +0.000 N 
ATOM     10  C   UNL     1       0.658  -0.507   0.000  0.00  0.00    +0.000 C 
ATOM     11  O   UNL     1       0.403  -1.292   0.000  0.00  0.00    +0.000 OA
ENDROOT
BRANCH   9  12
ATOM     12  C   UNL     1      -0.652   0.160   0.000  0.00  0.00    +0.000 C 
BRANCH  12  13
ATOM     13  C   UNL     1      -1.065  -0.554   0.000  0.00  0.00    +0.000 C 
BRANCH  13  14
ATOM     14  C   UNL     1      -1.890  -0.554   0.000  0.00  0.00    +0.000 A 
ATOM     15  N   UNL     1      -2.374  -1.222   0.000  0.00  0.00    +0.000 NA
ATOM     16  N   UNL     1      -3.159  -0.967   0.000  0.00  0.00    +0.000 NA
ATOM     17  N   UNL     1      -3.159  -0.142   0.000  0.00  0.00    +0.000 NA
ATOM     18  N   UNL     1      -2.374   0.113   0.000  0.00  0.00    +0.000 NA
ENDBRANCH  13  14
ENDBRANCH  12  13
ENDBRANCH   9  12
TORSDOF 3
