REMARK  Name = 3G4
REMARK  6 active torsions:
REMARK  status: ('A' for Active; 'I' for Inactive)
REMARK    1  A    between atoms: C_8  and  S_9
REMARK    2  A    between atoms: S_9  and  N_12
REMARK    3  A    between atoms: C_18  and  C_19
REMARK    4  A    between atoms: C_19  and  C_20
REMARK    5  A    between atoms: N_22  and  C_23
REMARK    6  A    between atoms: N_22  and  C_25
REMARK                            x       y       z     vdW  Elec       q    Type
REMARK                         _______ _______ _______ _____ _____    ______ ____
ROOT
ATOM      1  N   UNL     1      -0.826   1.721   0.000  0.00  0.00    +0.000 NA
ATOM      2  C   UNL     1      -0.826   0.896   0.000  0.00  0.00    +0.000 A 
ATOM      3  N   UNL     1      -0.112   0.484   0.000  0.00  0.00    +0.000 NA
ATOM      4  C   UNL     1      -1.541   0.484   0.000  0.00  0.00    +0.000 A 
ATOM      5  C   UNL     1      -1.541  -0.341   0.000  0.00  0.00    +0.000 A 
ATOM      6  C   UNL     1      -0.826  -0.754   0.000  0.00  0.00    +0.000 A 
ATOM      7  C   UNL     1      -0.112  -0.341   0.000  0.00  0.00    +0.000 A 
ENDROOT
BRANCH   1   8
ATOM      8  S   UNL     1      -1.541   2.134   0.000  0.00  0.00    +0.000 S 
ATOM      9  O   UNL     1      -1.953   1.419   0.000  0.00  0.00    +0.000 OA
ATOM     10  O   UNL     1      -1.128   2.848   0.000  0.00  0.00    +0.000 OA
BRANCH   8  18
ATOM     11 CL   UNL     1      -4.399   2.134   0.000  0.00  0.00    +0.000 Cl
ATOM     12  C   UNL     1      -3.684   2.546   0.000  0.00  0.00    +0.000 A 
ATOM     13  C   UNL     1      -3.684   3.371   0.000  0.00  0.00    +0.000 A 
ATOM     14  C   UNL     1      -2.970   3.784   0.000  0.00  0.00    +0.000 A 
ATOM     15  C   UNL     1      -2.255   3.371   0.000  0.00  0.00    +0.000 A 
ATOM     16  C   UNL     1      -2.970   2.134   0.000  0.00  0.00    +0.000 A 
ATOM     17  C   UNL     1      -2.970   1.309   0.000  0.00  0.00    +0.000 C 
ATOM     18  C   UNL     1      -2.255   2.546   0.000  0.00  0.00    +0.000 A 
ENDBRANCH   8  18
ENDBRANCH   1   8
BRANCH   7  19
ATOM     19  C   UNL     1       0.603  -0.754   0.000  0.00  0.00    +0.000 C 
BRANCH  19  20
ATOM     20  C   UNL     1       0.603  -1.579   0.000  0.00  0.00    +0.000 C 
ATOM     21  O   UNL     1      -0.112  -1.991   0.000  0.00  0.00    +0.000 OA
ATOM     22  N   UNL     1       1.317  -1.991   0.000  0.00  0.00    +0.000 N 
BRANCH  22  23
ATOM     23  C   UNL     1       2.032  -1.579   0.000  0.00  0.00    +0.000 C 
ATOM     24  C   UNL     1       2.746  -1.991   0.000  0.00  0.00    +0.000 C 
ENDBRANCH  22  23
BRANCH  22  25
ATOM     25  C   UNL     1       1.317  -2.816   0.000  0.00  0.00    +0.000 C 
ATOM     26  C   UNL     1       2.032  -3.229   0.000  0.00  0.00    +0.000 C 
ENDBRANCH  22  25
ENDBRANCH  19  20
ENDBRANCH   7  19
TORSDOF 6
