REMARK  Name = 3GV
REMARK  2 active torsions:
REMARK  status: ('A' for Active; 'I' for Inactive)
REMARK    1  A    between atoms: N_4  and  C_10
REMARK    2  A    between atoms: C_6  and  C_7
REMARK                            x       y       z     vdW  Elec       q    Type
REMARK                         _______ _______ _______ _____ _____    ______ ____
ROOT
ATOM      1  O   UNL     1       1.103   1.140   0.000  0.00  0.00    +0.000 OA
ATOM      2  C   UNL     1       0.319   0.885   0.000  0.00  0.00    +0.000 C 
ATOM      3  C   UNL     1      -0.349   1.370   0.000  0.00  0.00    +0.000 C 
ATOM      4  N   UNL     1       0.064   0.101   0.000  0.00  0.00    +0.000 N 
ATOM      5  C   UNL     1      -0.761   0.101   0.000  0.00  0.00    +0.000 C 
ATOM      6  C   UNL     1      -1.016   0.885   0.000  0.00  0.00    +0.000 C 
ENDROOT
BRANCH   4   7
ATOM      7  C   UNL     1       0.549  -0.567   0.000  0.00  0.00    +0.000 A 
ATOM      8  C   UNL     1       1.369  -0.481   0.000  0.00  0.00    +0.000 A 
ATOM      9  O   UNL     1       1.705   0.273   0.000  0.00  0.00    +0.000 OA
ATOM     10  C   UNL     1       1.854  -1.148   0.000  0.00  0.00    +0.000 A 
ATOM     11  C   UNL     1       1.519  -1.902   0.000  0.00  0.00    +0.000 A 
ATOM     12  C   UNL     1       0.698  -1.988   0.000  0.00  0.00    +0.000 A 
ATOM     13  C   UNL     1       0.213  -1.321   0.000  0.00  0.00    +0.000 A 
ENDBRANCH   4   7
BRANCH   6  14
ATOM     14  C   UNL     1      -1.801   1.140   0.000  0.00  0.00    +0.000 C 
ATOM     15  O   UNL     1      -1.972   1.947   0.000  0.00  0.00    +0.000 OA
ATOM     16  O   UNL     1      -2.414   0.588   0.000  0.00  0.00    +0.000 OA
ENDBRANCH   6  14
TORSDOF 2
