REMARK  Name = 3HT
REMARK  3 active torsions:
REMARK  status: ('A' for Active; 'I' for Inactive)
REMARK    1  A    between atoms: C_3  and  N_20
REMARK    2  A    between atoms: C_8  and  C_15
REMARK    3  A    between atoms: C_21  and  O_22
REMARK                            x       y       z     vdW  Elec       q    Type
REMARK                         _______ _______ _______ _____ _____    ______ ____
ROOT
ATOM      1  C   UNL     1      -1.914   1.560   0.000  0.00  0.00    +0.000 A 
ATOM      2  C   UNL     1       0.070   2.385   0.000  0.00  0.00    +0.000 A 
ATOM      3  C   UNL     1       0.785   1.147   0.000  0.00  0.00    +0.000 A 
ATOM      4  C   UNL     1      -0.644   1.147   0.000  0.00  0.00    +0.000 A 
ATOM      5  C   UNL     1       0.785   1.972   0.000  0.00  0.00    +0.000 A 
ATOM      6  C   UNL     1       0.070   0.735   0.000  0.00  0.00    +0.000 A 
ATOM      7  C   UNL     1      -0.644   1.972   0.000  0.00  0.00    +0.000 A 
ATOM      8  N   UNL     1      -1.429   2.227   0.000  0.00  0.00    +0.000 NA
ATOM      9  N   UNL     1      -1.429   0.892   0.000  0.00  0.00    +0.000 N 
ENDROOT
BRANCH   9  12
ATOM     10  C   UNL     1      -2.746  -0.849   0.000  0.00  0.00    +0.000 A 
ATOM     11  C   UNL     1      -2.491  -0.064   0.000  0.00  0.00    +0.000 A 
ATOM     12  C   UNL     1      -1.684   0.107   0.000  0.00  0.00    +0.000 A 
ATOM     13  C   UNL     1      -1.132  -0.506   0.000  0.00  0.00    +0.000 A 
ATOM     14  C   UNL     1      -1.387  -1.290   0.000  0.00  0.00    +0.000 A 
ATOM     15  C   UNL     1      -2.194  -1.462   0.000  0.00  0.00    +0.000 A 
BRANCH  15  16
ATOM     16  O   UNL     1      -2.449  -2.246   0.000  0.00  0.00    +0.000 OA
ATOM     17  C   UNL     1      -1.897  -2.859   0.000  0.00  0.00    +0.000 C 
ENDBRANCH  15  16
ENDBRANCH   9  12
BRANCH   3  23
ATOM     18  C   UNL     1       2.805   0.457   0.000  0.00  0.00    +0.000 A 
ATOM     19  S   UNL     1       3.625   0.543   0.000  0.00  0.00    +0.000 S 
ATOM     20  N   UNL     1       2.392  -0.257   0.000  0.00  0.00    +0.000 NA
ATOM     21  N   UNL     1       1.585  -0.086   0.000  0.00  0.00    +0.000 NA
ATOM     22  O   UNL     1       2.253   1.070   0.000  0.00  0.00    +0.000 OA
ATOM     23  C   UNL     1       1.499   0.735   0.000  0.00  0.00    +0.000 A 
ENDBRANCH   3  23
TORSDOF 3
