REMARK  Name = 3IL
REMARK  3 active torsions:
REMARK  status: ('A' for Active; 'I' for Inactive)
REMARK    1  A    between atoms: C_3  and  C_15
REMARK    2  A    between atoms: C_10  and  C_13
REMARK    3  A    between atoms: C_13  and  C_15
REMARK                            x       y       z     vdW  Elec       q    Type
REMARK                         _______ _______ _______ _____ _____    ______ ____
ROOT
ATOM      1  N   UNL     1      -0.240  -1.475   0.000  0.00  0.00    +0.000 NA
ATOM      2  C   UNL     1      -0.725  -0.808   0.000  0.00  0.00    +0.000 A 
ATOM      3  C   UNL     1      -0.240  -0.141   0.000  0.00  0.00    +0.000 A 
ATOM      4  C   UNL     1       1.259   0.017   0.000  0.00  0.00    +0.000 A 
ATOM      5  C   UNL     1       1.973  -0.395   0.000  0.00  0.00    +0.000 A 
ATOM      6  C   UNL     1       1.973  -1.220   0.000  0.00  0.00    +0.000 A 
ATOM      7  C   UNL     1       1.259  -1.633   0.000  0.00  0.00    +0.000 A 
ATOM      8  C   UNL     1       0.544  -1.220   0.000  0.00  0.00    +0.000 A 
ATOM      9  C   UNL     1       0.544  -0.395   0.000  0.00  0.00    +0.000 A 
ENDROOT
BRANCH   3  10
ATOM     10  C   UNL     1      -0.495   0.644   0.000  0.00  0.00    +0.000 C 
BRANCH  10  11
ATOM     11  C   UNL     1      -1.302   0.816   0.000  0.00  0.00    +0.000 C 
ATOM     12  O   UNL     1      -1.854   0.203   0.000  0.00  0.00    +0.000 OA
BRANCH  11  13
ATOM     13  C   UNL     1      -1.557   1.600   0.000  0.00  0.00    +0.000 C 
ATOM     14  O   UNL     1      -2.364   1.772   0.000  0.00  0.00    +0.000 OA
ATOM     15  O   UNL     1      -1.005   2.213   0.000  0.00  0.00    +0.000 OA
ENDBRANCH  11  13
ENDBRANCH  10  11
ENDBRANCH   3  10
TORSDOF 3
