REMARK  Name = 3LP
REMARK  5 active torsions:
REMARK  status: ('A' for Active; 'I' for Inactive)
REMARK    1  A    between atoms: C_2  and  C_3
REMARK    2  A    between atoms: C_2  and  C_11
REMARK    3  A    between atoms: C_3  and  N_4
REMARK    4  A    between atoms: N_4  and  C_5
REMARK    5  A    between atoms: C_11  and  N_12
REMARK                            x       y       z     vdW  Elec       q    Type
REMARK                         _______ _______ _______ _____ _____    ______ ____
ROOT
ATOM      1  N   UNL     1       1.516  -1.454   0.000  0.00  0.00    +0.000 N 
ATOM      2  C   UNL     1       2.183  -1.939   0.000  0.00  0.00    +0.000 A 
ATOM      3  C   UNL     1       2.990  -1.767   0.000  0.00  0.00    +0.000 A 
ATOM      4  C   UNL     1       3.542  -2.380   0.000  0.00  0.00    +0.000 A 
ATOM      5  C   UNL     1       3.288  -3.165   0.000  0.00  0.00    +0.000 A 
ATOM      6  C   UNL     1       3.840  -3.778   0.000  0.00  0.00    +0.000 C 
ATOM      7  C   UNL     1       2.481  -3.337   0.000  0.00  0.00    +0.000 A 
ATOM      8  C   UNL     1       1.929  -2.723   0.000  0.00  0.00    +0.000 A 
ATOM      9  C   UNL     1       1.104  -2.723   0.000  0.00  0.00    +0.000 A 
ATOM     10  C   UNL     1       0.849  -1.939   0.000  0.00  0.00    +0.000 A 
ATOM     11  C   UNL     1       0.552  -3.337   0.000  0.00  0.00    +0.000 C 
ATOM     12  C   UNL     1      -0.255  -3.165   0.000  0.00  0.00    +0.000 C 
ATOM     13  C   UNL     1      -0.510  -2.380   0.000  0.00  0.00    +0.000 C 
ATOM     14  C   UNL     1       0.042  -1.767   0.000  0.00  0.00    +0.000 C 
ENDROOT
BRANCH   1  15
ATOM     15  C   UNL     1       1.516  -0.629   0.000  0.00  0.00    +0.000 C 
BRANCH  15  17
ATOM     16  O   UNL     1       0.087  -0.629   0.000  0.00  0.00    +0.000 OA
ATOM     17  C   UNL     1       0.802  -0.216   0.000  0.00  0.00    +0.000 C 
BRANCH  17  18
ATOM     18  C   UNL     1       0.802   0.609   0.000  0.00  0.00    +0.000 C 
BRANCH  18  19
ATOM     19  N   UNL     1       0.087   1.021   0.000  0.00  0.00    +0.000 NA
BRANCH  19  20
ATOM     20  C   UNL     1       0.087   1.846   0.000  0.00  0.00    +0.000 C 
ATOM     21  C   UNL     1       0.802   2.259   0.000  0.00  0.00    +0.000 C 
ATOM     22  C   UNL     1       0.802   3.084   0.000  0.00  0.00    +0.000 C 
ATOM     23  C   UNL     1       0.087   3.496   0.000  0.00  0.00    +0.000 C 
ATOM     24  C   UNL     1      -0.627   3.084   0.000  0.00  0.00    +0.000 C 
ATOM     25  C   UNL     1      -0.627   2.259   0.000  0.00  0.00    +0.000 C 
ENDBRANCH  19  20
ENDBRANCH  18  19
ENDBRANCH  17  18
ENDBRANCH  15  17
ENDBRANCH   1  15
TORSDOF 5
