REMARK  Name = 3MS
REMARK  6 active torsions:
REMARK  status: ('A' for Active; 'I' for Inactive)
REMARK    1  A    between atoms: C_5  and  N_14
REMARK    2  A    between atoms: C_7  and  C_23
REMARK    3  A    between atoms: C_10  and  C_32
REMARK    4  A    between atoms: S_12  and  N_14
REMARK    5  A    between atoms: N_28  and  C_31
REMARK    6  A    between atoms: C_31  and  C_32
REMARK                            x       y       z     vdW  Elec       q    Type
REMARK                         _______ _______ _______ _____ _____    ______ ____
ROOT
ATOM      1  C   UNL     1       3.105   1.510   0.000  0.00  0.00    +0.000 A 
ATOM      2  C   UNL     1       1.676   1.510   0.000  0.00  0.00    +0.000 A 
ATOM      3  C   UNL     1       3.105   2.335   0.000  0.00  0.00    +0.000 A 
ATOM      4  C   UNL     1       0.961   0.273   0.000  0.00  0.00    +0.000 C 
ATOM      5  C   UNL     1       2.390   2.748   0.000  0.00  0.00    +0.000 A 
ATOM      6  C   UNL     1       2.390   1.098   0.000  0.00  0.00    +0.000 A 
ATOM      7  S   UNL     1       2.390   0.273   0.000  0.00  0.00    +0.000 S 
ATOM      8  O   UNL     1       3.203   0.416   0.000  0.00  0.00    +0.000 OA
ATOM      9  O   UNL     1       2.672  -0.502   0.000  0.00  0.00    +0.000 OA
ATOM     10  N   UNL     1       1.676  -0.140   0.000  0.00  0.00    +0.000 NA
ATOM     11  N   UNL     1       0.961   1.098   0.000  0.00  0.00    +0.000 NA
ATOM     12  C   UNL     1       1.676   2.335   0.000  0.00  0.00    +0.000 A 
ENDROOT
BRANCH   4  16
ATOM     13  C   UNL     1      -1.967   0.115   0.000  0.00  0.00    +0.000 A 
ATOM     14  C   UNL     1      -1.967  -1.220   0.000  0.00  0.00    +0.000 A 
ATOM     15  C   UNL     1      -1.182  -0.140   0.000  0.00  0.00    +0.000 A 
ATOM     16  C   UNL     1       0.247  -0.140   0.000  0.00  0.00    +0.000 A 
ATOM     17  C   UNL     1      -0.468   0.273   0.000  0.00  0.00    +0.000 A 
ATOM     18  O   UNL     1      -0.468   1.098   0.000  0.00  0.00    +0.000 OA
ATOM     19  C   UNL     1       0.247  -0.965   0.000  0.00  0.00    +0.000 A 
ATOM     20  O   UNL     1       0.961  -1.377   0.000  0.00  0.00    +0.000 OA
ATOM     21  N   UNL     1      -0.468  -1.377   0.000  0.00  0.00    +0.000 N 
ATOM     22  N   UNL     1      -1.182  -0.965   0.000  0.00  0.00    +0.000 N 
ATOM     23  C   UNL     1      -2.452  -0.552   0.000  0.00  0.00    +0.000 A 
BRANCH  21  24
ATOM     24  C   UNL     1      -0.468  -2.202   0.000  0.00  0.00    +0.000 C 
BRANCH  24  25
ATOM     25  C   UNL     1      -1.182  -2.615   0.000  0.00  0.00    +0.000 C 
BRANCH  25  27
ATOM     26  C   UNL     1      -1.897  -3.852   0.000  0.00  0.00    +0.000 C 
ATOM     27  C   UNL     1      -1.182  -3.440   0.000  0.00  0.00    +0.000 C 
ATOM     28  C   UNL     1      -0.468  -3.852   0.000  0.00  0.00    +0.000 C 
ENDBRANCH  25  27
ENDBRANCH  24  25
ENDBRANCH  21  24
ENDBRANCH   4  16
BRANCH   3  29
ATOM     29  N   UNL     1       3.819   2.748   0.000  0.00  0.00    +0.000 NA
BRANCH  29  32
ATOM     30  C   UNL     1       3.819   4.398   0.000  0.00  0.00    +0.000 C 
ATOM     31  O   UNL     1       4.644   3.573   0.000  0.00  0.00    +0.000 OA
ATOM     32  S   UNL     1       3.819   3.573   0.000  0.00  0.00    +0.000 S 
ATOM     33  O   UNL     1       2.994   3.573   0.000  0.00  0.00    +0.000 OA
ENDBRANCH  29  32
ENDBRANCH   3  29
TORSDOF 6
