REMARK  Name = 3QC
REMARK  1 active torsions:
REMARK  status: ('A' for Active; 'I' for Inactive)
REMARK    1  A    between atoms: C_15  and  C_17
REMARK                            x       y       z     vdW  Elec       q    Type
REMARK                         _______ _______ _______ _____ _____    ______ ____
ROOT
ATOM      1  C   UNL     1       0.884   0.699   0.000  0.00  0.00    +0.000 A 
ATOM      2  C   UNL     1       0.169   1.112   0.000  0.00  0.00    +0.000 C 
ATOM      3  C   UNL     1       1.598  -0.538   0.000  0.00  0.00    +0.000 A 
ATOM      4  C   UNL     1       2.313  -0.126   0.000  0.00  0.00    +0.000 A 
ATOM      5  C   UNL     1       2.313   0.699   0.000  0.00  0.00    +0.000 A 
ATOM      6  C   UNL     1       1.598   1.112   0.000  0.00  0.00    +0.000 A 
ATOM      7  C   UNL     1       1.598   1.937   0.000  0.00  0.00    +0.000 C 
ATOM      8  N   UNL     1      -0.545   0.699   0.000  0.00  0.00    +0.000 N 
ATOM      9  C   UNL     1      -0.545  -0.126   0.000  0.00  0.00    +0.000 C 
ATOM     10  C   UNL     1       0.169  -0.538   0.000  0.00  0.00    +0.000 C 
ATOM     11  C   UNL     1       0.884  -0.126   0.000  0.00  0.00    +0.000 A 
ATOM     12  C   UNL     1       3.027   1.112   0.000  0.00  0.00    +0.000 C 
ATOM     13  C   UNL     1      -1.260   1.112   0.000  0.00  0.00    +0.000 C 
ATOM     14  N   UNL     1      -1.974   0.699   0.000  0.00  0.00    +0.000 N 
ATOM     15  C   UNL     1      -1.974  -0.126   0.000  0.00  0.00    +0.000 C 
ATOM     16  C   UNL     1      -2.689   1.112   0.000  0.00  0.00    +0.000 C 
ATOM     17  O   UNL     1      -1.260   1.937   0.000  0.00  0.00    +0.000 OA
ENDROOT
BRANCH  10  23
ATOM     18  C   UNL     1       0.884  -1.776   0.000  0.00  0.00    +0.000 A 
ATOM     19  C   UNL     1       0.884  -2.601   0.000  0.00  0.00    +0.000 A 
ATOM     20  C   UNL     1       0.169  -3.013   0.000  0.00  0.00    +0.000 A 
ATOM     21  C   UNL     1      -0.545  -2.601   0.000  0.00  0.00    +0.000 A 
ATOM     22  O   UNL     1       1.598  -3.013   0.000  0.00  0.00    +0.000 OA
ATOM     23  C   UNL     1       0.169  -1.363   0.000  0.00  0.00    +0.000 A 
ATOM     24  C   UNL     1      -0.545  -1.776   0.000  0.00  0.00    +0.000 A 
ENDBRANCH  10  23
TORSDOF 1
