REMARK  Name = 3SC
REMARK  6 active torsions:
REMARK  status: ('A' for Active; 'I' for Inactive)
REMARK    1  A    between atoms: C_1  and  S_24
REMARK    2  A    between atoms: C_7  and  C_11
REMARK    3  A    between atoms: C_9  and  N_10
REMARK    4  A    between atoms: N_10  and  C_12
REMARK    5  A    between atoms: C_12  and  C_13
REMARK    6  A    between atoms: S_24  and  C_25
REMARK                            x       y       z     vdW  Elec       q    Type
REMARK                         _______ _______ _______ _____ _____    ______ ____
ROOT
ATOM      1  C   UNL     1      -2.278   1.064   0.000  0.00  0.00    +0.000 A 
ATOM      2  C   UNL     1      -1.493   0.809   0.000  0.00  0.00    +0.000 A 
ATOM      3  N   UNL     1      -1.493  -0.016   0.000  0.00  0.00    +0.000 N 
ATOM      4  N   UNL     1      -2.278  -0.271   0.000  0.00  0.00    +0.000 NA
ATOM      5  C   UNL     1      -2.763   0.396   0.000  0.00  0.00    +0.000 A 
ATOM      6  N   UNL     1      -0.779   1.221   0.000  0.00  0.00    +0.000 NA
ATOM      7  C   UNL     1      -0.064   0.809   0.000  0.00  0.00    +0.000 A 
ATOM      8  C   UNL     1      -0.064  -0.016   0.000  0.00  0.00    +0.000 A 
ATOM      9  C   UNL     1      -0.779  -0.429   0.000  0.00  0.00    +0.000 A 
ENDROOT
BRANCH   7  10
ATOM     10  C   UNL     1       0.650   1.221   0.000  0.00  0.00    +0.000 A 
ATOM     11  C   UNL     1       0.650   2.046   0.000  0.00  0.00    +0.000 A 
ATOM     12  C   UNL     1       1.365   2.459   0.000  0.00  0.00    +0.000 A 
ATOM     13  C   UNL     1       2.079   2.046   0.000  0.00  0.00    +0.000 A 
ATOM     14  C   UNL     1       2.079   1.221   0.000  0.00  0.00    +0.000 A 
ATOM     15  C   UNL     1       1.365   0.809   0.000  0.00  0.00    +0.000 A 
ATOM     16 CL   UNL     1      -0.064   2.459   0.000  0.00  0.00    +0.000 Cl
ATOM     17 CL   UNL     1       1.365   3.284   0.000  0.00  0.00    +0.000 Cl
ENDBRANCH   7  10
BRANCH   9  18
ATOM     18  N   UNL     1      -0.779  -1.254   0.000  0.00  0.00    +0.000 NA
BRANCH  18  19
ATOM     19  C   UNL     1      -1.493  -1.666   0.000  0.00  0.00    +0.000 C 
BRANCH  19  20
ATOM     20  C   UNL     1      -1.493  -2.491   0.000  0.00  0.00    +0.000 A 
ATOM     21  C   UNL     1      -2.208  -2.904   0.000  0.00  0.00    +0.000 A 
ATOM     22  C   UNL     1      -2.208  -3.729   0.000  0.00  0.00    +0.000 A 
ATOM     23  N   UNL     1      -1.493  -4.141   0.000  0.00  0.00    +0.000 NA
ATOM     24  C   UNL     1      -0.779  -3.729   0.000  0.00  0.00    +0.000 A 
ATOM     25  C   UNL     1      -0.779  -2.904   0.000  0.00  0.00    +0.000 A 
ENDBRANCH  19  20
ENDBRANCH  18  19
ENDBRANCH   9  18
BRANCH   1  26
ATOM     26  S   UNL     1      -2.533   1.848   0.000  0.00  0.00    +0.000 S 
BRANCH  26  27
ATOM     27  C   UNL     1      -1.981   2.461   0.000  0.00  0.00    +0.000 C 
ATOM     28  N   UNL     1      -1.429   3.074   0.000  0.00  0.00    +0.000 NA
ENDBRANCH  26  27
ENDBRANCH   1  26
TORSDOF 6
