REMARK  Name = 3TH
REMARK  2 active torsions:
REMARK  status: ('A' for Active; 'I' for Inactive)
REMARK    1  A    between atoms: C_6  and  C_10
REMARK    2  A    between atoms: N_12  and  C_13
REMARK                            x       y       z     vdW  Elec       q    Type
REMARK                         _______ _______ _______ _____ _____    ______ ____
ROOT
ATOM      1  C   UNL     1      -0.294  -0.215   0.000  0.00  0.00    +0.000 C 
ATOM      2  O   UNL     1      -0.294  -1.040   0.000  0.00  0.00    +0.000 OA
ATOM      3  N   UNL     1       0.420   0.197   0.000  0.00  0.00    +0.000 NA
ENDROOT
BRANCH   3   4
ATOM      4  C   UNL     1       1.135  -0.215   0.000  0.00  0.00    +0.000 C 
ATOM      5  C   UNL     1       1.849   0.197   0.000  0.00  0.00    +0.000 C 
ATOM      6  C   UNL     1       2.563  -0.215   0.000  0.00  0.00    +0.000 A 
ATOM      7  C   UNL     1       3.278   0.197   0.000  0.00  0.00    +0.000 A 
ATOM      8  C   UNL     1       3.993  -0.215   0.000  0.00  0.00    +0.000 A 
ATOM      9  C   UNL     1       3.993  -1.040   0.000  0.00  0.00    +0.000 A 
ATOM     10  C   UNL     1       3.278  -1.453   0.000  0.00  0.00    +0.000 A 
ATOM     11  C   UNL     1       2.563  -1.040   0.000  0.00  0.00    +0.000 A 
ATOM     12  N   UNL     1       1.849  -1.453   0.000  0.00  0.00    +0.000 NA
ATOM     13  C   UNL     1       1.135  -1.040   0.000  0.00  0.00    +0.000 C 
ATOM     14  O   UNL     1       0.420  -1.453   0.000  0.00  0.00    +0.000 OA
ENDBRANCH   3   4
BRANCH   1  20
ATOM     15 CL   UNL     1      -3.922   1.879   0.000  0.00  0.00    +0.000 Cl
ATOM     16  C   UNL     1      -3.208   1.467   0.000  0.00  0.00    +0.000 A 
ATOM     17  C   UNL     1      -2.454   1.802   0.000  0.00  0.00    +0.000 A 
ATOM     18  C   UNL     1      -1.902   1.189   0.000  0.00  0.00    +0.000 A 
ATOM     19  C   UNL     1      -1.095   1.018   0.000  0.00  0.00    +0.000 A 
ATOM     20  C   UNL     1      -1.009   0.197   0.000  0.00  0.00    +0.000 A 
ATOM     21  N   UNL     1      -1.762  -0.139   0.000  0.00  0.00    +0.000 NA
ATOM     22  C   UNL     1      -2.314   0.475   0.000  0.00  0.00    +0.000 A 
ATOM     23  S   UNL     1      -3.122   0.646   0.000  0.00  0.00    +0.000 S 
ENDBRANCH   1  20
TORSDOF 2
