REMARK  Name = 3TP
REMARK  5 active torsions:
REMARK  status: ('A' for Active; 'I' for Inactive)
REMARK    1  A    between atoms: C_1  and  C_2
REMARK    2  A    between atoms: C_1  and  C_15
REMARK    3  A    between atoms: C_8  and  C_15
REMARK    4  A    between atoms: C_9  and  C_10
REMARK    5  A    between atoms: C_21  and  S_22
REMARK                            x       y       z     vdW  Elec       q    Type
REMARK                         _______ _______ _______ _____ _____    ______ ____
ROOT
ATOM      1  C   UNL     1       1.585  -1.806   0.000  0.00  0.00    +0.000 A 
ATOM      2  C   UNL     1       0.917  -0.650   0.000  0.00  0.00    +0.000 A 
ATOM      3  N   UNL     1       0.831  -1.471   0.000  0.00  0.00    +0.000 NA
ATOM      4  N   UNL     1       1.724  -0.479   0.000  0.00  0.00    +0.000 NA
ATOM      5  O   UNL     1       2.137  -1.193   0.000  0.00  0.00    +0.000 OA
ENDROOT
BRANCH   2   6
ATOM      6  C   UNL     1       0.304  -0.098   0.000  0.00  0.00    +0.000 A 
ATOM      7  C   UNL     1      -0.480  -0.353   0.000  0.00  0.00    +0.000 A 
ATOM      8  C   UNL     1      -1.093   0.199   0.000  0.00  0.00    +0.000 A 
ATOM      9  C   UNL     1      -0.137   1.261   0.000  0.00  0.00    +0.000 A 
ATOM     10  C   UNL     1       0.476   0.709   0.000  0.00  0.00    +0.000 A 
ATOM     11  C   UNL     1      -0.922   1.006   0.000  0.00  0.00    +0.000 A 
BRANCH  11  12
ATOM     12  S   UNL     1      -1.535   1.558   0.000  0.00  0.00    +0.000 S 
ATOM     13  O   UNL     1      -2.148   2.110   0.000  0.00  0.00    +0.000 OA
ATOM     14  O   UNL     1      -0.983   2.171   0.000  0.00  0.00    +0.000 OA
ATOM     15  C   UNL     1      -2.087   0.945   0.000  0.00  0.00    +0.000 C 
ENDBRANCH  11  12
ENDBRANCH   2   6
BRANCH   1  16
ATOM     16  C   UNL     1       1.756  -2.613   0.000  0.00  0.00    +0.000 C 
ATOM     17  C   UNL     1       1.143  -3.165   0.000  0.00  0.00    +0.000 C 
BRANCH  16  18
ATOM     18  C   UNL     1       2.541  -2.868   0.000  0.00  0.00    +0.000 C 
ATOM     19  N   UNL     1       3.154  -2.316   0.000  0.00  0.00    +0.000 NA
BRANCH  18  20
ATOM     20  C   UNL     1       2.712  -3.675   0.000  0.00  0.00    +0.000 C 
ATOM     21  O   UNL     1       2.099  -4.227   0.000  0.00  0.00    +0.000 OA
ATOM     22  C   UNL     1       4.165  -3.445   0.000  0.00  0.00    +0.000 C 
ATOM     23  C   UNL     1       4.832  -3.930   0.000  0.00  0.00    +0.000 C 
ATOM     24  C   UNL     1       4.577  -4.715   0.000  0.00  0.00    +0.000 C 
ATOM     25  C   UNL     1       3.752  -4.715   0.000  0.00  0.00    +0.000 C 
ATOM     26  N   UNL     1       3.497  -3.930   0.000  0.00  0.00    +0.000 N 
ENDBRANCH  18  20
ENDBRANCH  16  18
ENDBRANCH   1  16
TORSDOF 5
