REMARK  Name = 400
REMARK  3 active torsions:
REMARK  status: ('A' for Active; 'I' for Inactive)
REMARK    1  A    between atoms: O_3  and  C_12
REMARK    2  A    between atoms: O_6  and  C_18
REMARK    3  A    between atoms: O_7  and  C_21
REMARK                            x       y       z     vdW  Elec       q    Type
REMARK                         _______ _______ _______ _____ _____    ______ ____
ROOT
ATOM      1 CL   UNL     1       5.428   1.143   0.000  0.00  0.00    +0.000 Cl
ATOM      2  O   UNL     1       4.417  -0.369   0.000  0.00  0.00    +0.000 OA
ATOM      3  O   UNL     1       2.317  -0.060   0.000  0.00  0.00    +0.000 OA
ATOM      4  O   UNL     1       3.749  -3.329   0.000  0.00  0.00    +0.000 OA
ATOM      5  C   UNL     1       3.749  -0.854   0.000  0.00  0.00    +0.000 C 
ATOM      6  C   UNL     1       3.035  -1.267   0.000  0.00  0.00    +0.000 C 
ATOM      7  C   UNL     1       3.035  -2.092   0.000  0.00  0.00    +0.000 C 
ATOM      8  C   UNL     1       3.082  -0.369   0.000  0.00  0.00    +0.000 C 
ATOM      9  C   UNL     1       4.464  -1.267   0.000  0.00  0.00    +0.000 C 
ATOM     10  C   UNL     1       2.222  -1.410   0.000  0.00  0.00    +0.000 C 
ATOM     11  C   UNL     1       3.337   0.415   0.000  0.00  0.00    +0.000 A 
ATOM     12  C   UNL     1       4.162   0.415   0.000  0.00  0.00    +0.000 A 
ATOM     13  C   UNL     1       3.749  -2.504   0.000  0.00  0.00    +0.000 C 
ATOM     14  C   UNL     1       4.464  -2.092   0.000  0.00  0.00    +0.000 C 
ATOM     15  C   UNL     1       2.896   1.153   0.000  0.00  0.00    +0.000 A 
ATOM     16  C   UNL     1       4.603   1.153   0.000  0.00  0.00    +0.000 A 
ATOM     17  C   UNL     1       3.320   1.900   0.000  0.00  0.00    +0.000 A 
ATOM     18  C   UNL     1       4.179   1.900   0.000  0.00  0.00    +0.000 A 
ENDROOT
BRANCH   9  19
ATOM     19  O   UNL     1       5.178  -0.854   0.000  0.00  0.00    +0.000 OA
ATOM     20  C   UNL     1       5.893  -1.267   0.000  0.00  0.00    +0.000 C 
ENDBRANCH   9  19
BRANCH  15  21
ATOM     21  O   UNL     1       2.071   1.143   0.000  0.00  0.00    +0.000 OA
ATOM     22  C   UNL     1       1.650   1.853   0.000  0.00  0.00    +0.000 C 
ENDBRANCH  15  21
BRANCH  18  23
ATOM     23  O   UNL     1       4.594   2.613   0.000  0.00  0.00    +0.000 OA
ATOM     24  C   UNL     1       4.184   3.329   0.000  0.00  0.00    +0.000 C 
ENDBRANCH  18  23
TORSDOF 3
