REMARK  Name = 401
REMARK  9 active torsions:
REMARK  status: ('A' for Active; 'I' for Inactive)
REMARK    1  A    between atoms: C_3  and  C_4
REMARK    2  A    between atoms: C_4  and  C_5
REMARK    3  A    between atoms: C_4  and  C_7
REMARK    4  A    between atoms: C_7  and  C_8
REMARK    5  A    between atoms: C_10  and  C_16
REMARK    6  A    between atoms: C_11  and  O_14
REMARK    7  A    between atoms: C_16  and  N_17
REMARK    8  A    between atoms: C_18  and  C_20
REMARK    9  A    between atoms: C_23  and  C_26
REMARK                            x       y       z     vdW  Elec       q    Type
REMARK                         _______ _______ _______ _____ _____    ______ ____
ROOT
ATOM      1  C   UNL     1       0.265   1.738   0.000  0.00  0.00    +0.000 A 
ATOM      2  C   UNL     1       0.980   1.325   0.000  0.00  0.00    +0.000 A 
ATOM      3  C   UNL     1       0.980   0.500   0.000  0.00  0.00    +0.000 A 
ATOM      4  C   UNL     1       0.265   0.088   0.000  0.00  0.00    +0.000 A 
ATOM      5  C   UNL     1      -0.449   0.500   0.000  0.00  0.00    +0.000 A 
ATOM      6  C   UNL     1      -0.449   1.325   0.000  0.00  0.00    +0.000 A 
ENDROOT
BRANCH   4   7
ATOM      7  O   UNL     1       0.265  -0.737   0.000  0.00  0.00    +0.000 OA
ATOM      8  C   UNL     1      -0.449  -1.150   0.000  0.00  0.00    +0.000 C 
ENDBRANCH   4   7
BRANCH   1   9
ATOM      9  C   UNL     1       0.265   2.563   0.000  0.00  0.00    +0.000 C 
BRANCH   9  10
ATOM     10  C   UNL     1      -0.449   2.975   0.000  0.00  0.00    +0.000 C 
BRANCH  10  13
ATOM     11  O   UNL     1      -1.164   4.213   0.000  0.00  0.00    +0.000 OA
ATOM     12  O   UNL     1       0.265   4.213   0.000  0.00  0.00    +0.000 OA
ATOM     13  C   UNL     1      -0.449   3.800   0.000  0.00  0.00    +0.000 C 
ENDBRANCH  10  13
BRANCH  10  14
ATOM     14  C   UNL     1      -1.164   2.563   0.000  0.00  0.00    +0.000 C 
ATOM     15  C   UNL     1      -1.164   1.738   0.000  0.00  0.00    +0.000 C 
ENDBRANCH  10  14
ENDBRANCH   9  10
ENDBRANCH   1   9
BRANCH   3  16
ATOM     16  C   UNL     1       1.694   0.088   0.000  0.00  0.00    +0.000 C 
BRANCH  16  17
ATOM     17  N   UNL     1       1.694  -0.737   0.000  0.00  0.00    +0.000 NA
ATOM     18  C   UNL     1       2.409  -1.150   0.000  0.00  0.00    +0.000 C 
ATOM     19  O   UNL     1       3.123  -0.737   0.000  0.00  0.00    +0.000 OA
BRANCH  18  20
ATOM     20  C   UNL     1       2.409  -1.975   0.000  0.00  0.00    +0.000 A 
ATOM     21  C   UNL     1       3.123  -2.387   0.000  0.00  0.00    +0.000 A 
ATOM     22  C   UNL     1       3.123  -3.212   0.000  0.00  0.00    +0.000 A 
ATOM     23  C   UNL     1       2.409  -3.625   0.000  0.00  0.00    +0.000 A 
ATOM     24  C   UNL     1       1.694  -3.212   0.000  0.00  0.00    +0.000 A 
ATOM     25  C   UNL     1       1.694  -2.387   0.000  0.00  0.00    +0.000 A 
ATOM     26  F   UNL     1       3.838  -1.975   0.000  0.00  0.00    +0.000 F 
BRANCH  23  27
ATOM     27  C   UNL     1       2.409  -4.450   0.000  0.00  0.00    +0.000 C 
ATOM     28  F   UNL     1       2.409  -5.275   0.000  0.00  0.00    +0.000 F 
ATOM     29  F   UNL     1       1.584  -4.450   0.000  0.00  0.00    +0.000 F 
ATOM     30  F   UNL     1       3.234  -4.450   0.000  0.00  0.00    +0.000 F 
ENDBRANCH  23  27
ENDBRANCH  18  20
ENDBRANCH  16  17
ENDBRANCH   3  16
TORSDOF 9
