REMARK  Name = 4021
REMARK  1 active torsions:
REMARK  status: ('A' for Active; 'I' for Inactive)
REMARK    1  A    between atoms: N_2  and  C_7
REMARK                            x       y       z     vdW  Elec       q    Type
REMARK                         _______ _______ _______ _____ _____    ______ ____
ROOT
ATOM      1  O   UNL     1       4.555   0.488   0.000  0.00  0.00    +0.000 OA
ATOM      2  N   UNL     1       3.103   0.259   0.000  0.00  0.00    +0.000 N 
ATOM      3  N   UNL     1       2.436   0.744   0.000  0.00  0.00    +0.000 NA
ATOM      4  C   UNL     1       3.515   1.528   0.000  0.00  0.00    +0.000 C 
ATOM      5  C   UNL     1       2.690   1.528   0.000  0.00  0.00    +0.000 C 
ATOM      6  C   UNL     1       3.770   0.744   0.000  0.00  0.00    +0.000 C 
ATOM      7  C   UNL     1       2.205   2.196   0.000  0.00  0.00    +0.000 C 
ENDROOT
BRANCH   2   8
ATOM      8  C   UNL     1       3.103  -0.566   0.000  0.00  0.00    +0.000 A 
ATOM      9  C   UNL     1       2.389  -0.979   0.000  0.00  0.00    +0.000 A 
ATOM     10  C   UNL     1       3.817  -0.979   0.000  0.00  0.00    +0.000 A 
ATOM     11  C   UNL     1       2.389  -1.804   0.000  0.00  0.00    +0.000 A 
ATOM     12  C   UNL     1       3.817  -1.804   0.000  0.00  0.00    +0.000 A 
ATOM     13  C   UNL     1       3.103  -2.216   0.000  0.00  0.00    +0.000 A 
ENDBRANCH   2   8
TORSDOF 1
