REMARK  Name = 405
REMARK  5 active torsions:
REMARK  status: ('A' for Active; 'I' for Inactive)
REMARK    1  A    between atoms: N_2  and  C_6
REMARK    2  A    between atoms: C_4  and  C_5
REMARK    3  A    between atoms: C_4  and  C_7
REMARK    4  A    between atoms: C_4  and  C_8
REMARK    5  A    between atoms: C_5  and  C_6
REMARK                            x       y       z     vdW  Elec       q    Type
REMARK                         _______ _______ _______ _____ _____    ______ ____
ROOT
ATOM      1  C   UNL     1       3.793   0.412   0.000  0.00  0.00    +0.000 C 
ENDROOT
BRANCH   1   3
ATOM      2 BR   UNL     1       3.793  -2.888   0.000  0.00  0.00    +0.000 Br
ATOM      3  C   UNL     1       3.793  -0.412   0.000  0.00  0.00    +0.000 A 
ATOM      4  C   UNL     1       4.508  -0.825   0.000  0.00  0.00    +0.000 A 
ATOM      5  C   UNL     1       3.079  -0.825   0.000  0.00  0.00    +0.000 A 
ATOM      6  C   UNL     1       4.508  -1.650   0.000  0.00  0.00    +0.000 A 
ATOM      7  C   UNL     1       3.079  -1.650   0.000  0.00  0.00    +0.000 A 
ATOM      8  C   UNL     1       3.793  -2.062   0.000  0.00  0.00    +0.000 A 
ENDBRANCH   1   3
BRANCH   1  10
ATOM      9  N   UNL     1       4.508   1.650   0.000  0.00  0.00    +0.000 NA
ATOM     10  C   UNL     1       4.508   0.825   0.000  0.00  0.00    +0.000 A 
ATOM     11  C   UNL     1       5.222   0.412   0.000  0.00  0.00    +0.000 A 
ATOM     12  C   UNL     1       5.937   0.825   0.000  0.00  0.00    +0.000 A 
ATOM     13  C   UNL     1       5.222   2.062   0.000  0.00  0.00    +0.000 A 
ATOM     14  C   UNL     1       5.937   1.650   0.000  0.00  0.00    +0.000 A 
ENDBRANCH   1  10
BRANCH   1  15
ATOM     15  C   UNL     1       3.079   0.825   0.000  0.00  0.00    +0.000 C 
BRANCH  15  16
ATOM     16  C   UNL     1       3.079   1.650   0.000  0.00  0.00    +0.000 C 
BRANCH  16  17
ATOM     17  N   UNL     1       2.365   2.062   0.000  0.00  0.00    +0.000 NA
ATOM     18  C   UNL     1       1.650   1.650   0.000  0.00  0.00    +0.000 C 
ATOM     19  C   UNL     1       2.365   2.888   0.000  0.00  0.00    +0.000 C 
ENDBRANCH  16  17
ENDBRANCH  15  16
ENDBRANCH   1  15
TORSDOF 5
