REMARK  Name = 408
REMARK  0 active torsions:
REMARK  status: ('A' for Active; 'I' for Inactive)
REMARK                            x       y       z     vdW  Elec       q    Type
REMARK                         _______ _______ _______ _____ _____    ______ ____
ROOT
ATOM      1 CL   UNL     1       1.584  -1.130   0.000  0.00  0.00    +0.000 Cl
ATOM      2  O   UNL     1       4.624  -2.182   0.000  0.00  0.00    +0.000 OA
ATOM      3  N   UNL     1       3.884   0.267   0.000  0.00  0.00    +0.000 N 
ATOM      4  N   UNL     1       3.197   1.695   0.000  0.00  0.00    +0.000 NA
ATOM      5  N   UNL     1       5.020  -0.446   0.000  0.00  0.00    +0.000 NA
ATOM      6  C   UNL     1       4.330   0.922   0.000  0.00  0.00    +0.000 C 
ATOM      7  C   UNL     1       3.094   0.327   0.000  0.00  0.00    +0.000 C 
ATOM      8  C   UNL     1       3.987   1.635   0.000  0.00  0.00    +0.000 C 
ATOM      9  C   UNL     1       2.751   1.040   0.000  0.00  0.00    +0.000 C 
ATOM     10  C   UNL     1       4.228  -0.446   0.000  0.00  0.00    +0.000 C 
ATOM     11  C   UNL     1       2.853   2.408   0.000  0.00  0.00    +0.000 C 
ATOM     12  C   UNL     1       3.734  -1.066   0.000  0.00  0.00    +0.000 A 
ATOM     13  C   UNL     1       3.910  -1.838   0.000  0.00  0.00    +0.000 A 
ATOM     14  C   UNL     1       5.514  -1.066   0.000  0.00  0.00    +0.000 A 
ATOM     15  C   UNL     1       2.949  -0.810   0.000  0.00  0.00    +0.000 A 
ATOM     16  C   UNL     1       5.338  -1.838   0.000  0.00  0.00    +0.000 A 
ATOM     17  C   UNL     1       3.314  -2.408   0.000  0.00  0.00    +0.000 A 
ATOM     18  C   UNL     1       2.340  -1.367   0.000  0.00  0.00    +0.000 A 
ATOM     19  C   UNL     1       2.524  -2.171   0.000  0.00  0.00    +0.000 A 
ATOM     20  C   UNL     1       6.298  -0.810   0.000  0.00  0.00    +0.000 A 
ATOM     21  C   UNL     1       5.934  -2.408   0.000  0.00  0.00    +0.000 A 
ATOM     22  C   UNL     1       6.907  -1.367   0.000  0.00  0.00    +0.000 A 
ATOM     23  C   UNL     1       6.724  -2.171   0.000  0.00  0.00    +0.000 A 
ENDROOT
TORSDOF 0
