REMARK  Name = 409
REMARK  6 active torsions:
REMARK  status: ('A' for Active; 'I' for Inactive)
REMARK    1  A    between atoms: O_3  and  C_16
REMARK    2  A    between atoms: O_4  and  C_17
REMARK    3  A    between atoms: N_5  and  C_12
REMARK    4  A    between atoms: N_6  and  C_11
REMARK    5  A    between atoms: C_7  and  C_11
REMARK    6  A    between atoms: C_14  and  C_15
REMARK                            x       y       z     vdW  Elec       q    Type
REMARK                         _______ _______ _______ _____ _____    ______ ____
ROOT
ATOM      1  O   UNL     1       3.079   0.329   0.000  0.00  0.00    +0.000 OA
ATOM      2  N   UNL     1       4.508   0.329   0.000  0.00  0.00    +0.000 NA
ATOM      3  C   UNL     1       3.793  -0.084   0.000  0.00  0.00    +0.000 C 
ENDROOT
BRANCH   3   5
ATOM      4 BR   UNL     1       2.365  -2.558   0.000  0.00  0.00    +0.000 Br
ATOM      5  C   UNL     1       3.793  -0.908   0.000  0.00  0.00    +0.000 A 
ATOM      6  C   UNL     1       3.079  -1.321   0.000  0.00  0.00    +0.000 A 
ATOM      7  C   UNL     1       4.508  -1.321   0.000  0.00  0.00    +0.000 A 
ATOM      8  C   UNL     1       3.079  -2.146   0.000  0.00  0.00    +0.000 A 
ATOM      9  C   UNL     1       4.508  -2.146   0.000  0.00  0.00    +0.000 A 
ATOM     10  C   UNL     1       3.793  -2.558   0.000  0.00  0.00    +0.000 A 
BRANCH   7  11
ATOM     11  O   UNL     1       5.222  -0.908   0.000  0.00  0.00    +0.000 OA
ATOM     12  C   UNL     1       5.937  -1.321   0.000  0.00  0.00    +0.000 C 
ENDBRANCH   7  11
BRANCH   6  13
ATOM     13  O   UNL     1       2.365  -0.908   0.000  0.00  0.00    +0.000 OA
ATOM     14  C   UNL     1       1.650  -1.321   0.000  0.00  0.00    +0.000 C 
ENDBRANCH   6  13
ENDBRANCH   3   5
BRANCH   2  15
ATOM     15  C   UNL     1       4.508   1.154   0.000  0.00  0.00    +0.000 C 
BRANCH  15  17
ATOM     16  N   UNL     1       5.976   1.231   0.000  0.00  0.00    +0.000 NA
ATOM     17  C   UNL     1       5.222   1.567   0.000  0.00  0.00    +0.000 C 
ATOM     18  C   UNL     1       5.309   2.387   0.000  0.00  0.00    +0.000 C 
ATOM     19  C   UNL     1       6.116   2.558   0.000  0.00  0.00    +0.000 C 
ATOM     20  C   UNL     1       6.528   1.844   0.000  0.00  0.00    +0.000 C 
BRANCH  16  21
ATOM     21  C   UNL     1       6.148   0.424   0.000  0.00  0.00    +0.000 C 
ATOM     22  C   UNL     1       6.932   0.169   0.000  0.00  0.00    +0.000 C 
ENDBRANCH  16  21
ENDBRANCH  15  17
ENDBRANCH   2  15
TORSDOF 6
