REMARK  Name = 414
REMARK  4 active torsions:
REMARK  status: ('A' for Active; 'I' for Inactive)
REMARK    1  A    between atoms: S_1  and  N_7
REMARK    2  A    between atoms: S_1  and  C_15
REMARK    3  A    between atoms: N_6  and  C_8
REMARK    4  A    between atoms: C_18  and  C_21
REMARK                            x       y       z     vdW  Elec       q    Type
REMARK                         _______ _______ _______ _____ _____    ______ ____
ROOT
ATOM      1  S   UNL     1       2.475   0.000   0.000  0.00  0.00    +0.000 S 
ATOM      2  O   UNL     1       1.650   0.000   0.000  0.00  0.00    +0.000 OA
ATOM      3  O   UNL     1       3.300   0.000   0.000  0.00  0.00    +0.000 OA
ENDROOT
BRANCH   1   4
ATOM      4  C   UNL     1       2.475  -0.825   0.000  0.00  0.00    +0.000 A 
ATOM      5  C   UNL     1       1.761  -1.238   0.000  0.00  0.00    +0.000 A 
ATOM      6  C   UNL     1       3.189  -1.238   0.000  0.00  0.00    +0.000 A 
ATOM      7  C   UNL     1       2.475  -2.475   0.000  0.00  0.00    +0.000 A 
ATOM      8  C   UNL     1       1.761  -2.062   0.000  0.00  0.00    +0.000 A 
ATOM      9  C   UNL     1       3.189  -2.062   0.000  0.00  0.00    +0.000 A 
BRANCH   7  11
ATOM     10  O   UNL     1       3.189  -3.713   0.000  0.00  0.00    +0.000 OA
ATOM     11  C   UNL     1       2.475  -3.300   0.000  0.00  0.00    +0.000 C 
ATOM     12  C   UNL     1       1.761  -3.713   0.000  0.00  0.00    +0.000 C 
ENDBRANCH   7  11
ENDBRANCH   1   4
BRANCH   1  15
ATOM     13  O   UNL     1       3.904   0.825   0.000  0.00  0.00    +0.000 OA
ATOM     14  N   UNL     1       3.189   2.062   0.000  0.00  0.00    +0.000 NA
ATOM     15  N   UNL     1       2.475   0.825   0.000  0.00  0.00    +0.000 NA
ATOM     16  C   UNL     1       3.189   1.238   0.000  0.00  0.00    +0.000 C 
BRANCH  14  17
ATOM     17  C   UNL     1       3.904   2.475   0.000  0.00  0.00    +0.000 C 
ATOM     18  C   UNL     1       3.904   3.300   0.000  0.00  0.00    +0.000 C 
ATOM     19  C   UNL     1       4.619   2.062   0.000  0.00  0.00    +0.000 C 
ATOM     20  C   UNL     1       4.619   3.713   0.000  0.00  0.00    +0.000 C 
ATOM     21  C   UNL     1       5.333   2.475   0.000  0.00  0.00    +0.000 C 
ATOM     22  C   UNL     1       5.333   3.300   0.000  0.00  0.00    +0.000 C 
ENDBRANCH  14  17
ENDBRANCH   1  15
TORSDOF 4
