REMARK  Name = 415
REMARK  4 active torsions:
REMARK  status: ('A' for Active; 'I' for Inactive)
REMARK    1  A    between atoms: N_7  and  CA_12
REMARK    2  A    between atoms: CA_11  and  C_16
REMARK    3  A    between atoms: C_17  and  CA_18
REMARK    4  A    between atoms: CA_18  and  C_19
REMARK                            x       y       z     vdW  Elec       q    Type
REMARK                         _______ _______ _______ _____ _____    ______ ____
ROOT
ATOM      1  S   UNL     1       7.620   0.677   0.000  0.00  0.00    +0.000 S 
ATOM      2  O   UNL     1       5.421  -0.991   0.000  0.00  0.00    +0.000 OA
ATOM      3  N   UNL     1       6.835  -0.403   0.000  0.00  0.00    +0.000 N 
ATOM      4  C   UNL     1       6.835   0.422   0.000  0.00  0.00    +0.000 C 
ATOM      5  C   UNL     1       8.105   0.010   0.000  0.00  0.00    +0.000 C 
ATOM      6  CA  UNL     1       7.620  -0.658   0.000  0.00  0.00    +0.000 C 
ATOM      7  CA  UNL     1       6.004   0.426   0.000  0.00  0.00    +0.000 C 
ATOM      8  C   UNL     1       6.004  -0.406   0.000  0.00  0.00    +0.000 C 
ATOM      9  C   UNL     1       8.772  -0.475   0.000  0.00  0.00    +0.000 C 
ATOM     10  C   UNL     1       8.772   0.495   0.000  0.00  0.00    +0.000 C 
ENDROOT
BRANCH   6  13
ATOM     11  O   UNL     1       7.323  -2.055   0.000  0.00  0.00    +0.000 OA
ATOM     12  OXT UNL     1       8.682  -1.614   0.000  0.00  0.00    +0.000 OA
ATOM     13  C   UNL     1       7.875  -1.442   0.000  0.00  0.00    +0.000 C 
ENDBRANCH   6  13
BRANCH   7  15
ATOM     14  O   UNL     1       4.409   0.002   0.000  0.00  0.00    +0.000 OA
ATOM     15  N   UNL     1       5.421   1.010   0.000  0.00  0.00    +0.000 NA
ATOM     16  C   UNL     1       4.624   0.798   0.000  0.00  0.00    +0.000 C 
BRANCH  16  18
ATOM     17  N   UNL     1       4.257   2.179   0.000  0.00  0.00    +0.000 NA
ATOM     18  CA  UNL     1       4.042   1.383   0.000  0.00  0.00    +0.000 C 
BRANCH  18  19
ATOM     19  C   UNL     1       3.245   1.171   0.000  0.00  0.00    +0.000 A 
ATOM     20  C   UNL     1       3.030   0.375   0.000  0.00  0.00    +0.000 A 
ATOM     21  C   UNL     1       2.663   1.756   0.000  0.00  0.00    +0.000 A 
ATOM     22  C   UNL     1       2.232   0.163   0.000  0.00  0.00    +0.000 A 
ATOM     23  C   UNL     1       1.865   1.544   0.000  0.00  0.00    +0.000 A 
ATOM     24  C   UNL     1       1.650   0.747   0.000  0.00  0.00    +0.000 A 
ENDBRANCH  18  19
ENDBRANCH  16  18
ENDBRANCH   7  15
TORSDOF 4
