REMARK  Name = 4167
REMARK  2 active torsions:
REMARK  status: ('A' for Active; 'I' for Inactive)
REMARK    1  A    between atoms: C_3  and  C_4
REMARK    2  A    between atoms: C_4  and  C_7
REMARK                            x       y       z     vdW  Elec       q    Type
REMARK                         _______ _______ _______ _____ _____    ______ ____
ROOT
ATOM      1  S   UNL     1       3.849  -2.461   0.000  0.00  0.00    +0.000 S 
ATOM      2  C   UNL     1       3.849  -0.811   0.000  0.00  0.00    +0.000 C 
ATOM      3  C   UNL     1       4.564  -1.223   0.000  0.00  0.00    +0.000 A 
ATOM      4  C   UNL     1       3.135  -1.223   0.000  0.00  0.00    +0.000 A 
ATOM      5  C   UNL     1       4.564  -2.048   0.000  0.00  0.00    +0.000 A 
ATOM      6  C   UNL     1       3.135  -2.048   0.000  0.00  0.00    +0.000 A 
ATOM      7  C   UNL     1       2.397  -0.782   0.000  0.00  0.00    +0.000 A 
ATOM      8  C   UNL     1       5.301  -0.782   0.000  0.00  0.00    +0.000 A 
ATOM      9  C   UNL     1       5.301  -2.489   0.000  0.00  0.00    +0.000 A 
ATOM     10  C   UNL     1       2.397  -2.489   0.000  0.00  0.00    +0.000 A 
ATOM     11  C   UNL     1       6.049  -1.206   0.000  0.00  0.00    +0.000 A 
ATOM     12  C   UNL     1       1.650  -1.206   0.000  0.00  0.00    +0.000 A 
ATOM     13  C   UNL     1       6.049  -2.065   0.000  0.00  0.00    +0.000 A 
ATOM     14  C   UNL     1       1.650  -2.065   0.000  0.00  0.00    +0.000 A 
ENDROOT
BRANCH   2  15
ATOM     15  C   UNL     1       3.849   0.014   0.000  0.00  0.00    +0.000 C 
BRANCH  15  17
ATOM     16  N   UNL     1       5.278   1.664   0.000  0.00  0.00    +0.000 NA
ATOM     17  C   UNL     1       4.564   0.427   0.000  0.00  0.00    +0.000 C 
ATOM     18  C   UNL     1       5.278   0.014   0.000  0.00  0.00    +0.000 C 
ATOM     19  C   UNL     1       4.564   1.252   0.000  0.00  0.00    +0.000 C 
ATOM     20  C   UNL     1       5.993   0.427   0.000  0.00  0.00    +0.000 C 
ATOM     21  C   UNL     1       5.993   1.252   0.000  0.00  0.00    +0.000 C 
ATOM     22  C   UNL     1       5.278   2.489   0.000  0.00  0.00    +0.000 C 
ENDBRANCH  15  17
ENDBRANCH   2  15
TORSDOF 2
