REMARK  Name = 417
REMARK  3 active torsions:
REMARK  status: ('A' for Active; 'I' for Inactive)
REMARK    1  A    between atoms: C_3  and  C_7
REMARK    2  A    between atoms: C_10  and  N_13
REMARK    3  A    between atoms: C_19  and  C_25
REMARK                            x       y       z     vdW  Elec       q    Type
REMARK                         _______ _______ _______ _____ _____    ______ ____
ROOT
ATOM      1  C   UNL     1       0.502   0.026   0.000  0.00  0.00    +0.000 C 
ATOM      2  C   UNL     1      -0.212   0.439   0.000  0.00  0.00    +0.000 C 
ATOM      3  C   UNL     1      -0.926   0.026   0.000  0.00  0.00    +0.000 C 
ATOM      4  C   UNL     1      -0.926  -0.799   0.000  0.00  0.00    +0.000 C 
ATOM      5  C   UNL     1      -0.212  -1.211   0.000  0.00  0.00    +0.000 C 
ATOM      6  C   UNL     1       0.502  -0.799   0.000  0.00  0.00    +0.000 C 
ATOM      7  N   UNL     1       1.217  -1.211   0.000  0.00  0.00    +0.000 NA
ENDROOT
BRANCH   1  10
ATOM      8  C   UNL     1       2.646   0.439   0.000  0.00  0.00    +0.000 A 
ATOM      9  C   UNL     1       1.931   0.026   0.000  0.00  0.00    +0.000 A 
ATOM     10  C   UNL     1       1.217   0.439   0.000  0.00  0.00    +0.000 A 
ATOM     11  C   UNL     1       1.217   1.264   0.000  0.00  0.00    +0.000 A 
ATOM     12  C   UNL     1       1.931   1.676   0.000  0.00  0.00    +0.000 A 
ATOM     13  C   UNL     1       2.646   1.264   0.000  0.00  0.00    +0.000 A 
ATOM     14  F   UNL     1       1.931   2.501   0.000  0.00  0.00    +0.000 F 
ATOM     15  F   UNL     1       1.931  -0.799   0.000  0.00  0.00    +0.000 F 
ATOM     16  F   UNL     1       3.360   1.676   0.000  0.00  0.00    +0.000 F 
ENDBRANCH   1  10
BRANCH   4  17
ATOM     17  N   UNL     1      -1.641  -1.211   0.000  0.00  0.00    +0.000 NA
ATOM     18  C   UNL     1      -1.641  -2.036   0.000  0.00  0.00    +0.000 C 
ATOM     19  C   UNL     1      -2.355  -2.449   0.000  0.00  0.00    +0.000 C 
ATOM     20  N   UNL     1      -3.070  -2.036   0.000  0.00  0.00    +0.000 N 
ATOM     21  C   UNL     1      -3.070  -1.211   0.000  0.00  0.00    +0.000 A 
ATOM     22  C   UNL     1      -2.355  -0.799   0.000  0.00  0.00    +0.000 C 
ATOM     23  C   UNL     1      -3.854  -2.291   0.000  0.00  0.00    +0.000 A 
ATOM     24  N   UNL     1      -4.339  -1.624   0.000  0.00  0.00    +0.000 NA
ATOM     25  N   UNL     1      -3.854  -0.957   0.000  0.00  0.00    +0.000 NA
BRANCH  23  26
ATOM     26  C   UNL     1      -4.109  -3.076   0.000  0.00  0.00    +0.000 C 
ATOM     27  F   UNL     1      -4.364  -3.861   0.000  0.00  0.00    +0.000 F 
ATOM     28  F   UNL     1      -4.894  -2.821   0.000  0.00  0.00    +0.000 F 
ATOM     29  F   UNL     1      -3.325  -3.331   0.000  0.00  0.00    +0.000 F 
ENDBRANCH  23  26
ENDBRANCH   4  17
TORSDOF 3
