REMARK  Name = 417
REMARK  5 active torsions:
REMARK  status: ('A' for Active; 'I' for Inactive)
REMARK    1  A    between atoms: O_6  and  C_18
REMARK    2  A    between atoms: O_6  and  C_19
REMARK    3  A    between atoms: N_8  and  CA_12
REMARK    4  A    between atoms: CA_11  and  C_16
REMARK    5  A    between atoms: C_17  and  C_18
REMARK                            x       y       z     vdW  Elec       q    Type
REMARK                         _______ _______ _______ _____ _____    ______ ____
ROOT
ATOM      1  S   UNL     1       7.987   0.380   0.000  0.00  0.00    +0.000 S 
ATOM      2  O   UNL     1       5.788  -1.288   0.000  0.00  0.00    +0.000 OA
ATOM      3  N   UNL     1       7.202  -0.700   0.000  0.00  0.00    +0.000 N 
ATOM      4  C   UNL     1       7.202   0.125   0.000  0.00  0.00    +0.000 C 
ATOM      5  C   UNL     1       8.472  -0.288   0.000  0.00  0.00    +0.000 C 
ATOM      6  CA  UNL     1       7.987  -0.955   0.000  0.00  0.00    +0.000 C 
ATOM      7  CA  UNL     1       6.371   0.128   0.000  0.00  0.00    +0.000 C 
ATOM      8  C   UNL     1       6.371  -0.704   0.000  0.00  0.00    +0.000 C 
ATOM      9  C   UNL     1       9.139  -0.772   0.000  0.00  0.00    +0.000 C 
ATOM     10  C   UNL     1       9.139   0.197   0.000  0.00  0.00    +0.000 C 
ENDROOT
BRANCH   6  13
ATOM     11  O   UNL     1       7.690  -2.353   0.000  0.00  0.00    +0.000 OA
ATOM     12  OXT UNL     1       9.049  -1.911   0.000  0.00  0.00    +0.000 OA
ATOM     13  C   UNL     1       8.242  -1.740   0.000  0.00  0.00    +0.000 C 
ENDBRANCH   6  13
BRANCH   7  15
ATOM     14  O   UNL     1       4.776  -0.295   0.000  0.00  0.00    +0.000 OA
ATOM     15  N   UNL     1       5.788   0.713   0.000  0.00  0.00    +0.000 NA
ATOM     16  C   UNL     1       4.991   0.501   0.000  0.00  0.00    +0.000 C 
BRANCH  16  17
ATOM     17  C   UNL     1       4.409   1.085   0.000  0.00  0.00    +0.000 C 
BRANCH  17  18
ATOM     18  O   UNL     1       3.612   0.874   0.000  0.00  0.00    +0.000 OA
BRANCH  18  19
ATOM     19  C   UNL     1       3.030   1.458   0.000  0.00  0.00    +0.000 A 
ATOM     20  C   UNL     1       2.232   1.246   0.000  0.00  0.00    +0.000 A 
ATOM     21  C   UNL     1       3.245   2.255   0.000  0.00  0.00    +0.000 A 
ATOM     22  C   UNL     1       1.650   1.831   0.000  0.00  0.00    +0.000 A 
ATOM     23  C   UNL     1       2.663   2.839   0.000  0.00  0.00    +0.000 A 
ATOM     24  C   UNL     1       1.865   2.627   0.000  0.00  0.00    +0.000 A 
ENDBRANCH  18  19
ENDBRANCH  17  18
ENDBRANCH  16  17
ENDBRANCH   7  15
TORSDOF 5
