REMARK  Name = 41A
REMARK  0 active torsions:
REMARK  status: ('A' for Active; 'I' for Inactive)
REMARK                            x       y       z     vdW  Elec       q    Type
REMARK                         _______ _______ _______ _____ _____    ______ ____
ROOT
ATOM      1  C   UNL     1       2.326  -1.242   0.000  0.00  0.00    +0.000 C 
ATOM      2  C   UNL     1       2.043  -0.467   0.000  0.00  0.00    +0.000 C 
ATOM      3  C   UNL     1       2.856  -0.323   0.000  0.00  0.00    +0.000 C 
ATOM      4  C   UNL     1       1.329  -0.879   0.000  0.00  0.00    +0.000 C 
ATOM      5  C   UNL     1       0.615  -0.467   0.000  0.00  0.00    +0.000 A 
ATOM      6  C   UNL     1       0.615   0.358   0.000  0.00  0.00    +0.000 A 
ATOM      7  C   UNL     1       1.329   0.771   0.000  0.00  0.00    +0.000 C 
ATOM      8  C   UNL     1       2.043   0.358   0.000  0.00  0.00    +0.000 C 
ATOM      9  O   UNL     1       1.329   1.596   0.000  0.00  0.00    +0.000 OA
ATOM     10  S   UNL     1      -0.170   0.613   0.000  0.00  0.00    +0.000 S 
ATOM     11  C   UNL     1      -0.655  -0.054   0.000  0.00  0.00    +0.000 A 
ATOM     12  N   UNL     1      -1.480  -0.054   0.000  0.00  0.00    +0.000 N 
ATOM     13  C   UNL     1      -1.893  -0.768   0.000  0.00  0.00    +0.000 C 
ATOM     14  C   UNL     1      -2.717  -0.768   0.000  0.00  0.00    +0.000 C 
ATOM     15  O   UNL     1      -3.130  -0.054   0.000  0.00  0.00    +0.000 OA
ATOM     16  C   UNL     1      -2.717   0.660   0.000  0.00  0.00    +0.000 C 
ATOM     17  C   UNL     1      -1.893   0.660   0.000  0.00  0.00    +0.000 C 
ATOM     18  N   UNL     1      -0.170  -0.721   0.000  0.00  0.00    +0.000 NA
ENDROOT
TORSDOF 0
