REMARK  Name = 421
REMARK  5 active torsions:
REMARK  status: ('A' for Active; 'I' for Inactive)
REMARK    1  A    between atoms: C_4  and  C_11
REMARK    2  A    between atoms: C_7  and  N_14
REMARK    3  A    between atoms: C_9  and  C_25
REMARK    4  A    between atoms: C_15  and  C_16
REMARK    5  A    between atoms: C_25  and  O_27
REMARK                            x       y       z     vdW  Elec       q    Type
REMARK                         _______ _______ _______ _____ _____    ______ ____
ROOT
ATOM      1  C   UNL     1      -0.294  -1.715   0.000  0.00  0.00    +0.000 A 
ATOM      2  C   UNL     1      -1.008  -2.128   0.000  0.00  0.00    +0.000 A 
ATOM      3  C   UNL     1      -1.723  -1.715   0.000  0.00  0.00    +0.000 A 
ATOM      4  C   UNL     1      -1.723  -0.890   0.000  0.00  0.00    +0.000 A 
ATOM      5  C   UNL     1      -1.008  -0.478   0.000  0.00  0.00    +0.000 A 
ATOM      6  C   UNL     1      -0.294  -0.890   0.000  0.00  0.00    +0.000 A 
ATOM      7  C   UNL     1       0.420  -0.478   0.000  0.00  0.00    +0.000 A 
ATOM      8  C   UNL     1       1.135  -0.890   0.000  0.00  0.00    +0.000 A 
ATOM      9  C   UNL     1       1.135  -1.715   0.000  0.00  0.00    +0.000 A 
ATOM     10  C   UNL     1       0.420  -2.128   0.000  0.00  0.00    +0.000 A 
ENDROOT
BRANCH   4  11
ATOM     11  C   UNL     1      -2.437  -0.478   0.000  0.00  0.00    +0.000 C 
ATOM     12  N   UNL     1      -3.152  -0.890   0.000  0.00  0.00    +0.000 NA
ATOM     13  N   UNL     1      -2.437   0.347   0.000  0.00  0.00    +0.000 NA
ENDBRANCH   4  11
BRANCH   7  14
ATOM     14  N   UNL     1       0.420   0.347   0.000  0.00  0.00    +0.000 NA
ATOM     15  C   UNL     1      -0.294   0.760   0.000  0.00  0.00    +0.000 C 
ATOM     16  O   UNL     1      -1.008   0.347   0.000  0.00  0.00    +0.000 OA
BRANCH  15  17
ATOM     17  C   UNL     1      -0.294   1.585   0.000  0.00  0.00    +0.000 A 
ATOM     18  C   UNL     1      -1.008   1.997   0.000  0.00  0.00    +0.000 A 
ATOM     19  C   UNL     1      -1.008   2.822   0.000  0.00  0.00    +0.000 A 
ATOM     20  C   UNL     1      -0.294   3.235   0.000  0.00  0.00    +0.000 A 
ATOM     21  C   UNL     1       0.420   2.822   0.000  0.00  0.00    +0.000 A 
ATOM     22  C   UNL     1       0.420   1.997   0.000  0.00  0.00    +0.000 A 
ATOM     23  C   UNL     1       1.135   1.585   0.000  0.00  0.00    +0.000 C 
ATOM     24  O   UNL     1       1.135   3.235   0.000  0.00  0.00    +0.000 OA
ENDBRANCH  15  17
ENDBRANCH   7  14
BRANCH   9  25
ATOM     25  C   UNL     1       1.849  -2.128   0.000  0.00  0.00    +0.000 C 
ATOM     26  O   UNL     1       1.849  -2.953   0.000  0.00  0.00    +0.000 OA
BRANCH  25  27
ATOM     27  O   UNL     1       2.564  -1.715   0.000  0.00  0.00    +0.000 OA
ATOM     28  C   UNL     1       3.278  -2.128   0.000  0.00  0.00    +0.000 C 
ENDBRANCH  25  27
ENDBRANCH   9  25
TORSDOF 5
