REMARK  Name = 421
REMARK  2 active torsions:
REMARK  status: ('A' for Active; 'I' for Inactive)
REMARK    1  A    between atoms: S_1  and  C_16
REMARK    2  A    between atoms: S_1  and  C_28
REMARK                            x       y       z     vdW  Elec       q    Type
REMARK                         _______ _______ _______ _____ _____    ______ ____
ROOT
ATOM      1  O   UNL     1       5.902  -2.262   0.000  0.00  0.00    +0.000 OA
ATOM      2  O   UNL     1       7.043  -3.189   0.000  0.00  0.00    +0.000 OA
ATOM      3  O   UNL     1       5.298   3.567   0.000  0.00  0.00    +0.000 OA
ATOM      4  C   UNL     1       5.254  -1.545   0.000  0.00  0.00    +0.000 C 
ATOM      5  C   UNL     1       4.539  -1.133   0.000  0.00  0.00    +0.000 C 
ATOM      6  C   UNL     1       4.539  -0.308   0.000  0.00  0.00    +0.000 C 
ATOM      7  C   UNL     1       5.081  -2.347   0.000  0.00  0.00    +0.000 C 
ATOM      8  C   UNL     1       5.254   0.105   0.000  0.00  0.00    +0.000 C 
ATOM      9  C   UNL     1       5.968  -1.133   0.000  0.00  0.00    +0.000 C 
ATOM     10  C   UNL     1       3.931  -1.683   0.000  0.00  0.00    +0.000 C 
ATOM     11  C   UNL     1       5.267   0.964   0.000  0.00  0.00    +0.000 C 
ATOM     12  C   UNL     1       5.968  -0.308   0.000  0.00  0.00    +0.000 C 
ATOM     13  C   UNL     1       4.265  -2.432   0.000  0.00  0.00    +0.000 C 
ATOM     14  C   UNL     1       3.788   0.111   0.000  0.00  0.00    +0.000 C 
ATOM     15  C   UNL     1       6.066  -1.688   0.000  0.00  0.00    +0.000 C 
ATOM     16  C   UNL     1       4.908  -3.154   0.000  0.00  0.00    +0.000 C 
ATOM     17  C   UNL     1       4.526   1.400   0.000  0.00  0.00    +0.000 C 
ATOM     18  C   UNL     1       3.782   0.970   0.000  0.00  0.00    +0.000 C 
ATOM     19  C   UNL     1       6.052   1.394   0.000  0.00  0.00    +0.000 C 
ATOM     20  C   UNL     1       5.978   0.546   0.000  0.00  0.00    +0.000 C 
ATOM     21  C   UNL     1       5.622  -3.567   0.000  0.00  0.00    +0.000 C 
ATOM     22  C   UNL     1       6.236  -3.016   0.000  0.00  0.00    +0.000 C 
ATOM     23  C   UNL     1       6.066   2.289   0.000  0.00  0.00    +0.000 C 
ATOM     24  C   UNL     1       4.519   2.295   0.000  0.00  0.00    +0.000 C 
ATOM     25  C   UNL     1       5.294   2.742   0.000  0.00  0.00    +0.000 C 
ENDROOT
BRANCH  14  26
ATOM     26  S   UNL     1       3.079  -0.310   0.000  0.00  0.00    +0.000 S 
BRANCH  26  28
ATOM     27  O   UNL     1       2.350   0.919   0.000  0.00  0.00    +0.000 OA
ATOM     28  C   UNL     1       2.360   0.094   0.000  0.00  0.00    +0.000 C 
ATOM     29  C   UNL     1       1.650  -0.327   0.000  0.00  0.00    +0.000 C 
ENDBRANCH  26  28
ENDBRANCH  14  26
TORSDOF 2
