REMARK  Name = 422
REMARK  5 active torsions:
REMARK  status: ('A' for Active; 'I' for Inactive)
REMARK    1  A    between atoms: C_1  and  C_20
REMARK    2  A    between atoms: C_8  and  C_10
REMARK    3  A    between atoms: C_17  and  C_19
REMARK    4  A    between atoms: C_20  and  N_21
REMARK    5  A    between atoms: C_26  and  C_27
REMARK                            x       y       z     vdW  Elec       q    Type
REMARK                         _______ _______ _______ _____ _____    ______ ____
ROOT
ATOM      1  C   UNL     1      -2.083  -0.761   0.000  0.00  0.00    +0.000 A 
ATOM      2  C   UNL     1      -1.470  -0.209   0.000  0.00  0.00    +0.000 A 
ATOM      3  C   UNL     1      -1.641   0.598   0.000  0.00  0.00    +0.000 A 
ATOM      4  C   UNL     1      -2.426   0.853   0.000  0.00  0.00    +0.000 A 
ATOM      5  C   UNL     1      -3.039   0.300   0.000  0.00  0.00    +0.000 A 
ATOM      6  C   UNL     1      -2.867  -0.506   0.000  0.00  0.00    +0.000 A 
ATOM      7  C   UNL     1      -1.156   1.265   0.000  0.00  0.00    +0.000 A 
ATOM      8  C   UNL     1      -1.641   1.933   0.000  0.00  0.00    +0.000 A 
ATOM      9  N   UNL     1      -2.426   1.678   0.000  0.00  0.00    +0.000 NA
ENDROOT
BRANCH   8  10
ATOM     10  C   UNL     1      -1.386   2.717   0.000  0.00  0.00    +0.000 A 
ATOM     11  C   UNL     1      -0.602   2.972   0.000  0.00  0.00    +0.000 A 
ATOM     12  C   UNL     1      -0.602   3.797   0.000  0.00  0.00    +0.000 A 
ATOM     13  N   UNL     1      -1.386   4.052   0.000  0.00  0.00    +0.000 NA
ATOM     14  N   UNL     1      -1.871   3.385   0.000  0.00  0.00    +0.000 NA
ATOM     15  C   UNL     1       0.113   2.560   0.000  0.00  0.00    +0.000 A 
ATOM     16  C   UNL     1       0.827   2.972   0.000  0.00  0.00    +0.000 A 
ATOM     17  C   UNL     1       0.827   3.797   0.000  0.00  0.00    +0.000 A 
ATOM     18  C   UNL     1       0.113   4.210   0.000  0.00  0.00    +0.000 A 
BRANCH  17  19
ATOM     19  C   UNL     1       1.542   4.210   0.000  0.00  0.00    +0.000 C 
ATOM     20  N   UNL     1       2.256   4.622   0.000  0.00  0.00    +0.000 NA
ENDBRANCH  17  19
ENDBRANCH   8  10
BRANCH   1  21
ATOM     21  C   UNL     1      -1.911  -1.568   0.000  0.00  0.00    +0.000 C 
BRANCH  21  22
ATOM     22  N   UNL     1      -2.524  -2.120   0.000  0.00  0.00    +0.000 NA
ATOM     23  C   UNL     1      -2.353  -2.927   0.000  0.00  0.00    +0.000 C 
ATOM     24  C   UNL     1      -3.309  -1.865   0.000  0.00  0.00    +0.000 C 
ATOM     25  C   UNL     1      -3.922  -2.417   0.000  0.00  0.00    +0.000 C 
ATOM     26  C   UNL     1      -2.966  -3.479   0.000  0.00  0.00    +0.000 C 
ATOM     27  C   UNL     1      -3.751  -3.224   0.000  0.00  0.00    +0.000 C 
BRANCH  27  28
ATOM     28  C   UNL     1      -4.364  -3.776   0.000  0.00  0.00    +0.000 C 
ATOM     29  N   UNL     1      -4.192  -4.583   0.000  0.00  0.00    +0.000 NA
ENDBRANCH  27  28
ENDBRANCH  21  22
ENDBRANCH   1  21
TORSDOF 5
