REMARK  Name = 422
REMARK  4 active torsions:
REMARK  status: ('A' for Active; 'I' for Inactive)
REMARK    1  A    between atoms: O_1  and  C_11
REMARK    2  A    between atoms: C_4  and  C_6
REMARK    3  A    between atoms: C_6  and  C_10
REMARK    4  A    between atoms: C_6  and  C_11
REMARK                            x       y       z     vdW  Elec       q    Type
REMARK                         _______ _______ _______ _____ _____    ______ ____
ROOT
ATOM      1  C   UNL     1       3.793   0.206   0.000  0.00  0.00    +0.000 C 
ENDROOT
BRANCH   1   3
ATOM      2  N   UNL     1       5.222   0.206   0.000  0.00  0.00    +0.000 NA
ATOM      3  C   UNL     1       4.508   0.619   0.000  0.00  0.00    +0.000 C 
ATOM      4  C   UNL     1       4.508   1.444   0.000  0.00  0.00    +0.000 C 
ATOM      5  C   UNL     1       5.222   1.856   0.000  0.00  0.00    +0.000 C 
ATOM      6  C   UNL     1       5.937   1.444   0.000  0.00  0.00    +0.000 C 
ATOM      7  C   UNL     1       5.937   0.619   0.000  0.00  0.00    +0.000 C 
ENDBRANCH   1   3
BRANCH   1   8
ATOM      8  C   UNL     1       3.079   0.619   0.000  0.00  0.00    +0.000 A 
ATOM      9  C   UNL     1       2.365   0.206   0.000  0.00  0.00    +0.000 A 
ATOM     10  C   UNL     1       3.079   1.444   0.000  0.00  0.00    +0.000 A 
ATOM     11  C   UNL     1       1.650   0.619   0.000  0.00  0.00    +0.000 A 
ATOM     12  C   UNL     1       2.365   1.856   0.000  0.00  0.00    +0.000 A 
ATOM     13  C   UNL     1       1.650   1.444   0.000  0.00  0.00    +0.000 A 
ENDBRANCH   1   8
BRANCH   1  15
ATOM     14  O   UNL     1       4.508  -1.031   0.000  0.00  0.00    +0.000 OA
ATOM     15  C   UNL     1       3.793  -0.619   0.000  0.00  0.00    +0.000 C 
BRANCH  15  16
ATOM     16  O   UNL     1       3.079  -1.031   0.000  0.00  0.00    +0.000 OA
ATOM     17  C   UNL     1       3.079  -1.856   0.000  0.00  0.00    +0.000 C 
ENDBRANCH  15  16
ENDBRANCH   1  15
TORSDOF 4
