REMARK  Name = 425
REMARK  3 active torsions:
REMARK  status: ('A' for Active; 'I' for Inactive)
REMARK    1  A    between atoms: C_5  and  C_8
REMARK    2  A    between atoms: C_6  and  C_9
REMARK    3  A    between atoms: C_8  and  C_13
REMARK                            x       y       z     vdW  Elec       q    Type
REMARK                         _______ _______ _______ _____ _____    ______ ____
ROOT
ATOM      1  N   UNL     1       3.793  -0.905   0.000  0.00  0.00    +0.000 N 
ATOM      2  N   UNL     1       4.574  -1.982   0.000  0.00  0.00    +0.000 NA
ATOM      3  C   UNL     1       4.574  -0.654   0.000  0.00  0.00    +0.000 A 
ATOM      4  C   UNL     1       5.056  -1.318   0.000  0.00  0.00    +0.000 A 
ATOM      5  C   UNL     1       3.793  -1.730   0.000  0.00  0.00    +0.000 A 
ATOM      6  C   UNL     1       3.079  -0.493   0.000  0.00  0.00    +0.000 A 
ATOM      7  C   UNL     1       2.365  -0.905   0.000  0.00  0.00    +0.000 A 
ATOM      8  C   UNL     1       3.079  -2.143   0.000  0.00  0.00    +0.000 A 
ATOM      9  C   UNL     1       2.365  -1.730   0.000  0.00  0.00    +0.000 A 
ATOM     10  C   UNL     1       1.650  -0.493   0.000  0.00  0.00    +0.000 C 
ENDROOT
BRANCH   4  11
ATOM     11  C   UNL     1       5.881  -1.318   0.000  0.00  0.00    +0.000 A 
ATOM     12  C   UNL     1       6.293  -2.032   0.000  0.00  0.00    +0.000 A 
ATOM     13  C   UNL     1       6.293  -0.603   0.000  0.00  0.00    +0.000 A 
ATOM     14  C   UNL     1       7.531  -1.318   0.000  0.00  0.00    +0.000 A 
ATOM     15  C   UNL     1       7.118  -2.032   0.000  0.00  0.00    +0.000 A 
ATOM     16  C   UNL     1       7.118  -0.603   0.000  0.00  0.00    +0.000 A 
ATOM     17  C   UNL     1       8.356  -1.318   0.000  0.00  0.00    +0.000 C 
ENDBRANCH   4  11
BRANCH   3  18
ATOM     18  C   UNL     1       4.830   0.130   0.000  0.00  0.00    +0.000 C 
BRANCH  18  21
ATOM     19  O   UNL     1       3.472   0.574   0.000  0.00  0.00    +0.000 OA
ATOM     20  N   UNL     1       4.536   1.529   0.000  0.00  0.00    +0.000 N 
ATOM     21  C   UNL     1       4.279   0.745   0.000  0.00  0.00    +0.000 C 
ATOM     22  C   UNL     1       3.985   2.143   0.000  0.00  0.00    +0.000 C 
ATOM     23  C   UNL     1       5.343   1.699   0.000  0.00  0.00    +0.000 C 
ENDBRANCH  18  21
ENDBRANCH   3  18
TORSDOF 3
