REMARK  Name = 426
REMARK  5 active torsions:
REMARK  status: ('A' for Active; 'I' for Inactive)
REMARK    1  A    between atoms: C_2  and  C_4
REMARK    2  A    between atoms: C_9  and  C_14
REMARK    3  A    between atoms: N_16  and  C_17
REMARK    4  A    between atoms: C_21  and  O_22
REMARK    5  A    between atoms: O_22  and  C_23
REMARK                            x       y       z     vdW  Elec       q    Type
REMARK                         _______ _______ _______ _____ _____    ______ ____
ROOT
ATOM      1  C   UNL     1       0.969   1.116   0.000  0.00  0.00    +0.000 C 
ATOM      2  O   UNL     1       1.683   1.529   0.000  0.00  0.00    +0.000 OA
ATOM      3  N   UNL     1       0.969   0.291   0.000  0.00  0.00    +0.000 NA
ENDROOT
BRANCH   1   9
ATOM      4  C   UNL     1      -2.604   2.354   0.000  0.00  0.00    +0.000 A 
ATOM      5  C   UNL     1      -1.889   2.766   0.000  0.00  0.00    +0.000 A 
ATOM      6  C   UNL     1      -1.175   2.354   0.000  0.00  0.00    +0.000 A 
ATOM      7  C   UNL     1      -0.460   2.766   0.000  0.00  0.00    +0.000 A 
ATOM      8  C   UNL     1       0.254   2.354   0.000  0.00  0.00    +0.000 A 
ATOM      9  C   UNL     1       0.254   1.529   0.000  0.00  0.00    +0.000 A 
ATOM     10  C   UNL     1      -0.460   1.116   0.000  0.00  0.00    +0.000 A 
ATOM     11  C   UNL     1      -1.175   1.529   0.000  0.00  0.00    +0.000 A 
ATOM     12  C   UNL     1      -1.889   1.116   0.000  0.00  0.00    +0.000 A 
ATOM     13  C   UNL     1      -2.604   1.529   0.000  0.00  0.00    +0.000 A 
BRANCH   4  15
ATOM     14  N   UNL     1      -4.033   2.354   0.000  0.00  0.00    +0.000 NA
ATOM     15  C   UNL     1      -3.318   2.766   0.000  0.00  0.00    +0.000 C 
ATOM     16  N   UNL     1      -3.318   3.591   0.000  0.00  0.00    +0.000 NA
ENDBRANCH   4  15
ENDBRANCH   1   9
BRANCH   3  17
ATOM     17  C   UNL     1       1.683  -0.121   0.000  0.00  0.00    +0.000 A 
ATOM     18  C   UNL     1       2.398   0.291   0.000  0.00  0.00    +0.000 A 
ATOM     19  C   UNL     1       3.112  -0.121   0.000  0.00  0.00    +0.000 A 
ATOM     20  C   UNL     1       3.112  -0.946   0.000  0.00  0.00    +0.000 A 
ATOM     21  C   UNL     1       2.398  -1.359   0.000  0.00  0.00    +0.000 A 
ATOM     22  C   UNL     1       1.683  -0.946   0.000  0.00  0.00    +0.000 A 
BRANCH  21  23
ATOM     23  O   UNL     1       2.398  -2.184   0.000  0.00  0.00    +0.000 OA
BRANCH  23  24
ATOM     24  C   UNL     1       1.683  -2.596   0.000  0.00  0.00    +0.000 C 
ATOM     25  C   UNL     1       1.597  -3.417   0.000  0.00  0.00    +0.000 C 
ATOM     26  C   UNL     1       0.790  -3.588   0.000  0.00  0.00    +0.000 C 
ATOM     27  C   UNL     1       0.377  -2.874   0.000  0.00  0.00    +0.000 C 
ATOM     28  C   UNL     1       0.929  -2.261   0.000  0.00  0.00    +0.000 C 
ENDBRANCH  23  24
ENDBRANCH  21  23
ENDBRANCH   3  17
TORSDOF 5
