REMARK  Name = 426
REMARK  9 active torsions:
REMARK  status: ('A' for Active; 'I' for Inactive)
REMARK    1  A    between atoms: O_1  and  C_13
REMARK    2  A    between atoms: O_1  and  C_19
REMARK    3  A    between atoms: O_2  and  C_14
REMARK    4  A    between atoms: O_2  and  C_20
REMARK    5  A    between atoms: N_5  and  C_12
REMARK    6  A    between atoms: C_10  and  C_11
REMARK    7  A    between atoms: C_10  and  C_13
REMARK    8  A    between atoms: C_10  and  C_14
REMARK    9  A    between atoms: C_11  and  C_12
REMARK                            x       y       z     vdW  Elec       q    Type
REMARK                         _______ _______ _______ _____ _____    ______ ____
ROOT
ATOM      1  C   UNL     1       6.081  -0.569   0.000  0.00  0.00    +0.000 C 
ENDROOT
BRANCH   1   2
ATOM      2  C   UNL     1       6.337   0.215   0.000  0.00  0.00    +0.000 C 
BRANCH   2   3
ATOM      3  C   UNL     1       5.786   0.830   0.000  0.00  0.00    +0.000 C 
BRANCH   3   4
ATOM      4  O   UNL     1       6.042   1.614   0.000  0.00  0.00    +0.000 OA
BRANCH   4   6
ATOM      5  O   UNL     1       4.684   2.058   0.000  0.00  0.00    +0.000 OA
ATOM      6  C   UNL     1       5.491   2.228   0.000  0.00  0.00    +0.000 C 
ATOM      7  C   UNL     1       5.748   3.012   0.000  0.00  0.00    +0.000 C 
ENDBRANCH   4   6
ENDBRANCH   3   4
ENDBRANCH   2   3
BRANCH   2   8
ATOM      8  C   UNL     1       7.144   0.386   0.000  0.00  0.00    +0.000 C 
BRANCH   8   9
ATOM      9  O   UNL     1       7.401   1.170   0.000  0.00  0.00    +0.000 OA
BRANCH   9  11
ATOM     10  O   UNL     1       8.759   0.726   0.000  0.00  0.00    +0.000 OA
ATOM     11  C   UNL     1       8.208   1.340   0.000  0.00  0.00    +0.000 C 
ATOM     12  C   UNL     1       8.464   2.124   0.000  0.00  0.00    +0.000 C 
ENDBRANCH   9  11
ENDBRANCH   8   9
ENDBRANCH   2   8
ENDBRANCH   1   2
BRANCH   1  13
ATOM     13  C   UNL     1       5.273  -0.739   0.000  0.00  0.00    +0.000 C 
BRANCH  13  14
ATOM     14  N   UNL     1       5.017  -1.523   0.000  0.00  0.00    +0.000 N 
ATOM     15  N   UNL     1       5.017  -2.851   0.000  0.00  0.00    +0.000 NA
ATOM     16  N   UNL     1       3.522  -1.362   0.000  0.00  0.00    +0.000 NA
ATOM     17  N   UNL     1       2.808  -2.599   0.000  0.00  0.00    +0.000 NA
ATOM     18  N   UNL     1       2.093  -1.362   0.000  0.00  0.00    +0.000 NA
ATOM     19  C   UNL     1       4.236  -1.774   0.000  0.00  0.00    +0.000 A 
ATOM     20  C   UNL     1       5.498  -2.187   0.000  0.00  0.00    +0.000 A 
ATOM     21  C   UNL     1       4.236  -2.599   0.000  0.00  0.00    +0.000 A 
ATOM     22  C   UNL     1       3.522  -3.012   0.000  0.00  0.00    +0.000 A 
ATOM     23  C   UNL     1       2.808  -1.774   0.000  0.00  0.00    +0.000 A 
ENDBRANCH  13  14
ENDBRANCH   1  13
TORSDOF 9
