REMARK  Name = 42647297
REMARK  5 active torsions:
REMARK  status: ('A' for Active; 'I' for Inactive)
REMARK    1  A    between atoms: N_5  and  C_10
REMARK    2  A    between atoms: N_6  and  C_16
REMARK    3  A    between atoms: N_6  and  C_20
REMARK    4  A    between atoms: N_8  and  C_26
REMARK    5  A    between atoms: C_13  and  C_14
REMARK                            x       y       z     vdW  Elec       q    Type
REMARK                         _______ _______ _______ _____ _____    ______ ____
ROOT
ATOM      1  O   UNL     1       5.333   0.575   0.000  0.00  0.00    +0.000 OA
ATOM      2  N   UNL     1       6.762   0.575   0.000  0.00  0.00    +0.000 N 
ATOM      3  N   UNL     1       8.257   0.414   0.000  0.00  0.00    +0.000 N 
ATOM      4  N   UNL     1       8.739  -0.250   0.000  0.00  0.00    +0.000 NA
ATOM      5  C   UNL     1       7.476   0.162   0.000  0.00  0.00    +0.000 A 
ATOM      6  C   UNL     1       7.476  -0.663   0.000  0.00  0.00    +0.000 A 
ATOM      7  C   UNL     1       6.762  -1.075   0.000  0.00  0.00    +0.000 A 
ATOM      8  C   UNL     1       6.048  -0.663   0.000  0.00  0.00    +0.000 A 
ATOM      9  C   UNL     1       6.048   0.162   0.000  0.00  0.00    +0.000 A 
ATOM     10  C   UNL     1       8.257  -0.914   0.000  0.00  0.00    +0.000 A 
ATOM     11  C   UNL     1       6.762   1.400   0.000  0.00  0.00    +0.000 C 
ENDROOT
BRANCH   3  14
ATOM     12  F   UNL     1       9.872   0.754   0.000  0.00  0.00    +0.000 F 
ATOM     13  F   UNL     1       9.282   3.550   0.000  0.00  0.00    +0.000 F 
ATOM     14  C   UNL     1       8.513   1.198   0.000  0.00  0.00    +0.000 A 
ATOM     15  C   UNL     1       9.321   1.368   0.000  0.00  0.00    +0.000 A 
ATOM     16  C   UNL     1       7.962   1.812   0.000  0.00  0.00    +0.000 A 
ATOM     17  C   UNL     1       9.577   2.152   0.000  0.00  0.00    +0.000 A 
ATOM     18  C   UNL     1       8.219   2.596   0.000  0.00  0.00    +0.000 A 
ATOM     19  C   UNL     1       9.026   2.766   0.000  0.00  0.00    +0.000 A 
ENDBRANCH   3  14
BRANCH   7  20
ATOM     20  N   UNL     1       6.762  -1.900   0.000  0.00  0.00    +0.000 NA
BRANCH  20  23
ATOM     21  C   UNL     1       4.619  -2.313   0.000  0.00  0.00    +0.000 A 
ATOM     22  C   UNL     1       5.333  -1.900   0.000  0.00  0.00    +0.000 A 
ATOM     23  C   UNL     1       6.048  -2.313   0.000  0.00  0.00    +0.000 A 
ATOM     24  C   UNL     1       4.619  -3.138   0.000  0.00  0.00    +0.000 A 
ATOM     25  C   UNL     1       6.048  -3.138   0.000  0.00  0.00    +0.000 A 
ATOM     26  C   UNL     1       5.333  -3.550   0.000  0.00  0.00    +0.000 A 
ATOM     27  C   UNL     1       6.762  -3.550   0.000  0.00  0.00    +0.000 C 
BRANCH  21  30
ATOM     28  O   UNL     1       3.904  -1.075   0.000  0.00  0.00    +0.000 OA
ATOM     29  N   UNL     1       3.189  -2.313   0.000  0.00  0.00    +0.000 NA
ATOM     30  C   UNL     1       3.904  -1.900   0.000  0.00  0.00    +0.000 C 
BRANCH  29  31
ATOM     31  C   UNL     1       2.475  -1.900   0.000  0.00  0.00    +0.000 C 
ATOM     32  C   UNL     1       2.062  -1.186   0.000  0.00  0.00    +0.000 C 
ATOM     33  C   UNL     1       1.650  -1.900   0.000  0.00  0.00    +0.000 C 
ENDBRANCH  29  31
ENDBRANCH  21  30
ENDBRANCH  20  23
ENDBRANCH   7  20
TORSDOF 5
