REMARK  Name = 428
REMARK  3 active torsions:
REMARK  status: ('A' for Active; 'I' for Inactive)
REMARK    1  A    between atoms: N_8  and  C_12
REMARK    2  A    between atoms: N_9  and  N_10
REMARK    3  A    between atoms: C_14  and  C_16
REMARK                            x       y       z     vdW  Elec       q    Type
REMARK                         _______ _______ _______ _____ _____    ______ ____
ROOT
ATOM      1  O   UNL     1       4.237  -1.188   0.000  0.00  0.00    +0.000 OA
ATOM      2  O   UNL     1       2.093   0.050   0.000  0.00  0.00    +0.000 OA
ATOM      3  O   UNL     1       2.093  -1.601   0.000  0.00  0.00    +0.000 OA
ATOM      4  O   UNL     1       4.951   0.050   0.000  0.00  0.00    +0.000 OA
ATOM      5  C   UNL     1       2.808  -0.363   0.000  0.00  0.00    +0.000 C 
ATOM      6  C   UNL     1       3.522   0.050   0.000  0.00  0.00    +0.000 C 
ATOM      7  C   UNL     1       2.808  -1.188   0.000  0.00  0.00    +0.000 C 
ATOM      8  C   UNL     1       3.522  -1.601   0.000  0.00  0.00    +0.000 C 
ATOM      9  C   UNL     1       4.237  -0.363   0.000  0.00  0.00    +0.000 C 
ENDROOT
BRANCH   6  11
ATOM     10  O   UNL     1       4.951   0.875   0.000  0.00  0.00    +0.000 OA
ATOM     11  N   UNL     1       3.522   0.875   0.000  0.00  0.00    +0.000 NA
ATOM     12  N   UNL     1       4.237   2.112   0.000  0.00  0.00    +0.000 N 
ATOM     13  C   UNL     1       4.237   1.287   0.000  0.00  0.00    +0.000 C 
ATOM     14  C   UNL     1       3.522   2.525   0.000  0.00  0.00    +0.000 C 
BRANCH  12  16
ATOM     15  O   UNL     1       4.951   3.350   0.000  0.00  0.00    +0.000 OA
ATOM     16  N   UNL     1       4.951   2.525   0.000  0.00  0.00    +0.000 NA
ENDBRANCH  12  16
ENDBRANCH   6  11
BRANCH   8  18
ATOM     17  O   UNL     1       4.237  -2.838   0.000  0.00  0.00    +0.000 OA
ATOM     18  C   UNL     1       3.522  -2.426   0.000  0.00  0.00    +0.000 C 
ENDBRANCH   8  18
TORSDOF 3
