REMARK  Name = 432
REMARK  3 active torsions:
REMARK  status: ('A' for Active; 'I' for Inactive)
REMARK    1  A    between atoms: N_9  and  C1*_11
REMARK    2  A    between atoms: C4*_14  and  C5*_15
REMARK    3  A    between atoms: C_18  and  C_20
REMARK                            x       y       z     vdW  Elec       q    Type
REMARK                         _______ _______ _______ _____ _____    ______ ____
ROOT
ATOM      1  O   UNL     1       1.650   0.307   0.000  0.00  0.00    +0.000 OA
ATOM      2  O   UNL     1       3.079   2.782   0.000  0.00  0.00    +0.000 OA
ATOM      3  N   UNL     1       3.079   0.307   0.000  0.00  0.00    +0.000 N 
ATOM      4  N   UNL     1       2.365   1.545   0.000  0.00  0.00    +0.000 NA
ATOM      5  C   UNL     1       3.793   0.720   0.000  0.00  0.00    +0.000 A 
ATOM      6  C   UNL     1       2.365   0.720   0.000  0.00  0.00    +0.000 A 
ATOM      7  C   UNL     1       3.793   1.545   0.000  0.00  0.00    +0.000 A 
ATOM      8  C   UNL     1       3.079   1.957   0.000  0.00  0.00    +0.000 A 
ENDROOT
BRANCH   3  11
ATOM      9  O4* UNL     1       3.747  -1.003   0.000  0.00  0.00    +0.000 OA
ATOM     10  O3* UNL     1       2.182  -2.455   0.000  0.00  0.00    +0.000 OA
ATOM     11  C1* UNL     1       3.079  -0.518   0.000  0.00  0.00    +0.000 C 
ATOM     12  C3* UNL     1       2.667  -1.787   0.000  0.00  0.00    +0.000 C 
ATOM     13  C2* UNL     1       2.412  -1.003   0.000  0.00  0.00    +0.000 C 
ATOM     14  C4* UNL     1       3.492  -1.787   0.000  0.00  0.00    +0.000 C 
BRANCH  14  16
ATOM     15  O5* UNL     1       4.797  -2.369   0.000  0.00  0.00    +0.000 OA
ATOM     16  C5* UNL     1       3.976  -2.455   0.000  0.00  0.00    +0.000 C 
ENDBRANCH  14  16
ENDBRANCH   3  11
BRANCH   7  20
ATOM     17  F   UNL     1       4.920   1.243   0.000  0.00  0.00    +0.000 F 
ATOM     18  F   UNL     1       5.222   2.370   0.000  0.00  0.00    +0.000 F 
ATOM     19  F   UNL     1       4.096   2.672   0.000  0.00  0.00    +0.000 F 
ATOM     20  C   UNL     1       4.508   1.957   0.000  0.00  0.00    +0.000 C 
ENDBRANCH   7  20
TORSDOF 3
