REMARK  Name = 433
REMARK  4 active torsions:
REMARK  status: ('A' for Active; 'I' for Inactive)
REMARK    1  A    between atoms: N_3  and  C_8
REMARK    2  A    between atoms: N_5  and  C_12
REMARK    3  A    between atoms: C_8  and  C_11
REMARK    4  A    between atoms: C_11  and  C_12
REMARK                            x       y       z     vdW  Elec       q    Type
REMARK                         _______ _______ _______ _____ _____    ______ ____
ROOT
ATOM      1 CL   UNL     1       7.810  -0.957   0.000  0.00  0.00    +0.000 Cl
ATOM      2  S   UNL     1       5.014  -2.561   0.000  0.00  0.00    +0.000 S 
ATOM      3  N   UNL     1       5.014  -0.976   0.000  0.00  0.00    +0.000 N 
ATOM      4  C   UNL     1       5.700  -1.373   0.000  0.00  0.00    +0.000 A 
ATOM      5  C   UNL     1       4.328  -1.373   0.000  0.00  0.00    +0.000 A 
ATOM      6  C   UNL     1       5.700  -2.164   0.000  0.00  0.00    +0.000 A 
ATOM      7  C   UNL     1       4.328  -2.164   0.000  0.00  0.00    +0.000 A 
ATOM      8  C   UNL     1       6.408  -0.949   0.000  0.00  0.00    +0.000 A 
ATOM      9  C   UNL     1       3.620  -0.949   0.000  0.00  0.00    +0.000 A 
ATOM     10  C   UNL     1       6.408  -2.588   0.000  0.00  0.00    +0.000 A 
ATOM     11  C   UNL     1       3.620  -2.588   0.000  0.00  0.00    +0.000 A 
ATOM     12  C   UNL     1       7.126  -1.356   0.000  0.00  0.00    +0.000 A 
ATOM     13  C   UNL     1       2.902  -1.356   0.000  0.00  0.00    +0.000 A 
ATOM     14  C   UNL     1       7.126  -2.181   0.000  0.00  0.00    +0.000 A 
ATOM     15  C   UNL     1       2.902  -2.181   0.000  0.00  0.00    +0.000 A 
ENDROOT
BRANCH   3  16
ATOM     16  C   UNL     1       5.014  -0.184   0.000  0.00  0.00    +0.000 C 
BRANCH  16  17
ATOM     17  C   UNL     1       4.328   0.212   0.000  0.00  0.00    +0.000 C 
BRANCH  17  18
ATOM     18  C   UNL     1       4.328   1.004   0.000  0.00  0.00    +0.000 C 
BRANCH  18  19
ATOM     19  N   UNL     1       3.642   1.400   0.000  0.00  0.00    +0.000 NA
ATOM     20  N   UNL     1       2.270   2.192   0.000  0.00  0.00    +0.000 NA
ATOM     21  C   UNL     1       2.956   1.004   0.000  0.00  0.00    +0.000 C 
ATOM     22  C   UNL     1       3.642   2.192   0.000  0.00  0.00    +0.000 C 
ATOM     23  C   UNL     1       2.270   1.400   0.000  0.00  0.00    +0.000 C 
ATOM     24  C   UNL     1       2.956   2.588   0.000  0.00  0.00    +0.000 C 
ATOM     25  C   UNL     1       1.584   2.588   0.000  0.00  0.00    +0.000 C 
ENDBRANCH  18  19
ENDBRANCH  17  18
ENDBRANCH  16  17
ENDBRANCH   3  16
TORSDOF 4
