REMARK  Name = 436
REMARK  4 active torsions:
REMARK  status: ('A' for Active; 'I' for Inactive)
REMARK    1  A    between atoms: S_2  and  C_19
REMARK    2  A    between atoms: C_13  and  C_16
REMARK    3  A    between atoms: C_16  and  C_21
REMARK    4  A    between atoms: C_20  and  C_22
REMARK                            x       y       z     vdW  Elec       q    Type
REMARK                         _______ _______ _______ _____ _____    ______ ____
ROOT
ATOM      1  S   UNL     1       3.793  -1.386   0.000  0.00  0.00    +0.000 S 
ATOM      2  O   UNL     1       4.206  -2.101   0.000  0.00  0.00    +0.000 OA
ATOM      3  O   UNL     1       3.381  -2.101   0.000  0.00  0.00    +0.000 OA
ATOM      4  N   UNL     1       3.079  -0.974   0.000  0.00  0.00    +0.000 NA
ATOM      5  N   UNL     1       3.793   0.264   0.000  0.00  0.00    +0.000 NA
ATOM      6  C   UNL     1       3.079  -0.149   0.000  0.00  0.00    +0.000 C 
ATOM      7  C   UNL     1       4.508  -0.974   0.000  0.00  0.00    +0.000 A 
ATOM      8  C   UNL     1       4.508  -0.149   0.000  0.00  0.00    +0.000 A 
ATOM      9  C   UNL     1       5.245  -1.415   0.000  0.00  0.00    +0.000 A 
ATOM     10  C   UNL     1       5.245   0.292   0.000  0.00  0.00    +0.000 A 
ATOM     11  C   UNL     1       5.993  -0.991   0.000  0.00  0.00    +0.000 A 
ATOM     12  C   UNL     1       5.993  -0.132   0.000  0.00  0.00    +0.000 A 
ENDROOT
BRANCH  11  13
ATOM     13  S   UNL     1       6.521  -1.625   0.000  0.00  0.00    +0.000 S 
ATOM     14  O   UNL     1       7.155  -1.097   0.000  0.00  0.00    +0.000 OA
ATOM     15  O   UNL     1       5.887  -2.153   0.000  0.00  0.00    +0.000 OA
ATOM     16  N   UNL     1       7.049  -2.259   0.000  0.00  0.00    +0.000 NA
ENDBRANCH  11  13
BRANCH  12  20
ATOM     17  F   UNL     1       7.155  -0.025   0.000  0.00  0.00    +0.000 F 
ATOM     18  F   UNL     1       5.887   1.030   0.000  0.00  0.00    +0.000 F 
ATOM     19  F   UNL     1       7.049   1.137   0.000  0.00  0.00    +0.000 F 
ATOM     20  C   UNL     1       6.521   0.502   0.000  0.00  0.00    +0.000 C 
ENDBRANCH  12  20
BRANCH   6  21
ATOM     21  C   UNL     1       2.365   0.264   0.000  0.00  0.00    +0.000 C 
BRANCH  21  22
ATOM     22  C   UNL     1       2.365   1.089   0.000  0.00  0.00    +0.000 A 
ATOM     23  C   UNL     1       1.650   1.501   0.000  0.00  0.00    +0.000 A 
ATOM     24  C   UNL     1       3.079   1.501   0.000  0.00  0.00    +0.000 A 
ATOM     25  C   UNL     1       1.650   2.326   0.000  0.00  0.00    +0.000 A 
ATOM     26  C   UNL     1       3.079   2.326   0.000  0.00  0.00    +0.000 A 
ATOM     27  C   UNL     1       2.365   2.739   0.000  0.00  0.00    +0.000 A 
ENDBRANCH  21  22
ENDBRANCH   6  21
TORSDOF 4
