REMARK  Name = 438
REMARK  9 active torsions:
REMARK  status: ('A' for Active; 'I' for Inactive)
REMARK    1  A    between atoms: O_7  and  N_13
REMARK    2  A    between atoms: O_7  and  C_32
REMARK    3  A    between atoms: N_11  and  CA_17
REMARK    4  A    between atoms: N_12  and  C_22
REMARK    5  A    between atoms: CA_19  and  C_23
REMARK    6  A    between atoms: C_20  and  C_22
REMARK    7  A    between atoms: C_24  and  C_25
REMARK    8  A    between atoms: C_25  and  C_28
REMARK    9  A    between atoms: C_32  and  C_36
REMARK                            x       y       z     vdW  Elec       q    Type
REMARK                         _______ _______ _______ _____ _____    ______ ____
ROOT
ATOM      1  S   UNL     1       5.222   0.670   0.000  0.00  0.00    +0.000 S 
ATOM      2  O   UNL     1       7.351   2.496   0.000  0.00  0.00    +0.000 OA
ATOM      3  N   UNL     1       5.937   1.908   0.000  0.00  0.00    +0.000 N 
ATOM      4  C   UNL     1       5.937   1.083   0.000  0.00  0.00    +0.000 C 
ATOM      5  CA  UNL     1       6.769   1.079   0.000  0.00  0.00    +0.000 C 
ATOM      6  C   UNL     1       6.769   1.911   0.000  0.00  0.00    +0.000 C 
ATOM      7  CA  UNL     1       5.222   2.320   0.000  0.00  0.00    +0.000 C 
ATOM      8  C   UNL     1       4.508   1.908   0.000  0.00  0.00    +0.000 C 
ATOM      9  C   UNL     1       4.508   1.083   0.000  0.00  0.00    +0.000 C 
ENDROOT
BRANCH   5  11
ATOM     10  O   UNL     1       8.363   1.503   0.000  0.00  0.00    +0.000 OA
ATOM     11  N   UNL     1       7.351   0.495   0.000  0.00  0.00    +0.000 NA
ATOM     12  C   UNL     1       8.148   0.707   0.000  0.00  0.00    +0.000 C 
BRANCH  12  14
ATOM     13  N   UNL     1       8.515  -0.674   0.000  0.00  0.00    +0.000 NA
ATOM     14  C   UNL     1       8.730   0.122   0.000  0.00  0.00    +0.000 C 
BRANCH  14  18
ATOM     15  S   UNL     1      10.861   0.261   0.000  0.00  0.00    +0.000 S 
ATOM     16  N   UNL     1       9.825   1.103   0.000  0.00  0.00    +0.000 NA
ATOM     17  N   UNL     1      11.169   1.699   0.000  0.00  0.00    +0.000 NA
ATOM     18  C   UNL     1       9.528   0.334   0.000  0.00  0.00    +0.000 A 
ATOM     19  C   UNL     1      10.168  -0.187   0.000  0.00  0.00    +0.000 A 
ATOM     20  C   UNL     1      10.649   1.059   0.000  0.00  0.00    +0.000 A 
ENDBRANCH  14  18
BRANCH  13  21
ATOM     21  O   UNL     1       7.718  -0.886   0.000  0.00  0.00    +0.000 OA
BRANCH  21  22
ATOM     22  C   UNL     1       7.503  -1.683   0.000  0.00  0.00    +0.000 C 
ATOM     23  C   UNL     1       6.706  -1.468   0.000  0.00  0.00    +0.000 C 
ATOM     24  C   UNL     1       8.299  -1.898   0.000  0.00  0.00    +0.000 C 
BRANCH  22  27
ATOM     25  O   UNL     1       7.870  -3.064   0.000  0.00  0.00    +0.000 OA
ATOM     26  O   UNL     1       6.490  -2.691   0.000  0.00  0.00    +0.000 OA
ATOM     27  C   UNL     1       7.287  -2.479   0.000  0.00  0.00    +0.000 C 
ENDBRANCH  22  27
ENDBRANCH  21  22
ENDBRANCH  13  21
ENDBRANCH  12  14
ENDBRANCH   5  11
BRANCH   7  30
ATOM     28  O   UNL     1       4.508   3.558   0.000  0.00  0.00    +0.000 OA
ATOM     29  OXT UNL     1       5.937   3.558   0.000  0.00  0.00    +0.000 OA
ATOM     30  C   UNL     1       5.222   3.145   0.000  0.00  0.00    +0.000 C 
ENDBRANCH   7  30
BRANCH   8  31
ATOM     31  C   UNL     1       3.793   2.320   0.000  0.00  0.00    +0.000 C 
BRANCH  31  32
ATOM     32  N   UNL     1       3.079   1.908   0.000  0.00  0.00    +0.000 N 
ATOM     33  C   UNL     1       3.079   1.083   0.000  0.00  0.00    +0.000 A 
ATOM     34  C   UNL     1       2.364   2.320   0.000  0.00  0.00    +0.000 A 
ATOM     35  C   UNL     1       2.364   0.670   0.000  0.00  0.00    +0.000 A 
ATOM     36  C   UNL     1       1.650   1.908   0.000  0.00  0.00    +0.000 A 
ATOM     37  C   UNL     1       1.650   1.083   0.000  0.00  0.00    +0.000 A 
ENDBRANCH  31  32
ENDBRANCH   8  31
TORSDOF 9
