REMARK  Name = 439
REMARK  11 active torsions:
REMARK  status: ('A' for Active; 'I' for Inactive)
REMARK    1  A    between atoms: O_2  and  C_15
REMARK    2  A    between atoms: C_8  and  C_14
REMARK    3  A    between atoms: C_9  and  C_13
REMARK    4  A    between atoms: C_10  and  C_15
REMARK    5  A    between atoms: C_11  and  C_17
REMARK    6  A    between atoms: C_12  and  C_16
REMARK    7  A    between atoms: C_18  and  C_23
REMARK    8  A    between atoms: C_18  and  C_24
REMARK    9  A    between atoms: C_23  and  C_25
REMARK   10  A    between atoms: C_25  and  C_28
REMARK   11  A    between atoms: C_28  and  C_33
REMARK                            x       y       z     vdW  Elec       q    Type
REMARK                         _______ _______ _______ _____ _____    ______ ____
ROOT
ATOM      1  N   UNL     1       8.523  -1.967   0.000  0.00  0.00    +0.000 NA
ATOM      2  C   UNL     1       9.238  -1.554   0.000  0.00  0.00    +0.000 A 
ATOM      3  C   UNL     1       7.809  -1.554   0.000  0.00  0.00    +0.000 A 
ATOM      4  C   UNL     1       9.238  -0.729   0.000  0.00  0.00    +0.000 A 
ATOM      5  C   UNL     1       7.809  -0.729   0.000  0.00  0.00    +0.000 A 
ATOM      6  C   UNL     1       8.523  -0.317   0.000  0.00  0.00    +0.000 A 
ENDROOT
BRANCH   6   8
ATOM      7  F   UNL     1       8.523   2.983   0.000  0.00  0.00    +0.000 F 
ATOM      8  C   UNL     1       8.523   0.508   0.000  0.00  0.00    +0.000 A 
ATOM      9  C   UNL     1       7.809   0.921   0.000  0.00  0.00    +0.000 A 
ATOM     10  C   UNL     1       9.238   0.921   0.000  0.00  0.00    +0.000 A 
ATOM     11  C   UNL     1       7.809   1.746   0.000  0.00  0.00    +0.000 A 
ATOM     12  C   UNL     1       9.238   1.746   0.000  0.00  0.00    +0.000 A 
ATOM     13  C   UNL     1       8.523   2.158   0.000  0.00  0.00    +0.000 A 
ENDBRANCH   6   8
BRANCH   3  14
ATOM     14  C   UNL     1       7.396  -2.269   0.000  0.00  0.00    +0.000 C 
ATOM     15  C   UNL     1       6.571  -2.269   0.000  0.00  0.00    +0.000 C 
ATOM     16  C   UNL     1       7.809  -2.983   0.000  0.00  0.00    +0.000 C 
ENDBRANCH   3  14
BRANCH   2  17
ATOM     17  C   UNL     1       9.952  -1.967   0.000  0.00  0.00    +0.000 C 
ATOM     18  C   UNL     1      10.667  -1.554   0.000  0.00  0.00    +0.000 C 
ATOM     19  C   UNL     1       9.952  -2.792   0.000  0.00  0.00    +0.000 C 
ENDBRANCH   2  17
BRANCH   5  20
ATOM     20  C   UNL     1       7.094  -0.317   0.000  0.00  0.00    +0.000 C 
ATOM     21  C   UNL     1       6.380  -0.729   0.000  0.00  0.00    +0.000 C 
BRANCH  21  23
ATOM     22  O   UNL     1       5.665   0.508   0.000  0.00  0.00    +0.000 OA
ATOM     23  C   UNL     1       5.665  -0.317   0.000  0.00  0.00    +0.000 C 
BRANCH  23  24
ATOM     24  C   UNL     1       4.951  -0.729   0.000  0.00  0.00    +0.000 C 
BRANCH  24  26
ATOM     25  O   UNL     1       4.237   0.508   0.000  0.00  0.00    +0.000 OA
ATOM     26  C   UNL     1       4.237  -0.317   0.000  0.00  0.00    +0.000 C 
BRANCH  26  27
ATOM     27  C   UNL     1       3.522  -0.729   0.000  0.00  0.00    +0.000 C 
BRANCH  27  30
ATOM     28  O   UNL     1       2.093  -0.729   0.000  0.00  0.00    +0.000 OA
ATOM     29  O   UNL     1       2.808   0.508   0.000  0.00  0.00    +0.000 OA
ATOM     30  C   UNL     1       2.808  -0.317   0.000  0.00  0.00    +0.000 C 
ENDBRANCH  27  30
ENDBRANCH  26  27
ENDBRANCH  24  26
ENDBRANCH  23  24
ENDBRANCH  21  23
ENDBRANCH   5  20
BRANCH   4  31
ATOM     31  C   UNL     1       9.952  -0.317   0.000  0.00  0.00    +0.000 C 
BRANCH  31  32
ATOM     32  O   UNL     1      10.667  -0.729   0.000  0.00  0.00    +0.000 OA
ATOM     33  C   UNL     1      11.381  -0.317   0.000  0.00  0.00    +0.000 C 
ENDBRANCH  31  32
ENDBRANCH   4  31
TORSDOF 11
