REMARK  Name = 439236
REMARK  3 active torsions:
REMARK  status: ('A' for Active; 'I' for Inactive)
REMARK    1  A    between atoms: P_1  and  O_3
REMARK    2  A    between atoms: O_3  and  C_13
REMARK    3  A    between atoms: C_12  and  C_14
REMARK                            x       y       z     vdW  Elec       q    Type
REMARK                         _______ _______ _______ _____ _____    ______ ____
ROOT
ATOM      1  O   UNL     1       4.239   0.431   0.000  0.00  0.00    +0.000 OA
ATOM      2  O   UNL     1       5.136  -1.506   0.000  0.00  0.00    +0.000 OA
ATOM      3  O   UNL     1       3.341  -1.506   0.000  0.00  0.00    +0.000 OA
ATOM      4  C   UNL     1       4.651  -0.838   0.000  0.00  0.00    +0.000 C 
ATOM      5  C   UNL     1       3.826  -0.838   0.000  0.00  0.00    +0.000 C 
ATOM      6  C   UNL     1       4.906  -0.054   0.000  0.00  0.00    +0.000 C 
ATOM      7  C   UNL     1       3.571  -0.054   0.000  0.00  0.00    +0.000 C 
ENDROOT
BRANCH   6   9
ATOM      8  O   UNL     1       5.862   1.008   0.000  0.00  0.00    +0.000 OA
ATOM      9  C   UNL     1       5.691   0.201   0.000  0.00  0.00    +0.000 C 
ENDBRANCH   6   9
BRANCH   7  10
ATOM     10  O   UNL     1       2.787   0.201   0.000  0.00  0.00    +0.000 OA
BRANCH  10  11
ATOM     11  P   UNL     1       2.615   1.008   0.000  0.00  0.00    +0.000 P 
ATOM     12  O   UNL     1       2.443   1.815   0.000  0.00  0.00    +0.000 OA
ATOM     13  O   UNL     1       1.808   0.837   0.000  0.00  0.00    +0.000 OA
ATOM     14  O   UNL     1       3.422   1.180   0.000  0.00  0.00    +0.000 OA
ENDBRANCH  10  11
ENDBRANCH   7  10
TORSDOF 3
