REMARK  Name = 43A
REMARK  3 active torsions:
REMARK  status: ('A' for Active; 'I' for Inactive)
REMARK    1  A    between atoms: C_2  and  O_8
REMARK    2  A    between atoms: C_4  and  C_10
REMARK    3  A    between atoms: C_20  and  C_21
REMARK                            x       y       z     vdW  Elec       q    Type
REMARK                         _______ _______ _______ _____ _____    ______ ____
ROOT
ATOM      1  C   UNL     1       0.926  -0.029   0.000  0.00  0.00    +0.000 A 
ATOM      2  C   UNL     1       0.211  -0.441   0.000  0.00  0.00    +0.000 A 
ATOM      3  C   UNL     1      -0.503  -0.029   0.000  0.00  0.00    +0.000 A 
ATOM      4  C   UNL     1      -0.503   0.796   0.000  0.00  0.00    +0.000 A 
ATOM      5  C   UNL     1       0.211   1.209   0.000  0.00  0.00    +0.000 A 
ATOM      6  C   UNL     1       0.926   0.796   0.000  0.00  0.00    +0.000 A 
ATOM      7  N   UNL     1      -1.288  -0.283   0.000  0.00  0.00    +0.000 NA
ATOM      8  C   UNL     1      -1.773   0.384   0.000  0.00  0.00    +0.000 C 
ATOM      9  C   UNL     1      -1.288   1.051   0.000  0.00  0.00    +0.000 C 
ATOM     10  O   UNL     1      -2.598   0.384   0.000  0.00  0.00    +0.000 OA
ATOM     11  C   UNL     1      -1.543   1.836   0.000  0.00  0.00    +0.000 C 
ENDROOT
BRANCH   1  15
ATOM     12  C   UNL     1       3.069  -1.266   0.000  0.00  0.00    +0.000 A 
ATOM     13  C   UNL     1       2.355  -1.679   0.000  0.00  0.00    +0.000 A 
ATOM     14  C   UNL     1       1.640  -1.266   0.000  0.00  0.00    +0.000 A 
ATOM     15  C   UNL     1       1.640  -0.441   0.000  0.00  0.00    +0.000 A 
ATOM     16  C   UNL     1       2.355  -0.029   0.000  0.00  0.00    +0.000 A 
ATOM     17  C   UNL     1       3.069  -0.441   0.000  0.00  0.00    +0.000 A 
ATOM     18  O   UNL     1       3.784  -1.679   0.000  0.00  0.00    +0.000 OA
BRANCH  13  19
ATOM     19  O   UNL     1       2.355  -2.504   0.000  0.00  0.00    +0.000 OA
ATOM     20  C   UNL     1       1.640  -2.916   0.000  0.00  0.00    +0.000 C 
ENDBRANCH  13  19
ENDBRANCH   1  15
BRANCH  11  21
ATOM     21  C   UNL     1      -2.350   2.007   0.000  0.00  0.00    +0.000 A 
ATOM     22  N   UNL     1      -2.963   1.456   0.000  0.00  0.00    +0.000 NA
ATOM     23  C   UNL     1      -3.677   1.868   0.000  0.00  0.00    +0.000 A 
ATOM     24  C   UNL     1      -3.506   2.675   0.000  0.00  0.00    +0.000 A 
ATOM     25  C   UNL     1      -2.685   2.761   0.000  0.00  0.00    +0.000 A 
ENDBRANCH  11  21
TORSDOF 3
