REMARK  Name = 43P
REMARK  3 active torsions:
REMARK  status: ('A' for Active; 'I' for Inactive)
REMARK    1  A    between atoms: C_6  and  C_7
REMARK    2  A    between atoms: C_10  and  C_11
REMARK    3  A    between atoms: C_15  and  C_16
REMARK                            x       y       z     vdW  Elec       q    Type
REMARK                         _______ _______ _______ _____ _____    ______ ____
ROOT
ATOM      1  O   UNL     1      -0.980  -0.151   0.000  0.00  0.00    +0.000 OA
ATOM      2  C   UNL     1      -0.266   0.261   0.000  0.00  0.00    +0.000 A 
ATOM      3  C   UNL     1      -0.266   1.086   0.000  0.00  0.00    +0.000 A 
ATOM      4  C   UNL     1       0.449   1.499   0.000  0.00  0.00    +0.000 A 
ATOM      5  O   UNL     1       0.449   2.324   0.000  0.00  0.00    +0.000 OA
ATOM      6  C   UNL     1       1.163   1.086   0.000  0.00  0.00    +0.000 A 
ATOM      7  C   UNL     1       1.163   0.261   0.000  0.00  0.00    +0.000 A 
ATOM      8  C   UNL     1       0.449  -0.151   0.000  0.00  0.00    +0.000 A 
ENDROOT
BRANCH   8   9
ATOM      9  C   UNL     1       0.449  -0.976   0.000  0.00  0.00    +0.000 A 
ATOM     10  N   UNL     1       1.116  -1.461   0.000  0.00  0.00    +0.000 NA
ATOM     11  N   UNL     1       0.861  -2.246   0.000  0.00  0.00    +0.000 NA
ATOM     12  C   UNL     1       0.036  -2.246   0.000  0.00  0.00    +0.000 A 
ATOM     13  C   UNL     1      -0.219  -1.461   0.000  0.00  0.00    +0.000 A 
BRANCH  13  14
ATOM     14  C   UNL     1      -1.004  -1.206   0.000  0.00  0.00    +0.000 A 
ATOM     15  C   UNL     1      -1.671  -1.691   0.000  0.00  0.00    +0.000 A 
ATOM     16  N   UNL     1      -2.338  -1.206   0.000  0.00  0.00    +0.000 NA
ATOM     17  C   UNL     1      -2.083  -0.421   0.000  0.00  0.00    +0.000 A 
ATOM     18  N   UNL     1      -1.258  -0.421   0.000  0.00  0.00    +0.000 NA
ENDBRANCH  13  14
ENDBRANCH   8   9
BRANCH   6  19
ATOM     19  C   UNL     1       1.877   1.499   0.000  0.00  0.00    +0.000 C 
ATOM     20  C   UNL     1       2.592   1.086   0.000  0.00  0.00    +0.000 C 
ENDBRANCH   6  19
TORSDOF 3
