REMARK  Name = 440
REMARK  7 active torsions:
REMARK  status: ('A' for Active; 'I' for Inactive)
REMARK    1  A    between atoms: C_5  and  O_6
REMARK    2  A    between atoms: O_6  and  C_7
REMARK    3  A    between atoms: C_7  and  C_10
REMARK    4  A    between atoms: C_11  and  S_14
REMARK    5  A    between atoms: S_14  and  C_15
REMARK    6  A    between atoms: C_15  and  C_16
REMARK    7  A    between atoms: C_16  and  C_17
REMARK                            x       y       z     vdW  Elec       q    Type
REMARK                         _______ _______ _______ _____ _____    ______ ____
ROOT
ATOM      1  C   UNL     1      -0.588   1.159   0.000  0.00  0.00    +0.000 A 
ATOM      2  C   UNL     1       0.127   0.747   0.000  0.00  0.00    +0.000 A 
ATOM      3  C   UNL     1      -0.588  -0.491   0.000  0.00  0.00    +0.000 A 
ATOM      4  C   UNL     1      -1.302  -0.078   0.000  0.00  0.00    +0.000 A 
ATOM      5  C   UNL     1      -1.302   0.747   0.000  0.00  0.00    +0.000 A 
ATOM      6  C   UNL     1       0.127  -0.078   0.000  0.00  0.00    +0.000 A 
ENDROOT
BRANCH   6   9
ATOM      7  O   UNL     1       0.428  -1.205   0.000  0.00  0.00    +0.000 OA
ATOM      8  O   UNL     1       1.254   0.224   0.000  0.00  0.00    +0.000 OA
ATOM      9  S   UNL     1       0.841  -0.491   0.000  0.00  0.00    +0.000 S 
BRANCH   9  10
ATOM     10  C   UNL     1       1.556  -0.903   0.000  0.00  0.00    +0.000 C 
BRANCH  10  11
ATOM     11  C   UNL     1       2.270  -0.491   0.000  0.00  0.00    +0.000 C 
BRANCH  11  12
ATOM     12  C   UNL     1       2.984  -0.903   0.000  0.00  0.00    +0.000 C 
ATOM     13  S   UNL     1       3.699  -0.491   0.000  0.00  0.00    +0.000 S 
ENDBRANCH  11  12
ENDBRANCH  10  11
ENDBRANCH   9  10
ENDBRANCH   6   9
BRANCH   5  14
ATOM     14  O   UNL     1      -2.017   1.159   0.000  0.00  0.00    +0.000 OA
BRANCH  14  15
ATOM     15  C   UNL     1      -2.731   0.747   0.000  0.00  0.00    +0.000 C 
BRANCH  15  18
ATOM     16  C   UNL     1      -4.875   1.984   0.000  0.00  0.00    +0.000 C 
ATOM     17  C   UNL     1      -4.160   1.572   0.000  0.00  0.00    +0.000 C 
ATOM     18  C   UNL     1      -3.446   1.159   0.000  0.00  0.00    +0.000 C 
ENDBRANCH  15  18
ENDBRANCH  14  15
ENDBRANCH   5  14
TORSDOF 7
