REMARK  Name = 440
REMARK  5 active torsions:
REMARK  status: ('A' for Active; 'I' for Inactive)
REMARK    1  A    between atoms: O_1  and  C_13
REMARK    2  A    between atoms: O_2  and  C_14
REMARK    3  A    between atoms: O_3  and  C_15
REMARK    4  A    between atoms: C_8  and  C_9
REMARK    5  A    between atoms: C_8  and  C_10
REMARK                            x       y       z     vdW  Elec       q    Type
REMARK                         _______ _______ _______ _____ _____    ______ ____
ROOT
ATOM      1  C   UNL     1       4.951   0.050   0.000  0.00  0.00    +0.000 A 
ATOM      2  C   UNL     1       4.237   0.462   0.000  0.00  0.00    +0.000 A 
ATOM      3  C   UNL     1       5.665   0.462   0.000  0.00  0.00    +0.000 A 
ATOM      4  C   UNL     1       5.665   1.287   0.000  0.00  0.00    +0.000 A 
ATOM      5  C   UNL     1       4.237   1.287   0.000  0.00  0.00    +0.000 A 
ATOM      6  C   UNL     1       4.951   1.700   0.000  0.00  0.00    +0.000 A 
ENDROOT
BRANCH   4   7
ATOM      7  O   UNL     1       6.380   1.700   0.000  0.00  0.00    +0.000 OA
ATOM      8  C   UNL     1       7.094   1.287   0.000  0.00  0.00    +0.000 C 
ENDBRANCH   4   7
BRANCH   5   9
ATOM      9  O   UNL     1       3.522   1.700   0.000  0.00  0.00    +0.000 OA
ATOM     10  C   UNL     1       2.808   1.287   0.000  0.00  0.00    +0.000 C 
ENDBRANCH   5   9
BRANCH   6  11
ATOM     11  O   UNL     1       4.951   2.525   0.000  0.00  0.00    +0.000 OA
ATOM     12  C   UNL     1       5.665   2.937   0.000  0.00  0.00    +0.000 C 
ENDBRANCH   6  11
BRANCH   1  13
ATOM     13  C   UNL     1       4.951  -0.775   0.000  0.00  0.00    +0.000 C 
BRANCH  13  18
ATOM     14  N   UNL     1       3.522  -2.426   0.000  0.00  0.00    +0.000 NA
ATOM     15  N   UNL     1       2.808  -1.188   0.000  0.00  0.00    +0.000 NA
ATOM     16  N   UNL     1       4.951  -2.426   0.000  0.00  0.00    +0.000 NA
ATOM     17  N   UNL     1       2.093  -2.426   0.000  0.00  0.00    +0.000 NA
ATOM     18  C   UNL     1       4.237  -1.188   0.000  0.00  0.00    +0.000 A 
ATOM     19  C   UNL     1       4.237  -2.013   0.000  0.00  0.00    +0.000 A 
ATOM     20  C   UNL     1       3.522  -0.775   0.000  0.00  0.00    +0.000 A 
ATOM     21  C   UNL     1       2.808  -2.013   0.000  0.00  0.00    +0.000 A 
ENDBRANCH  13  18
ENDBRANCH   1  13
TORSDOF 5
