REMARK  Name = 441
REMARK  2 active torsions:
REMARK  status: ('A' for Active; 'I' for Inactive)
REMARK    1  A    between atoms: N_7  and  C_13
REMARK    2  A    between atoms: C_12  and  C_14
REMARK                            x       y       z     vdW  Elec       q    Type
REMARK                         _______ _______ _______ _____ _____    ______ ____
ROOT
ATOM      1  F   UNL     1       5.121  -1.316   0.000  0.00  0.00    +0.000 F 
ATOM      2  F   UNL     1       4.821  -0.393   0.000  0.00  0.00    +0.000 F 
ATOM      3  O   UNL     1       3.001  -1.061   0.000  0.00  0.00    +0.000 OA
ATOM      4  O   UNL     1       4.566  -2.513   0.000  0.00  0.00    +0.000 OA
ATOM      5  C   UNL     1       4.081  -1.845   0.000  0.00  0.00    +0.000 C 
ATOM      6  C   UNL     1       4.336  -1.061   0.000  0.00  0.00    +0.000 C 
ATOM      7  C   UNL     1       3.256  -1.845   0.000  0.00  0.00    +0.000 C 
ATOM      8  C   UNL     1       3.668  -0.576   0.000  0.00  0.00    +0.000 C 
ENDROOT
BRANCH   8  10
ATOM      9  O   UNL     1       2.240   0.249   0.000  0.00  0.00    +0.000 OA
ATOM     10  N   UNL     1       3.668   0.249   0.000  0.00  0.00    +0.000 N 
ATOM     11  N   UNL     1       2.954   1.487   0.000  0.00  0.00    +0.000 NA
ATOM     12  N   UNL     1       3.668   2.724   0.000  0.00  0.00    +0.000 NA
ATOM     13  C   UNL     1       4.383   0.662   0.000  0.00  0.00    +0.000 A 
ATOM     14  C   UNL     1       2.954   0.662   0.000  0.00  0.00    +0.000 A 
ATOM     15  C   UNL     1       4.383   1.487   0.000  0.00  0.00    +0.000 A 
ATOM     16  C   UNL     1       3.668   1.899   0.000  0.00  0.00    +0.000 A 
ENDBRANCH   8  10
BRANCH   7  18
ATOM     17  O   UNL     1       1.951  -2.426   0.000  0.00  0.00    +0.000 OA
ATOM     18  C   UNL     1       2.771  -2.513   0.000  0.00  0.00    +0.000 C 
ENDBRANCH   7  18
TORSDOF 2
