REMARK  Name = 44112
REMARK  9 active torsions:
REMARK  status: ('A' for Active; 'I' for Inactive)
REMARK    1  A    between atoms: O_1  and  C_8
REMARK    2  A    between atoms: O_1  and  C_20
REMARK    3  A    between atoms: O_2  and  C_12
REMARK    4  A    between atoms: O_2  and  C_14
REMARK    5  A    between atoms: N_4  and  C_6
REMARK    6  A    between atoms: N_4  and  C_7
REMARK    7  A    between atoms: C_7  and  C_8
REMARK    8  A    between atoms: C_8  and  C_12
REMARK    9  A    between atoms: C_20  and  C_23
REMARK                            x       y       z     vdW  Elec       q    Type
REMARK                         _______ _______ _______ _____ _____    ______ ____
ROOT
ATOM      1  C   UNL     1       4.508   0.575   0.000  0.00  0.00    +0.000 C 
ENDROOT
BRANCH   1   2
ATOM      2  C   UNL     1       3.793   0.988   0.000  0.00  0.00    +0.000 C 
BRANCH   2   3
ATOM      3  N   UNL     1       3.079   0.575   0.000  0.00  0.00    +0.000 NA
BRANCH   3   4
ATOM      4  C   UNL     1       2.365   0.988   0.000  0.00  0.00    +0.000 C 
ATOM      5  C   UNL     1       1.650   1.400   0.000  0.00  0.00    +0.000 C 
ATOM      6  C   UNL     1       2.777   1.702   0.000  0.00  0.00    +0.000 C 
ATOM      7  C   UNL     1       1.952   0.273   0.000  0.00  0.00    +0.000 C 
ENDBRANCH   3   4
ENDBRANCH   2   3
ENDBRANCH   1   2
BRANCH   1   8
ATOM      8  C   UNL     1       4.508  -0.250   0.000  0.00  0.00    +0.000 C 
BRANCH   8   9
ATOM      9  O   UNL     1       5.222  -0.662   0.000  0.00  0.00    +0.000 OA
BRANCH   9  12
ATOM     10  N   UNL     1       6.718  -2.976   0.000  0.00  0.00    +0.000 NA
ATOM     11  C   UNL     1       5.937  -1.900   0.000  0.00  0.00    +0.000 A 
ATOM     12  C   UNL     1       5.222  -1.488   0.000  0.00  0.00    +0.000 A 
ATOM     13  C   UNL     1       5.937  -2.725   0.000  0.00  0.00    +0.000 A 
ATOM     14  C   UNL     1       6.718  -1.649   0.000  0.00  0.00    +0.000 A 
ATOM     15  C   UNL     1       7.199  -2.312   0.000  0.00  0.00    +0.000 A 
ATOM     16  C   UNL     1       4.508  -1.900   0.000  0.00  0.00    +0.000 A 
ATOM     17  C   UNL     1       5.222  -3.138   0.000  0.00  0.00    +0.000 A 
ATOM     18  C   UNL     1       4.508  -2.725   0.000  0.00  0.00    +0.000 A 
ATOM     19  C   UNL     1       8.024  -2.312   0.000  0.00  0.00    +0.000 C 
ENDBRANCH   9  12
ENDBRANCH   8   9
ENDBRANCH   1   8
BRANCH   1  20
ATOM     20  O   UNL     1       5.222   0.988   0.000  0.00  0.00    +0.000 OA
BRANCH  20  22
ATOM     21  O   UNL     1       4.508   2.225   0.000  0.00  0.00    +0.000 OA
ATOM     22  C   UNL     1       5.222   1.813   0.000  0.00  0.00    +0.000 C 
BRANCH  22  23
ATOM     23  C   UNL     1       5.937   2.225   0.000  0.00  0.00    +0.000 A 
ATOM     24  C   UNL     1       6.652   1.813   0.000  0.00  0.00    +0.000 A 
ATOM     25  C   UNL     1       5.937   3.050   0.000  0.00  0.00    +0.000 A 
ATOM     26  C   UNL     1       7.366   2.225   0.000  0.00  0.00    +0.000 A 
ATOM     27  C   UNL     1       6.652   3.463   0.000  0.00  0.00    +0.000 A 
ATOM     28  C   UNL     1       7.366   3.050   0.000  0.00  0.00    +0.000 A 
ENDBRANCH  22  23
ENDBRANCH  20  22
ENDBRANCH   1  20
TORSDOF 9
