REMARK  Name = 442
REMARK  2 active torsions:
REMARK  status: ('A' for Active; 'I' for Inactive)
REMARK    1  A    between atoms: N_4  and  C_9
REMARK    2  A    between atoms: C_10  and  C_14
REMARK                            x       y       z     vdW  Elec       q    Type
REMARK                         _______ _______ _______ _____ _____    ______ ____
ROOT
ATOM      1  O   UNL     1       3.522  -2.890   0.000  0.00  0.00    +0.000 OA
ATOM      2  N   UNL     1       5.017  -0.577   0.000  0.00  0.00    +0.000 N 
ATOM      3  N   UNL     1       3.522  -0.415   0.000  0.00  0.00    +0.000 NA
ATOM      4  N   UNL     1       5.017  -1.904   0.000  0.00  0.00    +0.000 NA
ATOM      5  N   UNL     1       2.808  -1.653   0.000  0.00  0.00    +0.000 NA
ATOM      6  N   UNL     1       2.093  -0.415   0.000  0.00  0.00    +0.000 NA
ATOM      7  C   UNL     1       4.236  -0.828   0.000  0.00  0.00    +0.000 A 
ATOM      8  C   UNL     1       5.498  -1.240   0.000  0.00  0.00    +0.000 A 
ATOM      9  C   UNL     1       4.236  -1.653   0.000  0.00  0.00    +0.000 A 
ATOM     10  C   UNL     1       3.522  -2.066   0.000  0.00  0.00    +0.000 A 
ATOM     11  C   UNL     1       2.808  -0.828   0.000  0.00  0.00    +0.000 A 
ENDROOT
BRANCH   2  13
ATOM     12  O   UNL     1       5.022   2.328   0.000  0.00  0.00    +0.000 OA
ATOM     13  C   UNL     1       5.273   0.208   0.000  0.00  0.00    +0.000 C 
ATOM     14  C   UNL     1       6.060   1.286   0.000  0.00  0.00    +0.000 C 
ATOM     15  C   UNL     1       5.276   1.542   0.000  0.00  0.00    +0.000 C 
ATOM     16  C   UNL     1       4.790   0.876   0.000  0.00  0.00    +0.000 C 
ATOM     17  C   UNL     1       6.058   0.461   0.000  0.00  0.00    +0.000 C 
ATOM     18  C   UNL     1       6.725  -0.025   0.000  0.00  0.00    +0.000 C 
BRANCH  14  20
ATOM     19  O   UNL     1       6.643   2.591   0.000  0.00  0.00    +0.000 OA
ATOM     20  C   UNL     1       6.728   1.770   0.000  0.00  0.00    +0.000 C 
ENDBRANCH  14  20
ENDBRANCH   2  13
TORSDOF 2
