REMARK  Name = 444703
REMARK  1 active torsions:
REMARK  status: ('A' for Active; 'I' for Inactive)
REMARK    1  A    between atoms: C_4  and  C_8
REMARK                            x       y       z     vdW  Elec       q    Type
REMARK                         _______ _______ _______ _____ _____    ______ ____
ROOT
ATOM      1  S   UNL     1       4.593   0.560   0.000  0.00  0.00    +0.000 S 
ATOM      2  O   UNL     1       3.564  -2.040   0.000  0.00  0.00    +0.000 OA
ATOM      3  N   UNL     1       4.206  -0.717   0.000  0.00  0.00    +0.000 N 
ATOM      4  C   UNL     1       3.936   0.062   0.000  0.00  0.00    +0.000 C 
ATOM      5  C   UNL     1       3.111   0.046   0.000  0.00  0.00    +0.000 A 
ATOM      6  C   UNL     1       5.031  -0.701   0.000  0.00  0.00    +0.000 C 
ATOM      7  C   UNL     1       5.270   0.089   0.000  0.00  0.00    +0.000 C 
ATOM      8  C   UNL     1       2.871  -0.743   0.000  0.00  0.00    +0.000 A 
ATOM      9  C   UNL     1       3.548  -1.215   0.000  0.00  0.00    +0.000 C 
ATOM     10  C   UNL     1       2.547   0.648   0.000  0.00  0.00    +0.000 A 
ATOM     11  C   UNL     1       2.068  -0.931   0.000  0.00  0.00    +0.000 A 
ATOM     12  C   UNL     1       1.743   0.461   0.000  0.00  0.00    +0.000 A 
ATOM     13  C   UNL     1       1.504  -0.329   0.000  0.00  0.00    +0.000 A 
ENDROOT
BRANCH   4  14
ATOM     14  C   UNL     1       3.665   0.842   0.000  0.00  0.00    +0.000 A 
ATOM     15  C   UNL     1       2.855   0.998   0.000  0.00  0.00    +0.000 A 
ATOM     16  C   UNL     1       4.205   1.466   0.000  0.00  0.00    +0.000 A 
ATOM     17  C   UNL     1       2.585   1.777   0.000  0.00  0.00    +0.000 A 
ATOM     18  C   UNL     1       3.935   2.245   0.000  0.00  0.00    +0.000 A 
ATOM     19  C   UNL     1       3.124   2.401   0.000  0.00  0.00    +0.000 A 
ATOM     20  C   UNL     1       1.774   1.933   0.000  0.00  0.00    +0.000 C 
ENDBRANCH   4  14
TORSDOF 1
