REMARK  Name = 444704
REMARK  3 active torsions:
REMARK  status: ('A' for Active; 'I' for Inactive)
REMARK    1  A    between atoms: O_3  and  C_14
REMARK    2  A    between atoms: C_6  and  C_12
REMARK    3  A    between atoms: C_7  and  C_14
REMARK                            x       y       z     vdW  Elec       q    Type
REMARK                         _______ _______ _______ _____ _____    ______ ____
ROOT
ATOM      1  S   UNL     1       3.990  -0.693   0.000  0.00  0.00    +0.000 S 
ATOM      2  O   UNL     1       4.632   2.023   0.000  0.00  0.00    +0.000 OA
ATOM      3  N   UNL     1       4.402   0.571   0.000  0.00  0.00    +0.000 N 
ATOM      4  C   UNL     1       3.735   0.086   0.000  0.00  0.00    +0.000 C 
ATOM      5  C   UNL     1       5.065   0.087   0.000  0.00  0.00    +0.000 C 
ATOM      6  C   UNL     1       3.067   0.571   0.000  0.00  0.00    +0.000 A 
ATOM      7  C   UNL     1       4.811  -0.692   0.000  0.00  0.00    +0.000 C 
ATOM      8  C   UNL     1       4.147   1.356   0.000  0.00  0.00    +0.000 C 
ATOM      9  C   UNL     1       3.322   1.356   0.000  0.00  0.00    +0.000 A 
ATOM     10  C   UNL     1       2.230   0.380   0.000  0.00  0.00    +0.000 A 
ATOM     11  C   UNL     1       2.757   2.003   0.000  0.00  0.00    +0.000 A 
ATOM     12  C   UNL     1       1.650   1.014   0.000  0.00  0.00    +0.000 A 
ATOM     13  C   UNL     1       1.915   1.831   0.000  0.00  0.00    +0.000 A 
ENDROOT
BRANCH   4  14
ATOM     14  C   UNL     1       3.274  -0.598   0.000  0.00  0.00    +0.000 A 
ATOM     15  C   UNL     1       3.635  -1.339   0.000  0.00  0.00    +0.000 A 
ATOM     16  C   UNL     1       2.451  -0.540   0.000  0.00  0.00    +0.000 A 
ATOM     17  C   UNL     1       3.174  -2.023   0.000  0.00  0.00    +0.000 A 
ATOM     18  C   UNL     1       1.989  -1.224   0.000  0.00  0.00    +0.000 A 
ATOM     19  C   UNL     1       2.351  -1.966   0.000  0.00  0.00    +0.000 A 
ENDBRANCH   4  14
BRANCH   5  21
ATOM     20  O   UNL     1       6.023   1.148   0.000  0.00  0.00    +0.000 OA
ATOM     21  C   UNL     1       5.850   0.341   0.000  0.00  0.00    +0.000 C 
BRANCH  21  22
ATOM     22  O   UNL     1       6.462  -0.212   0.000  0.00  0.00    +0.000 OA
ATOM     23  C   UNL     1       7.247   0.041   0.000  0.00  0.00    +0.000 C 
ENDBRANCH  21  22
ENDBRANCH   5  21
TORSDOF 3
