REMARK  Name = 445
REMARK  5 active torsions:
REMARK  status: ('A' for Active; 'I' for Inactive)
REMARK    1  A    between atoms: O_1  and  C_13
REMARK    2  A    between atoms: O_1  and  C_19
REMARK    3  A    between atoms: O_11  and  C_35
REMARK    4  A    between atoms: C_14  and  C_25
REMARK    5  A    between atoms: C_25  and  C_30
REMARK                            x       y       z     vdW  Elec       q    Type
REMARK                         _______ _______ _______ _____ _____    ______ ____
ROOT
ATOM      1  O   UNL     1       3.768  -2.408   0.000  0.00  0.00    +0.000 OA
ATOM      2  O   UNL     1       6.377   0.388   0.000  0.00  0.00    +0.000 OA
ATOM      3  O   UNL     1       6.377  -2.913   0.000  0.00  0.00    +0.000 OA
ATOM      4  O   UNL     1       7.819   0.416   0.000  0.00  0.00    +0.000 OA
ATOM      5  O   UNL     1       7.819  -2.941   0.000  0.00  0.00    +0.000 OA
ATOM      6  C   UNL     1       4.925  -0.409   0.000  0.00  0.00    +0.000 C 
ATOM      7  C   UNL     1       4.177  -1.692   0.000  0.00  0.00    +0.000 C 
ATOM      8  C   UNL     1       4.177  -0.833   0.000  0.00  0.00    +0.000 C 
ATOM      9  C   UNL     1       4.925  -2.116   0.000  0.00  0.00    +0.000 C 
ATOM     10  C   UNL     1       5.662  -0.850   0.000  0.00  0.00    +0.000 A 
ATOM     11  C   UNL     1       5.662  -1.675   0.000  0.00  0.00    +0.000 A 
ATOM     12  C   UNL     1       6.377  -0.438   0.000  0.00  0.00    +0.000 A 
ATOM     13  C   UNL     1       6.377  -2.087   0.000  0.00  0.00    +0.000 A 
ATOM     14  C   UNL     1       7.091  -0.850   0.000  0.00  0.00    +0.000 A 
ATOM     15  C   UNL     1       7.091  -1.675   0.000  0.00  0.00    +0.000 A 
ATOM     16  C   UNL     1       7.829  -0.409   0.000  0.00  0.00    +0.000 C 
ATOM     17  C   UNL     1       7.829  -2.116   0.000  0.00  0.00    +0.000 C 
ATOM     18  C   UNL     1       8.576  -0.833   0.000  0.00  0.00    +0.000 A 
ATOM     19  C   UNL     1       8.576  -1.692   0.000  0.00  0.00    +0.000 A 
ATOM     20  C   UNL     1       9.345  -0.373   0.000  0.00  0.00    +0.000 A 
ATOM     21  C   UNL     1       9.345  -2.152   0.000  0.00  0.00    +0.000 A 
ATOM     22  C   UNL     1      10.123  -0.815   0.000  0.00  0.00    +0.000 A 
ATOM     23  C   UNL     1      10.123  -1.710   0.000  0.00  0.00    +0.000 A 
ENDROOT
BRANCH   7  25
ATOM     24  O   UNL     1       2.937  -0.983   0.000  0.00  0.00    +0.000 OA
ATOM     25  C   UNL     1       3.352  -1.695   0.000  0.00  0.00    +0.000 C 
BRANCH  25  27
ATOM     26  O   UNL     1       2.118  -2.415   0.000  0.00  0.00    +0.000 OA
ATOM     27  C   UNL     1       2.943  -2.411   0.000  0.00  0.00    +0.000 C 
ENDBRANCH  25  27
ENDBRANCH   7  25
BRANCH  20  28
ATOM     28  O   UNL     1       9.335   0.452   0.000  0.00  0.00    +0.000 OA
ATOM     29  C   UNL     1      10.045   0.872   0.000  0.00  0.00    +0.000 C 
ENDBRANCH  20  28
BRANCH   6  30
ATOM     30  O   UNL     1       4.934   0.416   0.000  0.00  0.00    +0.000 OA
BRANCH  30  34
ATOM     31  O   UNL     1       3.506   0.432   0.000  0.00  0.00    +0.000 OA
ATOM     32  O   UNL     1       2.096   2.099   0.000  0.00  0.00    +0.000 OA
ATOM     33  N   UNL     1       3.534   2.907   0.000  0.00  0.00    +0.000 NA
ATOM     34  C   UNL     1       4.225   0.837   0.000  0.00  0.00    +0.000 C 
ATOM     35  C   UNL     1       4.234   1.662   0.000  0.00  0.00    +0.000 C 
ATOM     36  C   UNL     1       3.525   2.082   0.000  0.00  0.00    +0.000 C 
ATOM     37  C   UNL     1       2.806   1.678   0.000  0.00  0.00    +0.000 C 
ATOM     38  C   UNL     1       2.796   0.853   0.000  0.00  0.00    +0.000 C 
ATOM     39  C   UNL     1       2.077   0.449   0.000  0.00  0.00    +0.000 C 
ENDBRANCH  30  34
ENDBRANCH   6  30
TORSDOF 5
