REMARK  Name = 446202
REMARK  9 active torsions:
REMARK  status: ('A' for Active; 'I' for Inactive)
REMARK    1  A    between atoms: P_1  and  O_5
REMARK    2  A    between atoms: P_1  and  O_6
REMARK    3  A    between atoms: O_5  and  C_21
REMARK    4  A    between atoms: O_6  and  C_31
REMARK    5  A    between atoms: N_10  and  C_19
REMARK    6  A    between atoms: C_20  and  C_21
REMARK    7  A    between atoms: C_26  and  C_27
REMARK    8  A    between atoms: C_26  and  C_28
REMARK    9  A    between atoms: C_27  and  C_31
REMARK                            x       y       z     vdW  Elec       q    Type
REMARK                         _______ _______ _______ _____ _____    ______ ____
ROOT
ATOM      1  O   UNL     1       6.324   0.879   0.000  0.00  0.00    +0.000 OA
ENDROOT
BRANCH   1   2
ATOM      2  P   UNL     1       6.992   1.362   0.000  0.00  0.00    +0.000 P 
ATOM      3  O   UNL     1       7.476   0.694   0.000  0.00  0.00    +0.000 OA
ATOM      4  O   UNL     1       6.508   2.031   0.000  0.00  0.00    +0.000 OA
BRANCH   2   5
ATOM      5  O   UNL     1       7.661   1.846   0.000  0.00  0.00    +0.000 OA
BRANCH   5   7
ATOM      6  O   UNL     1       8.498   0.689   0.000  0.00  0.00    +0.000 OA
ATOM      7  C   UNL     1       8.414   1.509   0.000  0.00  0.00    +0.000 C 
BRANCH   7   9
ATOM      8  N   UNL     1       8.997   2.814   0.000  0.00  0.00    +0.000 NA
ATOM      9  C   UNL     1       9.082   1.993   0.000  0.00  0.00    +0.000 C 
BRANCH   9  10
ATOM     10  C   UNL     1       9.835   1.656   0.000  0.00  0.00    +0.000 C 
BRANCH  10  12
ATOM     11  N   UNL     1      11.284   3.214   0.000  0.00  0.00    +0.000 NA
ATOM     12  C   UNL     1      10.504   2.140   0.000  0.00  0.00    +0.000 A 
ATOM     13  C   UNL     1      11.283   1.885   0.000  0.00  0.00    +0.000 A 
ATOM     14  C   UNL     1      11.768   2.552   0.000  0.00  0.00    +0.000 A 
ATOM     15  C   UNL     1      10.504   2.960   0.000  0.00  0.00    +0.000 A 
ATOM     16  C   UNL     1      11.618   1.131   0.000  0.00  0.00    +0.000 A 
ATOM     17  C   UNL     1      12.588   2.466   0.000  0.00  0.00    +0.000 A 
ATOM     18  C   UNL     1      12.439   1.044   0.000  0.00  0.00    +0.000 A 
ATOM     19  C   UNL     1      12.924   1.712   0.000  0.00  0.00    +0.000 A 
ENDBRANCH  10  12
ENDBRANCH   9  10
ENDBRANCH   7   9
ENDBRANCH   5   7
ENDBRANCH   2   5
ENDBRANCH   1   2
BRANCH   1  20
ATOM     20  C   UNL     1       5.571   1.215   0.000  0.00  0.00    +0.000 C 
BRANCH  20  27
ATOM     21  O   UNL     1       4.901  -0.093   0.000  0.00  0.00    +0.000 OA
ATOM     22  O   UNL     1       2.807   0.323   0.000  0.00  0.00    +0.000 OA
ATOM     23  O   UNL     1       3.865   1.773   0.000  0.00  0.00    +0.000 OA
ATOM     24  C   UNL     1       3.632   0.321   0.000  0.00  0.00    +0.000 C 
ATOM     25  C   UNL     1       4.118   0.988   0.000  0.00  0.00    +0.000 C 
ATOM     26  C   UNL     1       4.116  -0.347   0.000  0.00  0.00    +0.000 C 
ATOM     27  C   UNL     1       4.902   0.732   0.000  0.00  0.00    +0.000 C 
BRANCH  26  28
ATOM     28  N   UNL     1       3.860  -1.131   0.000  0.00  0.00    +0.000 N 
ATOM     29  N   UNL     1       3.860  -2.459   0.000  0.00  0.00    +0.000 NA
ATOM     30  N   UNL     1       2.365  -0.970   0.000  0.00  0.00    +0.000 NA
ATOM     31  N   UNL     1       1.650  -2.208   0.000  0.00  0.00    +0.000 NA
ATOM     32  N   UNL     1       2.365  -3.445   0.000  0.00  0.00    +0.000 NA
ATOM     33  C   UNL     1       3.079  -1.383   0.000  0.00  0.00    +0.000 A 
ATOM     34  C   UNL     1       4.341  -1.795   0.000  0.00  0.00    +0.000 A 
ATOM     35  C   UNL     1       3.079  -2.208   0.000  0.00  0.00    +0.000 A 
ATOM     36  C   UNL     1       2.365  -2.620   0.000  0.00  0.00    +0.000 A 
ATOM     37  C   UNL     1       1.650  -1.383   0.000  0.00  0.00    +0.000 A 
ENDBRANCH  26  28
ENDBRANCH  20  27
ENDBRANCH   1  20
TORSDOF 9
