REMARK  Name = 446816
REMARK  3 active torsions:
REMARK  status: ('A' for Active; 'I' for Inactive)
REMARK    1  A    between atoms: N_5  and  C_13
REMARK    2  A    between atoms: N_6  and  C_16
REMARK    3  A    between atoms: C_7  and  C_8
REMARK                            x       y       z     vdW  Elec       q    Type
REMARK                         _______ _______ _______ _____ _____    ______ ____
ROOT
ATOM      1  O   UNL     1       3.783   1.211   0.000  0.00  0.00    +0.000 OA
ATOM      2  N   UNL     1       3.341  -0.148   0.000  0.00  0.00    +0.000 NA
ATOM      3  N   UNL     1       2.385   0.914   0.000  0.00  0.00    +0.000 NA
ATOM      4  C   UNL     1       3.170   0.659   0.000  0.00  0.00    +0.000 C 
ENDROOT
BRANCH   3   6
ATOM      5 CL   UNL     1       1.699   4.142   0.000  0.00  0.00    +0.000 Cl
ATOM      6  C   UNL     1       2.214   1.721   0.000  0.00  0.00    +0.000 A 
ATOM      7  C   UNL     1       1.429   1.976   0.000  0.00  0.00    +0.000 A 
ATOM      8  C   UNL     1       2.827   2.273   0.000  0.00  0.00    +0.000 A 
ATOM      9  C   UNL     1       1.258   2.783   0.000  0.00  0.00    +0.000 A 
ATOM     10  C   UNL     1       2.655   3.080   0.000  0.00  0.00    +0.000 A 
ATOM     11  C   UNL     1       1.871   3.335   0.000  0.00  0.00    +0.000 A 
ENDBRANCH   3   6
BRANCH   2  16
ATOM     12  N   UNL     1       4.793   0.082   0.000  0.00  0.00    +0.000 N 
ATOM     13  N   UNL     1       5.461  -0.403   0.000  0.00  0.00    +0.000 NA
ATOM     14  C   UNL     1       5.206  -1.187   0.000  0.00  0.00    +0.000 A 
ATOM     15  C   UNL     1       4.381  -1.187   0.000  0.00  0.00    +0.000 A 
ATOM     16  C   UNL     1       4.126  -0.403   0.000  0.00  0.00    +0.000 A 
ATOM     17  C   UNL     1       4.793   0.907   0.000  0.00  0.00    +0.000 C 
BRANCH  14  18
ATOM     18  C   UNL     1       5.691  -1.855   0.000  0.00  0.00    +0.000 C 
ATOM     19  C   UNL     1       6.176  -2.522   0.000  0.00  0.00    +0.000 C 
ATOM     20  C   UNL     1       5.023  -2.340   0.000  0.00  0.00    +0.000 C 
ATOM     21  C   UNL     1       6.358  -1.370   0.000  0.00  0.00    +0.000 C 
ENDBRANCH  14  18
ENDBRANCH   2  16
TORSDOF 3
