REMARK  Name = 448
REMARK  5 active torsions:
REMARK  status: ('A' for Active; 'I' for Inactive)
REMARK    1  A    between atoms: C_9  and  C_10
REMARK    2  A    between atoms: C_10  and  C_11
REMARK    3  A    between atoms: C_11  and  C_13
REMARK    4  A    between atoms: C_13  and  C_14
REMARK    5  A    between atoms: C_25  and  C_26
REMARK                            x       y       z     vdW  Elec       q    Type
REMARK                         _______ _______ _______ _____ _____    ______ ____
ROOT
ATOM      1  C   UNL     1       0.083  -0.016   0.000  0.00  0.00    +0.000 C 
ATOM      2  O   UNL     1       0.083  -0.841   0.000  0.00  0.00    +0.000 OA
ATOM      3  N   UNL     1       0.798   0.397   0.000  0.00  0.00    +0.000 N 
ATOM      4  C   UNL     1       0.798   1.222   0.000  0.00  0.00    +0.000 C 
ATOM      5  C   UNL     1       1.512   1.634   0.000  0.00  0.00    +0.000 C 
ATOM      6  C   UNL     1       1.512  -0.016   0.000  0.00  0.00    +0.000 C 
ATOM      7  C   UNL     1       1.512  -0.841   0.000  0.00  0.00    +0.000 C 
ATOM      8  C   UNL     1       2.227   0.397   0.000  0.00  0.00    +0.000 A 
ATOM      9  N   UNL     1       2.227   1.222   0.000  0.00  0.00    +0.000 N 
ATOM     10  N   UNL     1       3.011   1.477   0.000  0.00  0.00    +0.000 NA
ATOM     11  N   UNL     1       3.011   0.142   0.000  0.00  0.00    +0.000 NA
ATOM     12  C   UNL     1       3.496   0.809   0.000  0.00  0.00    +0.000 A 
ENDROOT
BRANCH  12  13
ATOM     13  C   UNL     1       4.321   0.809   0.000  0.00  0.00    +0.000 C 
ATOM     14  F   UNL     1       5.146   0.809   0.000  0.00  0.00    +0.000 F 
ATOM     15  F   UNL     1       4.321  -0.016   0.000  0.00  0.00    +0.000 F 
ATOM     16  F   UNL     1       4.321   1.634   0.000  0.00  0.00    +0.000 F 
ENDBRANCH  12  13
BRANCH   1  17
ATOM     17  C   UNL     1      -0.631   0.397   0.000  0.00  0.00    +0.000 C 
BRANCH  17  18
ATOM     18  C   UNL     1      -1.346  -0.016   0.000  0.00  0.00    +0.000 C 
ATOM     19  N   UNL     1      -1.346  -0.841   0.000  0.00  0.00    +0.000 NA
BRANCH  18  20
ATOM     20  C   UNL     1      -2.060   0.397   0.000  0.00  0.00    +0.000 C 
BRANCH  20  29
ATOM     21  F   UNL     1      -4.918  -1.253   0.000  0.00  0.00    +0.000 F 
ATOM     22  C   UNL     1      -4.204  -0.841   0.000  0.00  0.00    +0.000 A 
ATOM     23  C   UNL     1      -3.489  -1.253   0.000  0.00  0.00    +0.000 A 
ATOM     24  C   UNL     1      -2.775  -0.841   0.000  0.00  0.00    +0.000 A 
ATOM     25  F   UNL     1      -2.060  -1.253   0.000  0.00  0.00    +0.000 F 
ATOM     26  C   UNL     1      -4.204  -0.016   0.000  0.00  0.00    +0.000 A 
ATOM     27  F   UNL     1      -4.918   0.397   0.000  0.00  0.00    +0.000 F 
ATOM     28  C   UNL     1      -3.489   0.397   0.000  0.00  0.00    +0.000 A 
ATOM     29  C   UNL     1      -2.775  -0.016   0.000  0.00  0.00    +0.000 A 
ENDBRANCH  20  29
ENDBRANCH  18  20
ENDBRANCH  17  18
ENDBRANCH   1  17
TORSDOF 5
