REMARK  Name = 449
REMARK  9 active torsions:
REMARK  status: ('A' for Active; 'I' for Inactive)
REMARK    1  A    between atoms: O_1  and  C_14
REMARK    2  A    between atoms: O_1  and  C_19
REMARK    3  A    between atoms: O_2  and  C_18
REMARK    4  A    between atoms: O_2  and  C_20
REMARK    5  A    between atoms: N_6  and  C_22
REMARK    6  A    between atoms: C_7  and  C_14
REMARK    7  A    between atoms: C_8  and  C_18
REMARK    8  A    between atoms: C_9  and  C_10
REMARK    9  A    between atoms: C_10  and  C_22
REMARK                            x       y       z     vdW  Elec       q    Type
REMARK                         _______ _______ _______ _____ _____    ______ ____
ROOT
ATOM      1  C   UNL     1       5.937  -0.825   0.000  0.00  0.00    +0.000 A 
ATOM      2  C   UNL     1       5.222   0.412   0.000  0.00  0.00    +0.000 A 
ATOM      3  C   UNL     1       4.508   0.000   0.000  0.00  0.00    +0.000 A 
ATOM      4  C   UNL     1       5.937   0.000   0.000  0.00  0.00    +0.000 A 
ATOM      5  C   UNL     1       5.222  -1.238   0.000  0.00  0.00    +0.000 A 
ATOM      6  C   UNL     1       4.508  -0.825   0.000  0.00  0.00    +0.000 A 
ENDROOT
BRANCH   1   8
ATOM      7  O   UNL     1       7.366  -0.825   0.000  0.00  0.00    +0.000 OA
ATOM      8  C   UNL     1       6.652  -1.238   0.000  0.00  0.00    +0.000 C 
BRANCH   8   9
ATOM      9  C   UNL     1       6.652  -2.062   0.000  0.00  0.00    +0.000 C 
BRANCH   9  10
ATOM     10  N   UNL     1       7.366  -2.475   0.000  0.00  0.00    +0.000 NA
ATOM     11  C   UNL     1       7.366  -3.300   0.000  0.00  0.00    +0.000 C 
ENDBRANCH   9  10
ENDBRANCH   8   9
ENDBRANCH   1   8
BRANCH   2  12
ATOM     12  O   UNL     1       5.222   1.238   0.000  0.00  0.00    +0.000 OA
BRANCH  12  14
ATOM     13  O   UNL     1       6.652   1.238   0.000  0.00  0.00    +0.000 OA
ATOM     14  C   UNL     1       5.937   1.650   0.000  0.00  0.00    +0.000 C 
BRANCH  14  15
ATOM     15  C   UNL     1       5.937   2.475   0.000  0.00  0.00    +0.000 C 
ATOM     16  C   UNL     1       5.112   2.475   0.000  0.00  0.00    +0.000 C 
ATOM     17  C   UNL     1       6.762   2.475   0.000  0.00  0.00    +0.000 C 
ATOM     18  C   UNL     1       5.937   3.300   0.000  0.00  0.00    +0.000 C 
ENDBRANCH  14  15
ENDBRANCH  12  14
ENDBRANCH   2  12
BRANCH   3  19
ATOM     19  O   UNL     1       3.793   0.412   0.000  0.00  0.00    +0.000 OA
BRANCH  19  21
ATOM     20  O   UNL     1       3.079  -0.825   0.000  0.00  0.00    +0.000 OA
ATOM     21  C   UNL     1       3.079   0.000   0.000  0.00  0.00    +0.000 C 
BRANCH  21  22
ATOM     22  C   UNL     1       2.365   0.412   0.000  0.00  0.00    +0.000 C 
ATOM     23  C   UNL     1       2.777   1.127   0.000  0.00  0.00    +0.000 C 
ATOM     24  C   UNL     1       1.952  -0.302   0.000  0.00  0.00    +0.000 C 
ATOM     25  C   UNL     1       1.650   0.825   0.000  0.00  0.00    +0.000 C 
ENDBRANCH  21  22
ENDBRANCH  19  21
ENDBRANCH   3  19
TORSDOF 9
