REMARK  Name = 44B
REMARK  6 active torsions:
REMARK  status: ('A' for Active; 'I' for Inactive)
REMARK    1  A    between atoms: C_2  and  C_5
REMARK    2  A    between atoms: C_5  and  C_7
REMARK    3  A    between atoms: C_5  and  C_11
REMARK    4  A    between atoms: C_16  and  N_17
REMARK    5  A    between atoms: N_17  and  C_18
REMARK    6  A    between atoms: C_18  and  C_19
REMARK                            x       y       z     vdW  Elec       q    Type
REMARK                         _______ _______ _______ _____ _____    ______ ____
ROOT
ATOM      1  C   UNL     1       0.762   0.223   0.000  0.00  0.00    +0.000 A 
ATOM      2  C   UNL     1       0.762  -0.602   0.000  0.00  0.00    +0.000 A 
ATOM      3  C   UNL     1       0.048  -1.015   0.000  0.00  0.00    +0.000 A 
ATOM      4  C   UNL     1       0.048   0.635   0.000  0.00  0.00    +0.000 A 
ATOM      5  C   UNL     1      -0.667   0.223   0.000  0.00  0.00    +0.000 A 
ATOM      6  C   UNL     1      -0.667  -0.602   0.000  0.00  0.00    +0.000 A 
ENDROOT
BRANCH   1   7
ATOM      7  C   UNL     1       1.477   0.635   0.000  0.00  0.00    +0.000 C 
ATOM      8  O   UNL     1       2.191   1.048   0.000  0.00  0.00    +0.000 OA
BRANCH   7  10
ATOM      9  F   UNL     1       2.302  -0.794   0.000  0.00  0.00    +0.000 F 
ATOM     10  C   UNL     1       1.889  -0.079   0.000  0.00  0.00    +0.000 C 
ATOM     11  F   UNL     1       2.604   0.333   0.000  0.00  0.00    +0.000 F 
ATOM     12  F   UNL     1       1.175  -0.492   0.000  0.00  0.00    +0.000 F 
ENDBRANCH   7  10
BRANCH   7  13
ATOM     13  C   UNL     1       1.064   1.350   0.000  0.00  0.00    +0.000 C 
ATOM     14  F   UNL     1       0.652   2.064   0.000  0.00  0.00    +0.000 F 
ATOM     15  F   UNL     1       1.779   1.762   0.000  0.00  0.00    +0.000 F 
ATOM     16  F   UNL     1       0.350   0.937   0.000  0.00  0.00    +0.000 F 
ENDBRANCH   7  13
ENDBRANCH   1   7
BRANCH   6  17
ATOM     17  N   UNL     1      -1.381  -1.015   0.000  0.00  0.00    +0.000 NA
BRANCH  17  18
ATOM     18  C   UNL     1      -2.096  -0.602   0.000  0.00  0.00    +0.000 C 
BRANCH  18  19
ATOM     19  C   UNL     1      -2.096   0.223   0.000  0.00  0.00    +0.000 C 
ATOM     20  F   UNL     1      -2.096   1.048   0.000  0.00  0.00    +0.000 F 
ATOM     21  F   UNL     1      -1.271   0.223   0.000  0.00  0.00    +0.000 F 
ATOM     22  F   UNL     1      -2.921   0.223   0.000  0.00  0.00    +0.000 F 
ENDBRANCH  18  19
ENDBRANCH  17  18
ENDBRANCH   6  17
TORSDOF 6
