REMARK  Name = 44U
REMARK  7 active torsions:
REMARK  status: ('A' for Active; 'I' for Inactive)
REMARK    1  A    between atoms: C_2  and  C_3
REMARK    2  A    between atoms: C_3  and  N_16
REMARK    3  A    between atoms: C_4  and  C_17
REMARK    4  A    between atoms: C_8  and  C_9
REMARK    5  A    between atoms: C_9  and  C_21
REMARK    6  A    between atoms: C_14  and  C_21
REMARK    7  A    between atoms: C_21  and  C_22
REMARK                            x       y       z     vdW  Elec       q    Type
REMARK                         _______ _______ _______ _____ _____    ______ ____
ROOT
ATOM      1  C   UNL     1       1.282  -0.079   0.000  0.00  0.00    +0.000 C 
ATOM      2  N   UNL     1       1.895   0.473   0.000  0.00  0.00    +0.000 NA
ENDROOT
BRANCH   1   7
ATOM      3  C   UNL     1      -0.428   1.318   0.000  0.00  0.00    +0.000 C 
ATOM      4  C   UNL     1      -0.342   2.139   0.000  0.00  0.00    +0.000 C 
ATOM      5  C   UNL     1       0.466   2.310   0.000  0.00  0.00    +0.000 C 
ATOM      6  C   UNL     1       0.878   1.596   0.000  0.00  0.00    +0.000 C 
ATOM      7  C   UNL     1       0.497   0.176   0.000  0.00  0.00    +0.000 C 
ATOM      8  N   UNL     1       0.326   0.983   0.000  0.00  0.00    +0.000 N 
ATOM      9  O   UNL     1      -0.116  -0.376   0.000  0.00  0.00    +0.000 OA
BRANCH   3  11
ATOM     10  N   UNL     1      -1.857   1.318   0.000  0.00  0.00    +0.000 NA
ATOM     11  C   UNL     1      -1.142   0.906   0.000  0.00  0.00    +0.000 C 
ATOM     12  O   UNL     1      -1.142   0.081   0.000  0.00  0.00    +0.000 OA
BRANCH  10  13
ATOM     13  C   UNL     1      -2.571   0.906   0.000  0.00  0.00    +0.000 C 
BRANCH  13  15
ATOM     14  C   UNL     1      -4.000   0.906   0.000  0.00  0.00    +0.000 C 
ATOM     15  C   UNL     1      -3.286   1.318   0.000  0.00  0.00    +0.000 C 
ENDBRANCH  13  15
ENDBRANCH  10  13
ENDBRANCH   3  11
ENDBRANCH   1   7
BRANCH   1  16
ATOM     16  C   UNL     1       1.454  -0.886   0.000  0.00  0.00    +0.000 C 
BRANCH  16  21
ATOM     17  C   UNL     1       0.056  -1.183   0.000  0.00  0.00    +0.000 A 
ATOM     18  C   UNL     1      -0.557  -1.735   0.000  0.00  0.00    +0.000 A 
ATOM     19  C   UNL     1      -0.386  -2.542   0.000  0.00  0.00    +0.000 A 
ATOM     20  C   UNL     1       0.399  -2.797   0.000  0.00  0.00    +0.000 A 
ATOM     21  C   UNL     1       0.841  -1.438   0.000  0.00  0.00    +0.000 A 
ATOM     22  C   UNL     1       1.012  -2.245   0.000  0.00  0.00    +0.000 A 
ENDBRANCH  16  21
BRANCH  16  23
ATOM     23  C   UNL     1       2.238  -1.141   0.000  0.00  0.00    +0.000 A 
ATOM     24  C   UNL     1       3.808  -1.651   0.000  0.00  0.00    +0.000 A 
ATOM     25  C   UNL     1       2.410  -1.948   0.000  0.00  0.00    +0.000 A 
ATOM     26  C   UNL     1       3.194  -2.203   0.000  0.00  0.00    +0.000 A 
ATOM     27  C   UNL     1       3.636  -0.844   0.000  0.00  0.00    +0.000 A 
ATOM     28  C   UNL     1       2.851  -0.589   0.000  0.00  0.00    +0.000 A 
ENDBRANCH  16  23
ENDBRANCH   1  16
TORSDOF 7
