REMARK  Name = 451
REMARK  1 active torsions:
REMARK  status: ('A' for Active; 'I' for Inactive)
REMARK    1  A    between atoms: C_2  and  N_27
REMARK                            x       y       z     vdW  Elec       q    Type
REMARK                         _______ _______ _______ _____ _____    ______ ____
ROOT
ATOM      1  C   UNL     1       2.792  -0.312   0.000  0.00  0.00    +0.000 A 
ATOM      2  C   UNL     1       2.594   0.489   0.000  0.00  0.00    +0.000 A 
ATOM      3  C   UNL     1       1.801   0.718   0.000  0.00  0.00    +0.000 A 
ATOM      4  C   UNL     1       1.206   0.146   0.000  0.00  0.00    +0.000 A 
ATOM      5  C   UNL     1       1.405  -0.655   0.000  0.00  0.00    +0.000 A 
ATOM      6  C   UNL     1       2.197  -0.884   0.000  0.00  0.00    +0.000 A 
ATOM      7  O   UNL     1       0.810  -1.227   0.000  0.00  0.00    +0.000 OA
ATOM      8  C   UNL     1       1.008  -2.028   0.000  0.00  0.00    +0.000 C 
ATOM      9  C   UNL     1       0.414  -2.600   0.000  0.00  0.00    +0.000 C 
ATOM     10  O   UNL     1      -0.379  -2.371   0.000  0.00  0.00    +0.000 OA
ATOM     11  C   UNL     1      -0.577  -1.570   0.000  0.00  0.00    +0.000 C 
ATOM     12  C   UNL     1      -1.370  -1.341   0.000  0.00  0.00    +0.000 C 
ATOM     13  O   UNL     1      -1.568  -0.541   0.000  0.00  0.00    +0.000 OA
ATOM     14  C   UNL     1      -2.360  -0.312   0.000  0.00  0.00    +0.000 A 
ATOM     15  C   UNL     1      -2.558   0.489   0.000  0.00  0.00    +0.000 A 
ATOM     16  O   UNL     1      -1.964   1.061   0.000  0.00  0.00    +0.000 OA
ATOM     17  C   UNL     1      -2.162   1.862   0.000  0.00  0.00    +0.000 C 
ATOM     18  C   UNL     1      -1.568   2.434   0.000  0.00  0.00    +0.000 C 
ATOM     19  O   UNL     1      -0.775   2.205   0.000  0.00  0.00    +0.000 OA
ATOM     20  C   UNL     1      -0.577   1.404   0.000  0.00  0.00    +0.000 C 
ATOM     21  C   UNL     1       0.216   1.175   0.000  0.00  0.00    +0.000 C 
ATOM     22  O   UNL     1       0.414   0.375   0.000  0.00  0.00    +0.000 OA
ATOM     23  C   UNL     1      -2.955  -0.884   0.000  0.00  0.00    +0.000 A 
ATOM     24  C   UNL     1      -3.748  -0.655   0.000  0.00  0.00    +0.000 A 
ATOM     25  C   UNL     1      -3.946   0.146   0.000  0.00  0.00    +0.000 A 
ATOM     26  C   UNL     1      -3.351   0.718   0.000  0.00  0.00    +0.000 A 
ENDROOT
BRANCH   2  27
ATOM     27  N   UNL     1       3.188   1.061   0.000  0.00  0.00    +0.000 NA
ATOM     28  C   UNL     1       3.981   0.832   0.000  0.00  0.00    +0.000 C 
ATOM     29  O   UNL     1       4.575   1.404   0.000  0.00  0.00    +0.000 OA
ATOM     30  C   UNL     1       4.179   0.031   0.000  0.00  0.00    +0.000 C 
ENDBRANCH   2  27
TORSDOF 1
