REMARK  Name = 451
REMARK  5 active torsions:
REMARK  status: ('A' for Active; 'I' for Inactive)
REMARK    1  A    between atoms: O_5  and  C_15
REMARK    2  A    between atoms: O_5  and  C_19
REMARK    3  A    between atoms: C_10  and  CA_11
REMARK    4  A    between atoms: C_10  and  C_12
REMARK    5  A    between atoms: CA_11  and  C_18
REMARK                            x       y       z     vdW  Elec       q    Type
REMARK                         _______ _______ _______ _____ _____    ______ ____
ROOT
ATOM      1  I   UNL     1       4.951   0.668   0.000  0.00  0.00    +0.000 I 
ATOM      2  I   UNL     1       2.093   0.668   0.000  0.00  0.00    +0.000 I 
ATOM      3  C   UNL     1       3.522  -0.982   0.000  0.00  0.00    +0.000 A 
ATOM      4  C   UNL     1       2.808  -0.569   0.000  0.00  0.00    +0.000 A 
ATOM      5  C   UNL     1       4.237  -0.569   0.000  0.00  0.00    +0.000 A 
ATOM      6  C   UNL     1       3.522   0.668   0.000  0.00  0.00    +0.000 A 
ATOM      7  C   UNL     1       4.237   0.256   0.000  0.00  0.00    +0.000 A 
ATOM      8  C   UNL     1       2.808   0.256   0.000  0.00  0.00    +0.000 A 
ENDROOT
BRANCH   6   9
ATOM      9  O   UNL     1       3.522   1.493   0.000  0.00  0.00    +0.000 OA
BRANCH   9  13
ATOM     10  I   UNL     1       6.380   1.493   0.000  0.00  0.00    +0.000 I 
ATOM     11  I   UNL     1       4.951   3.968   0.000  0.00  0.00    +0.000 I 
ATOM     12  O   UNL     1       6.380   3.143   0.000  0.00  0.00    +0.000 OA
ATOM     13  C   UNL     1       4.237   1.906   0.000  0.00  0.00    +0.000 A 
ATOM     14  C   UNL     1       4.237   2.731   0.000  0.00  0.00    +0.000 A 
ATOM     15  C   UNL     1       4.951   1.493   0.000  0.00  0.00    +0.000 A 
ATOM     16  C   UNL     1       5.665   1.906   0.000  0.00  0.00    +0.000 A 
ATOM     17  C   UNL     1       4.951   3.143   0.000  0.00  0.00    +0.000 A 
ATOM     18  C   UNL     1       5.665   2.731   0.000  0.00  0.00    +0.000 A 
ENDBRANCH   9  13
ENDBRANCH   6   9
BRANCH   3  19
ATOM     19  C   UNL     1       3.522  -1.807   0.000  0.00  0.00    +0.000 C 
BRANCH  19  21
ATOM     20  N   UNL     1       2.093  -1.807   0.000  0.00  0.00    +0.000 NA
ATOM     21  CA  UNL     1       2.808  -2.219   0.000  0.00  0.00    +0.000 C 
BRANCH  21  24
ATOM     22  O   UNL     1       2.093  -3.457   0.000  0.00  0.00    +0.000 OA
ATOM     23  OXT UNL     1       3.522  -3.457   0.000  0.00  0.00    +0.000 OA
ATOM     24  C   UNL     1       2.808  -3.044   0.000  0.00  0.00    +0.000 C 
ENDBRANCH  21  24
ENDBRANCH  19  21
ENDBRANCH   3  19
TORSDOF 5
