REMARK  Name = 452
REMARK  6 active torsions:
REMARK  status: ('A' for Active; 'I' for Inactive)
REMARK    1  A    between atoms: C_2  and  C_4
REMARK    2  A    between atoms: C_9  and  N_10
REMARK    3  A    between atoms: N_10  and  C_11
REMARK    4  A    between atoms: C_11  and  C_12
REMARK    5  A    between atoms: N_14  and  C_15
REMARK    6  A    between atoms: C_20  and  C_21
REMARK                            x       y       z     vdW  Elec       q    Type
REMARK                         _______ _______ _______ _____ _____    ______ ____
ROOT
ATOM      1  C   UNL     1      -0.122  -0.646   0.000  0.00  0.00    +0.000 C 
ENDROOT
BRANCH   1   2
ATOM      2  C   UNL     1       0.593  -1.058   0.000  0.00  0.00    +0.000 C 
ATOM      3  O   UNL     1       0.593  -1.883   0.000  0.00  0.00    +0.000 OA
ATOM      4  N   UNL     1       1.307  -0.646   0.000  0.00  0.00    +0.000 NA
BRANCH   4   5
ATOM      5  C   UNL     1       1.307   0.179   0.000  0.00  0.00    +0.000 A 
ATOM      6  C   UNL     1       0.593   0.592   0.000  0.00  0.00    +0.000 A 
ATOM      7  C   UNL     1       0.593   1.417   0.000  0.00  0.00    +0.000 A 
ATOM      8  C   UNL     1       1.307   1.829   0.000  0.00  0.00    +0.000 A 
ATOM      9  C   UNL     1       2.022   1.417   0.000  0.00  0.00    +0.000 A 
ATOM     10  C   UNL     1       2.022   0.592   0.000  0.00  0.00    +0.000 A 
BRANCH  10  11
ATOM     11  C   UNL     1       2.736   0.179   0.000  0.00  0.00    +0.000 C 
ATOM     12  O   UNL     1       2.736  -0.646   0.000  0.00  0.00    +0.000 OA
ATOM     13  O   UNL     1       3.451   0.592   0.000  0.00  0.00    +0.000 OA
ENDBRANCH  10  11
ENDBRANCH   4   5
ENDBRANCH   1   2
BRANCH   1  14
ATOM     14  N   UNL     1      -0.836  -1.058   0.000  0.00  0.00    +0.000 NA
BRANCH  14  20
ATOM     15  C   UNL     1      -2.265  -1.058   0.000  0.00  0.00    +0.000 A 
ATOM     16  C   UNL     1      -2.980  -0.646   0.000  0.00  0.00    +0.000 A 
ATOM     17  C   UNL     1      -2.980   0.179   0.000  0.00  0.00    +0.000 A 
ATOM     18  C   UNL     1      -2.265   0.592   0.000  0.00  0.00    +0.000 A 
ATOM     19  C   UNL     1      -1.551   0.179   0.000  0.00  0.00    +0.000 A 
ATOM     20  C   UNL     1      -1.551  -0.646   0.000  0.00  0.00    +0.000 A 
ATOM     21 CL   UNL     1      -2.265   1.417   0.000  0.00  0.00    +0.000 Cl
ATOM     22  F   UNL     1      -3.694   0.592   0.000  0.00  0.00    +0.000 F 
BRANCH  15  24
ATOM     23  C   UNL     1      -1.551  -2.296   0.000  0.00  0.00    +0.000 C 
ATOM     24  C   UNL     1      -2.265  -1.883   0.000  0.00  0.00    +0.000 C 
ATOM     25  O   UNL     1      -2.980  -2.296   0.000  0.00  0.00    +0.000 OA
ENDBRANCH  15  24
ENDBRANCH  14  20
ENDBRANCH   1  14
TORSDOF 6
