REMARK  Name = 454
REMARK  4 active torsions:
REMARK  status: ('A' for Active; 'I' for Inactive)
REMARK    1  A    between atoms: O_1  and  C_10
REMARK    2  A    between atoms: O_1  and  C_17
REMARK    3  A    between atoms: C_4  and  C_9
REMARK    4  A    between atoms: C_4  and  C_10
REMARK                            x       y       z     vdW  Elec       q    Type
REMARK                         _______ _______ _______ _____ _____    ______ ____
ROOT
ATOM      1  N   UNL     1       4.125  -1.349   0.000  0.00  0.00    +0.000 NA
ATOM      2  C   UNL     1       4.125   0.301   0.000  0.00  0.00    +0.000 C 
ATOM      3  C   UNL     1       4.840  -0.112   0.000  0.00  0.00    +0.000 C 
ATOM      4  C   UNL     1       3.411  -0.112   0.000  0.00  0.00    +0.000 C 
ATOM      5  C   UNL     1       4.840  -0.937   0.000  0.00  0.00    +0.000 C 
ATOM      6  C   UNL     1       3.411  -0.937   0.000  0.00  0.00    +0.000 C 
ATOM      7  C   UNL     1       4.125  -2.174   0.000  0.00  0.00    +0.000 C 
ENDROOT
BRANCH   2   8
ATOM      8  C   UNL     1       4.757   0.831   0.000  0.00  0.00    +0.000 A 
ATOM      9  C   UNL     1       4.614   1.644   0.000  0.00  0.00    +0.000 A 
ATOM     10  C   UNL     1       5.532   0.549   0.000  0.00  0.00    +0.000 A 
ATOM     11  C   UNL     1       5.246   2.174   0.000  0.00  0.00    +0.000 A 
ATOM     12  C   UNL     1       6.164   1.079   0.000  0.00  0.00    +0.000 A 
ATOM     13  C   UNL     1       6.021   1.892   0.000  0.00  0.00    +0.000 A 
ENDBRANCH   2   8
BRANCH   2  15
ATOM     14  O   UNL     1       3.856   1.828   0.000  0.00  0.00    +0.000 OA
ATOM     15  C   UNL     1       3.713   1.015   0.000  0.00  0.00    +0.000 C 
BRANCH  15  16
ATOM     16  O   UNL     1       2.888   1.015   0.000  0.00  0.00    +0.000 OA
BRANCH  16  17
ATOM     17  C   UNL     1       2.475   1.730   0.000  0.00  0.00    +0.000 C 
ATOM     18  C   UNL     1       1.650   1.730   0.000  0.00  0.00    +0.000 C 
ENDBRANCH  16  17
ENDBRANCH  15  16
ENDBRANCH   2  15
TORSDOF 4
