REMARK  Name = 455
REMARK  2 active torsions:
REMARK  status: ('A' for Active; 'I' for Inactive)
REMARK    1  A    between atoms: O_2  and  C_19
REMARK    2  A    between atoms: O_2  and  C_26
REMARK                            x       y       z     vdW  Elec       q    Type
REMARK                         _______ _______ _______ _____ _____    ______ ____
ROOT
ATOM      1 CL   UNL     1       1.650   2.666   0.000  0.00  0.00    +0.000 Cl
ATOM      2  O   UNL     1       4.101  -2.141   0.000  0.00  0.00    +0.000 OA
ATOM      3  N   UNL     1       4.816  -0.904   0.000  0.00  0.00    +0.000 N 
ATOM      4  N   UNL     1       6.180   1.335   0.000  0.00  0.00    +0.000 NA
ATOM      5  C   UNL     1       4.816   0.746   0.000  0.00  0.00    +0.000 C 
ATOM      6  C   UNL     1       5.530   0.334   0.000  0.00  0.00    +0.000 C 
ATOM      7  C   UNL     1       4.101   0.334   0.000  0.00  0.00    +0.000 C 
ATOM      8  C   UNL     1       4.816   1.571   0.000  0.00  0.00    +0.000 C 
ATOM      9  C   UNL     1       5.530  -0.491   0.000  0.00  0.00    +0.000 C 
ATOM     10  C   UNL     1       4.101  -0.491   0.000  0.00  0.00    +0.000 C 
ATOM     11  C   UNL     1       4.073   1.929   0.000  0.00  0.00    +0.000 A 
ATOM     12  C   UNL     1       5.559   1.929   0.000  0.00  0.00    +0.000 A 
ATOM     13  C   UNL     1       3.889   2.734   0.000  0.00  0.00    +0.000 A 
ATOM     14  C   UNL     1       4.403   3.379   0.000  0.00  0.00    +0.000 C 
ATOM     15  C   UNL     1       5.228   3.379   0.000  0.00  0.00    +0.000 C 
ATOM     16  C   UNL     1       5.743   2.734   0.000  0.00  0.00    +0.000 A 
ATOM     17  C   UNL     1       3.452   1.335   0.000  0.00  0.00    +0.000 A 
ATOM     18  C   UNL     1       4.816  -1.729   0.000  0.00  0.00    +0.000 C 
ATOM     19  C   UNL     1       3.072   3.000   0.000  0.00  0.00    +0.000 A 
ATOM     20  C   UNL     1       6.560   3.000   0.000  0.00  0.00    +0.000 A 
ATOM     21  C   UNL     1       2.629   1.582   0.000  0.00  0.00    +0.000 A 
ATOM     22  C   UNL     1       2.437   2.420   0.000  0.00  0.00    +0.000 A 
ATOM     23  C   UNL     1       7.194   2.420   0.000  0.00  0.00    +0.000 A 
ATOM     24  C   UNL     1       7.003   1.582   0.000  0.00  0.00    +0.000 A 
ENDROOT
BRANCH  18  25
ATOM     25  O   UNL     1       5.530  -2.141   0.000  0.00  0.00    +0.000 OA
BRANCH  25  26
ATOM     26  C   UNL     1       5.530  -2.966   0.000  0.00  0.00    +0.000 C 
ATOM     27  C   UNL     1       6.245  -3.379   0.000  0.00  0.00    +0.000 C 
ENDBRANCH  25  26
ENDBRANCH  18  25
TORSDOF 2
