REMARK  Name = 4575
REMARK  3 active torsions:
REMARK  status: ('A' for Active; 'I' for Inactive)
REMARK    1  A    between atoms: O_2  and  C_21
REMARK    2  A    between atoms: O_2  and  C_23
REMARK    3  A    between atoms: C_6  and  C_17
REMARK                            x       y       z     vdW  Elec       q    Type
REMARK                         _______ _______ _______ _____ _____    ______ ____
ROOT
ATOM      1  O   UNL     1       8.644   1.555   0.000  0.00  0.00    +0.000 OA
ATOM      2  C   UNL     1       8.117   0.519   0.000  0.00  0.00    +0.000 C 
ATOM      3  C   UNL     1       8.117  -0.306   0.000  0.00  0.00    +0.000 C 
ATOM      4  C   UNL     1       7.402  -0.719   0.000  0.00  0.00    +0.000 C 
ATOM      5  C   UNL     1       8.898   0.770   0.000  0.00  0.00    +0.000 C 
ATOM      6  C   UNL     1       6.688  -0.306   0.000  0.00  0.00    +0.000 C 
ATOM      7  C   UNL     1       7.402   0.931   0.000  0.00  0.00    +0.000 C 
ATOM      8  C   UNL     1       8.898  -0.558   0.000  0.00  0.00    +0.000 C 
ATOM      9  C   UNL     1       6.688   0.519   0.000  0.00  0.00    +0.000 C 
ATOM     10  C   UNL     1       9.379   0.106   0.000  0.00  0.00    +0.000 C 
ATOM     11  C   UNL     1       7.416  -1.578   0.000  0.00  0.00    +0.000 C 
ATOM     12  C   UNL     1       8.117   1.344   0.000  0.00  0.00    +0.000 C 
ATOM     13  C   UNL     1       5.937  -0.725   0.000  0.00  0.00    +0.000 A 
ATOM     14  C   UNL     1       6.675  -2.014   0.000  0.00  0.00    +0.000 C 
ATOM     15  C   UNL     1       5.931  -1.584   0.000  0.00  0.00    +0.000 A 
ATOM     16  C   UNL     1       5.173  -0.259   0.000  0.00  0.00    +0.000 A 
ATOM     17  C   UNL     1       5.159  -2.038   0.000  0.00  0.00    +0.000 A 
ATOM     18  C   UNL     1       4.391  -0.695   0.000  0.00  0.00    +0.000 A 
ATOM     19  C   UNL     1       4.384  -1.590   0.000  0.00  0.00    +0.000 A 
ENDROOT
BRANCH   5  20
ATOM     20  C   UNL     1       9.566   1.254   0.000  0.00  0.00    +0.000 C 
ATOM     21  C   UNL     1      10.234   1.738   0.000  0.00  0.00    +0.000 C 
ENDBRANCH   5  20
BRANCH  19  22
ATOM     22  O   UNL     1       3.668  -2.000   0.000  0.00  0.00    +0.000 OA
BRANCH  22  23
ATOM     23  C   UNL     1       2.955  -1.584   0.000  0.00  0.00    +0.000 C 
ATOM     24  C   UNL     1       2.872  -0.764   0.000  0.00  0.00    +0.000 C 
ATOM     25  C   UNL     1       2.200  -1.917   0.000  0.00  0.00    +0.000 C 
ATOM     26  C   UNL     1       2.065  -0.589   0.000  0.00  0.00    +0.000 C 
ATOM     27  C   UNL     1       1.650  -1.302   0.000  0.00  0.00    +0.000 C 
ENDBRANCH  22  23
ENDBRANCH  19  22
TORSDOF 3
