REMARK  Name = 458
REMARK  2 active torsions:
REMARK  status: ('A' for Active; 'I' for Inactive)
REMARK    1  A    between atoms: C_7  and  C_8
REMARK    2  A    between atoms: C_12  and  C_13
REMARK                            x       y       z     vdW  Elec       q    Type
REMARK                         _______ _______ _______ _____ _____    ______ ____
ROOT
ATOM      1  C   UNL     1       0.824   0.690   0.000  0.00  0.00    +0.000 C 
ATOM      2  C   UNL     1       0.274   0.254   0.000  0.00  0.00    +0.000 C 
ATOM      3  C   UNL     1      -0.480   0.088   0.000  0.00  0.00    +0.000 C 
ATOM      4  C   UNL     1      -0.419   1.057   0.000  0.00  0.00    +0.000 C 
ATOM      5  C   UNL     1      -0.771  -0.549   0.000  0.00  0.00    +0.000 C 
ATOM      6  C   UNL     1      -0.267  -0.124   0.000  0.00  0.00    +0.000 C 
ATOM      7  C   UNL     1       0.693  -0.114   0.000  0.00  0.00    +0.000 C 
ATOM      8  C   UNL     1       0.740  -1.101   0.000  0.00  0.00    +0.000 C 
ATOM      9  O   UNL     1      -0.076  -1.280   0.000  0.00  0.00    +0.000 OA
ATOM     10  C   UNL     1       0.336  -0.699   0.000  0.00  0.00    +0.000 C 
ENDROOT
BRANCH  10  11
ATOM     11  C   UNL     1      -0.458  -0.474   0.000  0.00  0.00    +0.000 A 
ATOM     12  C   UNL     1      -1.050  -1.049   0.000  0.00  0.00    +0.000 A 
ATOM     13  C   UNL     1      -1.843  -0.824   0.000  0.00  0.00    +0.000 A 
ATOM     14  C   UNL     1      -2.045  -0.024   0.000  0.00  0.00    +0.000 A 
ATOM     15  O   UNL     1      -2.839   0.201   0.000  0.00  0.00    +0.000 OA
ATOM     16  C   UNL     1      -1.454   0.551   0.000  0.00  0.00    +0.000 A 
ATOM     17  C   UNL     1      -0.660   0.326   0.000  0.00  0.00    +0.000 A 
ENDBRANCH  10  11
BRANCH   7  18
ATOM     18  C   UNL     1       1.583   0.214   0.000  0.00  0.00    +0.000 C 
ATOM     19  O   UNL     1       2.419   0.254   0.000  0.00  0.00    +0.000 OA
ENDBRANCH   7  18
TORSDOF 2
