REMARK  Name = 459
REMARK  2 active torsions:
REMARK  status: ('A' for Active; 'I' for Inactive)
REMARK    1  A    between atoms: C_8  and  C_9
REMARK    2  A    between atoms: C_13  and  C_14
REMARK                            x       y       z     vdW  Elec       q    Type
REMARK                         _______ _______ _______ _____ _____    ______ ____
ROOT
ATOM      1  C   UNL     1       1.481   1.436   0.000  0.00  0.00    +0.000 C 
ATOM      2  C   UNL     1       1.138   0.654   0.000  0.00  0.00    +0.000 C 
ATOM      3  C   UNL     1       0.588   0.218   0.000  0.00  0.00    +0.000 C 
ATOM      4  C   UNL     1      -0.166   0.052   0.000  0.00  0.00    +0.000 C 
ATOM      5  C   UNL     1      -0.073   0.987   0.000  0.00  0.00    +0.000 C 
ATOM      6  C   UNL     1      -0.458  -0.585   0.000  0.00  0.00    +0.000 C 
ATOM      7  C   UNL     1       0.047  -0.161   0.000  0.00  0.00    +0.000 C 
ATOM      8  C   UNL     1       1.007  -0.150   0.000  0.00  0.00    +0.000 C 
ATOM      9  C   UNL     1       1.054  -1.137   0.000  0.00  0.00    +0.000 C 
ATOM     10  O   UNL     1       0.238  -1.316   0.000  0.00  0.00    +0.000 OA
ATOM     11  C   UNL     1       0.650  -0.736   0.000  0.00  0.00    +0.000 C 
ENDROOT
BRANCH  11  12
ATOM     12  C   UNL     1      -0.144  -0.510   0.000  0.00  0.00    +0.000 A 
ATOM     13  C   UNL     1      -0.736  -1.085   0.000  0.00  0.00    +0.000 A 
ATOM     14  C   UNL     1      -1.529  -0.860   0.000  0.00  0.00    +0.000 A 
ATOM     15  C   UNL     1      -1.731  -0.060   0.000  0.00  0.00    +0.000 A 
ATOM     16  O   UNL     1      -2.525   0.165   0.000  0.00  0.00    +0.000 OA
ATOM     17  C   UNL     1      -1.140   0.515   0.000  0.00  0.00    +0.000 A 
ATOM     18  C   UNL     1      -0.346   0.289   0.000  0.00  0.00    +0.000 A 
ENDBRANCH  11  12
BRANCH   8  19
ATOM     19  C   UNL     1       1.903  -0.136   0.000  0.00  0.00    +0.000 C 
ATOM     20  O   UNL     1       2.709   0.144   0.000  0.00  0.00    +0.000 OA
ENDBRANCH   8  19
TORSDOF 2
