REMARK  Name = 45U
REMARK  7 active torsions:
REMARK  status: ('A' for Active; 'I' for Inactive)
REMARK    1  A    between atoms: C_2  and  C_3
REMARK    2  A    between atoms: C_3  and  O_4
REMARK    3  A    between atoms: O_4  and  C_5
REMARK    4  A    between atoms: C_11  and  C_15
REMARK    5  A    between atoms: N_17  and  C_18
REMARK    6  A    between atoms: C_18  and  C_19
REMARK    7  A    between atoms: C_22  and  C_23
REMARK                            x       y       z     vdW  Elec       q    Type
REMARK                         _______ _______ _______ _____ _____    ______ ____
ROOT
ATOM      1  O   UNL     1       1.208  -0.802   0.000  0.00  0.00    +0.000 OA
ATOM      2  C   UNL     1       0.493  -1.214   0.000  0.00  0.00    +0.000 C 
ATOM      3  N   UNL     1      -0.221  -0.802   0.000  0.00  0.00    +0.000 N 
ATOM      4  C   UNL     1      -0.307   0.019   0.000  0.00  0.00    +0.000 C 
ATOM      5  C   UNL     1      -1.114   0.190   0.000  0.00  0.00    +0.000 C 
ATOM      6  C   UNL     1      -1.527  -0.524   0.000  0.00  0.00    +0.000 C 
ATOM      7  C   UNL     1      -0.975  -1.137   0.000  0.00  0.00    +0.000 C 
ENDROOT
BRANCH   4   8
ATOM      8  C   UNL     1       0.306   0.571   0.000  0.00  0.00    +0.000 C 
ATOM      9  O   UNL     1       1.090   0.316   0.000  0.00  0.00    +0.000 OA
ATOM     10  N   UNL     1       0.134   1.378   0.000  0.00  0.00    +0.000 NA
BRANCH  10  11
ATOM     11  C   UNL     1       0.747   1.930   0.000  0.00  0.00    +0.000 C 
BRANCH  11  12
ATOM     12  C   UNL     1       0.576   2.737   0.000  0.00  0.00    +0.000 A 
ATOM     13  C   UNL     1       1.189   3.289   0.000  0.00  0.00    +0.000 A 
ATOM     14  C   UNL     1       1.017   4.096   0.000  0.00  0.00    +0.000 A 
ATOM     15  C   UNL     1       0.233   4.351   0.000  0.00  0.00    +0.000 A 
ATOM     16  C   UNL     1      -0.381   3.799   0.000  0.00  0.00    +0.000 A 
ATOM     17  C   UNL     1      -0.209   2.992   0.000  0.00  0.00    +0.000 A 
BRANCH  15  18
ATOM     18  C   UNL     1       0.061   5.158   0.000  0.00  0.00    +0.000 C 
ATOM     19  N   UNL     1      -0.724   5.413   0.000  0.00  0.00    +0.000 NA
ATOM     20  N   UNL     1       0.674   5.710   0.000  0.00  0.00    +0.000 NA
ENDBRANCH  15  18
ENDBRANCH  11  12
ENDBRANCH  10  11
ENDBRANCH   4   8
BRANCH   2  21
ATOM     21  C   UNL     1       0.493  -2.039   0.000  0.00  0.00    +0.000 C 
BRANCH  21  22
ATOM     22  O   UNL     1       1.208  -2.452   0.000  0.00  0.00    +0.000 OA
BRANCH  22  23
ATOM     23  C   UNL     1       1.208  -3.277   0.000  0.00  0.00    +0.000 C 
ATOM     24  C   UNL     1       1.875  -3.762   0.000  0.00  0.00    +0.000 C 
ATOM     25  C   UNL     1       1.620  -4.546   0.000  0.00  0.00    +0.000 C 
ATOM     26  C   UNL     1       0.795  -4.546   0.000  0.00  0.00    +0.000 C 
ATOM     27  C   UNL     1       0.540  -3.762   0.000  0.00  0.00    +0.000 C 
ENDBRANCH  22  23
ENDBRANCH  21  22
ENDBRANCH   2  21
TORSDOF 7
