REMARK  Name = 460
REMARK  2 active torsions:
REMARK  status: ('A' for Active; 'I' for Inactive)
REMARK    1  A    between atoms: C_6  and  C_8
REMARK    2  A    between atoms: C_12  and  C_13
REMARK                            x       y       z     vdW  Elec       q    Type
REMARK                         _______ _______ _______ _____ _____    ______ ____
ROOT
ATOM      1  C   UNL     1      -1.281  -0.430   0.000  0.00  0.00    +0.000 C 
ATOM      2  N   UNL     1      -2.088  -0.602   0.000  0.00  0.00    +0.000 NA
ATOM      3  N   UNL     1      -2.500   0.113   0.000  0.00  0.00    +0.000 NA
ATOM      4  C   UNL     1      -1.948   0.726   0.000  0.00  0.00    +0.000 C 
ATOM      5  C   UNL     1      -1.194   0.390   0.000  0.00  0.00    +0.000 C 
ENDROOT
BRANCH   5   6
ATOM      6  C   UNL     1      -0.480   0.803   0.000  0.00  0.00    +0.000 A 
ATOM      7  C   UNL     1      -0.480   1.628   0.000  0.00  0.00    +0.000 A 
ATOM      8  C   UNL     1       0.235   2.040   0.000  0.00  0.00    +0.000 A 
ATOM      9  C   UNL     1       0.949   1.628   0.000  0.00  0.00    +0.000 A 
ATOM     10  N   UNL     1       1.663   2.040   0.000  0.00  0.00    +0.000 NA
ATOM     11  C   UNL     1       2.378   1.628   0.000  0.00  0.00    +0.000 A 
ATOM     12  C   UNL     1       2.378   0.803   0.000  0.00  0.00    +0.000 A 
ATOM     13  C   UNL     1       1.663   0.390   0.000  0.00  0.00    +0.000 A 
ATOM     14  C   UNL     1       0.949   0.803   0.000  0.00  0.00    +0.000 A 
ATOM     15  N   UNL     1       0.235   0.390   0.000  0.00  0.00    +0.000 NA
ENDBRANCH   5   6
BRANCH   1  21
ATOM     16  C   UNL     1       1.515  -1.024   0.000  0.00  0.00    +0.000 C 
ATOM     17  C   UNL     1       0.730  -1.279   0.000  0.00  0.00    +0.000 A 
ATOM     18  C   UNL     1       0.559  -2.086   0.000  0.00  0.00    +0.000 A 
ATOM     19  C   UNL     1      -0.226  -2.341   0.000  0.00  0.00    +0.000 A 
ATOM     20  C   UNL     1      -0.839  -1.789   0.000  0.00  0.00    +0.000 A 
ATOM     21  C   UNL     1      -0.667  -0.982   0.000  0.00  0.00    +0.000 A 
ATOM     22  N   UNL     1       0.117  -0.727   0.000  0.00  0.00    +0.000 NA
ENDBRANCH   1  21
TORSDOF 2
