REMARK  Name = 461
REMARK  4 active torsions:
REMARK  status: ('A' for Active; 'I' for Inactive)
REMARK    1  A    between atoms: O_1  and  C_13
REMARK    2  A    between atoms: C_3  and  C_4
REMARK    3  A    between atoms: C_4  and  C_8
REMARK    4  A    between atoms: C_8  and  C_15
REMARK                            x       y       z     vdW  Elec       q    Type
REMARK                         _______ _______ _______ _____ _____    ______ ____
ROOT
ATOM      1  C   UNL     1       4.507  -0.014   0.000  0.00  0.00    +0.000 A 
ATOM      2  C   UNL     1       5.936  -0.014   0.000  0.00  0.00    +0.000 A 
ATOM      3  C   UNL     1       5.936   0.811   0.000  0.00  0.00    +0.000 A 
ATOM      4  C   UNL     1       5.222  -0.427   0.000  0.00  0.00    +0.000 A 
ATOM      5  C   UNL     1       4.507   0.811   0.000  0.00  0.00    +0.000 A 
ATOM      6  C   UNL     1       5.222   1.223   0.000  0.00  0.00    +0.000 A 
ATOM      7  C   UNL     1       6.673  -0.455   0.000  0.00  0.00    +0.000 A 
ATOM      8  C   UNL     1       6.673   1.252   0.000  0.00  0.00    +0.000 A 
ATOM      9  C   UNL     1       7.421   0.828   0.000  0.00  0.00    +0.000 A 
ATOM     10  C   UNL     1       7.421  -0.031   0.000  0.00  0.00    +0.000 A 
ENDROOT
BRANCH   9  11
ATOM     11  O   UNL     1       8.134   1.243   0.000  0.00  0.00    +0.000 OA
ATOM     12  C   UNL     1       8.850   0.833   0.000  0.00  0.00    +0.000 C 
ENDBRANCH   9  11
BRANCH   1  13
ATOM     13  C   UNL     1       3.793  -0.427   0.000  0.00  0.00    +0.000 C 
BRANCH  13  14
ATOM     14  C   UNL     1       3.079  -0.014   0.000  0.00  0.00    +0.000 C 
BRANCH  14  16
ATOM     15  O   UNL     1       2.364  -1.252   0.000  0.00  0.00    +0.000 OA
ATOM     16  C   UNL     1       2.364  -0.427   0.000  0.00  0.00    +0.000 C 
ATOM     17  C   UNL     1       1.650  -0.014   0.000  0.00  0.00    +0.000 C 
ENDBRANCH  14  16
ENDBRANCH  13  14
ENDBRANCH   1  13
TORSDOF 4
