REMARK  Name = 462
REMARK  7 active torsions:
REMARK  status: ('A' for Active; 'I' for Inactive)
REMARK    1  A    between atoms: C_2  and  C_3
REMARK    2  A    between atoms: C_3  and  O_4
REMARK    3  A    between atoms: O_4  and  C_5
REMARK    4  A    between atoms: C_8  and  C_11
REMARK    5  A    between atoms: C_14  and  C_23
REMARK    6  A    between atoms: C_15  and  C_16
REMARK    7  A    between atoms: C_16  and  C_17
REMARK                            x       y       z     vdW  Elec       q    Type
REMARK                         _______ _______ _______ _____ _____    ______ ____
ROOT
ATOM      1  C   UNL     1      -0.035  -0.573   0.000  0.00  0.00    +0.000 A 
ATOM      2  C   UNL     1      -0.587  -1.186   0.000  0.00  0.00    +0.000 A 
ATOM      3  S   UNL     1      -0.174  -1.900   0.000  0.00  0.00    +0.000 S 
ATOM      4  C   UNL     1       0.632  -1.729   0.000  0.00  0.00    +0.000 A 
ATOM      5  C   UNL     1       0.719  -0.908   0.000  0.00  0.00    +0.000 A 
ENDROOT
BRANCH   4   6
ATOM      6  C   UNL     1       1.246  -2.281   0.000  0.00  0.00    +0.000 A 
ATOM      7  C   UNL     1       2.030  -2.026   0.000  0.00  0.00    +0.000 A 
ATOM      8  C   UNL     1       2.643  -2.578   0.000  0.00  0.00    +0.000 A 
ATOM      9  C   UNL     1       2.472  -3.385   0.000  0.00  0.00    +0.000 A 
ATOM     10  C   UNL     1       1.687  -3.640   0.000  0.00  0.00    +0.000 A 
ATOM     11  C   UNL     1       1.074  -3.088   0.000  0.00  0.00    +0.000 A 
ATOM     12 CL   UNL     1       0.289  -3.342   0.000  0.00  0.00    +0.000 Cl
ENDBRANCH   4   6
BRANCH   1  16
ATOM     13  C   UNL     1      -0.549   1.848   0.000  0.00  0.00    +0.000 A 
ATOM     14  C   UNL     1       0.235   1.593   0.000  0.00  0.00    +0.000 A 
ATOM     15  C   UNL     1       0.407   0.786   0.000  0.00  0.00    +0.000 A 
ATOM     16  C   UNL     1      -0.206   0.234   0.000  0.00  0.00    +0.000 A 
ATOM     17  C   UNL     1      -0.991   0.489   0.000  0.00  0.00    +0.000 A 
ATOM     18  C   UNL     1      -1.163   1.296   0.000  0.00  0.00    +0.000 A 
BRANCH  13  19
ATOM     19  O   UNL     1      -0.721   2.655   0.000  0.00  0.00    +0.000 OA
BRANCH  19  20
ATOM     20  C   UNL     1      -1.506   2.910   0.000  0.00  0.00    +0.000 C 
BRANCH  20  22
ATOM     21  C   UNL     1      -2.462   3.972   0.000  0.00  0.00    +0.000 C 
ATOM     22  C   UNL     1      -1.677   3.717   0.000  0.00  0.00    +0.000 C 
ENDBRANCH  20  22
ENDBRANCH  19  20
ENDBRANCH  13  19
ENDBRANCH   1  16
BRANCH   5  23
ATOM     23  C   UNL     1       1.433  -0.496   0.000  0.00  0.00    +0.000 C 
BRANCH  23  24
ATOM     24  C   UNL     1       1.433   0.329   0.000  0.00  0.00    +0.000 C 
ATOM     25  O   UNL     1       0.719   0.742   0.000  0.00  0.00    +0.000 OA
ATOM     26  N   UNL     1       2.148   0.742   0.000  0.00  0.00    +0.000 NA
ATOM     27  C   UNL     1       2.862   0.329   0.000  0.00  0.00    +0.000 C 
ATOM     28  N   UNL     1       2.862  -0.496   0.000  0.00  0.00    +0.000 NA
ATOM     29  N   UNL     1       3.577   0.742   0.000  0.00  0.00    +0.000 NA
ENDBRANCH  23  24
ENDBRANCH   5  23
TORSDOF 7
