REMARK  Name = 463
REMARK  2 active torsions:
REMARK  status: ('A' for Active; 'I' for Inactive)
REMARK    1  A    between atoms: C_6  and  C_7
REMARK    2  A    between atoms: C_6  and  C_8
REMARK                            x       y       z     vdW  Elec       q    Type
REMARK                         _______ _______ _______ _____ _____    ______ ____
ROOT
ATOM      1  O   UNL     1       1.650   0.523   0.000  0.00  0.00    +0.000 OA
ATOM      2  O   UNL     1       4.508   0.523   0.000  0.00  0.00    +0.000 OA
ATOM      3  O   UNL     1       3.079  -1.952   0.000  0.00  0.00    +0.000 OA
ATOM      4  N   UNL     1       2.365  -0.715   0.000  0.00  0.00    +0.000 N 
ATOM      5  N   UNL     1       3.793  -0.715   0.000  0.00  0.00    +0.000 NA
ATOM      6  C   UNL     1       3.079   0.523   0.000  0.00  0.00    +0.000 C 
ATOM      7  C   UNL     1       2.365   0.111   0.000  0.00  0.00    +0.000 C 
ATOM      8  C   UNL     1       3.793   0.111   0.000  0.00  0.00    +0.000 C 
ATOM      9  C   UNL     1       3.079  -1.127   0.000  0.00  0.00    +0.000 C 
ATOM     10  C   UNL     1       1.650  -1.127   0.000  0.00  0.00    +0.000 C 
ENDROOT
BRANCH   6  11
ATOM     11  C   UNL     1       3.492   1.238   0.000  0.00  0.00    +0.000 C 
ATOM     12  C   UNL     1       3.079   1.952   0.000  0.00  0.00    +0.000 C 
ENDBRANCH   6  11
BRANCH   6  13
ATOM     13  C   UNL     1       2.667   1.238   0.000  0.00  0.00    +0.000 C 
ATOM     14  C   UNL     1       1.841   1.238   0.000  0.00  0.00    +0.000 C 
ENDBRANCH   6  13
TORSDOF 2
