REMARK  Name = 465
REMARK  3 active torsions:
REMARK  status: ('A' for Active; 'I' for Inactive)
REMARK    1  A    between atoms: C_5  and  C_12
REMARK    2  A    between atoms: C_9  and  C_13
REMARK    3  A    between atoms: C_13  and  C_14
REMARK                            x       y       z     vdW  Elec       q    Type
REMARK                         _______ _______ _______ _____ _____    ______ ____
ROOT
ATOM      1  N   UNL     1       5.111   0.175   0.000  0.00  0.00    +0.000 N 
ATOM      2  C   UNL     1       5.891  -0.902   0.000  0.00  0.00    +0.000 C 
ATOM      3  C   UNL     1       6.373  -0.238   0.000  0.00  0.00    +0.000 C 
ATOM      4  C   UNL     1       5.891   0.426   0.000  0.00  0.00    +0.000 C 
ATOM      5  C   UNL     1       5.111  -0.650   0.000  0.00  0.00    +0.000 A 
ATOM      6  C   UNL     1       4.326   0.430   0.000  0.00  0.00    +0.000 A 
ATOM      7  C   UNL     1       4.326  -0.905   0.000  0.00  0.00    +0.000 A 
ATOM      8  C   UNL     1       3.841  -0.238   0.000  0.00  0.00    +0.000 A 
ENDROOT
BRANCH   2  11
ATOM      9  O   UNL     1       6.955  -1.856   0.000  0.00  0.00    +0.000 OA
ATOM     10  O   UNL     1       5.597  -2.300   0.000  0.00  0.00    +0.000 OA
ATOM     11  C   UNL     1       6.148  -1.686   0.000  0.00  0.00    +0.000 C 
ENDBRANCH   2  11
BRANCH   6  13
ATOM     12  O   UNL     1       4.623   1.827   0.000  0.00  0.00    +0.000 OA
ATOM     13  C   UNL     1       4.071   1.214   0.000  0.00  0.00    +0.000 C 
BRANCH  13  14
ATOM     14  C   UNL     1       3.264   1.386   0.000  0.00  0.00    +0.000 A 
ATOM     15  C   UNL     1       2.712   0.773   0.000  0.00  0.00    +0.000 A 
ATOM     16  C   UNL     1       3.009   2.171   0.000  0.00  0.00    +0.000 A 
ATOM     17  C   UNL     1       1.905   0.944   0.000  0.00  0.00    +0.000 A 
ATOM     18  C   UNL     1       2.202   2.342   0.000  0.00  0.00    +0.000 A 
ATOM     19  C   UNL     1       1.650   1.729   0.000  0.00  0.00    +0.000 A 
ENDBRANCH  13  14
ENDBRANCH   6  13
TORSDOF 3
