REMARK  Name = 466
REMARK  2 active torsions:
REMARK  status: ('A' for Active; 'I' for Inactive)
REMARK    1  A    between atoms: C_28  and  C_37
REMARK    2  A    between atoms: C_32  and  C_39
REMARK                            x       y       z     vdW  Elec       q    Type
REMARK                         _______ _______ _______ _____ _____    ______ ____
ROOT
ATOM      1  O   UNL     1       0.942   0.655   0.000  0.00  0.00    +0.000 OA
ATOM      2  O   UNL     1       1.154   2.765   0.000  0.00  0.00    +0.000 OA
ATOM      3  O   UNL     1       3.407   1.306   0.000  0.00  0.00    +0.000 OA
ATOM      4  O   UNL     1       5.644   2.838   0.000  0.00  0.00    +0.000 OA
ATOM      5  O   UNL     1       0.000   1.888   0.000  0.00  0.00    +0.000 OA
ATOM      6  O   UNL     1       5.843   1.327   0.000  0.00  0.00    +0.000 OA
ATOM      7  C   UNL     1       1.899   1.977   0.000  0.00  0.00    +0.000 C 
ATOM      8  C   UNL     1       1.352   1.366   0.000  0.00  0.00    +0.000 C 
ATOM      9  C   UNL     1       2.653   1.642   0.000  0.00  0.00    +0.000 C 
ATOM     10  C   UNL     1       1.763   0.656   0.000  0.00  0.00    +0.000 C 
ATOM     11  C   UNL     1       1.985   2.798   0.000  0.00  0.00    +0.000 C 
ATOM     12  C   UNL     1       2.565   0.826   0.000  0.00  0.00    +0.000 C 
ATOM     13  C   UNL     1       3.919   2.667   0.000  0.00  0.00    +0.000 C 
ATOM     14  C   UNL     1       4.133   3.464   0.000  0.00  0.00    +0.000 C 
ATOM     15  C   UNL     1       3.525   4.275   0.000  0.00  0.00    +0.000 C 
ATOM     16  C   UNL     1       0.817   2.004   0.000  0.00  0.00    +0.000 C 
ATOM     17  C   UNL     1       1.813   1.157   0.000  0.00  0.00    +0.000 C 
ATOM     18  C   UNL     1       5.431   2.041   0.000  0.00  0.00    +0.000 C 
ENDROOT
BRANCH  15  20
ATOM     19  O   UNL     1       2.700   5.704   0.000  0.00  0.00    +0.000 OA
ATOM     20  C   UNL     1       3.113   4.989   0.000  0.00  0.00    +0.000 C 
ATOM     21  C   UNL     1       3.827   5.402   0.000  0.00  0.00    +0.000 C 
ATOM     22  C   UNL     1       2.398   4.577   0.000  0.00  0.00    +0.000 C 
ENDBRANCH  15  20
TORSDOF 1
REMARK  Name = 466
REMARK  2 active torsions:
REMARK  status: ('A' for Active; 'I' for Inactive)
REMARK    1  A    between atoms: C_28  and  C_37
REMARK    2  A    between atoms: C_32  and  C_39
REMARK                            x       y       z     vdW  Elec       q    Type
REMARK                         _______ _______ _______ _____ _____    ______ ____
ROOT
ATOM      1  O   UNL     1       0.942   8.686   0.000  0.00  0.00    +0.000 OA
ATOM      2  O   UNL     1       1.154  10.795   0.000  0.00  0.00    +0.000 OA
ATOM      3  O   UNL     1       3.407   9.336   0.000  0.00  0.00    +0.000 OA
ATOM      4  O   UNL     1       5.644  10.868   0.000  0.00  0.00    +0.000 OA
ATOM      5  O   UNL     1       0.000   9.918   0.000  0.00  0.00    +0.000 OA
ATOM      6  O   UNL     1       5.843   9.357   0.000  0.00  0.00    +0.000 OA
ATOM      7  C   UNL     1       1.899  10.008   0.000  0.00  0.00    +0.000 C 
ATOM      8  C   UNL     1       1.352   9.397   0.000  0.00  0.00    +0.000 C 
ATOM      9  C   UNL     1       2.653   9.672   0.000  0.00  0.00    +0.000 C 
ATOM     10  C   UNL     1       1.763   8.687   0.000  0.00  0.00    +0.000 C 
ATOM     11  C   UNL     1       1.985  10.828   0.000  0.00  0.00    +0.000 C 
ATOM     12  C   UNL     1       2.565   8.857   0.000  0.00  0.00    +0.000 C 
ATOM     13  C   UNL     1       3.919  10.698   0.000  0.00  0.00    +0.000 C 
ATOM     14  C   UNL     1       4.133  11.495   0.000  0.00  0.00    +0.000 C 
ATOM     15  C   UNL     1       3.525  12.305   0.000  0.00  0.00    +0.000 C 
ATOM     16  C   UNL     1       0.817  10.034   0.000  0.00  0.00    +0.000 C 
ATOM     17  C   UNL     1       1.813   9.187   0.000  0.00  0.00    +0.000 C 
ATOM     18  C   UNL     1       5.431  10.072   0.000  0.00  0.00    +0.000 C 
ENDROOT
BRANCH  15  19
ATOM     19  C   UNL     1       3.113  13.020   0.000  0.00  0.00    +0.000 C 
ATOM     20  C   UNL     1       3.525  13.734   0.000  0.00  0.00    +0.000 C 
ATOM     21  C   UNL     1       2.288  13.020   0.000  0.00  0.00    +0.000 C 
ENDBRANCH  15  19
TORSDOF 1
