REMARK  Name = 467
REMARK  3 active torsions:
REMARK  status: ('A' for Active; 'I' for Inactive)
REMARK    1  A    between atoms: N_5  and  C_13
REMARK    2  A    between atoms: N_7  and  C_18
REMARK    3  A    between atoms: C_21  and  C_23
REMARK                            x       y       z     vdW  Elec       q    Type
REMARK                         _______ _______ _______ _____ _____    ______ ____
ROOT
ATOM      1  F   UNL     1       7.149   1.062   0.000  0.00  0.00    +0.000 F 
ATOM      2  O   UNL     1       4.236   1.868   0.000  0.00  0.00    +0.000 OA
ATOM      3  N   UNL     1       4.236  -0.608   0.000  0.00  0.00    +0.000 N 
ATOM      4  N   UNL     1       5.688  -0.636   0.000  0.00  0.00    +0.000 NA
ATOM      5  C   UNL     1       6.436  -0.212   0.000  0.00  0.00    +0.000 A 
ATOM      6  C   UNL     1       4.951  -0.195   0.000  0.00  0.00    +0.000 A 
ATOM      7  C   UNL     1       4.951   0.630   0.000  0.00  0.00    +0.000 A 
ATOM      8  C   UNL     1       6.436   0.647   0.000  0.00  0.00    +0.000 A 
ATOM      9  C   UNL     1       5.688   1.071   0.000  0.00  0.00    +0.000 A 
ATOM     10  C   UNL     1       4.236   1.043   0.000  0.00  0.00    +0.000 A 
ATOM     11  C   UNL     1       3.522  -0.195   0.000  0.00  0.00    +0.000 A 
ATOM     12  C   UNL     1       3.522   0.630   0.000  0.00  0.00    +0.000 A 
ENDROOT
BRANCH   5  13
ATOM     13  N   UNL     1       7.149  -0.627   0.000  0.00  0.00    +0.000 N 
ATOM     14  N   UNL     1       8.575  -1.458   0.000  0.00  0.00    +0.000 NA
ATOM     15  C   UNL     1       7.146  -1.452   0.000  0.00  0.00    +0.000 C 
ATOM     16  C   UNL     1       7.865  -0.218   0.000  0.00  0.00    +0.000 C 
ATOM     17  C   UNL     1       7.859  -1.868   0.000  0.00  0.00    +0.000 C 
ATOM     18  C   UNL     1       8.578  -0.633   0.000  0.00  0.00    +0.000 C 
ENDBRANCH   5  13
BRANCH  12  21
ATOM     19  O   UNL     1       2.093   0.630   0.000  0.00  0.00    +0.000 OA
ATOM     20  O   UNL     1       2.808   1.868   0.000  0.00  0.00    +0.000 OA
ATOM     21  C   UNL     1       2.808   1.043   0.000  0.00  0.00    +0.000 C 
ENDBRANCH  12  21
BRANCH   3  22
ATOM     22  C   UNL     1       4.236  -1.433   0.000  0.00  0.00    +0.000 C 
ATOM     23  C   UNL     1       3.522  -1.845   0.000  0.00  0.00    +0.000 C 
ENDBRANCH   3  22
TORSDOF 3
