REMARK  Name = 468
REMARK  3 active torsions:
REMARK  status: ('A' for Active; 'I' for Inactive)
REMARK    1  A    between atoms: C_3  and  N_11
REMARK    2  A    between atoms: C_9  and  C_12
REMARK    3  A    between atoms: N_13  and  C_16
REMARK                            x       y       z     vdW  Elec       q    Type
REMARK                         _______ _______ _______ _____ _____    ______ ____
ROOT
ATOM      1  C   UNL     1       2.608   2.807   0.000  0.00  0.00    +0.000 C 
ATOM      2  C   UNL     1       1.941   3.292   0.000  0.00  0.00    +0.000 C 
ATOM      3  C   UNL     1       1.274   2.807   0.000  0.00  0.00    +0.000 C 
ATOM      4  C   UNL     1       1.528   2.022   0.000  0.00  0.00    +0.000 C 
ATOM      5  N   UNL     1       2.353   2.022   0.000  0.00  0.00    +0.000 N 
ATOM      6  O   UNL     1       3.393   3.062   0.000  0.00  0.00    +0.000 OA
ENDROOT
BRANCH   5   9
ATOM      7  C   UNL     1       4.144   0.774   0.000  0.00  0.00    +0.000 C 
ATOM      8  C   UNL     1       3.659   1.441   0.000  0.00  0.00    +0.000 C 
ATOM      9  C   UNL     1       2.838   1.355   0.000  0.00  0.00    +0.000 C 
ATOM     10  C   UNL     1       2.503   0.601   0.000  0.00  0.00    +0.000 C 
ATOM     11  C   UNL     1       2.988  -0.066   0.000  0.00  0.00    +0.000 C 
ATOM     12  C   UNL     1       3.808   0.020   0.000  0.00  0.00    +0.000 C 
ENDBRANCH   5   9
BRANCH   3  13
ATOM     13  C   UNL     1       0.489   3.062   0.000  0.00  0.00    +0.000 C 
ATOM     14  N   UNL     1       0.317   3.869   0.000  0.00  0.00    +0.000 NA
ATOM     15  O   UNL     1      -0.124   2.510   0.000  0.00  0.00    +0.000 OA
BRANCH  14  16
ATOM     16  C   UNL     1      -0.467   4.124   0.000  0.00  0.00    +0.000 A 
ATOM     17  C   UNL     1      -0.639   4.931   0.000  0.00  0.00    +0.000 A 
ATOM     18  C   UNL     1      -1.423   5.186   0.000  0.00  0.00    +0.000 A 
ATOM     19  C   UNL     1      -2.037   4.634   0.000  0.00  0.00    +0.000 A 
ATOM     20  C   UNL     1      -1.865   3.827   0.000  0.00  0.00    +0.000 A 
ATOM     21  C   UNL     1      -1.080   3.572   0.000  0.00  0.00    +0.000 A 
ATOM     22  C   UNL     1      -0.909   2.765   0.000  0.00  0.00    +0.000 C 
ATOM     23 CL   UNL     1      -2.478   3.275   0.000  0.00  0.00    +0.000 Cl
ENDBRANCH  14  16
ENDBRANCH   3  13
TORSDOF 3
