REMARK  Name = 46937143
REMARK  7 active torsions:
REMARK  status: ('A' for Active; 'I' for Inactive)
REMARK    1  A    between atoms: O_1  and  C_12
REMARK    2  A    between atoms: O_1  and  C_14
REMARK    3  A    between atoms: N_3  and  C_6
REMARK    4  A    between atoms: N_3  and  C_7
REMARK    5  A    between atoms: C_7  and  C_8
REMARK    6  A    between atoms: C_8  and  C_12
REMARK    7  A    between atoms: C_18  and  C_21
REMARK                            x       y       z     vdW  Elec       q    Type
REMARK                         _______ _______ _______ _____ _____    ______ ____
ROOT
ATOM      1  N   UNL     1       6.003  -2.877   0.000  0.00  0.00    +0.000 NA
ATOM      2  C   UNL     1       5.222  -1.801   0.000  0.00  0.00    +0.000 A 
ATOM      3  C   UNL     1       4.508  -1.389   0.000  0.00  0.00    +0.000 A 
ATOM      4  C   UNL     1       6.003  -1.550   0.000  0.00  0.00    +0.000 C 
ATOM      5  C   UNL     1       5.222  -2.626   0.000  0.00  0.00    +0.000 A 
ATOM      6  C   UNL     1       3.793  -1.801   0.000  0.00  0.00    +0.000 A 
ATOM      7  C   UNL     1       6.485  -2.213   0.000  0.00  0.00    +0.000 C 
ATOM      8  C   UNL     1       4.508  -3.038   0.000  0.00  0.00    +0.000 A 
ATOM      9  C   UNL     1       3.793  -2.626   0.000  0.00  0.00    +0.000 A 
ENDROOT
BRANCH   7  11
ATOM     10  N   UNL     1       8.135  -2.213   0.000  0.00  0.00    +0.000 NA
ATOM     11  C   UNL     1       7.310  -2.213   0.000  0.00  0.00    +0.000 C 
ENDBRANCH   7  11
BRANCH   3  12
ATOM     12  O   UNL     1       4.508  -0.564   0.000  0.00  0.00    +0.000 OA
BRANCH  12  13
ATOM     13  C   UNL     1       3.793  -0.151   0.000  0.00  0.00    +0.000 C 
BRANCH  13  15
ATOM     14  O   UNL     1       4.508   1.087   0.000  0.00  0.00    +0.000 OA
ATOM     15  C   UNL     1       3.793   0.674   0.000  0.00  0.00    +0.000 C 
BRANCH  15  16
ATOM     16  C   UNL     1       3.079   1.087   0.000  0.00  0.00    +0.000 C 
BRANCH  16  17
ATOM     17  N   UNL     1       3.079   1.912   0.000  0.00  0.00    +0.000 NA
BRANCH  17  18
ATOM     18  C   UNL     1       2.365   2.324   0.000  0.00  0.00    +0.000 C 
ATOM     19  C   UNL     1       1.650   2.737   0.000  0.00  0.00    +0.000 C 
ATOM     20  C   UNL     1       2.777   3.038   0.000  0.00  0.00    +0.000 C 
ATOM     21  C   UNL     1       1.952   1.610   0.000  0.00  0.00    +0.000 C 
ENDBRANCH  17  18
ENDBRANCH  16  17
ENDBRANCH  15  16
ENDBRANCH  13  15
ENDBRANCH  12  13
ENDBRANCH   3  12
TORSDOF 7
