REMARK  Name = 46U
REMARK  7 active torsions:
REMARK  status: ('A' for Active; 'I' for Inactive)
REMARK    1  A    between atoms: C_2  and  C_3
REMARK    2  A    between atoms: C_3  and  O_4
REMARK    3  A    between atoms: O_4  and  C_5
REMARK    4  A    between atoms: C_12  and  C_16
REMARK    5  A    between atoms: N_18  and  C_19
REMARK    6  A    between atoms: C_19  and  C_20
REMARK    7  A    between atoms: C_23  and  C_24
REMARK                            x       y       z     vdW  Elec       q    Type
REMARK                         _______ _______ _______ _____ _____    ______ ____
ROOT
ATOM      1  O   UNL     1       1.353   0.476   0.000  0.00  0.00    +0.000 OA
ATOM      2  C   UNL     1       0.741   1.028   0.000  0.00  0.00    +0.000 C 
ATOM      3  N   UNL     1      -0.044   0.773   0.000  0.00  0.00    +0.000 N 
ATOM      4  C   UNL     1      -0.299  -0.012   0.000  0.00  0.00    +0.000 C 
ATOM      5  C   UNL     1      -1.124  -0.012   0.000  0.00  0.00    +0.000 C 
ATOM      6  C   UNL     1      -1.379   0.773   0.000  0.00  0.00    +0.000 C 
ATOM      7  C   UNL     1      -0.712   1.258   0.000  0.00  0.00    +0.000 C 
ENDROOT
BRANCH   4   8
ATOM      8  C   UNL     1       0.186  -0.679   0.000  0.00  0.00    +0.000 C 
ATOM      9  O   UNL     1       1.006  -0.593   0.000  0.00  0.00    +0.000 OA
ATOM     10  N   UNL     1      -0.150  -1.433   0.000  0.00  0.00    +0.000 NA
BRANCH  10  11
ATOM     11  C   UNL     1       0.335  -2.100   0.000  0.00  0.00    +0.000 C 
BRANCH  11  12
ATOM     12  C   UNL     1      -0.000  -2.854   0.000  0.00  0.00    +0.000 A 
ATOM     13  C   UNL     1       0.484  -3.522   0.000  0.00  0.00    +0.000 A 
ATOM     14  C   UNL     1       0.149  -4.275   0.000  0.00  0.00    +0.000 A 
ATOM     15  C   UNL     1      -0.671  -4.361   0.000  0.00  0.00    +0.000 A 
ATOM     16  C   UNL     1      -1.156  -3.694   0.000  0.00  0.00    +0.000 A 
ATOM     17  C   UNL     1      -0.821  -2.940   0.000  0.00  0.00    +0.000 A 
BRANCH  15  18
ATOM     18  C   UNL     1      -1.007  -5.115   0.000  0.00  0.00    +0.000 C 
ATOM     19  N   UNL     1      -0.522  -5.782   0.000  0.00  0.00    +0.000 NA
ATOM     20  N   UNL     1      -1.827  -5.201   0.000  0.00  0.00    +0.000 NA
ENDBRANCH  15  18
ENDBRANCH  11  12
ENDBRANCH  10  11
ENDBRANCH   4   8
BRANCH   2  21
ATOM     21  C   UNL     1       0.912   1.835   0.000  0.00  0.00    +0.000 C 
BRANCH  21  22
ATOM     22  O   UNL     1       1.697   2.090   0.000  0.00  0.00    +0.000 OA
BRANCH  22  23
ATOM     23  C   UNL     1       1.868   2.897   0.000  0.00  0.00    +0.000 C 
ATOM     24  C   UNL     1       1.255   3.449   0.000  0.00  0.00    +0.000 C 
ATOM     25  C   UNL     1       1.427   4.256   0.000  0.00  0.00    +0.000 C 
ATOM     26  C   UNL     1       2.211   4.511   0.000  0.00  0.00    +0.000 C 
ATOM     27  C   UNL     1       2.824   3.958   0.000  0.00  0.00    +0.000 C 
ATOM     28  C   UNL     1       2.653   3.151   0.000  0.00  0.00    +0.000 C 
ENDBRANCH  22  23
ENDBRANCH  21  22
ENDBRANCH   2  21
TORSDOF 7
