REMARK  Name = 471
REMARK  12 active torsions:
REMARK  status: ('A' for Active; 'I' for Inactive)
REMARK    1  A    between atoms: S_2  and  C_10
REMARK    2  A    between atoms: S_2  and  C_13
REMARK    3  A    between atoms: C_7  and  C_10
REMARK    4  A    between atoms: C_7  and  C_11
REMARK    5  A    between atoms: C_11  and  C_12
REMARK    6  A    between atoms: C_13  and  C_14
REMARK    7  A    between atoms: C_13  and  C_15
REMARK    8  A    between atoms: C_14  and  C_16
REMARK    9  A    between atoms: C_16  and  C_19
REMARK   10  A    between atoms: C_20  and  C_23
REMARK   11  A    between atoms: C_21  and  C_28
REMARK   12  A    between atoms: C_32  and  C_33
REMARK                            x       y       z     vdW  Elec       q    Type
REMARK                         _______ _______ _______ _____ _____    ______ ____
ROOT
ATOM      1  C   UNL     1       6.380  -1.031   0.000  0.00  0.00    +0.000 C 
ENDROOT
BRANCH   1   2
ATOM      2  C   UNL     1       7.094  -1.444   0.000  0.00  0.00    +0.000 A 
ATOM      3  C   UNL     1       7.809  -1.031   0.000  0.00  0.00    +0.000 A 
ATOM      4  C   UNL     1       7.094  -2.269   0.000  0.00  0.00    +0.000 A 
ATOM      5  C   UNL     1       8.523  -1.444   0.000  0.00  0.00    +0.000 A 
ATOM      6  C   UNL     1       7.809  -2.681   0.000  0.00  0.00    +0.000 A 
ATOM      7  C   UNL     1       8.523  -2.269   0.000  0.00  0.00    +0.000 A 
BRANCH   5   8
ATOM      8  C   UNL     1       9.238  -1.031   0.000  0.00  0.00    +0.000 C 
ATOM      9  C   UNL     1       9.952  -1.444   0.000  0.00  0.00    +0.000 C 
BRANCH   9  12
ATOM     10 CL   UNL     1      14.294  -1.464   0.000  0.00  0.00    +0.000 Cl
ATOM     11  N   UNL     1      11.381  -1.444   0.000  0.00  0.00    +0.000 NA
ATOM     12  C   UNL     1      10.667  -1.031   0.000  0.00  0.00    +0.000 A 
ATOM     13  C   UNL     1      10.667  -0.206   0.000  0.00  0.00    +0.000 A 
ATOM     14  C   UNL     1      12.096  -1.031   0.000  0.00  0.00    +0.000 A 
ATOM     15  C   UNL     1      11.381   0.206   0.000  0.00  0.00    +0.000 A 
ATOM     16  C   UNL     1      12.096  -0.206   0.000  0.00  0.00    +0.000 A 
ATOM     17  C   UNL     1      12.833  -1.472   0.000  0.00  0.00    +0.000 A 
ATOM     18  C   UNL     1      12.833   0.235   0.000  0.00  0.00    +0.000 A 
ATOM     19  C   UNL     1      13.581  -1.048   0.000  0.00  0.00    +0.000 A 
ATOM     20  C   UNL     1      13.581  -0.189   0.000  0.00  0.00    +0.000 A 
ENDBRANCH   9  12
ENDBRANCH   5   8
ENDBRANCH   1   2
BRANCH   1  21
ATOM     21  C   UNL     1       6.380  -0.206   0.000  0.00  0.00    +0.000 C 
BRANCH  21  22
ATOM     22  C   UNL     1       5.665   0.206   0.000  0.00  0.00    +0.000 C 
BRANCH  22  23
ATOM     23  C   UNL     1       5.665   1.031   0.000  0.00  0.00    +0.000 A 
ATOM     24  C   UNL     1       4.951   1.444   0.000  0.00  0.00    +0.000 A 
ATOM     25  C   UNL     1       6.380   1.444   0.000  0.00  0.00    +0.000 A 
ATOM     26  C   UNL     1       4.951   2.269   0.000  0.00  0.00    +0.000 A 
ATOM     27  C   UNL     1       6.380   2.269   0.000  0.00  0.00    +0.000 A 
ATOM     28  C   UNL     1       5.665   2.681   0.000  0.00  0.00    +0.000 A 
BRANCH  24  30
ATOM     29  O   UNL     1       3.522   0.619   0.000  0.00  0.00    +0.000 OA
ATOM     30  C   UNL     1       4.237   1.031   0.000  0.00  0.00    +0.000 C 
ATOM     31  C   UNL     1       3.824   1.746   0.000  0.00  0.00    +0.000 C 
ATOM     32  C   UNL     1       4.649   0.317   0.000  0.00  0.00    +0.000 C 
ENDBRANCH  24  30
ENDBRANCH  22  23
ENDBRANCH  21  22
ENDBRANCH   1  21
BRANCH   1  33
ATOM     33  S   UNL     1       5.665  -1.444   0.000  0.00  0.00    +0.000 S 
BRANCH  33  34
ATOM     34  C   UNL     1       4.951  -1.031   0.000  0.00  0.00    +0.000 C 
BRANCH  34  35
ATOM     35  C   UNL     1       4.237  -1.444   0.000  0.00  0.00    +0.000 C 
ATOM     36  C   UNL     1       3.824  -2.158   0.000  0.00  0.00    +0.000 C 
ATOM     37  C   UNL     1       4.649  -2.158   0.000  0.00  0.00    +0.000 C 
BRANCH  35  38
ATOM     38  C   UNL     1       3.522  -1.031   0.000  0.00  0.00    +0.000 C 
BRANCH  38  41
ATOM     39  O   UNL     1       2.093  -1.031   0.000  0.00  0.00    +0.000 OA
ATOM     40  O   UNL     1       2.808  -2.269   0.000  0.00  0.00    +0.000 OA
ATOM     41  C   UNL     1       2.808  -1.444   0.000  0.00  0.00    +0.000 C 
ENDBRANCH  38  41
ENDBRANCH  35  38
ENDBRANCH  34  35
ENDBRANCH  33  34
ENDBRANCH   1  33
TORSDOF 12
