REMARK  Name = 472
REMARK  7 active torsions:
REMARK  status: ('A' for Active; 'I' for Inactive)
REMARK    1  A    between atoms: O_4  and  C_6
REMARK    2  A    between atoms: O_4  and  C_12
REMARK    3  A    between atoms: N_5  and  C_9
REMARK    4  A    between atoms: C_6  and  C_7
REMARK    5  A    between atoms: C_6  and  C_8
REMARK    6  A    between atoms: C_7  and  C_9
REMARK    7  A    between atoms: C_17  and  C_22
REMARK                            x       y       z     vdW  Elec       q    Type
REMARK                         _______ _______ _______ _____ _____    ______ ____
ROOT
ATOM      1  O   UNL     1       5.222  -0.619   0.000  0.00  0.00    +0.000 OA
ENDROOT
BRANCH   1   2
ATOM      2  C   UNL     1       5.222   0.206   0.000  0.00  0.00    +0.000 A 
ATOM      3  C   UNL     1       5.937   0.619   0.000  0.00  0.00    +0.000 A 
ATOM      4  C   UNL     1       4.508   0.619   0.000  0.00  0.00    +0.000 A 
ATOM      5  C   UNL     1       5.222   1.856   0.000  0.00  0.00    +0.000 A 
ATOM      6  C   UNL     1       5.937   1.444   0.000  0.00  0.00    +0.000 A 
ATOM      7  C   UNL     1       4.508   1.444   0.000  0.00  0.00    +0.000 A 
BRANCH   5  11
ATOM      8  F   UNL     1       4.397   2.681   0.000  0.00  0.00    +0.000 F 
ATOM      9  F   UNL     1       6.048   2.681   0.000  0.00  0.00    +0.000 F 
ATOM     10  F   UNL     1       5.222   3.506   0.000  0.00  0.00    +0.000 F 
ATOM     11  C   UNL     1       5.222   2.681   0.000  0.00  0.00    +0.000 C 
ENDBRANCH   5  11
ENDBRANCH   1   2
BRANCH   1  12
ATOM     12  C   UNL     1       4.508  -1.031   0.000  0.00  0.00    +0.000 C 
BRANCH  12  13
ATOM     13  C   UNL     1       4.508  -1.856   0.000  0.00  0.00    +0.000 A 
ATOM     14  C   UNL     1       5.222  -2.269   0.000  0.00  0.00    +0.000 A 
ATOM     15  C   UNL     1       3.793  -2.269   0.000  0.00  0.00    +0.000 A 
ATOM     16  C   UNL     1       5.222  -3.094   0.000  0.00  0.00    +0.000 A 
ATOM     17  C   UNL     1       3.793  -3.094   0.000  0.00  0.00    +0.000 A 
ATOM     18  C   UNL     1       4.508  -3.506   0.000  0.00  0.00    +0.000 A 
ENDBRANCH  12  13
BRANCH  12  19
ATOM     19  C   UNL     1       3.793  -0.619   0.000  0.00  0.00    +0.000 C 
BRANCH  19  20
ATOM     20  C   UNL     1       3.079  -1.031   0.000  0.00  0.00    +0.000 C 
BRANCH  20  21
ATOM     21  N   UNL     1       2.365  -0.619   0.000  0.00  0.00    +0.000 NA
ATOM     22  C   UNL     1       1.650  -1.031   0.000  0.00  0.00    +0.000 C 
ENDBRANCH  20  21
ENDBRANCH  19  20
ENDBRANCH  12  19
ENDBRANCH   1  12
TORSDOF 7
