REMARK  Name = 473
REMARK  6 active torsions:
REMARK  status: ('A' for Active; 'I' for Inactive)
REMARK    1  A    between atoms: O_1  and  C_11
REMARK    2  A    between atoms: O_1  and  C_13
REMARK    3  A    between atoms: N_3  and  C_4
REMARK    4  A    between atoms: N_3  and  C_10
REMARK    5  A    between atoms: C_10  and  C_11
REMARK    6  A    between atoms: C_13  and  C_14
REMARK                            x       y       z     vdW  Elec       q    Type
REMARK                         _______ _______ _______ _____ _____    ______ ____
ROOT
ATOM      1  C   UNL     1       3.079   0.412   0.000  0.00  0.00    +0.000 C 
ATOM      2  C   UNL     1       2.364   0.825   0.000  0.00  0.00    +0.000 C 
ENDROOT
BRANCH   1   3
ATOM      3  C   UNL     1       3.793   0.825   0.000  0.00  0.00    +0.000 C 
BRANCH   3   4
ATOM      4  N   UNL     1       3.793   1.650   0.000  0.00  0.00    +0.000 NA
BRANCH   4   5
ATOM      5  C   UNL     1       4.508   2.062   0.000  0.00  0.00    +0.000 C 
ATOM      6  C   UNL     1       5.222   1.650   0.000  0.00  0.00    +0.000 C 
ATOM      7  C   UNL     1       4.508   2.887   0.000  0.00  0.00    +0.000 C 
ATOM      8  C   UNL     1       5.936   2.062   0.000  0.00  0.00    +0.000 C 
ATOM      9  C   UNL     1       5.222   3.300   0.000  0.00  0.00    +0.000 C 
ATOM     10  C   UNL     1       5.936   2.887   0.000  0.00  0.00    +0.000 C 
ENDBRANCH   4   5
ENDBRANCH   3   4
ENDBRANCH   1   3
BRANCH   1  11
ATOM     11  O   UNL     1       3.079  -0.412   0.000  0.00  0.00    +0.000 OA
BRANCH  11  13
ATOM     12  O   UNL     1       1.650  -0.412   0.000  0.00  0.00    +0.000 OA
ATOM     13  C   UNL     1       2.364  -0.825   0.000  0.00  0.00    +0.000 C 
BRANCH  13  14
ATOM     14  C   UNL     1       2.364  -1.650   0.000  0.00  0.00    +0.000 A 
ATOM     15  C   UNL     1       3.079  -2.062   0.000  0.00  0.00    +0.000 A 
ATOM     16  C   UNL     1       1.650  -2.062   0.000  0.00  0.00    +0.000 A 
ATOM     17  C   UNL     1       3.079  -2.887   0.000  0.00  0.00    +0.000 A 
ATOM     18  C   UNL     1       1.650  -2.887   0.000  0.00  0.00    +0.000 A 
ATOM     19  C   UNL     1       2.364  -3.300   0.000  0.00  0.00    +0.000 A 
ENDBRANCH  13  14
ENDBRANCH  11  13
ENDBRANCH   1  11
TORSDOF 6
