REMARK  Name = 474
REMARK  5 active torsions:
REMARK  status: ('A' for Active; 'I' for Inactive)
REMARK    1  A    between atoms: C_1  and  C_2
REMARK    2  A    between atoms: C_1  and  C_5
REMARK    3  A    between atoms: C_1  and  C_20
REMARK    4  A    between atoms: C_2  and  C_3
REMARK    5  A    between atoms: C_17  and  C_26
REMARK                            x       y       z     vdW  Elec       q    Type
REMARK                         _______ _______ _______ _____ _____    ______ ____
ROOT
ATOM      1  C   UNL     1      -0.326  -0.739   0.000  0.00  0.00    +0.000 C 
ENDROOT
BRANCH   1   5
ATOM      2  C   UNL     1       0.912   1.405   0.000  0.00  0.00    +0.000 C 
ATOM      3  C   UNL     1       1.324   0.690   0.000  0.00  0.00    +0.000 C 
ATOM      4  C   UNL     1       0.912  -0.024   0.000  0.00  0.00    +0.000 C 
ATOM      5  C   UNL     1       0.087  -0.024   0.000  0.00  0.00    +0.000 C 
ATOM      6  C   UNL     1      -0.326   0.690   0.000  0.00  0.00    +0.000 C 
ATOM      7  C   UNL     1       0.087   1.405   0.000  0.00  0.00    +0.000 C 
BRANCH   2  11
ATOM      8  C   UNL     1       2.149   3.548   0.000  0.00  0.00    +0.000 A 
ATOM      9  C   UNL     1       1.324   3.548   0.000  0.00  0.00    +0.000 A 
ATOM     10  C   UNL     1       0.912   2.833   0.000  0.00  0.00    +0.000 A 
ATOM     11  C   UNL     1       1.324   2.119   0.000  0.00  0.00    +0.000 A 
ATOM     12  C   UNL     1       2.149   2.119   0.000  0.00  0.00    +0.000 A 
ATOM     13  N   UNL     1       2.562   2.833   0.000  0.00  0.00    +0.000 N 
ATOM     14  N   UNL     1       3.369   3.005   0.000  0.00  0.00    +0.000 NA
ATOM     15  C   UNL     1       3.455   3.825   0.000  0.00  0.00    +0.000 A 
ATOM     16  N   UNL     1       2.701   4.161   0.000  0.00  0.00    +0.000 NA
ENDBRANCH   2  11
ENDBRANCH   1   5
BRANCH   1  17
ATOM     17  C   UNL     1       0.087  -1.453   0.000  0.00  0.00    +0.000 C 
ATOM     18  O   UNL     1      -0.326  -2.168   0.000  0.00  0.00    +0.000 OA
ATOM     19  N   UNL     1       0.912  -1.453   0.000  0.00  0.00    +0.000 N 
ATOM     20  C   UNL     1       1.324  -0.739   0.000  0.00  0.00    +0.000 C 
ATOM     21  C   UNL     1       1.324  -2.168   0.000  0.00  0.00    +0.000 C 
ENDBRANCH   1  17
BRANCH   1  22
ATOM     22  C   UNL     1      -1.151  -0.739   0.000  0.00  0.00    +0.000 C 
ATOM     23  N   UNL     1      -1.563  -0.024   0.000  0.00  0.00    +0.000 NA
BRANCH  22  24
ATOM     24  C   UNL     1      -1.563  -1.453   0.000  0.00  0.00    +0.000 C 
ATOM     25  N   UNL     1      -2.388  -1.453   0.000  0.00  0.00    +0.000 N 
ATOM     26  O   UNL     1      -1.151  -2.168   0.000  0.00  0.00    +0.000 OA
ATOM     27  C   UNL     1      -2.873  -0.786   0.000  0.00  0.00    +0.000 C 
ATOM     28  C   UNL     1      -3.658  -1.041   0.000  0.00  0.00    +0.000 C 
ATOM     29  C   UNL     1      -3.658  -1.866   0.000  0.00  0.00    +0.000 C 
ATOM     30  C   UNL     1      -2.873  -2.121   0.000  0.00  0.00    +0.000 C 
ATOM     31  F   UNL     1      -4.477  -0.946   0.000  0.00  0.00    +0.000 F 
ATOM     32  F   UNL     1      -4.001  -0.291   0.000  0.00  0.00    +0.000 F 
ENDBRANCH  22  24
ENDBRANCH   1  22
TORSDOF 5
