REMARK  Name = 474
REMARK  5 active torsions:
REMARK  status: ('A' for Active; 'I' for Inactive)
REMARK    1  A    between atoms: C_6  and  C_7
REMARK    2  A    between atoms: C_6  and  C_8
REMARK    3  A    between atoms: C_7  and  C_14
REMARK    4  A    between atoms: C_8  and  C_13
REMARK    5  A    between atoms: C_17  and  C_18
REMARK                            x       y       z     vdW  Elec       q    Type
REMARK                         _______ _______ _______ _____ _____    ______ ____
ROOT
ATOM      1  O   UNL     1       4.729  -0.549   0.000  0.00  0.00    +0.000 OA
ATOM      2  O   UNL     1       1.871  -0.549   0.000  0.00  0.00    +0.000 OA
ATOM      3  O   UNL     1       3.300  -3.024   0.000  0.00  0.00    +0.000 OA
ATOM      4  N   UNL     1       4.014  -1.786   0.000  0.00  0.00    +0.000 N 
ATOM      5  N   UNL     1       2.586  -1.786   0.000  0.00  0.00    +0.000 NA
ATOM      6  C   UNL     1       3.300  -0.549   0.000  0.00  0.00    +0.000 C 
ATOM      7  C   UNL     1       4.014  -0.961   0.000  0.00  0.00    +0.000 C 
ATOM      8  C   UNL     1       2.586  -0.961   0.000  0.00  0.00    +0.000 C 
ATOM      9  C   UNL     1       3.300  -2.199   0.000  0.00  0.00    +0.000 C 
ATOM     10  C   UNL     1       4.729  -2.199   0.000  0.00  0.00    +0.000 C 
ENDROOT
BRANCH   6  11
ATOM     11  C   UNL     1       3.713   0.166   0.000  0.00  0.00    +0.000 C 
ATOM     12  C   UNL     1       4.538   0.166   0.000  0.00  0.00    +0.000 C 
BRANCH  11  13
ATOM     13  C   UNL     1       3.300   0.880   0.000  0.00  0.00    +0.000 C 
ATOM     14  C   UNL     1       2.888   1.595   0.000  0.00  0.00    +0.000 C 
BRANCH  14  15
ATOM     15  C   UNL     1       2.475   2.309   0.000  0.00  0.00    +0.000 C 
ATOM     16  C   UNL     1       2.888   3.024   0.000  0.00  0.00    +0.000 C 
ENDBRANCH  14  15
ENDBRANCH  11  13
ENDBRANCH   6  11
BRANCH   6  17
ATOM     17  C   UNL     1       2.888   0.166   0.000  0.00  0.00    +0.000 C 
BRANCH  17  18
ATOM     18  C   UNL     1       2.062   0.166   0.000  0.00  0.00    +0.000 C 
ATOM     19  C   UNL     1       1.650   0.880   0.000  0.00  0.00    +0.000 C 
ENDBRANCH  17  18
ENDBRANCH   6  17
TORSDOF 5
