REMARK  Name = 476
REMARK  6 active torsions:
REMARK  status: ('A' for Active; 'I' for Inactive)
REMARK    1  A    between atoms: O_2  and  C_4
REMARK    2  A    between atoms: O_2  and  C_8
REMARK    3  A    between atoms: N_3  and  C_6
REMARK    4  A    between atoms: C_4  and  C_5
REMARK    5  A    between atoms: C_4  and  C_7
REMARK    6  A    between atoms: C_5  and  C_6
REMARK                            x       y       z     vdW  Elec       q    Type
REMARK                         _______ _______ _______ _____ _____    ______ ____
ROOT
ATOM      1  O   UNL     1       5.222   0.002   0.000  0.00  0.00    +0.000 OA
ENDROOT
BRANCH   1   2
ATOM      2  C   UNL     1       5.222   0.827   0.000  0.00  0.00    +0.000 A 
ATOM      3  C   UNL     1       5.937   1.239   0.000  0.00  0.00    +0.000 A 
ATOM      4  C   UNL     1       5.937   2.064   0.000  0.00  0.00    +0.000 A 
ATOM      5  C   UNL     1       4.508   1.239   0.000  0.00  0.00    +0.000 A 
ATOM      6  C   UNL     1       6.674   0.798   0.000  0.00  0.00    +0.000 A 
ATOM      7  C   UNL     1       5.222   2.477   0.000  0.00  0.00    +0.000 A 
ATOM      8  C   UNL     1       4.508   2.064   0.000  0.00  0.00    +0.000 A 
ATOM      9  C   UNL     1       6.674   2.505   0.000  0.00  0.00    +0.000 A 
ATOM     10  C   UNL     1       7.422   1.222   0.000  0.00  0.00    +0.000 A 
ATOM     11  C   UNL     1       7.422   2.081   0.000  0.00  0.00    +0.000 A 
ENDBRANCH   1   2
BRANCH   1  12
ATOM     12  C   UNL     1       4.508  -0.411   0.000  0.00  0.00    +0.000 C 
BRANCH  12  14
ATOM     13  S   UNL     1       5.175  -1.721   0.000  0.00  0.00    +0.000 S 
ATOM     14  C   UNL     1       4.508  -1.236   0.000  0.00  0.00    +0.000 A 
ATOM     15  C   UNL     1       3.841  -1.721   0.000  0.00  0.00    +0.000 A 
ATOM     16  C   UNL     1       4.095  -2.505   0.000  0.00  0.00    +0.000 A 
ATOM     17  C   UNL     1       4.920  -2.505   0.000  0.00  0.00    +0.000 A 
ENDBRANCH  12  14
BRANCH  12  18
ATOM     18  C   UNL     1       3.793   0.002   0.000  0.00  0.00    +0.000 C 
BRANCH  18  19
ATOM     19  C   UNL     1       3.079  -0.411   0.000  0.00  0.00    +0.000 C 
BRANCH  19  20
ATOM     20  N   UNL     1       2.364   0.002   0.000  0.00  0.00    +0.000 NA
ATOM     21  C   UNL     1       1.650  -0.411   0.000  0.00  0.00    +0.000 C 
ENDBRANCH  19  20
ENDBRANCH  18  19
ENDBRANCH  12  18
ENDBRANCH   1  12
TORSDOF 6
