REMARK  Name = 477
REMARK  4 active torsions:
REMARK  status: ('A' for Active; 'I' for Inactive)
REMARK    1  A    between atoms: N_3  and  C_5
REMARK    2  A    between atoms: N_4  and  C_7
REMARK    3  A    between atoms: C_5  and  C_6
REMARK    4  A    between atoms: C_6  and  C_7
REMARK                            x       y       z     vdW  Elec       q    Type
REMARK                         _______ _______ _______ _____ _____    ______ ____
ROOT
ATOM      1 CL   UNL     1       6.492  -0.759   0.000  0.00  0.00    +0.000 Cl
ATOM      2  S   UNL     1       3.696  -2.362   0.000  0.00  0.00    +0.000 S 
ATOM      3  N   UNL     1       3.696  -0.778   0.000  0.00  0.00    +0.000 N 
ATOM      4  C   UNL     1       4.382  -1.174   0.000  0.00  0.00    +0.000 A 
ATOM      5  C   UNL     1       3.010  -1.174   0.000  0.00  0.00    +0.000 A 
ATOM      6  C   UNL     1       4.382  -1.966   0.000  0.00  0.00    +0.000 A 
ATOM      7  C   UNL     1       3.010  -1.966   0.000  0.00  0.00    +0.000 A 
ATOM      8  C   UNL     1       5.090  -0.751   0.000  0.00  0.00    +0.000 A 
ATOM      9  C   UNL     1       2.302  -0.751   0.000  0.00  0.00    +0.000 A 
ATOM     10  C   UNL     1       5.090  -2.390   0.000  0.00  0.00    +0.000 A 
ATOM     11  C   UNL     1       2.302  -2.390   0.000  0.00  0.00    +0.000 A 
ATOM     12  C   UNL     1       5.808  -1.158   0.000  0.00  0.00    +0.000 A 
ATOM     13  C   UNL     1       1.584  -1.158   0.000  0.00  0.00    +0.000 A 
ATOM     14  C   UNL     1       5.808  -1.983   0.000  0.00  0.00    +0.000 A 
ATOM     15  C   UNL     1       1.584  -1.983   0.000  0.00  0.00    +0.000 A 
ENDROOT
BRANCH   3  16
ATOM     16  C   UNL     1       3.696   0.014   0.000  0.00  0.00    +0.000 C 
BRANCH  16  17
ATOM     17  C   UNL     1       3.010   0.410   0.000  0.00  0.00    +0.000 C 
BRANCH  17  18
ATOM     18  C   UNL     1       3.010   1.202   0.000  0.00  0.00    +0.000 C 
BRANCH  18  19
ATOM     19  N   UNL     1       2.324   1.598   0.000  0.00  0.00    +0.000 NA
ATOM     20  C   UNL     1       1.638   1.202   0.000  0.00  0.00    +0.000 C 
ATOM     21  C   UNL     1       2.324   2.390   0.000  0.00  0.00    +0.000 C 
ENDBRANCH  18  19
ENDBRANCH  17  18
ENDBRANCH  16  17
ENDBRANCH   3  16
TORSDOF 4
