REMARK  Name = 478
REMARK  1 active torsions:
REMARK  status: ('A' for Active; 'I' for Inactive)
REMARK    1  A    between atoms: C_2  and  C_12
REMARK                            x       y       z     vdW  Elec       q    Type
REMARK                         _______ _______ _______ _____ _____    ______ ____
ROOT
ATOM      1  C   UNL     1       3.082   0.101   0.000  0.00  0.00    +0.000 C 
ATOM      2  C   UNL     1       2.381  -1.115   0.000  0.00  0.00    +0.000 C 
ATOM      3  C   UNL     1       2.502  -1.480   0.000  0.00  0.00    +0.000 C 
ATOM      4  C   UNL     1       3.784  -1.115   0.000  0.00  0.00    +0.000 C 
ATOM      5  C   UNL     1       2.381  -0.304   0.000  0.00  0.00    +0.000 C 
ATOM      6  C   UNL     1       2.502  -0.603   0.000  0.00  0.00    +0.000 C 
ATOM      7  C   UNL     1       3.784  -0.304   0.000  0.00  0.00    +0.000 C 
ATOM      8  C   UNL     1       1.678  -1.520   0.000  0.00  0.00    +0.000 C 
ATOM      9  C   UNL     1       3.082  -1.369   0.000  0.00  0.00    +0.000 C 
ATOM     10  C   UNL     1       3.262  -1.880   0.000  0.00  0.00    +0.000 C 
ENDROOT
BRANCH   1  12
ATOM     11  N   UNL     1       3.809   1.359   0.000  0.00  0.00    +0.000 NA
ATOM     12  C   UNL     1       3.082   0.940   0.000  0.00  0.00    +0.000 C 
ATOM     13  C   UNL     1       2.356   1.359   0.000  0.00  0.00    +0.000 C 
ENDBRANCH   1  12
TORSDOF 1
