REMARK  Name = 47D
REMARK  4 active torsions:
REMARK  status: ('A' for Active; 'I' for Inactive)
REMARK    1  A    between atoms: C_3  and  C_4
REMARK    2  A    between atoms: C_4  and  N_5
REMARK    3  A    between atoms: N_8  and  C_9
REMARK    4  A    between atoms: C_9  and  C_10
REMARK                            x       y       z     vdW  Elec       q    Type
REMARK                         _______ _______ _______ _____ _____    ______ ____
ROOT
ATOM      1  N   UNL     1       0.435   1.548   0.000  0.00  0.00    +0.000 N 
ATOM      2  C   UNL     1      -0.390   1.548   0.000  0.00  0.00    +0.000 A 
ATOM      3  O   UNL     1      -0.803   2.263   0.000  0.00  0.00    +0.000 OA
ATOM      4  N   UNL     1      -0.803   0.834   0.000  0.00  0.00    +0.000 N 
ATOM      5  C   UNL     1      -0.390   0.119   0.000  0.00  0.00    +0.000 A 
ATOM      6  C   UNL     1       0.435   0.119   0.000  0.00  0.00    +0.000 A 
ATOM      7  C   UNL     1       0.847   0.834   0.000  0.00  0.00    +0.000 A 
ATOM      8  O   UNL     1       1.672   0.834   0.000  0.00  0.00    +0.000 OA
ENDROOT
BRANCH   1   9
ATOM      9  C   UNL     1       0.847   2.263   0.000  0.00  0.00    +0.000 C 
BRANCH   9  12
ATOM     10  C   UNL     1       2.942   2.675   0.000  0.00  0.00    +0.000 A 
ATOM     11  N   UNL     1       2.157   2.930   0.000  0.00  0.00    +0.000 NA
ATOM     12  C   UNL     1       1.672   2.263   0.000  0.00  0.00    +0.000 A 
ATOM     13  S   UNL     1       2.157   1.595   0.000  0.00  0.00    +0.000 S 
ATOM     14  C   UNL     1       2.942   1.850   0.000  0.00  0.00    +0.000 A 
ATOM     15  C   UNL     1       3.656   1.438   0.000  0.00  0.00    +0.000 A 
ATOM     16  C   UNL     1       4.371   1.850   0.000  0.00  0.00    +0.000 A 
ATOM     17  C   UNL     1       4.371   2.675   0.000  0.00  0.00    +0.000 A 
ATOM     18 CL   UNL     1       5.085   3.088   0.000  0.00  0.00    +0.000 Cl
ATOM     19  C   UNL     1       3.656   3.088   0.000  0.00  0.00    +0.000 A 
ENDBRANCH   9  12
ENDBRANCH   1   9
BRANCH   4  20
ATOM     20  C   UNL     1      -1.628   0.834   0.000  0.00  0.00    +0.000 C 
BRANCH  20  21
ATOM     21  C   UNL     1      -2.040   0.119   0.000  0.00  0.00    +0.000 C 
ATOM     22  O   UNL     1      -2.865   0.119   0.000  0.00  0.00    +0.000 OA
ATOM     23  O   UNL     1      -1.628  -0.595   0.000  0.00  0.00    +0.000 OA
ENDBRANCH  20  21
ENDBRANCH   4  20
TORSDOF 4
