REMARK  Name = 481
REMARK  7 active torsions:
REMARK  status: ('A' for Active; 'I' for Inactive)
REMARK    1  A    between atoms: O_2  and  C_13
REMARK    2  A    between atoms: O_2  and  C_14
REMARK    3  A    between atoms: N_6  and  C_12
REMARK    4  A    between atoms: C_12  and  C_13
REMARK    5  A    between atoms: C_15  and  C_20
REMARK    6  A    between atoms: C_17  and  C_25
REMARK    7  A    between atoms: C_19  and  C_20
REMARK                            x       y       z     vdW  Elec       q    Type
REMARK                         _______ _______ _______ _____ _____    ______ ____
ROOT
ATOM      1  S   UNL     1       4.574  -3.823   0.000  0.00  0.00    +0.000 S 
ATOM      2  O   UNL     1       1.650  -3.984   0.000  0.00  0.00    +0.000 OA
ATOM      3  C   UNL     1       4.574  -2.495   0.000  0.00  0.00    +0.000 A 
ATOM      4  C   UNL     1       3.793  -2.747   0.000  0.00  0.00    +0.000 A 
ATOM      5  C   UNL     1       5.056  -3.159   0.000  0.00  0.00    +0.000 A 
ATOM      6  C   UNL     1       3.793  -3.572   0.000  0.00  0.00    +0.000 A 
ATOM      7  C   UNL     1       3.079  -2.334   0.000  0.00  0.00    +0.000 A 
ATOM      8  C   UNL     1       3.079  -3.984   0.000  0.00  0.00    +0.000 A 
ATOM      9  C   UNL     1       2.365  -2.747   0.000  0.00  0.00    +0.000 A 
ATOM     10  C   UNL     1       2.365  -3.572   0.000  0.00  0.00    +0.000 A 
ENDROOT
BRANCH   5  12
ATOM     11  O   UNL     1       8.356  -3.159   0.000  0.00  0.00    +0.000 OA
ATOM     12  C   UNL     1       5.881  -3.159   0.000  0.00  0.00    +0.000 A 
ATOM     13  C   UNL     1       6.293  -2.445   0.000  0.00  0.00    +0.000 A 
ATOM     14  C   UNL     1       6.293  -3.874   0.000  0.00  0.00    +0.000 A 
ATOM     15  C   UNL     1       7.118  -2.445   0.000  0.00  0.00    +0.000 A 
ATOM     16  C   UNL     1       7.118  -3.874   0.000  0.00  0.00    +0.000 A 
ATOM     17  C   UNL     1       7.531  -3.159   0.000  0.00  0.00    +0.000 A 
ENDBRANCH   5  12
BRANCH   3  19
ATOM     18  O   UNL     1       5.638  -1.541   0.000  0.00  0.00    +0.000 OA
ATOM     19  C   UNL     1       4.830  -1.711   0.000  0.00  0.00    +0.000 C 
BRANCH  19  21
ATOM     20  C   UNL     1       3.178   0.131   0.000  0.00  0.00    +0.000 A 
ATOM     21  C   UNL     1       4.279  -1.097   0.000  0.00  0.00    +0.000 A 
ATOM     22  C   UNL     1       2.921  -0.653   0.000  0.00  0.00    +0.000 A 
ATOM     23  C   UNL     1       3.985   0.301   0.000  0.00  0.00    +0.000 A 
ATOM     24  C   UNL     1       3.472  -1.267   0.000  0.00  0.00    +0.000 A 
ATOM     25  C   UNL     1       4.536  -0.313   0.000  0.00  0.00    +0.000 A 
BRANCH  20  26
ATOM     26  O   UNL     1       2.627   0.745   0.000  0.00  0.00    +0.000 OA
BRANCH  26  27
ATOM     27  C   UNL     1       2.883   1.529   0.000  0.00  0.00    +0.000 C 
BRANCH  27  28
ATOM     28  C   UNL     1       2.332   2.143   0.000  0.00  0.00    +0.000 C 
BRANCH  28  29
ATOM     29  N   UNL     1       2.588   2.928   0.000  0.00  0.00    +0.000 NA
ATOM     30  C   UNL     1       3.395   3.098   0.000  0.00  0.00    +0.000 C 
ATOM     31  C   UNL     1       2.037   3.542   0.000  0.00  0.00    +0.000 C 
ATOM     32  C   UNL     1       3.652   3.882   0.000  0.00  0.00    +0.000 C 
ATOM     33  C   UNL     1       2.293   4.326   0.000  0.00  0.00    +0.000 C 
ATOM     34  C   UNL     1       3.101   4.496   0.000  0.00  0.00    +0.000 C 
ENDBRANCH  28  29
ENDBRANCH  27  28
ENDBRANCH  26  27
ENDBRANCH  20  26
ENDBRANCH  19  21
ENDBRANCH   3  19
TORSDOF 7
