REMARK  Name = 4812
REMARK  3 active torsions:
REMARK  status: ('A' for Active; 'I' for Inactive)
REMARK    1  A    between atoms: C_6  and  C_7
REMARK    2  A    between atoms: C_6  and  C_16
REMARK    3  A    between atoms: C_14  and  C_15
REMARK                            x       y       z     vdW  Elec       q    Type
REMARK                         _______ _______ _______ _____ _____    ______ ____
ROOT
ATOM      1  O   UNL     1       6.446  -1.076   0.000  0.00  0.00    +0.000 OA
ATOM      2  N   UNL     1       6.446   0.251   0.000  0.00  0.00    +0.000 NA
ATOM      3  C   UNL     1       4.237   0.000   0.000  0.00  0.00    +0.000 A 
ATOM      4  C   UNL     1       5.665   0.000   0.000  0.00  0.00    +0.000 A 
ATOM      5  C   UNL     1       4.951   0.412   0.000  0.00  0.00    +0.000 A 
ATOM      6  C   UNL     1       5.665  -0.825   0.000  0.00  0.00    +0.000 A 
ATOM      7  C   UNL     1       4.237  -0.825   0.000  0.00  0.00    +0.000 A 
ATOM      8  C   UNL     1       4.951  -1.238   0.000  0.00  0.00    +0.000 A 
ATOM      9  C   UNL     1       6.928  -0.412   0.000  0.00  0.00    +0.000 A 
ENDROOT
BRANCH   9  11
ATOM     10 CL   UNL     1      10.228  -0.412   0.000  0.00  0.00    +0.000 Cl
ATOM     11  C   UNL     1       7.753  -0.412   0.000  0.00  0.00    +0.000 A 
ATOM     12  C   UNL     1       8.165   0.302   0.000  0.00  0.00    +0.000 A 
ATOM     13  C   UNL     1       8.165  -1.127   0.000  0.00  0.00    +0.000 A 
ATOM     14  C   UNL     1       8.990   0.302   0.000  0.00  0.00    +0.000 A 
ATOM     15  C   UNL     1       8.990  -1.127   0.000  0.00  0.00    +0.000 A 
ATOM     16  C   UNL     1       9.403  -0.412   0.000  0.00  0.00    +0.000 A 
ENDBRANCH   9  11
BRANCH   3  17
ATOM     17  C   UNL     1       3.522   0.412   0.000  0.00  0.00    +0.000 C 
ATOM     18  C   UNL     1       3.522   1.238   0.000  0.00  0.00    +0.000 C 
BRANCH  17  21
ATOM     19  O   UNL     1       2.093   0.412   0.000  0.00  0.00    +0.000 OA
ATOM     20  O   UNL     1       2.808  -0.825   0.000  0.00  0.00    +0.000 OA
ATOM     21  C   UNL     1       2.808   0.000   0.000  0.00  0.00    +0.000 C 
ENDBRANCH  17  21
ENDBRANCH   3  17
TORSDOF 3
