REMARK  Name = 4813
REMARK  2 active torsions:
REMARK  status: ('A' for Active; 'I' for Inactive)
REMARK    1  A    between atoms: S_5  and  C_8
REMARK    2  A    between atoms: S_5  and  C_9
REMARK                            x       y       z     vdW  Elec       q    Type
REMARK                         _______ _______ _______ _____ _____    ______ ____
ROOT
ATOM      1  S   UNL     1       3.522   0.000   0.000  0.00  0.00    +0.000 S 
ENDROOT
BRANCH   1   5
ATOM      2 CL   UNL     1       4.951   2.475   0.000  0.00  0.00    +0.000 Cl
ATOM      3 CL   UNL     1       6.380   0.000   0.000  0.00  0.00    +0.000 Cl
ATOM      4  O   UNL     1       3.522   1.650   0.000  0.00  0.00    +0.000 OA
ATOM      5  C   UNL     1       4.237   0.412   0.000  0.00  0.00    +0.000 A 
ATOM      6  C   UNL     1       4.237   1.238   0.000  0.00  0.00    +0.000 A 
ATOM      7  C   UNL     1       4.951   0.000   0.000  0.00  0.00    +0.000 A 
ATOM      8  C   UNL     1       4.951   1.650   0.000  0.00  0.00    +0.000 A 
ATOM      9  C   UNL     1       5.665   0.412   0.000  0.00  0.00    +0.000 A 
ATOM     10  C   UNL     1       5.665   1.238   0.000  0.00  0.00    +0.000 A 
ENDBRANCH   1   5
BRANCH   1  14
ATOM     11 CL   UNL     1       2.093  -2.475   0.000  0.00  0.00    +0.000 Cl
ATOM     12 CL   UNL     1       4.951  -2.475   0.000  0.00  0.00    +0.000 Cl
ATOM     13  O   UNL     1       2.093  -0.825   0.000  0.00  0.00    +0.000 OA
ATOM     14  C   UNL     1       3.522  -0.825   0.000  0.00  0.00    +0.000 A 
ATOM     15  C   UNL     1       2.808  -1.238   0.000  0.00  0.00    +0.000 A 
ATOM     16  C   UNL     1       4.237  -1.238   0.000  0.00  0.00    +0.000 A 
ATOM     17  C   UNL     1       2.808  -2.062   0.000  0.00  0.00    +0.000 A 
ATOM     18  C   UNL     1       4.237  -2.062   0.000  0.00  0.00    +0.000 A 
ATOM     19  C   UNL     1       3.522  -2.475   0.000  0.00  0.00    +0.000 A 
ENDBRANCH   1  14
TORSDOF 2
