REMARK  Name = 4814
REMARK  6 active torsions:
REMARK  status: ('A' for Active; 'I' for Inactive)
REMARK    1  A    between atoms: N_7  and  C_9
REMARK    2  A    between atoms: C_8  and  C_11
REMARK    3  A    between atoms: C_8  and  C_13
REMARK    4  A    between atoms: C_10  and  C_14
REMARK    5  A    between atoms: C_15  and  C_18
REMARK    6  A    between atoms: C_15  and  C_22
REMARK                            x       y       z     vdW  Elec       q    Type
REMARK                         _______ _______ _______ _____ _____    ______ ____
ROOT
ATOM      1  I   UNL     1       3.079   0.569   0.000  0.00  0.00    +0.000 I 
ATOM      2  I   UNL     1       4.508  -1.906   0.000  0.00  0.00    +0.000 I 
ATOM      3  I   UNL     1       5.937   0.569   0.000  0.00  0.00    +0.000 I 
ATOM      4  C   UNL     1       3.793  -0.668   0.000  0.00  0.00    +0.000 A 
ATOM      5  C   UNL     1       4.508   0.569   0.000  0.00  0.00    +0.000 A 
ATOM      6  C   UNL     1       3.793   0.157   0.000  0.00  0.00    +0.000 A 
ATOM      7  C   UNL     1       4.508  -1.081   0.000  0.00  0.00    +0.000 A 
ATOM      8  C   UNL     1       5.222   0.157   0.000  0.00  0.00    +0.000 A 
ATOM      9  C   UNL     1       5.222  -0.668   0.000  0.00  0.00    +0.000 A 
ENDROOT
BRANCH   4  11
ATOM     10  O   UNL     1       3.793  -2.318   0.000  0.00  0.00    +0.000 OA
ATOM     11  N   UNL     1       3.079  -1.081   0.000  0.00  0.00    +0.000 NA
ATOM     12  C   UNL     1       3.079  -1.906   0.000  0.00  0.00    +0.000 C 
BRANCH  12  13
ATOM     13  C   UNL     1       2.365  -2.318   0.000  0.00  0.00    +0.000 C 
BRANCH  13  14
ATOM     14  C   UNL     1       2.365  -3.143   0.000  0.00  0.00    +0.000 C 
ATOM     15  C   UNL     1       1.650  -3.556   0.000  0.00  0.00    +0.000 C 
ENDBRANCH  13  14
ENDBRANCH  12  13
ENDBRANCH   4  11
BRANCH   5  16
ATOM     16  C   UNL     1       4.508   1.394   0.000  0.00  0.00    +0.000 C 
ATOM     17  C   UNL     1       5.222   1.807   0.000  0.00  0.00    +0.000 C 
BRANCH  17  20
ATOM     18  O   UNL     1       5.937   3.044   0.000  0.00  0.00    +0.000 OA
ATOM     19  O   UNL     1       4.508   3.044   0.000  0.00  0.00    +0.000 OA
ATOM     20  C   UNL     1       5.222   2.632   0.000  0.00  0.00    +0.000 C 
ENDBRANCH  17  20
BRANCH  17  21
ATOM     21  C   UNL     1       5.937   1.394   0.000  0.00  0.00    +0.000 C 
ATOM     22  C   UNL     1       6.652   1.807   0.000  0.00  0.00    +0.000 C 
ENDBRANCH  17  21
ENDBRANCH   5  16
TORSDOF 6
