REMARK  Name = 4816
REMARK  0 active torsions:
REMARK  status: ('A' for Active; 'I' for Inactive)
REMARK                            x       y       z     vdW  Elec       q    Type
REMARK                         _______ _______ _______ _____ _____    ______ ____
ROOT
ATOM      1  O   UNL     1       3.696   1.445   0.000  0.00  0.00    +0.000 OA
ATOM      2  O   UNL     1       3.696  -1.723   0.000  0.00  0.00    +0.000 OA
ATOM      3  O   UNL     1       5.080   1.473   0.000  0.00  0.00    +0.000 OA
ATOM      4  O   UNL     1       2.311   1.473   0.000  0.00  0.00    +0.000 OA
ATOM      5  C   UNL     1       4.382   0.257   0.000  0.00  0.00    +0.000 A 
ATOM      6  C   UNL     1       3.010   0.257   0.000  0.00  0.00    +0.000 A 
ATOM      7  C   UNL     1       4.382  -0.535   0.000  0.00  0.00    +0.000 A 
ATOM      8  C   UNL     1       3.010  -0.535   0.000  0.00  0.00    +0.000 A 
ATOM      9  C   UNL     1       3.696   0.653   0.000  0.00  0.00    +0.000 C 
ATOM     10  C   UNL     1       3.696  -0.931   0.000  0.00  0.00    +0.000 C 
ATOM     11  C   UNL     1       5.090   0.681   0.000  0.00  0.00    +0.000 A 
ATOM     12  C   UNL     1       2.302   0.681   0.000  0.00  0.00    +0.000 A 
ATOM     13  C   UNL     1       5.090  -0.959   0.000  0.00  0.00    +0.000 A 
ATOM     14  C   UNL     1       2.302  -0.959   0.000  0.00  0.00    +0.000 A 
ATOM     15  C   UNL     1       5.807   0.274   0.000  0.00  0.00    +0.000 A 
ATOM     16  C   UNL     1       1.584   0.274   0.000  0.00  0.00    +0.000 A 
ATOM     17  C   UNL     1       5.807  -0.551   0.000  0.00  0.00    +0.000 A 
ATOM     18  C   UNL     1       1.584  -0.551   0.000  0.00  0.00    +0.000 A 
ENDROOT
TORSDOF 0
