REMARK  Name = 482
REMARK  4 active torsions:
REMARK  status: ('A' for Active; 'I' for Inactive)
REMARK    1  A    between atoms: S_1  and  C_17
REMARK    2  A    between atoms: N_7  and  C_11
REMARK    3  A    between atoms: C_10  and  C_12
REMARK    4  A    between atoms: C_14  and  C_25
REMARK                            x       y       z     vdW  Elec       q    Type
REMARK                         _______ _______ _______ _____ _____    ______ ____
ROOT
ATOM      1  N   UNL     1       3.215   0.888   0.000  0.00  0.00    +0.000 N 
ATOM      2  N   UNL     1       2.547   1.373   0.000  0.00  0.00    +0.000 NA
ATOM      3  C   UNL     1       3.882   1.373   0.000  0.00  0.00    +0.000 A 
ATOM      4  C   UNL     1       3.627   2.158   0.000  0.00  0.00    +0.000 A 
ATOM      5  C   UNL     1       2.802   2.158   0.000  0.00  0.00    +0.000 A 
ENDROOT
BRANCH   3   6
ATOM      6  C   UNL     1       4.667   1.118   0.000  0.00  0.00    +0.000 A 
ATOM      7  C   UNL     1       4.839   0.311   0.000  0.00  0.00    +0.000 A 
ATOM      8  C   UNL     1       5.280   1.670   0.000  0.00  0.00    +0.000 A 
ATOM      9  C   UNL     1       6.236   0.608   0.000  0.00  0.00    +0.000 A 
ATOM     10  C   UNL     1       5.623   0.056   0.000  0.00  0.00    +0.000 A 
ATOM     11  C   UNL     1       6.065   1.415   0.000  0.00  0.00    +0.000 A 
ATOM     12  C   UNL     1       7.021   0.353   0.000  0.00  0.00    +0.000 C 
ENDBRANCH   3   6
BRANCH   1  13
ATOM     13  C   UNL     1       3.215   0.063   0.000  0.00  0.00    +0.000 A 
ATOM     14  C   UNL     1       3.929  -0.349   0.000  0.00  0.00    +0.000 A 
ATOM     15  C   UNL     1       2.501  -0.349   0.000  0.00  0.00    +0.000 A 
ATOM     16  C   UNL     1       3.215  -1.587   0.000  0.00  0.00    +0.000 A 
ATOM     17  C   UNL     1       3.929  -1.174   0.000  0.00  0.00    +0.000 A 
ATOM     18  C   UNL     1       2.501  -1.174   0.000  0.00  0.00    +0.000 A 
BRANCH  16  19
ATOM     19  S   UNL     1       3.215  -2.412   0.000  0.00  0.00    +0.000 S 
ATOM     20  O   UNL     1       4.040  -2.412   0.000  0.00  0.00    +0.000 OA
ATOM     21  O   UNL     1       2.390  -2.412   0.000  0.00  0.00    +0.000 OA
ATOM     22  N   UNL     1       3.215  -3.237   0.000  0.00  0.00    +0.000 NA
ENDBRANCH  16  19
ENDBRANCH   1  13
BRANCH   5  26
ATOM     23  F   UNL     1       1.650   2.340   0.000  0.00  0.00    +0.000 F 
ATOM     24  F   UNL     1       2.985   3.310   0.000  0.00  0.00    +0.000 F 
ATOM     25  F   UNL     1       1.833   3.493   0.000  0.00  0.00    +0.000 F 
ATOM     26  C   UNL     1       2.317   2.825   0.000  0.00  0.00    +0.000 C 
ENDBRANCH   5  26
TORSDOF 4
