REMARK  Name = 4820
REMARK  7 active torsions:
REMARK  status: ('A' for Active; 'I' for Inactive)
REMARK    1  A    between atoms: N_3  and  C_9
REMARK    2  A    between atoms: N_4  and  N_5
REMARK    3  A    between atoms: N_4  and  C_8
REMARK    4  A    between atoms: C_7  and  C_8
REMARK    5  A    between atoms: C_7  and  C_10
REMARK    6  A    between atoms: C_9  and  C_11
REMARK    7  A    between atoms: C_16  and  C_18
REMARK                            x       y       z     vdW  Elec       q    Type
REMARK                         _______ _______ _______ _____ _____    ______ ____
ROOT
ATOM      1  C   UNL     1       3.793   0.412   0.000  0.00  0.00    +0.000 C 
ENDROOT
BRANCH   1   4
ATOM      2  O   UNL     1       5.222   0.412   0.000  0.00  0.00    +0.000 OA
ATOM      3  N   UNL     1       4.508   1.650   0.000  0.00  0.00    +0.000 NA
ATOM      4  C   UNL     1       4.508   0.825   0.000  0.00  0.00    +0.000 C 
BRANCH   3   5
ATOM      5  C   UNL     1       5.222   2.062   0.000  0.00  0.00    +0.000 C 
BRANCH   5   6
ATOM      6  C   UNL     1       5.222   2.888   0.000  0.00  0.00    +0.000 A 
ATOM      7  C   UNL     1       4.508   3.300   0.000  0.00  0.00    +0.000 A 
ATOM      8  C   UNL     1       5.937   3.300   0.000  0.00  0.00    +0.000 A 
ATOM      9  C   UNL     1       4.508   4.125   0.000  0.00  0.00    +0.000 A 
ATOM     10  C   UNL     1       5.937   4.125   0.000  0.00  0.00    +0.000 A 
ATOM     11  C   UNL     1       5.222   4.537   0.000  0.00  0.00    +0.000 A 
ENDBRANCH   5   6
ENDBRANCH   3   5
ENDBRANCH   1   4
BRANCH   1  12
ATOM     12  C   UNL     1       3.793  -0.412   0.000  0.00  0.00    +0.000 C 
BRANCH  12  13
ATOM     13  N   UNL     1       3.079  -0.825   0.000  0.00  0.00    +0.000 NA
BRANCH  13  15
ATOM     14  O   UNL     1       1.650  -1.650   0.000  0.00  0.00    +0.000 OA
ATOM     15  N   UNL     1       3.079  -1.650   0.000  0.00  0.00    +0.000 NA
ATOM     16  C   UNL     1       2.364  -2.062   0.000  0.00  0.00    +0.000 C 
BRANCH  16  18
ATOM     17  N   UNL     1       2.364  -4.537   0.000  0.00  0.00    +0.000 NA
ATOM     18  C   UNL     1       2.364  -2.888   0.000  0.00  0.00    +0.000 A 
ATOM     19  C   UNL     1       3.079  -3.300   0.000  0.00  0.00    +0.000 A 
ATOM     20  C   UNL     1       1.650  -3.300   0.000  0.00  0.00    +0.000 A 
ATOM     21  C   UNL     1       3.079  -4.125   0.000  0.00  0.00    +0.000 A 
ATOM     22  C   UNL     1       1.650  -4.125   0.000  0.00  0.00    +0.000 A 
ENDBRANCH  16  18
ENDBRANCH  13  15
ENDBRANCH  12  13
ENDBRANCH   1  12
TORSDOF 7
