REMARK  Name = 4821
REMARK  1 active torsions:
REMARK  status: ('A' for Active; 'I' for Inactive)
REMARK    1  A    between atoms: C_3  and  C_8
REMARK                            x       y       z     vdW  Elec       q    Type
REMARK                         _______ _______ _______ _____ _____    ______ ____
ROOT
ATOM      1  N   UNL     1       2.365   1.093   0.000  0.00  0.00    +0.000 NA
ATOM      2  N   UNL     1       4.521   2.359   0.000  0.00  0.00    +0.000 NA
ATOM      3  C   UNL     1       3.079  -0.145   0.000  0.00  0.00    +0.000 C 
ATOM      4  C   UNL     1       2.365   0.268   0.000  0.00  0.00    +0.000 C 
ATOM      5  C   UNL     1       3.793   0.268   0.000  0.00  0.00    +0.000 A 
ATOM      6  C   UNL     1       3.079   1.505   0.000  0.00  0.00    +0.000 C 
ATOM      7  C   UNL     1       3.793   1.093   0.000  0.00  0.00    +0.000 A 
ATOM      8  C   UNL     1       4.531   1.534   0.000  0.00  0.00    +0.000 A 
ATOM      9  C   UNL     1       4.531  -0.173   0.000  0.00  0.00    +0.000 A 
ATOM     10  C   UNL     1       1.650   1.505   0.000  0.00  0.00    +0.000 C 
ATOM     11  C   UNL     1       5.278   1.110   0.000  0.00  0.00    +0.000 A 
ATOM     12  C   UNL     1       5.278   0.251   0.000  0.00  0.00    +0.000 A 
ENDROOT
BRANCH   3  13
ATOM     13  C   UNL     1       3.079  -0.970   0.000  0.00  0.00    +0.000 A 
ATOM     14  C   UNL     1       3.793  -1.382   0.000  0.00  0.00    +0.000 A 
ATOM     15  C   UNL     1       2.365  -1.382   0.000  0.00  0.00    +0.000 A 
ATOM     16  C   UNL     1       3.793  -2.207   0.000  0.00  0.00    +0.000 A 
ATOM     17  C   UNL     1       2.365  -2.207   0.000  0.00  0.00    +0.000 A 
ATOM     18  C   UNL     1       3.079  -2.620   0.000  0.00  0.00    +0.000 A 
ENDBRANCH   3  13
TORSDOF 1
