REMARK  Name = 4822
REMARK  13 active torsions:
REMARK  status: ('A' for Active; 'I' for Inactive)
REMARK    1  A    between atoms: O_1  and  C_9
REMARK    2  A    between atoms: O_1  and  C_14
REMARK    3  A    between atoms: O_3  and  C_18
REMARK    4  A    between atoms: O_3  and  C_19
REMARK    5  A    between atoms: N_4  and  C_17
REMARK    6  A    between atoms: N_4  and  C_21
REMARK    7  A    between atoms: N_4  and  C_22
REMARK    8  A    between atoms: C_5  and  C_6
REMARK    9  A    between atoms: C_5  and  C_7
REMARK   10  A    between atoms: C_5  and  C_8
REMARK   11  A    between atoms: C_5  and  C_9
REMARK   12  A    between atoms: C_14  and  C_18
REMARK   13  A    between atoms: C_17  and  C_19
REMARK                            x       y       z     vdW  Elec       q    Type
REMARK                         _______ _______ _______ _____ _____    ______ ____
ROOT
ATOM      1  O   UNL     1       2.173  -0.619   0.000  0.00  0.00    +0.000 OA
ATOM      2  C   UNL     1       2.888  -1.031   0.000  0.00  0.00    +0.000 C 
ENDROOT
BRANCH   2   3
ATOM      3  C   UNL     1       2.888  -1.856   0.000  0.00  0.00    +0.000 C 
BRANCH   3   4
ATOM      4  C   UNL     1       2.888  -2.681   0.000  0.00  0.00    +0.000 A 
ATOM      5  C   UNL     1       3.602  -3.094   0.000  0.00  0.00    +0.000 A 
ATOM      6  C   UNL     1       2.173  -3.094   0.000  0.00  0.00    +0.000 A 
ATOM      7  C   UNL     1       3.602  -3.919   0.000  0.00  0.00    +0.000 A 
ATOM      8  C   UNL     1       2.173  -3.919   0.000  0.00  0.00    +0.000 A 
ATOM      9  C   UNL     1       2.888  -4.331   0.000  0.00  0.00    +0.000 A 
ENDBRANCH   3   4
BRANCH   3  10
ATOM     10  C   UNL     1       2.062  -1.856   0.000  0.00  0.00    +0.000 C 
ATOM     11  C   UNL     1       1.650  -1.142   0.000  0.00  0.00    +0.000 C 
ENDBRANCH   3  10
BRANCH   3  12
ATOM     12  C   UNL     1       3.713  -1.856   0.000  0.00  0.00    +0.000 C 
ATOM     13  C   UNL     1       4.125  -1.142   0.000  0.00  0.00    +0.000 C 
ENDBRANCH   3  12
ENDBRANCH   2   3
BRANCH   2  14
ATOM     14  O   UNL     1       3.602  -0.619   0.000  0.00  0.00    +0.000 OA
BRANCH  14  15
ATOM     15  C   UNL     1       3.602   0.206   0.000  0.00  0.00    +0.000 C 
BRANCH  15  16
ATOM     16  C   UNL     1       4.317   0.619   0.000  0.00  0.00    +0.000 C 
BRANCH  16  17
ATOM     17  O   UNL     1       4.317   1.444   0.000  0.00  0.00    +0.000 OA
BRANCH  17  18
ATOM     18  C   UNL     1       5.031   1.856   0.000  0.00  0.00    +0.000 C 
BRANCH  18  19
ATOM     19  C   UNL     1       5.031   2.681   0.000  0.00  0.00    +0.000 C 
BRANCH  19  20
ATOM     20  N   UNL     1       5.745   3.094   0.000  0.00  0.00    +0.000 NA
BRANCH  20  21
ATOM     21  C   UNL     1       5.745   3.919   0.000  0.00  0.00    +0.000 C 
ATOM     22  C   UNL     1       6.460   4.331   0.000  0.00  0.00    +0.000 C 
ENDBRANCH  20  21
BRANCH  20  23
ATOM     23  C   UNL     1       6.460   2.681   0.000  0.00  0.00    +0.000 C 
ATOM     24  C   UNL     1       7.175   3.094   0.000  0.00  0.00    +0.000 C 
ENDBRANCH  20  23
ENDBRANCH  19  20
ENDBRANCH  18  19
ENDBRANCH  17  18
ENDBRANCH  16  17
ENDBRANCH  15  16
ENDBRANCH  14  15
ENDBRANCH   2  14
TORSDOF 13
