REMARK  Name = 4823
REMARK  2 active torsions:
REMARK  status: ('A' for Active; 'I' for Inactive)
REMARK    1  A    between atoms: C_5  and  C_8
REMARK    2  A    between atoms: C_5  and  C_9
REMARK                            x       y       z     vdW  Elec       q    Type
REMARK                         _______ _______ _______ _____ _____    ______ ____
ROOT
ATOM      1  O   UNL     1       5.166  -1.224   0.000  0.00  0.00    +0.000 OA
ATOM      2  N   UNL     1       3.860  -1.888   0.000  0.00  0.00    +0.000 NA
ATOM      3  C   UNL     1       3.860  -0.561   0.000  0.00  0.00    +0.000 C 
ATOM      4  C   UNL     1       3.079  -0.812   0.000  0.00  0.00    +0.000 A 
ATOM      5  C   UNL     1       4.341  -1.224   0.000  0.00  0.00    +0.000 C 
ATOM      6  C   UNL     1       3.079  -1.637   0.000  0.00  0.00    +0.000 A 
ATOM      7  C   UNL     1       2.365  -0.400   0.000  0.00  0.00    +0.000 A 
ATOM      8  C   UNL     1       2.365  -2.050   0.000  0.00  0.00    +0.000 A 
ATOM      9  C   UNL     1       1.650  -0.812   0.000  0.00  0.00    +0.000 A 
ATOM     10  C   UNL     1       1.650  -1.637   0.000  0.00  0.00    +0.000 A 
ENDROOT
BRANCH   3  12
ATOM     11  O   UNL     1       2.315   2.356   0.000  0.00  0.00    +0.000 OA
ATOM     12  C   UNL     1       3.474   0.169   0.000  0.00  0.00    +0.000 A 
ATOM     13  C   UNL     1       2.649   0.199   0.000  0.00  0.00    +0.000 A 
ATOM     14  C   UNL     1       3.912   0.867   0.000  0.00  0.00    +0.000 A 
ATOM     15  C   UNL     1       2.263   0.928   0.000  0.00  0.00    +0.000 A 
ATOM     16  C   UNL     1       3.526   1.597   0.000  0.00  0.00    +0.000 A 
ATOM     17  C   UNL     1       2.701   1.627   0.000  0.00  0.00    +0.000 A 
ENDBRANCH   3  12
BRANCH   3  19
ATOM     18  O   UNL     1       6.533   1.375   0.000  0.00  0.00    +0.000 OA
ATOM     19  C   UNL     1       4.528  -0.077   0.000  0.00  0.00    +0.000 A 
ATOM     20  C   UNL     1       4.443   0.744   0.000  0.00  0.00    +0.000 A 
ATOM     21  C   UNL     1       5.281  -0.414   0.000  0.00  0.00    +0.000 A 
ATOM     22  C   UNL     1       5.111   1.228   0.000  0.00  0.00    +0.000 A 
ATOM     23  C   UNL     1       5.949   0.070   0.000  0.00  0.00    +0.000 A 
ATOM     24  C   UNL     1       5.864   0.891   0.000  0.00  0.00    +0.000 A 
ENDBRANCH   3  19
TORSDOF 2
