REMARK  Name = 4824
REMARK  2 active torsions:
REMARK  status: ('A' for Active; 'I' for Inactive)
REMARK    1  A    between atoms: C_5  and  C_7
REMARK    2  A    between atoms: C_5  and  C_8
REMARK                            x       y       z     vdW  Elec       q    Type
REMARK                         _______ _______ _______ _____ _____    ______ ____
ROOT
ATOM      1  O   UNL     1       4.341  -1.232   0.000  0.00  0.00    +0.000 OA
ATOM      2  O   UNL     1       4.116  -2.680   0.000  0.00  0.00    +0.000 OA
ATOM      3  C   UNL     1       3.860  -0.568   0.000  0.00  0.00    +0.000 C 
ATOM      4  C   UNL     1       3.079  -0.819   0.000  0.00  0.00    +0.000 A 
ATOM      5  C   UNL     1       3.079  -1.644   0.000  0.00  0.00    +0.000 A 
ATOM      6  C   UNL     1       3.860  -1.895   0.000  0.00  0.00    +0.000 C 
ATOM      7  C   UNL     1       2.365  -0.407   0.000  0.00  0.00    +0.000 A 
ATOM      8  C   UNL     1       2.365  -2.057   0.000  0.00  0.00    +0.000 A 
ATOM      9  C   UNL     1       1.650  -0.819   0.000  0.00  0.00    +0.000 A 
ATOM     10  C   UNL     1       1.650  -1.644   0.000  0.00  0.00    +0.000 A 
ENDROOT
BRANCH   3  12
ATOM     11  O   UNL     1       7.142  -0.228   0.000  0.00  0.00    +0.000 OA
ATOM     12  C   UNL     1       4.680  -0.483   0.000  0.00  0.00    +0.000 A 
ATOM     13  C   UNL     1       5.164  -1.151   0.000  0.00  0.00    +0.000 A 
ATOM     14  C   UNL     1       5.017   0.270   0.000  0.00  0.00    +0.000 A 
ATOM     15  C   UNL     1       5.985  -1.066   0.000  0.00  0.00    +0.000 A 
ATOM     16  C   UNL     1       5.838   0.355   0.000  0.00  0.00    +0.000 A 
ATOM     17  C   UNL     1       6.322  -0.313   0.000  0.00  0.00    +0.000 A 
ENDBRANCH   3  12
BRANCH   3  19
ATOM     18  O   UNL     1       2.845   2.572   0.000  0.00  0.00    +0.000 OA
ATOM     19  C   UNL     1       3.606   0.217   0.000  0.00  0.00    +0.000 A 
ATOM     20  C   UNL     1       4.159   0.830   0.000  0.00  0.00    +0.000 A 
ATOM     21  C   UNL     1       2.799   0.390   0.000  0.00  0.00    +0.000 A 
ATOM     22  C   UNL     1       3.905   1.615   0.000  0.00  0.00    +0.000 A 
ATOM     23  C   UNL     1       2.546   1.175   0.000  0.00  0.00    +0.000 A 
ATOM     24  C   UNL     1       3.099   1.787   0.000  0.00  0.00    +0.000 A 
ENDBRANCH   3  19
TORSDOF 2
