REMARK  Name = 4826
REMARK  4 active torsions:
REMARK  status: ('A' for Active; 'I' for Inactive)
REMARK    1  A    between atoms: N_3  and  C_4
REMARK    2  A    between atoms: N_3  and  C_9
REMARK    3  A    between atoms: N_3  and  C_10
REMARK    4  A    between atoms: C_9  and  C_12
REMARK                            x       y       z     vdW  Elec       q    Type
REMARK                         _______ _______ _______ _____ _____    ______ ____
ROOT
ATOM      1  N   UNL     1       3.032   0.397   0.000  0.00  0.00    +0.000 N 
ENDROOT
BRANCH   1   3
ATOM      2  N   UNL     1       3.032  -2.079   0.000  0.00  0.00    +0.000 NA
ATOM      3  C   UNL     1       3.032  -0.428   0.000  0.00  0.00    +0.000 C 
ATOM      4  C   UNL     1       2.317  -0.841   0.000  0.00  0.00    +0.000 C 
ATOM      5  C   UNL     1       3.747  -0.841   0.000  0.00  0.00    +0.000 C 
ATOM      6  C   UNL     1       2.317  -1.666   0.000  0.00  0.00    +0.000 C 
ATOM      7  C   UNL     1       3.747  -1.666   0.000  0.00  0.00    +0.000 C 
ATOM      8  C   UNL     1       3.032  -2.904   0.000  0.00  0.00    +0.000 C 
ENDBRANCH   1   3
BRANCH   1   9
ATOM      9  C   UNL     1       3.747   0.809   0.000  0.00  0.00    +0.000 A 
ATOM     10  C   UNL     1       4.461   0.397   0.000  0.00  0.00    +0.000 A 
ATOM     11  C   UNL     1       3.747   1.634   0.000  0.00  0.00    +0.000 A 
ATOM     12  C   UNL     1       5.175   0.809   0.000  0.00  0.00    +0.000 A 
ATOM     13  C   UNL     1       4.461   2.046   0.000  0.00  0.00    +0.000 A 
ATOM     14  C   UNL     1       5.175   1.634   0.000  0.00  0.00    +0.000 A 
ENDBRANCH   1   9
BRANCH   1  15
ATOM     15  C   UNL     1       2.317   0.809   0.000  0.00  0.00    +0.000 C 
BRANCH  15  17
ATOM     16  S   UNL     1       2.985   2.119   0.000  0.00  0.00    +0.000 S 
ATOM     17  C   UNL     1       2.317   1.634   0.000  0.00  0.00    +0.000 A 
ATOM     18  C   UNL     1       1.650   2.119   0.000  0.00  0.00    +0.000 A 
ATOM     19  C   UNL     1       1.905   2.904   0.000  0.00  0.00    +0.000 A 
ATOM     20  C   UNL     1       2.730   2.904   0.000  0.00  0.00    +0.000 A 
ENDBRANCH  15  17
ENDBRANCH   1  15
TORSDOF 4
