REMARK  Name = 4827
REMARK  2 active torsions:
REMARK  status: ('A' for Active; 'I' for Inactive)
REMARK    1  A    between atoms: O_1  and  C_4
REMARK    2  A    between atoms: O_1  and  C_6
REMARK                            x       y       z     vdW  Elec       q    Type
REMARK                         _______ _______ _______ _____ _____    ______ ____
ROOT
ATOM      1  O   UNL     1       3.079   0.363   0.000  0.00  0.00    +0.000 OA
ENDROOT
BRANCH   1   4
ATOM      2  O   UNL     1       3.793  -0.875   0.000  0.00  0.00    +0.000 OA
ATOM      3  N   UNL     1       4.508   0.363   0.000  0.00  0.00    +0.000 NA
ATOM      4  C   UNL     1       3.793  -0.050   0.000  0.00  0.00    +0.000 C 
ENDBRANCH   1   4
BRANCH   1   5
ATOM      5  C   UNL     1       2.365  -0.050   0.000  0.00  0.00    +0.000 C 
ATOM      6  C   UNL     1       1.650   0.363   0.000  0.00  0.00    +0.000 C 
ENDBRANCH   1   5
TORSDOF 2
