REMARK  Name = 4829
REMARK  3 active torsions:
REMARK  status: ('A' for Active; 'I' for Inactive)
REMARK    1  A    between atoms: N_4  and  C_21
REMARK    2  A    between atoms: N_4  and  C_22
REMARK    3  A    between atoms: C_8  and  C_16
REMARK                            x       y       z     vdW  Elec       q    Type
REMARK                         _______ _______ _______ _____ _____    ______ ____
ROOT
ATOM      1  N   UNL     1       4.574   0.679   0.000  0.00  0.00    +0.000 NA
ATOM      2  N   UNL     1       5.549  -2.717   0.000  0.00  0.00    +0.000 NA
ATOM      3  C   UNL     1       4.560  -0.180   0.000  0.00  0.00    +0.000 C 
ATOM      4  C   UNL     1       3.846  -0.593   0.000  0.00  0.00    +0.000 C 
ATOM      5  C   UNL     1       5.275  -0.593   0.000  0.00  0.00    +0.000 C 
ATOM      6  C   UNL     1       3.088   0.685   0.000  0.00  0.00    +0.000 C 
ATOM      7  C   UNL     1       3.833   1.115   0.000  0.00  0.00    +0.000 C 
ATOM      8  C   UNL     1       5.275  -1.418   0.000  0.00  0.00    +0.000 A 
ATOM      9  C   UNL     1       3.846  -1.418   0.000  0.00  0.00    +0.000 A 
ATOM     10  C   UNL     1       4.560  -1.830   0.000  0.00  0.00    +0.000 A 
ATOM     11  C   UNL     1       3.095  -0.174   0.000  0.00  0.00    +0.000 C 
ATOM     12  C   UNL     1       4.574  -2.689   0.000  0.00  0.00    +0.000 A 
ATOM     13  C   UNL     1       5.293   1.083   0.000  0.00  0.00    +0.000 C 
ATOM     14  C   UNL     1       5.883  -1.968   0.000  0.00  0.00    +0.000 A 
ATOM     15  C   UNL     1       3.095  -1.836   0.000  0.00  0.00    +0.000 A 
ATOM     16  C   UNL     1       3.833  -3.125   0.000  0.00  0.00    +0.000 A 
ATOM     17  C   UNL     1       3.088  -2.695   0.000  0.00  0.00    +0.000 A 
ENDROOT
BRANCH   6  20
ATOM     18  O   UNL     1       1.660   0.679   0.000  0.00  0.00    +0.000 OA
ATOM     19  N   UNL     1       2.369   1.920   0.000  0.00  0.00    +0.000 N 
ATOM     20  C   UNL     1       2.372   1.095   0.000  0.00  0.00    +0.000 C 
BRANCH  19  21
ATOM     21  C   UNL     1       3.082   2.335   0.000  0.00  0.00    +0.000 C 
ATOM     22  C   UNL     1       3.079   3.160   0.000  0.00  0.00    +0.000 C 
ENDBRANCH  19  21
BRANCH  19  23
ATOM     23  C   UNL     1       1.653   2.329   0.000  0.00  0.00    +0.000 C 
ATOM     24  C   UNL     1       1.650   3.154   0.000  0.00  0.00    +0.000 C 
ENDBRANCH  19  23
ENDBRANCH   6  20
TORSDOF 3
