REMARK  Name = 483
REMARK  21 active torsions:
REMARK  status: ('A' for Active; 'I' for Inactive)
REMARK    1  A    between atoms: O_1  and  C_10
REMARK    2  A    between atoms: O_1  and  C_19
REMARK    3  A    between atoms: O_2  and  C_13
REMARK    4  A    between atoms: O_2  and  C_20
REMARK    5  A    between atoms: O_3  and  C_14
REMARK    6  A    between atoms: O_3  and  C_21
REMARK    7  A    between atoms: N_4  and  C_7
REMARK    8  A    between atoms: N_4  and  C_11
REMARK    9  A    between atoms: N_4  and  C_12
REMARK   10  A    between atoms: N_4  and  C_33
REMARK   11  A    between atoms: N_5  and  C_8
REMARK   12  A    between atoms: N_5  and  C_15
REMARK   13  A    between atoms: N_5  and  C_16
REMARK   14  A    between atoms: N_5  and  C_35
REMARK   15  A    between atoms: N_6  and  C_9
REMARK   16  A    between atoms: N_6  and  C_17
REMARK   17  A    between atoms: N_6  and  C_18
REMARK   18  A    between atoms: N_6  and  C_31
REMARK   19  A    between atoms: C_7  and  C_10
REMARK   20  A    between atoms: C_8  and  C_13
REMARK   21  A    between atoms: C_9  and  C_14
REMARK                            x       y       z     vdW  Elec       q    Type
REMARK                         _______ _______ _______ _____ _____    ______ ____
ROOT
ATOM      1  C   UNL     1       6.652  -1.031   0.000  0.00  0.00    +0.000 A 
ATOM      2  C   UNL     1       7.366  -1.444   0.000  0.00  0.00    +0.000 A 
ATOM      3  C   UNL     1       5.937  -1.444   0.000  0.00  0.00    +0.000 A 
ATOM      4  C   UNL     1       7.366  -2.269   0.000  0.00  0.00    +0.000 A 
ATOM      5  C   UNL     1       5.937  -2.269   0.000  0.00  0.00    +0.000 A 
ATOM      6  C   UNL     1       6.652  -2.681   0.000  0.00  0.00    +0.000 A 
ENDROOT
BRANCH   2   7
ATOM      7  O   UNL     1       8.080  -1.031   0.000  0.00  0.00    +0.000 OA
BRANCH   7   8
ATOM      8  C   UNL     1       8.795  -1.444   0.000  0.00  0.00    +0.000 C 
BRANCH   8   9
ATOM      9  C   UNL     1       9.509  -1.031   0.000  0.00  0.00    +0.000 C 
BRANCH   9  10
ATOM     10  N   UNL     1      10.224  -1.444   0.000  0.00  0.00    +0.000 N 
BRANCH  10  11
ATOM     11  C   UNL     1      10.224  -0.619   0.000  0.00  0.00    +0.000 C 
ATOM     12  C   UNL     1      10.938  -0.206   0.000  0.00  0.00    +0.000 C 
ENDBRANCH  10  11
BRANCH  10  13
ATOM     13  C   UNL     1      10.224  -2.269   0.000  0.00  0.00    +0.000 C 
ATOM     14  C   UNL     1      10.938  -2.681   0.000  0.00  0.00    +0.000 C 
ENDBRANCH  10  13
BRANCH  10  15
ATOM     15  C   UNL     1      10.938  -1.031   0.000  0.00  0.00    +0.000 C 
ATOM     16  C   UNL     1      11.653  -1.444   0.000  0.00  0.00    +0.000 C 
ENDBRANCH  10  15
ENDBRANCH   9  10
ENDBRANCH   8   9
ENDBRANCH   7   8
ENDBRANCH   2   7
BRANCH   3  17
ATOM     17  O   UNL     1       5.222  -1.031   0.000  0.00  0.00    +0.000 OA
BRANCH  17  18
ATOM     18  C   UNL     1       4.508  -1.444   0.000  0.00  0.00    +0.000 C 
BRANCH  18  19
ATOM     19  C   UNL     1       3.793  -1.031   0.000  0.00  0.00    +0.000 C 
BRANCH  19  20
ATOM     20  N   UNL     1       3.079  -1.444   0.000  0.00  0.00    +0.000 N 
BRANCH  20  21
ATOM     21  C   UNL     1       3.079  -0.619   0.000  0.00  0.00    +0.000 C 
ATOM     22  C   UNL     1       2.365  -0.206   0.000  0.00  0.00    +0.000 C 
ENDBRANCH  20  21
BRANCH  20  23
ATOM     23  C   UNL     1       3.079  -2.269   0.000  0.00  0.00    +0.000 C 
ATOM     24  C   UNL     1       2.365  -2.681   0.000  0.00  0.00    +0.000 C 
ENDBRANCH  20  23
BRANCH  20  25
ATOM     25  C   UNL     1       2.365  -1.031   0.000  0.00  0.00    +0.000 C 
ATOM     26  C   UNL     1       1.650  -1.444   0.000  0.00  0.00    +0.000 C 
ENDBRANCH  20  25
ENDBRANCH  19  20
ENDBRANCH  18  19
ENDBRANCH  17  18
ENDBRANCH   3  17
BRANCH   1  27
ATOM     27  O   UNL     1       6.652  -0.206   0.000  0.00  0.00    +0.000 OA
BRANCH  27  28
ATOM     28  C   UNL     1       7.366   0.206   0.000  0.00  0.00    +0.000 C 
BRANCH  28  29
ATOM     29  C   UNL     1       7.366   1.031   0.000  0.00  0.00    +0.000 C 
BRANCH  29  30
ATOM     30  N   UNL     1       8.080   1.444   0.000  0.00  0.00    +0.000 N 
BRANCH  30  31
ATOM     31  C   UNL     1       7.366   1.856   0.000  0.00  0.00    +0.000 C 
ATOM     32  C   UNL     1       7.366   2.681   0.000  0.00  0.00    +0.000 C 
ENDBRANCH  30  31
BRANCH  30  33
ATOM     33  C   UNL     1       8.795   1.031   0.000  0.00  0.00    +0.000 C 
ATOM     34  C   UNL     1       9.509   1.444   0.000  0.00  0.00    +0.000 C 
ENDBRANCH  30  33
BRANCH  30  35
ATOM     35  C   UNL     1       8.080   2.269   0.000  0.00  0.00    +0.000 C 
ATOM     36  C   UNL     1       8.795   2.681   0.000  0.00  0.00    +0.000 C 
ENDBRANCH  30  35
ENDBRANCH  29  30
ENDBRANCH  28  29
ENDBRANCH  27  28
ENDBRANCH   1  27
TORSDOF 21
REMARK  Name = 483
REMARK  21 active torsions:
REMARK  status: ('A' for Active; 'I' for Inactive)
REMARK    1  A    between atoms: O_1  and  C_10
REMARK    2  A    between atoms: O_1  and  C_19
REMARK    3  A    between atoms: O_2  and  C_13
REMARK    4  A    between atoms: O_2  and  C_20
REMARK    5  A    between atoms: O_3  and  C_14
REMARK    6  A    between atoms: O_3  and  C_21
REMARK    7  A    between atoms: N_4  and  C_7
REMARK    8  A    between atoms: N_4  and  C_11
REMARK    9  A    between atoms: N_4  and  C_12
REMARK   10  A    between atoms: N_4  and  C_33
REMARK   11  A    between atoms: N_5  and  C_8
REMARK   12  A    between atoms: N_5  and  C_15
REMARK   13  A    between atoms: N_5  and  C_16
REMARK   14  A    between atoms: N_5  and  C_35
REMARK   15  A    between atoms: N_6  and  C_9
REMARK   16  A    between atoms: N_6  and  C_17
REMARK   17  A    between atoms: N_6  and  C_18
REMARK   18  A    between atoms: N_6  and  C_31
REMARK   19  A    between atoms: C_7  and  C_10
REMARK   20  A    between atoms: C_8  and  C_13
REMARK   21  A    between atoms: C_9  and  C_14
REMARK                            x       y       z     vdW  Elec       q    Type
REMARK                         _______ _______ _______ _____ _____    ______ ____
ROOT
ATOM      1  I   UNL     1       3.477   0.710   0.000  0.00  0.00    +0.000 I 
ENDROOT
TORSDOF 0
REMARK  Name = 483
REMARK  21 active torsions:
REMARK  status: ('A' for Active; 'I' for Inactive)
REMARK    1  A    between atoms: O_1  and  C_10
REMARK    2  A    between atoms: O_1  and  C_19
REMARK    3  A    between atoms: O_2  and  C_13
REMARK    4  A    between atoms: O_2  and  C_20
REMARK    5  A    between atoms: O_3  and  C_14
REMARK    6  A    between atoms: O_3  and  C_21
REMARK    7  A    between atoms: N_4  and  C_7
REMARK    8  A    between atoms: N_4  and  C_11
REMARK    9  A    between atoms: N_4  and  C_12
REMARK   10  A    between atoms: N_4  and  C_33
REMARK   11  A    between atoms: N_5  and  C_8
REMARK   12  A    between atoms: N_5  and  C_15
REMARK   13  A    between atoms: N_5  and  C_16
REMARK   14  A    between atoms: N_5  and  C_35
REMARK   15  A    between atoms: N_6  and  C_9
REMARK   16  A    between atoms: N_6  and  C_17
REMARK   17  A    between atoms: N_6  and  C_18
REMARK   18  A    between atoms: N_6  and  C_31
REMARK   19  A    between atoms: C_7  and  C_10
REMARK   20  A    between atoms: C_8  and  C_13
REMARK   21  A    between atoms: C_9  and  C_14
REMARK                            x       y       z     vdW  Elec       q    Type
REMARK                         _______ _______ _______ _____ _____    ______ ____
ROOT
ATOM      1  I   UNL     1      10.355   2.168   0.000  0.00  0.00    +0.000 I 
ENDROOT
TORSDOF 0
REMARK  Name = 483
REMARK  21 active torsions:
REMARK  status: ('A' for Active; 'I' for Inactive)
REMARK    1  A    between atoms: O_1  and  C_10
REMARK    2  A    between atoms: O_1  and  C_19
REMARK    3  A    between atoms: O_2  and  C_13
REMARK    4  A    between atoms: O_2  and  C_20
REMARK    5  A    between atoms: O_3  and  C_14
REMARK    6  A    between atoms: O_3  and  C_21
REMARK    7  A    between atoms: N_4  and  C_7
REMARK    8  A    between atoms: N_4  and  C_11
REMARK    9  A    between atoms: N_4  and  C_12
REMARK   10  A    between atoms: N_4  and  C_33
REMARK   11  A    between atoms: N_5  and  C_8
REMARK   12  A    between atoms: N_5  and  C_15
REMARK   13  A    between atoms: N_5  and  C_16
REMARK   14  A    between atoms: N_5  and  C_35
REMARK   15  A    between atoms: N_6  and  C_9
REMARK   16  A    between atoms: N_6  and  C_17
REMARK   17  A    between atoms: N_6  and  C_18
REMARK   18  A    between atoms: N_6  and  C_31
REMARK   19  A    between atoms: C_7  and  C_10
REMARK   20  A    between atoms: C_8  and  C_13
REMARK   21  A    between atoms: C_9  and  C_14
REMARK                            x       y       z     vdW  Elec       q    Type
REMARK                         _______ _______ _______ _____ _____    ______ ____
ROOT
ATOM      1  I   UNL     1       9.645  -2.729   0.000  0.00  0.00    +0.000 I 
ENDROOT
TORSDOF 0
