REMARK  Name = 4830
REMARK  4 active torsions:
REMARK  status: ('A' for Active; 'I' for Inactive)
REMARK    1  A    between atoms: N_1  and  C_8
REMARK    2  A    between atoms: N_2  and  C_10
REMARK    3  A    between atoms: C_6  and  C_7
REMARK    4  A    between atoms: C_6  and  C_8
REMARK                            x       y       z     vdW  Elec       q    Type
REMARK                         _______ _______ _______ _____ _____    ______ ____
ROOT
ATOM      1  N   UNL     1       4.237   0.363   0.000  0.00  0.00    +0.000 NA
ATOM      2  N   UNL     1       4.951   1.601   0.000  0.00  0.00    +0.000 NA
ATOM      3  C   UNL     1       4.237   1.188   0.000  0.00  0.00    +0.000 C 
ENDROOT
BRANCH   3   4
ATOM      4  N   UNL     1       3.522   1.601   0.000  0.00  0.00    +0.000 NA
ATOM      5  N   UNL     1       2.093   1.601   0.000  0.00  0.00    +0.000 NA
ATOM      6  N   UNL     1       2.808   0.363   0.000  0.00  0.00    +0.000 NA
ATOM      7  C   UNL     1       2.808   1.188   0.000  0.00  0.00    +0.000 C 
ENDBRANCH   3   4
BRANCH   1   8
ATOM      8  C   UNL     1       4.951  -0.050   0.000  0.00  0.00    +0.000 C 
BRANCH   8   9
ATOM      9  C   UNL     1       4.951  -0.875   0.000  0.00  0.00    +0.000 C 
BRANCH   9  10
ATOM     10  C   UNL     1       5.665  -1.287   0.000  0.00  0.00    +0.000 C 
ATOM     11  C   UNL     1       5.665  -2.112   0.000  0.00  0.00    +0.000 C 
ENDBRANCH   9  10
ENDBRANCH   8   9
ENDBRANCH   1   8
TORSDOF 4
