REMARK  Name = 4831
REMARK  5 active torsions:
REMARK  status: ('A' for Active; 'I' for Inactive)
REMARK    1  A    between atoms: O_4  and  C_9
REMARK    2  A    between atoms: O_4  and  C_17
REMARK    3  A    between atoms: C_8  and  C_12
REMARK    4  A    between atoms: C_12  and  C_15
REMARK    5  A    between atoms: C_17  and  C_20
REMARK                            x       y       z     vdW  Elec       q    Type
REMARK                         _______ _______ _______ _____ _____    ______ ____
ROOT
ATOM      1 CL   UNL     1       1.650   1.204   0.000  0.00  0.00    +0.000 Cl
ATOM      2 CL   UNL     1       1.650  -0.447   0.000  0.00  0.00    +0.000 Cl
ATOM      3  C   UNL     1       3.079   1.204   0.000  0.00  0.00    +0.000 A 
ATOM      4  C   UNL     1       3.079  -0.447   0.000  0.00  0.00    +0.000 A 
ATOM      5  C   UNL     1       2.365   0.791   0.000  0.00  0.00    +0.000 A 
ATOM      6  C   UNL     1       3.793   0.791   0.000  0.00  0.00    +0.000 A 
ATOM      7  C   UNL     1       2.365  -0.034   0.000  0.00  0.00    +0.000 A 
ATOM      8  C   UNL     1       3.793  -0.034   0.000  0.00  0.00    +0.000 A 
ENDROOT
BRANCH   3  10
ATOM      9  O   UNL     1       2.365   2.441   0.000  0.00  0.00    +0.000 OA
ATOM     10  C   UNL     1       3.079   2.029   0.000  0.00  0.00    +0.000 C 
BRANCH  10  12
ATOM     11  S   UNL     1       3.880   3.261   0.000  0.00  0.00    +0.000 S 
ATOM     12  C   UNL     1       3.793   2.441   0.000  0.00  0.00    +0.000 A 
ATOM     13  C   UNL     1       4.547   2.105   0.000  0.00  0.00    +0.000 A 
ATOM     14  C   UNL     1       5.099   2.719   0.000  0.00  0.00    +0.000 A 
ATOM     15  C   UNL     1       4.687   3.433   0.000  0.00  0.00    +0.000 A 
ENDBRANCH  10  12
ENDBRANCH   3  10
BRANCH   4  16
ATOM     16  O   UNL     1       3.079  -1.272   0.000  0.00  0.00    +0.000 OA
BRANCH  16  17
ATOM     17  C   UNL     1       3.793  -1.684   0.000  0.00  0.00    +0.000 C 
BRANCH  17  20
ATOM     18  O   UNL     1       4.508  -2.921   0.000  0.00  0.00    +0.000 OA
ATOM     19  O   UNL     1       3.079  -2.921   0.000  0.00  0.00    +0.000 OA
ATOM     20  C   UNL     1       3.793  -2.509   0.000  0.00  0.00    +0.000 C 
ENDBRANCH  17  20
ENDBRANCH  16  17
ENDBRANCH   4  16
TORSDOF 5
