REMARK  Name = 4833
REMARK  1 active torsions:
REMARK  status: ('A' for Active; 'I' for Inactive)
REMARK    1  A    between atoms: N_2  and  C_4
REMARK                            x       y       z     vdW  Elec       q    Type
REMARK                         _______ _______ _______ _____ _____    ______ ____
ROOT
ATOM      1  O   UNL     1       4.508  -1.046   0.000  0.00  0.00    +0.000 OA
ATOM      2  N   UNL     1       3.793   0.192   0.000  0.00  0.00    +0.000 N 
ATOM      3  N   UNL     1       4.508   1.429   0.000  0.00  0.00    +0.000 NA
ATOM      4  C   UNL     1       3.793   1.017   0.000  0.00  0.00    +0.000 A 
ATOM      5  C   UNL     1       5.222   0.192   0.000  0.00  0.00    +0.000 A 
ATOM      6  C   UNL     1       4.508  -0.221   0.000  0.00  0.00    +0.000 A 
ATOM      7  C   UNL     1       5.222   1.017   0.000  0.00  0.00    +0.000 A 
ATOM      8  C   UNL     1       5.960  -0.249   0.000  0.00  0.00    +0.000 A 
ATOM      9  C   UNL     1       3.079   1.429   0.000  0.00  0.00    +0.000 C 
ATOM     10  C   UNL     1       5.960   1.458   0.000  0.00  0.00    +0.000 A 
ATOM     11  C   UNL     1       6.707   0.175   0.000  0.00  0.00    +0.000 A 
ATOM     12  C   UNL     1       6.707   1.034   0.000  0.00  0.00    +0.000 A 
ENDROOT
BRANCH   2  13
ATOM     13  C   UNL     1       3.079  -0.221   0.000  0.00  0.00    +0.000 A 
ATOM     14  C   UNL     1       2.365   0.192   0.000  0.00  0.00    +0.000 A 
ATOM     15  C   UNL     1       3.079  -1.046   0.000  0.00  0.00    +0.000 A 
ATOM     16  C   UNL     1       1.650  -0.221   0.000  0.00  0.00    +0.000 A 
ATOM     17  C   UNL     1       2.365   1.017   0.000  0.00  0.00    +0.000 C 
ATOM     18  C   UNL     1       2.365  -1.458   0.000  0.00  0.00    +0.000 A 
ATOM     19  C   UNL     1       1.650  -1.046   0.000  0.00  0.00    +0.000 A 
ENDBRANCH   2  13
TORSDOF 1
