REMARK  Name = 4838
REMARK  4 active torsions:
REMARK  status: ('A' for Active; 'I' for Inactive)
REMARK    1  A    between atoms: O_1  and  C_8
REMARK    2  A    between atoms: O_1  and  C_13
REMARK    3  A    between atoms: C_13  and  C_14
REMARK    4  A    between atoms: C_14  and  C_15
REMARK                            x       y       z     vdW  Elec       q    Type
REMARK                         _______ _______ _______ _____ _____    ______ ____
ROOT
ATOM      1  O   UNL     1       3.522   0.674   0.000  0.00  0.00    +0.000 OA
ENDROOT
BRANCH   1   6
ATOM      2  C   UNL     1       4.951   2.324   0.000  0.00  0.00    +0.000 C 
ATOM      3  C   UNL     1       5.665   1.912   0.000  0.00  0.00    +0.000 C 
ATOM      4  C   UNL     1       5.665   1.087   0.000  0.00  0.00    +0.000 C 
ATOM      5  C   UNL     1       4.237   1.912   0.000  0.00  0.00    +0.000 C 
ATOM      6  C   UNL     1       4.237   1.087   0.000  0.00  0.00    +0.000 C 
ATOM      7  C   UNL     1       4.951   0.674   0.000  0.00  0.00    +0.000 C 
ATOM      8  C   UNL     1       5.363   3.038   0.000  0.00  0.00    +0.000 C 
ATOM      9  C   UNL     1       4.538   3.038   0.000  0.00  0.00    +0.000 C 
ATOM     10  C   UNL     1       6.380   0.674   0.000  0.00  0.00    +0.000 C 
ENDBRANCH   1   6
BRANCH   1  12
ATOM     11  O   UNL     1       4.237  -0.564   0.000  0.00  0.00    +0.000 OA
ATOM     12  C   UNL     1       3.522  -0.151   0.000  0.00  0.00    +0.000 C 
BRANCH  12  14
ATOM     13  O   UNL     1       2.093  -0.151   0.000  0.00  0.00    +0.000 OA
ATOM     14  C   UNL     1       2.808  -0.564   0.000  0.00  0.00    +0.000 C 
BRANCH  14  15
ATOM     15  C   UNL     1       2.808  -1.389   0.000  0.00  0.00    +0.000 A 
ATOM     16  C   UNL     1       2.093  -1.801   0.000  0.00  0.00    +0.000 A 
ATOM     17  C   UNL     1       3.522  -1.801   0.000  0.00  0.00    +0.000 A 
ATOM     18  C   UNL     1       2.093  -2.626   0.000  0.00  0.00    +0.000 A 
ATOM     19  C   UNL     1       3.522  -2.626   0.000  0.00  0.00    +0.000 A 
ATOM     20  C   UNL     1       2.808  -3.038   0.000  0.00  0.00    +0.000 A 
ENDBRANCH  14  15
ENDBRANCH  12  14
ENDBRANCH   1  12
TORSDOF 4
