REMARK  Name = 4840
REMARK  0 active torsions:
REMARK  status: ('A' for Active; 'I' for Inactive)
REMARK                            x       y       z     vdW  Elec       q    Type
REMARK                         _______ _______ _______ _____ _____    ______ ____
ROOT
ATOM      1  N   UNL     1       3.522   0.114   0.000  0.00  0.00    +0.000 N 
ATOM      2  N   UNL     1       2.093   0.114   0.000  0.00  0.00    +0.000 NA
ATOM      3  N   UNL     1       2.808  -1.124   0.000  0.00  0.00    +0.000 NA
ATOM      4  C   UNL     1       4.236   1.351   0.000  0.00  0.00    +0.000 C 
ATOM      5  C   UNL     1       3.522   0.939   0.000  0.00  0.00    +0.000 C 
ATOM      6  C   UNL     1       4.236  -0.299   0.000  0.00  0.00    +0.000 C 
ATOM      7  C   UNL     1       4.951   0.939   0.000  0.00  0.00    +0.000 A 
ATOM      8  C   UNL     1       4.951   0.114   0.000  0.00  0.00    +0.000 A 
ATOM      9  C   UNL     1       5.688   1.380   0.000  0.00  0.00    +0.000 A 
ATOM     10  C   UNL     1       5.688  -0.328   0.000  0.00  0.00    +0.000 A 
ATOM     11  C   UNL     1       2.808  -0.299   0.000  0.00  0.00    +0.000 C 
ATOM     12  C   UNL     1       6.436   0.956   0.000  0.00  0.00    +0.000 A 
ATOM     13  C   UNL     1       6.436   0.096   0.000  0.00  0.00    +0.000 A 
ENDROOT
TORSDOF 0
