REMARK  Name = 4841
REMARK  6 active torsions:
REMARK  status: ('A' for Active; 'I' for Inactive)
REMARK    1  A    between atoms: N_3  and  C_7
REMARK    2  A    between atoms: N_4  and  C_10
REMARK    3  A    between atoms: C_7  and  C_11
REMARK    4  A    between atoms: C_7  and  C_12
REMARK    5  A    between atoms: C_10  and  C_13
REMARK    6  A    between atoms: C_22  and  C_25
REMARK                            x       y       z     vdW  Elec       q    Type
REMARK                         _______ _______ _______ _____ _____    ______ ____
ROOT
ATOM      1  N   UNL     1       4.508  -1.444   0.000  0.00  0.00    +0.000 NA
ATOM      2  N   UNL     1       4.508   0.206   0.000  0.00  0.00    +0.000 NA
ATOM      3  C   UNL     1       3.793  -1.031   0.000  0.00  0.00    +0.000 C 
ATOM      4  C   UNL     1       5.222  -1.031   0.000  0.00  0.00    +0.000 C 
ATOM      5  C   UNL     1       3.793  -0.206   0.000  0.00  0.00    +0.000 C 
ATOM      6  C   UNL     1       5.222  -0.206   0.000  0.00  0.00    +0.000 C 
ENDROOT
BRANCH   2   7
ATOM      7  C   UNL     1       4.508   1.031   0.000  0.00  0.00    +0.000 C 
BRANCH   7   8
ATOM      8  C   UNL     1       5.222   1.444   0.000  0.00  0.00    +0.000 C 
ATOM      9  C   UNL     1       5.222   2.269   0.000  0.00  0.00    +0.000 C 
BRANCH   9  10
ATOM     10  C   UNL     1       5.937   2.681   0.000  0.00  0.00    +0.000 A 
ATOM     11  C   UNL     1       5.937   3.506   0.000  0.00  0.00    +0.000 A 
ATOM     12  C   UNL     1       6.652   2.269   0.000  0.00  0.00    +0.000 A 
ATOM     13  C   UNL     1       6.652   3.919   0.000  0.00  0.00    +0.000 A 
ATOM     14  C   UNL     1       7.366   2.681   0.000  0.00  0.00    +0.000 A 
ATOM     15  C   UNL     1       7.366   3.506   0.000  0.00  0.00    +0.000 A 
ENDBRANCH   9  10
ENDBRANCH   7   8
ENDBRANCH   2   7
BRANCH   1  16
ATOM     16  C   UNL     1       4.508  -2.269   0.000  0.00  0.00    +0.000 C 
BRANCH  16  18
ATOM     17  F   UNL     1       1.650  -3.919   0.000  0.00  0.00    +0.000 F 
ATOM     18  C   UNL     1       3.793  -2.681   0.000  0.00  0.00    +0.000 A 
ATOM     19  C   UNL     1       3.793  -3.506   0.000  0.00  0.00    +0.000 A 
ATOM     20  C   UNL     1       3.079  -2.269   0.000  0.00  0.00    +0.000 A 
ATOM     21  C   UNL     1       3.079  -3.919   0.000  0.00  0.00    +0.000 A 
ATOM     22  C   UNL     1       2.365  -2.681   0.000  0.00  0.00    +0.000 A 
ATOM     23  C   UNL     1       2.365  -3.506   0.000  0.00  0.00    +0.000 A 
ENDBRANCH  16  18
BRANCH  16  25
ATOM     24  F   UNL     1       7.366  -3.919   0.000  0.00  0.00    +0.000 F 
ATOM     25  C   UNL     1       5.222  -2.681   0.000  0.00  0.00    +0.000 A 
ATOM     26  C   UNL     1       5.937  -2.269   0.000  0.00  0.00    +0.000 A 
ATOM     27  C   UNL     1       5.222  -3.506   0.000  0.00  0.00    +0.000 A 
ATOM     28  C   UNL     1       6.652  -2.681   0.000  0.00  0.00    +0.000 A 
ATOM     29  C   UNL     1       5.937  -3.919   0.000  0.00  0.00    +0.000 A 
ATOM     30  C   UNL     1       6.652  -3.506   0.000  0.00  0.00    +0.000 A 
ENDBRANCH  16  25
ENDBRANCH   1  16
TORSDOF 6
