REMARK  Name = 4842
REMARK  7 active torsions:
REMARK  status: ('A' for Active; 'I' for Inactive)
REMARK    1  A    between atoms: N_4  and  C_15
REMARK    2  A    between atoms: N_5  and  C_14
REMARK    3  A    between atoms: C_14  and  C_16
REMARK    4  A    between atoms: C_16  and  C_17
REMARK    5  A    between atoms: C_17  and  C_18
REMARK    6  A    between atoms: C_18  and  C_21
REMARK    7  A    between atoms: C_18  and  C_22
REMARK                            x       y       z     vdW  Elec       q    Type
REMARK                         _______ _______ _______ _____ _____    ______ ____
ROOT
ATOM      1  C   UNL     1       6.600   0.633   0.000  0.00  0.00    +0.000 C 
ENDROOT
BRANCH   1   4
ATOM      2  O   UNL     1       9.305  -0.819   0.000  0.00  0.00    +0.000 OA
ATOM      3  N   UNL     1       9.560   1.300   0.000  0.00  0.00    +0.000 N 
ATOM      4  N   UNL     1       7.425   0.633   0.000  0.00  0.00    +0.000 NA
ATOM      5  N   UNL     1      10.345   0.220   0.000  0.00  0.00    +0.000 NA
ATOM      6  C   UNL     1       9.075   0.633   0.000  0.00  0.00    +0.000 C 
ATOM      7  C   UNL     1       8.663  -0.082   0.000  0.00  0.00    +0.000 C 
ATOM      8  C   UNL     1       8.663   1.347   0.000  0.00  0.00    +0.000 C 
ATOM      9  C   UNL     1       7.838  -0.082   0.000  0.00  0.00    +0.000 C 
ATOM     10  C   UNL     1       7.838   1.347   0.000  0.00  0.00    +0.000 C 
ATOM     11  C   UNL     1       9.560  -0.035   0.000  0.00  0.00    +0.000 C 
ATOM     12  C   UNL     1      10.345   1.045   0.000  0.00  0.00    +0.000 C 
BRANCH   3  13
ATOM     13  C   UNL     1       9.305   2.085   0.000  0.00  0.00    +0.000 A 
ATOM     14  C   UNL     1       8.498   2.256   0.000  0.00  0.00    +0.000 A 
ATOM     15  C   UNL     1       9.857   2.698   0.000  0.00  0.00    +0.000 A 
ATOM     16  C   UNL     1       8.243   3.041   0.000  0.00  0.00    +0.000 A 
ATOM     17  C   UNL     1       9.602   3.483   0.000  0.00  0.00    +0.000 A 
ATOM     18  C   UNL     1       8.795   3.654   0.000  0.00  0.00    +0.000 A 
ENDBRANCH   3  13
ENDBRANCH   1   4
BRANCH   1  19
ATOM     19  C   UNL     1       6.188  -0.082   0.000  0.00  0.00    +0.000 C 
BRANCH  19  20
ATOM     20  C   UNL     1       5.363  -0.082   0.000  0.00  0.00    +0.000 C 
BRANCH  20  21
ATOM     21  C   UNL     1       4.950  -0.796   0.000  0.00  0.00    +0.000 C 
BRANCH  21  23
ATOM     22  F   UNL     1       1.650  -0.796   0.000  0.00  0.00    +0.000 F 
ATOM     23  C   UNL     1       4.125  -0.796   0.000  0.00  0.00    +0.000 A 
ATOM     24  C   UNL     1       3.713  -1.511   0.000  0.00  0.00    +0.000 A 
ATOM     25  C   UNL     1       3.713  -0.082   0.000  0.00  0.00    +0.000 A 
ATOM     26  C   UNL     1       2.888  -1.511   0.000  0.00  0.00    +0.000 A 
ATOM     27  C   UNL     1       2.888  -0.082   0.000  0.00  0.00    +0.000 A 
ATOM     28  C   UNL     1       2.475  -0.796   0.000  0.00  0.00    +0.000 A 
ENDBRANCH  21  23
BRANCH  21  30
ATOM     29  F   UNL     1       6.600  -3.654   0.000  0.00  0.00    +0.000 F 
ATOM     30  C   UNL     1       5.363  -1.511   0.000  0.00  0.00    +0.000 A 
ATOM     31  C   UNL     1       6.188  -1.511   0.000  0.00  0.00    +0.000 A 
ATOM     32  C   UNL     1       4.950  -2.225   0.000  0.00  0.00    +0.000 A 
ATOM     33  C   UNL     1       6.600  -2.225   0.000  0.00  0.00    +0.000 A 
ATOM     34  C   UNL     1       5.363  -2.940   0.000  0.00  0.00    +0.000 A 
ATOM     35  C   UNL     1       6.188  -2.940   0.000  0.00  0.00    +0.000 A 
ENDBRANCH  21  30
ENDBRANCH  20  21
ENDBRANCH  19  20
ENDBRANCH   1  19
TORSDOF 7
