REMARK  Name = 4858
REMARK  3 active torsions:
REMARK  status: ('A' for Active; 'I' for Inactive)
REMARK    1  A    between atoms: N_4  and  C_11
REMARK    2  A    between atoms: N_5  and  C_17
REMARK    3  A    between atoms: C_17  and  C_19
REMARK                            x       y       z     vdW  Elec       q    Type
REMARK                         _______ _______ _______ _____ _____    ______ ____
ROOT
ATOM      1  O   UNL     1       8.496  -1.168   0.000  0.00  0.00    +0.000 OA
ATOM      2  N   UNL     1       7.124  -1.168   0.000  0.00  0.00    +0.000 NA
ATOM      3  C   UNL     1       6.438   0.020   0.000  0.00  0.00    +0.000 A 
ATOM      4  C   UNL     1       7.124   0.416   0.000  0.00  0.00    +0.000 A 
ATOM      5  C   UNL     1       6.438  -0.772   0.000  0.00  0.00    +0.000 A 
ATOM      6  C   UNL     1       7.810   0.020   0.000  0.00  0.00    +0.000 A 
ATOM      7  C   UNL     1       5.730   0.444   0.000  0.00  0.00    +0.000 A 
ATOM      8  C   UNL     1       5.012   0.037   0.000  0.00  0.00    +0.000 A 
ATOM      9  C   UNL     1       5.730  -1.196   0.000  0.00  0.00    +0.000 A 
ATOM     10  C   UNL     1       7.810  -0.772   0.000  0.00  0.00    +0.000 A 
ATOM     11  C   UNL     1       5.012  -0.788   0.000  0.00  0.00    +0.000 A 
ATOM     12  C   UNL     1       7.111   1.241   0.000  0.00  0.00    +0.000 A 
ATOM     13  C   UNL     1       8.531   0.422   0.000  0.00  0.00    +0.000 A 
ATOM     14  C   UNL     1       7.823   1.659   0.000  0.00  0.00    +0.000 A 
ATOM     15  C   UNL     1       8.537   1.247   0.000  0.00  0.00    +0.000 A 
ENDROOT
BRANCH   8  17
ATOM     16  O   UNL     1       3.638  -0.750   0.000  0.00  0.00    +0.000 OA
ATOM     17  N   UNL     1       4.328   0.435   0.000  0.00  0.00    +0.000 NA
ATOM     18  C   UNL     1       3.640   0.042   0.000  0.00  0.00    +0.000 C 
BRANCH  18  19
ATOM     19  C   UNL     1       2.956   0.441   0.000  0.00  0.00    +0.000 C 
BRANCH  19  20
ATOM     20  N   UNL     1       2.269   0.047   0.000  0.00  0.00    +0.000 NA
ATOM     21  C   UNL     1       1.584   0.446   0.000  0.00  0.00    +0.000 C 
ATOM     22  C   UNL     1       2.265  -0.745   0.000  0.00  0.00    +0.000 C 
ENDBRANCH  19  20
ENDBRANCH  18  19
ENDBRANCH   8  17
TORSDOF 3
