REMARK  Name = 486
REMARK  6 active torsions:
REMARK  status: ('A' for Active; 'I' for Inactive)
REMARK    1  A    between atoms: C_16  and  C_17
REMARK    2  A    between atoms: C_16  and  C_20
REMARK    3  A    between atoms: C_20  and  C_23
REMARK    4  A    between atoms: C_23  and  C_24
REMARK    5  A    between atoms: C_24  and  C_25
REMARK    6  A    between atoms: C_25  and  C_26
REMARK                            x       y       z     vdW  Elec       q    Type
REMARK                         _______ _______ _______ _____ _____    ______ ____
ROOT
ATOM      1  O   UNL     1       8.849  -1.518   0.000  0.00  0.00    +0.000 OA
ATOM      2  O   UNL     1       9.574   2.251   0.000  0.00  0.00    +0.000 OA
ATOM      3  O   UNL     1       7.407   0.985   0.000  0.00  0.00    +0.000 OA
ATOM      4  C   UNL     1       9.564  -0.281   0.000  0.00  0.00    +0.000 C 
ATOM      5  C   UNL     1       8.849   0.132   0.000  0.00  0.00    +0.000 C 
ATOM      6  C   UNL     1       9.564  -1.106   0.000  0.00  0.00    +0.000 C 
ATOM      7  C   UNL     1      10.315   0.137   0.000  0.00  0.00    +0.000 C 
ATOM      8  C   UNL     1       8.836   0.991   0.000  0.00  0.00    +0.000 C 
ATOM      9  C   UNL     1       8.135  -0.281   0.000  0.00  0.00    +0.000 A 
ATOM     10  C   UNL     1      10.321   0.997   0.000  0.00  0.00    +0.000 C 
ATOM     11  C   UNL     1       8.135  -1.106   0.000  0.00  0.00    +0.000 A 
ATOM     12  C   UNL     1       9.577   1.426   0.000  0.00  0.00    +0.000 C 
ATOM     13  C   UNL     1       9.976  -1.820   0.000  0.00  0.00    +0.000 C 
ATOM     14  C   UNL     1      10.389  -1.106   0.000  0.00  0.00    +0.000 C 
ATOM     15  C   UNL     1       7.397   0.160   0.000  0.00  0.00    +0.000 A 
ATOM     16  C   UNL     1       6.650  -1.123   0.000  0.00  0.00    +0.000 A 
ATOM     17  C   UNL     1       7.397  -1.547   0.000  0.00  0.00    +0.000 A 
ATOM     18  C   UNL     1       6.650  -0.264   0.000  0.00  0.00    +0.000 A 
ENDROOT
BRANCH  16  19
ATOM     19  C   UNL     1       5.937  -1.538   0.000  0.00  0.00    +0.000 C 
ATOM     20  C   UNL     1       6.352  -2.251   0.000  0.00  0.00    +0.000 C 
ATOM     21  C   UNL     1       5.522  -0.826   0.000  0.00  0.00    +0.000 C 
BRANCH  19  22
ATOM     22  C   UNL     1       5.224  -1.954   0.000  0.00  0.00    +0.000 C 
BRANCH  22  23
ATOM     23  C   UNL     1       4.508  -1.544   0.000  0.00  0.00    +0.000 C 
BRANCH  23  24
ATOM     24  C   UNL     1       3.795  -1.959   0.000  0.00  0.00    +0.000 C 
BRANCH  24  25
ATOM     25  C   UNL     1       3.079  -1.549   0.000  0.00  0.00    +0.000 C 
BRANCH  25  26
ATOM     26  C   UNL     1       2.366  -1.965   0.000  0.00  0.00    +0.000 C 
ATOM     27  C   UNL     1       1.650  -1.555   0.000  0.00  0.00    +0.000 C 
ENDBRANCH  25  26
ENDBRANCH  24  25
ENDBRANCH  23  24
ENDBRANCH  22  23
ENDBRANCH  19  22
ENDBRANCH  16  19
TORSDOF 6
