REMARK  Name = 487
REMARK  3 active torsions:
REMARK  status: ('A' for Active; 'I' for Inactive)
REMARK    1  A    between atoms: N_5  and  C_12
REMARK    2  A    between atoms: N_7  and  C_19
REMARK    3  A    between atoms: C_22  and  C_24
REMARK                            x       y       z     vdW  Elec       q    Type
REMARK                         _______ _______ _______ _____ _____    ______ ____
ROOT
ATOM      1  F   UNL     1       7.149   1.065   0.000  0.00  0.00    +0.000 F 
ATOM      2  O   UNL     1       4.236   1.870   0.000  0.00  0.00    +0.000 OA
ATOM      3  N   UNL     1       4.236  -0.605   0.000  0.00  0.00    +0.000 N 
ATOM      4  C   UNL     1       6.436  -0.209   0.000  0.00  0.00    +0.000 A 
ATOM      5  C   UNL     1       4.951  -0.192   0.000  0.00  0.00    +0.000 A 
ATOM      6  C   UNL     1       5.688  -0.633   0.000  0.00  0.00    +0.000 A 
ATOM      7  C   UNL     1       6.436   0.650   0.000  0.00  0.00    +0.000 A 
ATOM      8  C   UNL     1       4.951   0.633   0.000  0.00  0.00    +0.000 A 
ATOM      9  C   UNL     1       5.688   1.074   0.000  0.00  0.00    +0.000 A 
ATOM     10  C   UNL     1       4.236   1.045   0.000  0.00  0.00    +0.000 A 
ATOM     11  C   UNL     1       3.522  -0.192   0.000  0.00  0.00    +0.000 A 
ATOM     12  C   UNL     1       3.522   0.633   0.000  0.00  0.00    +0.000 A 
ENDROOT
BRANCH   4  13
ATOM     13  N   UNL     1       7.149  -0.625   0.000  0.00  0.00    +0.000 N 
ATOM     14  N   UNL     1       8.575  -1.455   0.000  0.00  0.00    +0.000 NA
ATOM     15  C   UNL     1       7.146  -1.450   0.000  0.00  0.00    +0.000 C 
ATOM     16  C   UNL     1       7.865  -0.215   0.000  0.00  0.00    +0.000 C 
ATOM     17  C   UNL     1       7.859  -1.865   0.000  0.00  0.00    +0.000 C 
ATOM     18  C   UNL     1       8.578  -0.630   0.000  0.00  0.00    +0.000 C 
ATOM     19  C   UNL     1       9.287  -1.870   0.000  0.00  0.00    +0.000 C 
ENDBRANCH   4  13
BRANCH  12  22
ATOM     20  O   UNL     1       2.093   0.633   0.000  0.00  0.00    +0.000 OA
ATOM     21  O   UNL     1       2.808   1.870   0.000  0.00  0.00    +0.000 OA
ATOM     22  C   UNL     1       2.808   1.045   0.000  0.00  0.00    +0.000 C 
ENDBRANCH  12  22
BRANCH   3  23
ATOM     23  C   UNL     1       4.236  -1.430   0.000  0.00  0.00    +0.000 C 
ATOM     24  C   UNL     1       3.522  -1.842   0.000  0.00  0.00    +0.000 C 
ENDBRANCH   3  23
TORSDOF 3
