REMARK  Name = 488
REMARK  0 active torsions:
REMARK  status: ('A' for Active; 'I' for Inactive)
REMARK                            x       y       z     vdW  Elec       q    Type
REMARK                         _______ _______ _______ _____ _____    ______ ____
ROOT
ATOM      1  N   UNL     1       3.793   1.444   0.000  0.00  0.00    +0.000 N 
ATOM      2  N   UNL     1       5.222  -1.031   0.000  0.00  0.00    +0.000 N 
ATOM      3  N   UNL     1       2.364  -1.031   0.000  0.00  0.00    +0.000 N 
ATOM      4  N   UNL     1       4.508   0.206   0.000  0.00  0.00    +0.000 NA
ATOM      5  N   UNL     1       3.079   0.206   0.000  0.00  0.00    +0.000 NA
ATOM      6  N   UNL     1       3.793  -1.031   0.000  0.00  0.00    +0.000 NA
ATOM      7  C   UNL     1       3.793   0.619   0.000  0.00  0.00    +0.000 A 
ATOM      8  C   UNL     1       4.508  -0.619   0.000  0.00  0.00    +0.000 A 
ATOM      9  C   UNL     1       3.079  -0.619   0.000  0.00  0.00    +0.000 A 
ATOM     10  C   UNL     1       3.079   1.856   0.000  0.00  0.00    +0.000 C 
ATOM     11  C   UNL     1       4.508   1.856   0.000  0.00  0.00    +0.000 C 
ATOM     12  C   UNL     1       5.222  -1.856   0.000  0.00  0.00    +0.000 C 
ATOM     13  C   UNL     1       5.937  -0.619   0.000  0.00  0.00    +0.000 C 
ATOM     14  C   UNL     1       2.364  -1.856   0.000  0.00  0.00    +0.000 C 
ATOM     15  C   UNL     1       1.650  -0.619   0.000  0.00  0.00    +0.000 C 
ENDROOT
TORSDOF 0
