REMARK  Name = 491
REMARK  3 active torsions:
REMARK  status: ('A' for Active; 'I' for Inactive)
REMARK    1  A    between atoms: N_6  and  C_13
REMARK    2  A    between atoms: C_7  and  C_12
REMARK    3  A    between atoms: C_13  and  C_14
REMARK                            x       y       z     vdW  Elec       q    Type
REMARK                         _______ _______ _______ _____ _____    ______ ____
ROOT
ATOM      1  O   UNL     1       4.951  -1.444   0.000  0.00  0.00    +0.000 OA
ATOM      2  O   UNL     1       3.522  -2.269   0.000  0.00  0.00    +0.000 OA
ATOM      3  O   UNL     1       2.093  -1.444   0.000  0.00  0.00    +0.000 OA
ATOM      4  N   UNL     1       3.522   0.206   0.000  0.00  0.00    +0.000 NA
ATOM      5  C   UNL     1       4.237  -0.206   0.000  0.00  0.00    +0.000 C 
ATOM      6  C   UNL     1       4.237  -1.031   0.000  0.00  0.00    +0.000 C 
ATOM      7  C   UNL     1       3.522  -1.444   0.000  0.00  0.00    +0.000 C 
ATOM      8  C   UNL     1       2.808  -1.031   0.000  0.00  0.00    +0.000 C 
ATOM      9  C   UNL     1       2.808  -0.206   0.000  0.00  0.00    +0.000 C 
ENDROOT
BRANCH   5  11
ATOM     10  O   UNL     1       4.951   1.031   0.000  0.00  0.00    +0.000 OA
ATOM     11  C   UNL     1       4.951   0.206   0.000  0.00  0.00    +0.000 C 
ENDBRANCH   5  11
BRANCH   4  12
ATOM     12  C   UNL     1       3.522   1.031   0.000  0.00  0.00    +0.000 C 
BRANCH  12  14
ATOM     13  O   UNL     1       2.808   2.269   0.000  0.00  0.00    +0.000 OA
ATOM     14  C   UNL     1       2.808   1.444   0.000  0.00  0.00    +0.000 C 
ENDBRANCH  12  14
ENDBRANCH   4  12
TORSDOF 3
