REMARK  Name = 492
REMARK  2 active torsions:
REMARK  status: ('A' for Active; 'I' for Inactive)
REMARK    1  A    between atoms: C_2  and  C_3
REMARK    2  A    between atoms: C_5  and  C_8
REMARK                            x       y       z     vdW  Elec       q    Type
REMARK                         _______ _______ _______ _____ _____    ______ ____
ROOT
ATOM      1  C   UNL     1      -0.704   0.918   0.000  0.00  0.00    +0.000 A 
ATOM      2  S   UNL     1      -0.036   0.433   0.000  0.00  0.00    +0.000 S 
ATOM      3  C   UNL     1      -0.291  -0.351   0.000  0.00  0.00    +0.000 A 
ATOM      4  C   UNL     1      -1.116  -0.351   0.000  0.00  0.00    +0.000 A 
ATOM      5  C   UNL     1      -1.371   0.433   0.000  0.00  0.00    +0.000 A 
ENDROOT
BRANCH   3   6
ATOM      6  C   UNL     1       0.194  -1.019   0.000  0.00  0.00    +0.000 A 
ATOM      7  S   UNL     1      -0.061  -1.803   0.000  0.00  0.00    +0.000 S 
ATOM      8  C   UNL     1       0.606  -2.288   0.000  0.00  0.00    +0.000 A 
ATOM      9  C   UNL     1       1.274  -1.803   0.000  0.00  0.00    +0.000 A 
ATOM     10  C   UNL     1       1.019  -1.019   0.000  0.00  0.00    +0.000 A 
ENDBRANCH   3   6
BRANCH   1  12
ATOM     11  N   UNL     1      -1.418   2.156   0.000  0.00  0.00    +0.000 NA
ATOM     12  C   UNL     1      -0.704   1.743   0.000  0.00  0.00    +0.000 C 
ENDBRANCH   1  12
TORSDOF 2
