REMARK  Name = 494
REMARK  6 active torsions:
REMARK  status: ('A' for Active; 'I' for Inactive)
REMARK    1  A    between atoms: N_6  and  C_9
REMARK    2  A    between atoms: N_6  and  C_10
REMARK    3  A    between atoms: N_7  and  C_19
REMARK    4  A    between atoms: C_11  and  C_15
REMARK    5  A    between atoms: C_14  and  C_16
REMARK    6  A    between atoms: C_15  and  C_22
REMARK                            x       y       z     vdW  Elec       q    Type
REMARK                         _______ _______ _______ _____ _____    ______ ____
ROOT
ATOM      1  O   UNL     1       5.222  -2.141   0.000  0.00  0.00    +0.000 OA
ATOM      2  O   UNL     1       3.793  -2.966   0.000  0.00  0.00    +0.000 OA
ATOM      3  C   UNL     1       3.793  -0.491   0.000  0.00  0.00    +0.000 A 
ATOM      4  C   UNL     1       3.079  -0.903   0.000  0.00  0.00    +0.000 A 
ATOM      5  C   UNL     1       4.508  -0.903   0.000  0.00  0.00    +0.000 A 
ATOM      6  C   UNL     1       3.079  -1.728   0.000  0.00  0.00    +0.000 A 
ATOM      7  C   UNL     1       4.508  -1.728   0.000  0.00  0.00    +0.000 A 
ATOM      8  C   UNL     1       3.793  -2.141   0.000  0.00  0.00    +0.000 A 
ENDROOT
BRANCH   6  11
ATOM      9  O   UNL     1       1.650  -1.728   0.000  0.00  0.00    +0.000 OA
ATOM     10  O   UNL     1       2.365  -2.966   0.000  0.00  0.00    +0.000 OA
ATOM     11  N   UNL     1       2.365  -2.141   0.000  0.00  0.00    +0.000 N 
ENDBRANCH   6  11
BRANCH   3  13
ATOM     12  C   UNL     1       4.508   0.747   0.000  0.00  0.00    +0.000 C 
ATOM     13  C   UNL     1       3.793   0.334   0.000  0.00  0.00    +0.000 C 
BRANCH  12  16
ATOM     14  O   UNL     1       3.793   1.984   0.000  0.00  0.00    +0.000 OA
ATOM     15  N   UNL     1       5.222   1.984   0.000  0.00  0.00    +0.000 N 
ATOM     16  C   UNL     1       4.508   1.572   0.000  0.00  0.00    +0.000 C 
BRANCH  15  17
ATOM     17  C   UNL     1       5.222   2.809   0.000  0.00  0.00    +0.000 C 
ATOM     18  C   UNL     1       5.937   3.222   0.000  0.00  0.00    +0.000 C 
ENDBRANCH  15  17
BRANCH  15  19
ATOM     19  C   UNL     1       5.937   1.572   0.000  0.00  0.00    +0.000 C 
ATOM     20  C   UNL     1       6.652   1.984   0.000  0.00  0.00    +0.000 C 
ENDBRANCH  15  19
ENDBRANCH  12  16
BRANCH  12  22
ATOM     21  N   UNL     1       5.937  -0.078   0.000  0.00  0.00    +0.000 NA
ATOM     22  C   UNL     1       5.222   0.334   0.000  0.00  0.00    +0.000 C 
ENDBRANCH  12  22
ENDBRANCH   3  13
TORSDOF 6
