REMARK  Name = 495
REMARK  3 active torsions:
REMARK  status: ('A' for Active; 'I' for Inactive)
REMARK    1  A    between atoms: N_5  and  C_11
REMARK    2  A    between atoms: N_6  and  C_10
REMARK    3  A    between atoms: C_13  and  C_14
REMARK                            x       y       z     vdW  Elec       q    Type
REMARK                         _______ _______ _______ _____ _____    ______ ____
ROOT
ATOM      1  O   UNL     1       4.856  -1.003   0.000  0.00  0.00    +0.000 OA
ATOM      2  C   UNL     1       3.776  -1.787   0.000  0.00  0.00    +0.000 C 
ATOM      3  C   UNL     1       4.188  -0.518   0.000  0.00  0.00    +0.000 C 
ATOM      4  C   UNL     1       3.521  -1.003   0.000  0.00  0.00    +0.000 C 
ATOM      5  C   UNL     1       4.601  -1.787   0.000  0.00  0.00    +0.000 C 
ENDROOT
BRANCH   3   8
ATOM      6  O   UNL     1       2.760   0.307   0.000  0.00  0.00    +0.000 OA
ATOM      7  O   UNL     1       4.188   2.782   0.000  0.00  0.00    +0.000 OA
ATOM      8  N   UNL     1       4.188   0.307   0.000  0.00  0.00    +0.000 N 
ATOM      9  N   UNL     1       3.474   1.545   0.000  0.00  0.00    +0.000 NA
ATOM     10  C   UNL     1       4.903   0.720   0.000  0.00  0.00    +0.000 A 
ATOM     11  C   UNL     1       3.474   0.720   0.000  0.00  0.00    +0.000 A 
ATOM     12  C   UNL     1       4.903   1.545   0.000  0.00  0.00    +0.000 A 
ATOM     13  C   UNL     1       4.188   1.957   0.000  0.00  0.00    +0.000 A 
ATOM     14  C   UNL     1       5.617   1.957   0.000  0.00  0.00    +0.000 C 
ENDBRANCH   3   8
BRANCH   2  15
ATOM     15  N   UNL     1       3.291  -2.455   0.000  0.00  0.00    +0.000 NA
ATOM     16  N   UNL     1       2.470  -2.369   0.000  0.00  0.00    +0.000 NA
ATOM     17  N   UNL     1       1.650  -2.282   0.000  0.00  0.00    +0.000 NA
ENDBRANCH   2  15
BRANCH   5  19
ATOM     18  O   UNL     1       5.906  -2.369   0.000  0.00  0.00    +0.000 OA
ATOM     19  C   UNL     1       5.086  -2.455   0.000  0.00  0.00    +0.000 C 
ENDBRANCH   5  19
TORSDOF 3
