REMARK  Name = 496
REMARK  7 active torsions:
REMARK  status: ('A' for Active; 'I' for Inactive)
REMARK    1  A    between atoms: N_3  and  C_10
REMARK    2  A    between atoms: C_5  and  C_6
REMARK    3  A    between atoms: C_6  and  C_11
REMARK    4  A    between atoms: C_6  and  C_12
REMARK    5  A    between atoms: C_6  and  C_13
REMARK    6  A    between atoms: C_10  and  C_14
REMARK    7  A    between atoms: C_14  and  C_19
REMARK                            x       y       z     vdW  Elec       q    Type
REMARK                         _______ _______ _______ _____ _____    ______ ____
ROOT
ATOM      1  N   UNL     1       6.238   0.045   0.000  0.00  0.00    +0.000 NA
ATOM      2  C   UNL     1       4.932   0.323   0.000  0.00  0.00    +0.000 C 
ATOM      3  C   UNL     1       5.345   1.038   0.000  0.00  0.00    +0.000 C 
ATOM      4  C   UNL     1       5.484  -0.290   0.000  0.00  0.00    +0.000 C 
ATOM      5  C   UNL     1       6.152   0.866   0.000  0.00  0.00    +0.000 C 
ENDROOT
BRANCH   1   6
ATOM      6  C   UNL     1       6.952  -0.367   0.000  0.00  0.00    +0.000 C 
BRANCH   6   7
ATOM      7  C   UNL     1       7.667   0.045   0.000  0.00  0.00    +0.000 C 
BRANCH   7   9
ATOM      8  O   UNL     1      10.591  -1.444   0.000  0.00  0.00    +0.000 OA
ATOM      9  C   UNL     1       8.381  -0.367   0.000  0.00  0.00    +0.000 A 
ATOM     10  C   UNL     1       9.096   0.045   0.000  0.00  0.00    +0.000 A 
ATOM     11  C   UNL     1       8.381  -1.192   0.000  0.00  0.00    +0.000 A 
ATOM     12  C   UNL     1       9.810  -0.367   0.000  0.00  0.00    +0.000 A 
ATOM     13  C   UNL     1       9.810  -1.192   0.000  0.00  0.00    +0.000 A 
ATOM     14  C   UNL     1      10.591  -0.116   0.000  0.00  0.00    +0.000 C 
ATOM     15  C   UNL     1       9.096  -1.605   0.000  0.00  0.00    +0.000 A 
ATOM     16  C   UNL     1      11.072  -0.780   0.000  0.00  0.00    +0.000 C 
ENDBRANCH   7   9
ENDBRANCH   6   7
ENDBRANCH   1   6
BRANCH   2  17
ATOM     17  C   UNL     1       4.112   0.237   0.000  0.00  0.00    +0.000 C 
BRANCH  17  18
ATOM     18  C   UNL     1       4.198  -0.584   0.000  0.00  0.00    +0.000 A 
ATOM     19  C   UNL     1       3.530  -1.069   0.000  0.00  0.00    +0.000 A 
ATOM     20  C   UNL     1       4.951  -0.919   0.000  0.00  0.00    +0.000 A 
ATOM     21  C   UNL     1       3.616  -1.889   0.000  0.00  0.00    +0.000 A 
ATOM     22  C   UNL     1       5.038  -1.740   0.000  0.00  0.00    +0.000 A 
ATOM     23  C   UNL     1       4.370  -2.225   0.000  0.00  0.00    +0.000 A 
ENDBRANCH  17  18
BRANCH  17  24
ATOM     24  C   UNL     1       3.291   0.150   0.000  0.00  0.00    +0.000 A 
ATOM     25  C   UNL     1       2.806   0.818   0.000  0.00  0.00    +0.000 A 
ATOM     26  C   UNL     1       2.955  -0.603   0.000  0.00  0.00    +0.000 A 
ATOM     27  C   UNL     1       1.986   0.732   0.000  0.00  0.00    +0.000 A 
ATOM     28  C   UNL     1       2.135  -0.689   0.000  0.00  0.00    +0.000 A 
ATOM     29  C   UNL     1       1.650  -0.022   0.000  0.00  0.00    +0.000 A 
ENDBRANCH  17  24
BRANCH  17  32
ATOM     30  O   UNL     1       3.272   1.393   0.000  0.00  0.00    +0.000 OA
ATOM     31  N   UNL     1       4.361   1.811   0.000  0.00  0.00    +0.000 NA
ATOM     32  C   UNL     1       4.025   1.057   0.000  0.00  0.00    +0.000 C 
ENDBRANCH  17  32
ENDBRANCH   2  17
TORSDOF 7
