REMARK  Name = 497
REMARK  4 active torsions:
REMARK  status: ('A' for Active; 'I' for Inactive)
REMARK    1  A    between atoms: C_2  and  C_3
REMARK    2  A    between atoms: C_10  and  N_11
REMARK    3  A    between atoms: C_12  and  C_14
REMARK    4  A    between atoms: C_19  and  C_24
REMARK                            x       y       z     vdW  Elec       q    Type
REMARK                         _______ _______ _______ _____ _____    ______ ____
ROOT
ATOM      1  N   UNL     1       0.231  -0.644   0.000  0.00  0.00    +0.000 NA
ATOM      2  C   UNL     1       0.231   0.181   0.000  0.00  0.00    +0.000 C 
ATOM      3  O   UNL     1      -0.483   0.594   0.000  0.00  0.00    +0.000 OA
ENDROOT
BRANCH   1  11
ATOM      4  C   UNL     1      -2.627  -0.644   0.000  0.00  0.00    +0.000 C 
ATOM      5  C   UNL     1      -3.341  -1.056   0.000  0.00  0.00    +0.000 C 
ATOM      6  N   UNL     1      -3.341  -1.881   0.000  0.00  0.00    +0.000 NA
ATOM      7  C   UNL     1      -2.627  -2.294   0.000  0.00  0.00    +0.000 C 
ATOM      8  C   UNL     1      -1.912  -1.881   0.000  0.00  0.00    +0.000 A 
ATOM      9  C   UNL     1      -1.912  -1.056   0.000  0.00  0.00    +0.000 A 
ATOM     10  C   UNL     1      -1.198  -0.644   0.000  0.00  0.00    +0.000 A 
ATOM     11  C   UNL     1      -0.483  -1.056   0.000  0.00  0.00    +0.000 A 
ATOM     12  C   UNL     1      -0.483  -1.881   0.000  0.00  0.00    +0.000 A 
ATOM     13  C   UNL     1      -1.198  -2.294   0.000  0.00  0.00    +0.000 A 
BRANCH   4  15
ATOM     14  C   UNL     1      -3.341   0.594   0.000  0.00  0.00    +0.000 C 
ATOM     15  C   UNL     1      -2.627   0.181   0.000  0.00  0.00    +0.000 C 
ENDBRANCH   4  15
ENDBRANCH   1  11
BRANCH   2  16
ATOM     16  C   UNL     1       0.946   0.594   0.000  0.00  0.00    +0.000 A 
ATOM     17  C   UNL     1       0.946   1.419   0.000  0.00  0.00    +0.000 A 
ATOM     18  C   UNL     1       1.660   1.831   0.000  0.00  0.00    +0.000 A 
ATOM     19  C   UNL     1       2.375   1.419   0.000  0.00  0.00    +0.000 A 
ATOM     20  C   UNL     1       3.089   1.831   0.000  0.00  0.00    +0.000 A 
ATOM     21  C   UNL     1       3.804   1.419   0.000  0.00  0.00    +0.000 A 
ATOM     22  C   UNL     1       3.804   0.594   0.000  0.00  0.00    +0.000 A 
ATOM     23  C   UNL     1       3.089   0.181   0.000  0.00  0.00    +0.000 A 
ATOM     24  C   UNL     1       2.375   0.594   0.000  0.00  0.00    +0.000 A 
ATOM     25  C   UNL     1       1.660   0.181   0.000  0.00  0.00    +0.000 A 
BRANCH  21  26
ATOM     26  C   UNL     1       4.518   1.831   0.000  0.00  0.00    +0.000 C 
ATOM     27  N   UNL     1       4.518   2.656   0.000  0.00  0.00    +0.000 NA
ATOM     28  N   UNL     1       5.233   1.419   0.000  0.00  0.00    +0.000 NA
ENDBRANCH  21  26
ENDBRANCH   2  16
TORSDOF 4
