REMARK  Name = 497
REMARK  1 active torsions:
REMARK  status: ('A' for Active; 'I' for Inactive)
REMARK    1  A    between atoms: C_4  and  O_18
REMARK                            x       y       z     vdW  Elec       q    Type
REMARK                         _______ _______ _______ _____ _____    ______ ____
ROOT
ATOM      1  C   UNL     1      -0.702  -0.008   0.000  0.00  0.00    +0.000 A 
ATOM      2  C   UNL     1      -1.417   0.405   0.000  0.00  0.00    +0.000 A 
ATOM      3  C   UNL     1       0.012   0.405   0.000  0.00  0.00    +0.000 A 
ATOM      4  C   UNL     1      -1.417   1.230   0.000  0.00  0.00    +0.000 A 
ATOM      5  C   UNL     1       0.012   1.230   0.000  0.00  0.00    +0.000 A 
ATOM      6  C   UNL     1      -0.702   1.642   0.000  0.00  0.00    +0.000 A 
ATOM      7  C   UNL     1      -0.699  -0.829   0.000  0.00  0.00    +0.000 C 
ATOM      8  C   UNL     1       0.009  -1.246   0.000  0.00  0.00    +0.000 C 
ATOM      9  C   UNL     1      -1.415  -1.234   0.000  0.00  0.00    +0.000 C 
ATOM     10  C   UNL     1       0.725  -0.834   0.000  0.00  0.00    +0.000 C 
ATOM     11  C   UNL     1       0.004  -2.064   0.000  0.00  0.00    +0.000 C 
ATOM     12  O   UNL     1      -2.239  -0.357   0.000  0.00  0.00    +0.000 OA
ATOM     13  C   UNL     1      -1.423  -2.052   0.000  0.00  0.00    +0.000 C 
ATOM     14  C   UNL     1       0.729  -0.012   0.000  0.00  0.00    +0.000 C 
ATOM     15  N   UNL     1       1.440  -1.254   0.000  0.00  0.00    +0.000 NA
ATOM     16  C   UNL     1      -0.715  -2.472   0.000  0.00  0.00    +0.000 C 
ATOM     17  O   UNL     1      -2.136  -2.466   0.000  0.00  0.00    +0.000 OA
ATOM     18  C   UNL     1       2.239  -1.036   0.000  0.00  0.00    +0.000 C 
ATOM     19  O   UNL     1       0.679  -1.727   0.000  0.00  0.00    +0.000 OA
ATOM     20  C   UNL     1       1.438  -0.417   0.000  0.00  0.00    +0.000 C 
ATOM     21  C   UNL     1       0.016  -0.416   0.000  0.00  0.00    +0.000 C 
ENDROOT
BRANCH   4  22
ATOM     22  O   UNL     1      -2.128   1.647   0.000  0.00  0.00    +0.000 OA
ATOM     23  C   UNL     1      -2.123   2.472   0.000  0.00  0.00    +0.000 C 
ENDBRANCH   4  22
TORSDOF 1
