REMARK  Name = 499
REMARK  4 active torsions:
REMARK  status: ('A' for Active; 'I' for Inactive)
REMARK    1  A    between atoms: N_7  and  C_10
REMARK    2  A    between atoms: N_8  and  C_16
REMARK    3  A    between atoms: C_9  and  C_11
REMARK    4  A    between atoms: C_12  and  C_19
REMARK                            x       y       z     vdW  Elec       q    Type
REMARK                         _______ _______ _______ _____ _____    ______ ____
ROOT
ATOM      1  C   UNL     1       4.508  -0.206   0.000  0.00  0.00    +0.000 A 
ATOM      2  C   UNL     1       3.793   1.031   0.000  0.00  0.00    +0.000 A 
ATOM      3  C   UNL     1       4.508   0.619   0.000  0.00  0.00    +0.000 A 
ATOM      4  C   UNL     1       3.079   0.619   0.000  0.00  0.00    +0.000 A 
ATOM      5  C   UNL     1       3.793  -0.619   0.000  0.00  0.00    +0.000 A 
ATOM      6  C   UNL     1       3.079  -0.206   0.000  0.00  0.00    +0.000 A 
ENDROOT
BRANCH   2  10
ATOM      7  F   UNL     1       2.969   1.856   0.000  0.00  0.00    +0.000 F 
ATOM      8  F   UNL     1       4.619   1.856   0.000  0.00  0.00    +0.000 F 
ATOM      9  F   UNL     1       3.793   2.681   0.000  0.00  0.00    +0.000 F 
ATOM     10  C   UNL     1       3.793   1.856   0.000  0.00  0.00    +0.000 C 
ENDBRANCH   2  10
BRANCH   1  12
ATOM     11  O   UNL     1       4.508  -1.856   0.000  0.00  0.00    +0.000 OA
ATOM     12  N   UNL     1       5.222  -0.619   0.000  0.00  0.00    +0.000 NA
ATOM     13  C   UNL     1       5.222  -1.444   0.000  0.00  0.00    +0.000 C 
BRANCH  13  14
ATOM     14  C   UNL     1       5.937  -1.856   0.000  0.00  0.00    +0.000 C 
ATOM     15  C   UNL     1       6.652  -1.444   0.000  0.00  0.00    +0.000 C 
ATOM     16  C   UNL     1       5.937  -2.681   0.000  0.00  0.00    +0.000 C 
ENDBRANCH  13  14
ENDBRANCH   1  12
BRANCH   4  19
ATOM     17  O   UNL     1       1.650   0.619   0.000  0.00  0.00    +0.000 OA
ATOM     18  O   UNL     1       2.365   1.856   0.000  0.00  0.00    +0.000 OA
ATOM     19  N   UNL     1       2.365   1.031   0.000  0.00  0.00    +0.000 N 
ENDBRANCH   4  19
TORSDOF 4
