REMARK  Name = 49U
REMARK  7 active torsions:
REMARK  status: ('A' for Active; 'I' for Inactive)
REMARK    1  A    between atoms: C_2  and  C_14
REMARK    2  A    between atoms: N_3  and  C_4
REMARK    3  A    between atoms: C_4  and  C_5
REMARK    4  A    between atoms: C_8  and  C_9
REMARK    5  A    between atoms: C_19  and  C_21
REMARK    6  A    between atoms: C_21  and  C_22
REMARK    7  A    between atoms: C_22  and  C_23
REMARK                            x       y       z     vdW  Elec       q    Type
REMARK                         _______ _______ _______ _____ _____    ______ ____
ROOT
ATOM      1  C   UNL     1      -0.085  -0.454   0.000  0.00  0.00    +0.000 C 
ATOM      2  C   UNL     1      -0.752  -0.939   0.000  0.00  0.00    +0.000 C 
ATOM      3  C   UNL     1      -0.497  -1.723   0.000  0.00  0.00    +0.000 C 
ATOM      4  C   UNL     1       0.328  -1.723   0.000  0.00  0.00    +0.000 C 
ATOM      5  N   UNL     1       0.583  -0.939   0.000  0.00  0.00    +0.000 N 
ATOM      6  C   UNL     1       1.368  -0.684   0.000  0.00  0.00    +0.000 C 
ATOM      7  O   UNL     1       1.539   0.123   0.000  0.00  0.00    +0.000 OA
ENDROOT
BRANCH   1   9
ATOM      8  O   UNL     1       0.630   0.784   0.000  0.00  0.00    +0.000 OA
ATOM      9  C   UNL     1      -0.085   0.371   0.000  0.00  0.00    +0.000 C 
ATOM     10  N   UNL     1      -0.799   0.784   0.000  0.00  0.00    +0.000 NA
BRANCH  10  11
ATOM     11  C   UNL     1      -0.799   1.609   0.000  0.00  0.00    +0.000 C 
BRANCH  11  12
ATOM     12  C   UNL     1      -1.513   2.021   0.000  0.00  0.00    +0.000 A 
ATOM     13  C   UNL     1      -1.513   2.846   0.000  0.00  0.00    +0.000 A 
ATOM     14  C   UNL     1      -2.228   3.259   0.000  0.00  0.00    +0.000 A 
ATOM     15  C   UNL     1      -2.942   2.846   0.000  0.00  0.00    +0.000 A 
ATOM     16  C   UNL     1      -2.942   2.021   0.000  0.00  0.00    +0.000 A 
ATOM     17  C   UNL     1      -2.228   1.609   0.000  0.00  0.00    +0.000 A 
BRANCH  15  18
ATOM     18  C   UNL     1      -3.657   3.259   0.000  0.00  0.00    +0.000 C 
ATOM     19  N   UNL     1      -4.371   2.846   0.000  0.00  0.00    +0.000 NA
ATOM     20  N   UNL     1      -3.657   4.084   0.000  0.00  0.00    +0.000 NA
ENDBRANCH  15  18
ENDBRANCH  11  12
ENDBRANCH  10  11
ENDBRANCH   1   9
BRANCH   6  21
ATOM     21  C   UNL     1       1.981  -1.236   0.000  0.00  0.00    +0.000 C 
BRANCH  21  22
ATOM     22  C   UNL     1       2.765  -0.981   0.000  0.00  0.00    +0.000 C 
BRANCH  22  23
ATOM     23  C   UNL     1       3.378  -1.533   0.000  0.00  0.00    +0.000 C 
ATOM     24  C   UNL     1       4.185  -1.361   0.000  0.00  0.00    +0.000 C 
ATOM     25  C   UNL     1       4.598  -2.076   0.000  0.00  0.00    +0.000 C 
ATOM     26  C   UNL     1       4.046  -2.689   0.000  0.00  0.00    +0.000 C 
ATOM     27  C   UNL     1       3.292  -2.353   0.000  0.00  0.00    +0.000 C 
ENDBRANCH  22  23
ENDBRANCH  21  22
ENDBRANCH   6  21
TORSDOF 7
