REMARK  Name = 4AN
REMARK  0 active torsions:
REMARK  status: ('A' for Active; 'I' for Inactive)
REMARK                            x       y       z     vdW  Elec       q    Type
REMARK                         _______ _______ _______ _____ _____    ______ ____
ROOT
ATOM      1  C   UNL     1      -0.969   1.284   0.000  0.00  0.00    +0.000 C 
ATOM      2  O   UNL     1      -0.969   2.109   0.000  0.00  0.00    +0.000 OA
ATOM      3  C   UNL     1      -0.255   0.872   0.000  0.00  0.00    +0.000 A 
ATOM      4  C   UNL     1       0.460   1.284   0.000  0.00  0.00    +0.000 A 
ATOM      5  C   UNL     1       1.174   0.872   0.000  0.00  0.00    +0.000 A 
ATOM      6  C   UNL     1       1.174   0.047   0.000  0.00  0.00    +0.000 A 
ATOM      7  N   UNL     1       1.889  -0.366   0.000  0.00  0.00    +0.000 NA
ATOM      8  C   UNL     1       0.460  -1.191   0.000  0.00  0.00    +0.000 A 
ATOM      9  C   UNL     1      -0.255  -1.603   0.000  0.00  0.00    +0.000 A 
ATOM     10  C   UNL     1      -0.969  -1.191   0.000  0.00  0.00    +0.000 A 
ATOM     11  C   UNL     1      -0.969  -0.366   0.000  0.00  0.00    +0.000 A 
ATOM     12  C   UNL     1      -1.684   0.047   0.000  0.00  0.00    +0.000 C 
ATOM     13  O   UNL     1      -2.398  -0.366   0.000  0.00  0.00    +0.000 OA
ATOM     14  N   UNL     1      -1.684   0.872   0.000  0.00  0.00    +0.000 NA
ATOM     15  C   UNL     1      -0.255   0.047   0.000  0.00  0.00    +0.000 A 
ATOM     16  C   UNL     1       0.460  -0.366   0.000  0.00  0.00    +0.000 A 
ENDROOT
TORSDOF 0
