REMARK  Name = 4BC
REMARK  4 active torsions:
REMARK  status: ('A' for Active; 'I' for Inactive)
REMARK    1  A    between atoms: C_9  and  C_10
REMARK    2  A    between atoms: C_11  and  C_12
REMARK    3  A    between atoms: C_16  and  C_18
REMARK    4  A    between atoms: C_20  and  C_21
REMARK                            x       y       z     vdW  Elec       q    Type
REMARK                         _______ _______ _______ _____ _____    ______ ____
ROOT
ATOM      1  C   UNL     1       1.461   0.357   0.000  0.00  0.00    +0.000 A 
ATOM      2  C   UNL     1       2.215   0.693   0.000  0.00  0.00    +0.000 A 
ATOM      3  N   UNL     1       2.767   0.080   0.000  0.00  0.00    +0.000 NA
ATOM      4  C   UNL     1       1.548  -0.463   0.000  0.00  0.00    +0.000 A 
ATOM      5  N   UNL     1       2.354  -0.635   0.000  0.00  0.00    +0.000 NA
ENDROOT
BRANCH   1  14
ATOM      6  C   UNL     1       0.032   0.357   0.000  0.00  0.00    +0.000 A 
ATOM      7  C   UNL     1      -0.682   0.770   0.000  0.00  0.00    +0.000 A 
ATOM      8  O   UNL     1      -1.467   0.515   0.000  0.00  0.00    +0.000 OA
ATOM      9  C   UNL     1      -1.952   1.182   0.000  0.00  0.00    +0.000 C 
ATOM     10  O   UNL     1      -1.467   1.850   0.000  0.00  0.00    +0.000 OA
ATOM     11  C   UNL     1      -0.682   1.595   0.000  0.00  0.00    +0.000 A 
ATOM     12  C   UNL     1       0.032   2.007   0.000  0.00  0.00    +0.000 A 
ATOM     13  C   UNL     1       0.747   1.595   0.000  0.00  0.00    +0.000 A 
ATOM     14  C   UNL     1       0.747   0.770   0.000  0.00  0.00    +0.000 A 
ENDBRANCH   1  14
BRANCH   4  15
ATOM     15  C   UNL     1       0.934  -1.015   0.000  0.00  0.00    +0.000 A 
ATOM     16  C   UNL     1       0.150  -0.760   0.000  0.00  0.00    +0.000 A 
ATOM     17  C   UNL     1      -0.463  -1.312   0.000  0.00  0.00    +0.000 A 
ATOM     18  C   UNL     1      -0.292  -2.119   0.000  0.00  0.00    +0.000 A 
ATOM     19  O   UNL     1      -0.905  -2.671   0.000  0.00  0.00    +0.000 OA
ATOM     20  C   UNL     1       0.493  -2.374   0.000  0.00  0.00    +0.000 A 
ATOM     21  C   UNL     1       1.106  -1.822   0.000  0.00  0.00    +0.000 A 
ATOM     22  O   UNL     1       1.891  -2.077   0.000  0.00  0.00    +0.000 OA
BRANCH  17  23
ATOM     23  C   UNL     1      -1.248  -1.057   0.000  0.00  0.00    +0.000 C 
ATOM     24  C   UNL     1      -1.419  -0.251   0.000  0.00  0.00    +0.000 C 
ENDBRANCH  17  23
ENDBRANCH   4  15
BRANCH   2  25
ATOM     25  C   UNL     1       2.386   1.500   0.000  0.00  0.00    +0.000 C 
ATOM     26  O   UNL     1       1.773   2.052   0.000  0.00  0.00    +0.000 OA
ATOM     27  O   UNL     1       3.171   1.755   0.000  0.00  0.00    +0.000 OA
ENDBRANCH   2  25
TORSDOF 4
