REMARK  Name = 4BE
REMARK  3 active torsions:
REMARK  status: ('A' for Active; 'I' for Inactive)
REMARK    1  A    between atoms: C_7  and  C_8
REMARK    2  A    between atoms: N_10  and  N_11
REMARK    3  A    between atoms: C_12  and  C_13
REMARK                            x       y       z     vdW  Elec       q    Type
REMARK                         _______ _______ _______ _____ _____    ______ ____
ROOT
ATOM      1  N   UNL     1      -0.591   0.132   0.000  0.00  0.00    +0.000 NA
ATOM      2  C   UNL     1      -1.305  -0.280   0.000  0.00  0.00    +0.000 C 
ENDROOT
BRANCH   2   3
ATOM      3  C   UNL     1      -2.020   0.132   0.000  0.00  0.00    +0.000 A 
ATOM      4  C   UNL     1      -2.734  -0.280   0.000  0.00  0.00    +0.000 A 
ATOM      5  C   UNL     1      -3.449   0.132   0.000  0.00  0.00    +0.000 A 
ATOM      6 BR   UNL     1      -4.163  -0.280   0.000  0.00  0.00    +0.000 Br
ATOM      7  C   UNL     1      -3.449   0.957   0.000  0.00  0.00    +0.000 A 
ATOM      8  O   UNL     1      -4.163   1.370   0.000  0.00  0.00    +0.000 OA
ATOM      9  C   UNL     1      -2.734   1.370   0.000  0.00  0.00    +0.000 A 
ATOM     10 BR   UNL     1      -2.734   2.195   0.000  0.00  0.00    +0.000 Br
ATOM     11  C   UNL     1      -2.020   0.957   0.000  0.00  0.00    +0.000 A 
ATOM     12  O   UNL     1      -1.305   1.370   0.000  0.00  0.00    +0.000 OA
ENDBRANCH   2   3
BRANCH   1  15
ATOM     13  C   UNL     1       0.838   0.132   0.000  0.00  0.00    +0.000 C 
ATOM     14  O   UNL     1       0.838   0.957   0.000  0.00  0.00    +0.000 OA
ATOM     15  N   UNL     1       0.124  -0.280   0.000  0.00  0.00    +0.000 NA
BRANCH  13  22
ATOM     16  C   UNL     1       2.267   0.132   0.000  0.00  0.00    +0.000 A 
ATOM     17  C   UNL     1       2.982  -0.280   0.000  0.00  0.00    +0.000 A 
ATOM     18  C   UNL     1       2.982  -1.105   0.000  0.00  0.00    +0.000 A 
ATOM     19 BR   UNL     1       3.696  -1.518   0.000  0.00  0.00    +0.000 Br
ATOM     20  C   UNL     1       2.267  -1.518   0.000  0.00  0.00    +0.000 A 
ATOM     21  C   UNL     1       1.552  -1.105   0.000  0.00  0.00    +0.000 A 
ATOM     22  C   UNL     1       1.552  -0.280   0.000  0.00  0.00    +0.000 A 
ENDBRANCH  13  22
ENDBRANCH   1  15
TORSDOF 3
