REMARK  Name = 4BG
REMARK  5 active torsions:
REMARK  status: ('A' for Active; 'I' for Inactive)
REMARK    1  A    between atoms: C_6  and  C_7
REMARK    2  A    between atoms: C_7  and  O_8
REMARK    3  A    between atoms: O_8  and  C_9
REMARK    4  A    between atoms: C_14  and  N_15
REMARK    5  A    between atoms: C_16  and  C_18
REMARK                            x       y       z     vdW  Elec       q    Type
REMARK                         _______ _______ _______ _____ _____    ______ ____
ROOT
ATOM      1  C   UNL     1       0.100  -0.214   0.000  0.00  0.00    +0.000 A 
ATOM      2  C   UNL     1      -0.615  -0.627   0.000  0.00  0.00    +0.000 A 
ATOM      3  C   UNL     1      -1.329  -0.214   0.000  0.00  0.00    +0.000 A 
ATOM      4  C   UNL     1       0.100   0.611   0.000  0.00  0.00    +0.000 A 
ATOM      5  C   UNL     1      -0.615   1.023   0.000  0.00  0.00    +0.000 A 
ATOM      6  C   UNL     1      -1.329   0.611   0.000  0.00  0.00    +0.000 A 
ENDROOT
BRANCH   6   7
ATOM      7  N   UNL     1      -2.044   1.023   0.000  0.00  0.00    +0.000 NA
ATOM      8  C   UNL     1      -2.758   0.611   0.000  0.00  0.00    +0.000 C 
ATOM      9  O   UNL     1      -2.758  -0.214   0.000  0.00  0.00    +0.000 OA
BRANCH   8  10
ATOM     10  C   UNL     1      -3.473   1.023   0.000  0.00  0.00    +0.000 C 
ATOM     11  N   UNL     1      -4.187   0.611   0.000  0.00  0.00    +0.000 NA
ENDBRANCH   8  10
ENDBRANCH   6   7
BRANCH   1  12
ATOM     12  O   UNL     1       0.814  -0.627   0.000  0.00  0.00    +0.000 OA
BRANCH  12  13
ATOM     13  C   UNL     1       1.529  -0.214   0.000  0.00  0.00    +0.000 C 
BRANCH  13  19
ATOM     14  C   UNL     1       2.958  -0.214   0.000  0.00  0.00    +0.000 A 
ATOM     15  C   UNL     1       3.672  -0.627   0.000  0.00  0.00    +0.000 A 
ATOM     16  C   UNL     1       3.672  -1.452   0.000  0.00  0.00    +0.000 A 
ATOM     17  C   UNL     1       2.958  -1.865   0.000  0.00  0.00    +0.000 A 
ATOM     18  C   UNL     1       2.243  -1.452   0.000  0.00  0.00    +0.000 A 
ATOM     19  C   UNL     1       2.243  -0.627   0.000  0.00  0.00    +0.000 A 
ENDBRANCH  13  19
ENDBRANCH  12  13
ENDBRANCH   1  12
TORSDOF 5
