REMARK  Name = 4BH
REMARK  2 active torsions:
REMARK  status: ('A' for Active; 'I' for Inactive)
REMARK    1  A    between atoms: C_9  and  C_10
REMARK    2  A    between atoms: C_14  and  N_15
REMARK                            x       y       z     vdW  Elec       q    Type
REMARK                         _______ _______ _______ _____ _____    ______ ____
ROOT
ATOM      1  C   UNL     1       0.583  -0.741   0.000  0.00  0.00    +0.000 A 
ATOM      2  N   UNL     1       1.251  -1.226   0.000  0.00  0.00    +0.000 NA
ATOM      3  N   UNL     1       0.996  -2.010   0.000  0.00  0.00    +0.000 NA
ATOM      4  C   UNL     1       0.171  -2.010   0.000  0.00  0.00    +0.000 A 
ATOM      5  C   UNL     1      -0.084  -1.226   0.000  0.00  0.00    +0.000 A 
ENDROOT
BRANCH   1  14
ATOM      6 CL   UNL     1      -0.846   1.734   0.000  0.00  0.00    +0.000 Cl
ATOM      7  C   UNL     1      -0.131   1.321   0.000  0.00  0.00    +0.000 A 
ATOM      8  C   UNL     1       0.583   1.734   0.000  0.00  0.00    +0.000 A 
ATOM      9  O   UNL     1       0.583   2.559   0.000  0.00  0.00    +0.000 OA
ATOM     10  C   UNL     1       1.298   1.321   0.000  0.00  0.00    +0.000 A 
ATOM     11  C   UNL     1       1.298   0.496   0.000  0.00  0.00    +0.000 A 
ATOM     12  O   UNL     1       2.012   0.084   0.000  0.00  0.00    +0.000 OA
ATOM     13  C   UNL     1      -0.131   0.496   0.000  0.00  0.00    +0.000 A 
ATOM     14  C   UNL     1       0.583   0.084   0.000  0.00  0.00    +0.000 A 
ENDBRANCH   1  14
BRANCH   5  15
ATOM     15  N   UNL     1      -0.869  -0.971   0.000  0.00  0.00    +0.000 N 
ATOM     16  C   UNL     1      -1.482  -1.523   0.000  0.00  0.00    +0.000 C 
ATOM     17  C   UNL     1      -2.267  -1.268   0.000  0.00  0.00    +0.000 C 
ATOM     18  C   UNL     1      -1.040  -0.164   0.000  0.00  0.00    +0.000 C 
ATOM     19  C   UNL     1      -1.825   0.091   0.000  0.00  0.00    +0.000 C 
ATOM     20  N   UNL     1      -2.438  -0.461   0.000  0.00  0.00    +0.000 NA
ENDBRANCH   5  15
TORSDOF 2
