REMARK  Name = 4BM
REMARK  7 active torsions:
REMARK  status: ('A' for Active; 'I' for Inactive)
REMARK    1  A    between atoms: C_1  and  N_7
REMARK    2  A    between atoms: N_7  and  C_8
REMARK    3  A    between atoms: C_9  and  C_14
REMARK    4  A    between atoms: N_15  and  O_17
REMARK    5  A    between atoms: O_17  and  C_18
REMARK    6  A    between atoms: C_18  and  C_19
REMARK    7  A    between atoms: C_19  and  C_20
REMARK                            x       y       z     vdW  Elec       q    Type
REMARK                         _______ _______ _______ _____ _____    ______ ____
ROOT
ATOM      1  C   UNL     1      -2.210  -0.228   0.000  0.00  0.00    +0.000 A 
ATOM      2  C   UNL     1      -1.496  -0.640   0.000  0.00  0.00    +0.000 A 
ATOM      3  C   UNL     1      -1.496  -1.465   0.000  0.00  0.00    +0.000 A 
ATOM      4  C   UNL     1      -2.210  -1.877   0.000  0.00  0.00    +0.000 A 
ATOM      5  C   UNL     1      -2.925  -1.465   0.000  0.00  0.00    +0.000 A 
ATOM      6  C   UNL     1      -2.925  -0.640   0.000  0.00  0.00    +0.000 A 
ATOM      7  F   UNL     1      -3.639  -0.228   0.000  0.00  0.00    +0.000 F 
ATOM      8  F   UNL     1      -3.639  -1.877   0.000  0.00  0.00    +0.000 F 
ENDROOT
BRANCH   2   9
ATOM      9  C   UNL     1      -0.781  -0.228   0.000  0.00  0.00    +0.000 C 
ATOM     10  N   UNL     1      -0.067  -0.640   0.000  0.00  0.00    +0.000 NA
ATOM     11  O   UNL     1      -0.781   0.598   0.000  0.00  0.00    +0.000 OA
BRANCH  10  12
ATOM     12  O   UNL     1       0.648  -0.228   0.000  0.00  0.00    +0.000 OA
BRANCH  12  13
ATOM     13  C   UNL     1       1.362  -0.640   0.000  0.00  0.00    +0.000 C 
BRANCH  13  14
ATOM     14  C   UNL     1       2.076  -0.228   0.000  0.00  0.00    +0.000 C 
ATOM     15  O   UNL     1       2.076   0.598   0.000  0.00  0.00    +0.000 OA
BRANCH  14  16
ATOM     16  C   UNL     1       2.791  -0.640   0.000  0.00  0.00    +0.000 C 
ATOM     17  O   UNL     1       3.506  -0.228   0.000  0.00  0.00    +0.000 OA
ENDBRANCH  14  16
ENDBRANCH  13  14
ENDBRANCH  12  13
ENDBRANCH  10  12
ENDBRANCH   2   9
BRANCH   1  18
ATOM     18  N   UNL     1      -2.210   0.598   0.000  0.00  0.00    +0.000 NA
BRANCH  18  19
ATOM     19  C   UNL     1      -2.925   1.010   0.000  0.00  0.00    +0.000 A 
ATOM     20  C   UNL     1      -3.639   0.598   0.000  0.00  0.00    +0.000 A 
ATOM     21  C   UNL     1      -4.354   1.010   0.000  0.00  0.00    +0.000 A 
ATOM     22  C   UNL     1      -4.354   1.835   0.000  0.00  0.00    +0.000 A 
ATOM     23  C   UNL     1      -3.639   2.248   0.000  0.00  0.00    +0.000 A 
ATOM     24  C   UNL     1      -2.925   1.835   0.000  0.00  0.00    +0.000 A 
ATOM     25  I   UNL     1      -5.068   2.248   0.000  0.00  0.00    +0.000 I 
ATOM     26  F   UNL     1      -2.210   2.248   0.000  0.00  0.00    +0.000 F 
ENDBRANCH  18  19
ENDBRANCH   1  18
TORSDOF 7
