REMARK  Name = 4BQ
REMARK  8 active torsions:
REMARK  status: ('A' for Active; 'I' for Inactive)
REMARK    1  A    between atoms: C_6  and  C_7
REMARK    2  A    between atoms: C_7  and  O_8
REMARK    3  A    between atoms: O_8  and  C_9
REMARK    4  A    between atoms: C_14  and  N_15
REMARK    5  A    between atoms: C_16  and  C_18
REMARK    6  A    between atoms: C_18  and  C_19
REMARK    7  A    between atoms: C_19  and  C_20
REMARK    8  A    between atoms: C_20  and  C_21
REMARK                            x       y       z     vdW  Elec       q    Type
REMARK                         _______ _______ _______ _____ _____    ______ ____
ROOT
ATOM      1  C   UNK     1      -1.264  -0.278   0.000  0.00  0.00    +0.000 A 
ATOM      2  C   UNK     1      -0.549  -0.691   0.000  0.00  0.00    +0.000 A 
ATOM      3  C   UNK     1       0.165  -0.278   0.000  0.00  0.00    +0.000 A 
ATOM      4  C   UNK     1      -1.264   0.547   0.000  0.00  0.00    +0.000 A 
ATOM      5  C   UNK     1      -0.549   0.959   0.000  0.00  0.00    +0.000 A 
ATOM      6  C   UNK     1       0.165   0.547   0.000  0.00  0.00    +0.000 A 
ENDROOT
BRANCH   6   7
ATOM      7  N   UNK     1       0.880   0.959   0.000  0.00  0.00    +0.000 NA
ATOM      8  C   UNK     1       1.594   0.547   0.000  0.00  0.00    +0.000 C 
ATOM      9  O   UNK     1       1.594  -0.278   0.000  0.00  0.00    +0.000 OA
BRANCH   8  10
ATOM     10  C   UNK     1       2.309   0.959   0.000  0.00  0.00    +0.000 C 
BRANCH  10  11
ATOM     11  C   UNK     1       3.023   0.547   0.000  0.00  0.00    +0.000 C 
BRANCH  11  12
ATOM     12  C   UNK     1       3.737   0.959   0.000  0.00  0.00    +0.000 C 
ATOM     13  N   UNK     1       3.737   1.784   0.000  0.00  0.00    +0.000 NA
BRANCH  12  14
ATOM     14  C   UNK     1       4.452   0.547   0.000  0.00  0.00    +0.000 C 
ATOM     15  O   UNK     1       5.167   0.959   0.000  0.00  0.00    +0.000 OA
ATOM     16  O   UNK     1       4.452  -0.278   0.000  0.00  0.00    +0.000 OA
ENDBRANCH  12  14
ENDBRANCH  11  12
ENDBRANCH  10  11
ENDBRANCH   8  10
ENDBRANCH   6   7
BRANCH   1  17
ATOM     17  O   UNK     1      -1.978  -0.691   0.000  0.00  0.00    +0.000 OA
BRANCH  17  18
ATOM     18  C   UNK     1      -2.693  -0.278   0.000  0.00  0.00    +0.000 C 
BRANCH  18  24
ATOM     19  C   UNK     1      -3.407  -1.516   0.000  0.00  0.00    +0.000 A 
ATOM     20  C   UNK     1      -4.122  -1.928   0.000  0.00  0.00    +0.000 A 
ATOM     21  C   UNK     1      -4.836  -1.516   0.000  0.00  0.00    +0.000 A 
ATOM     22  C   UNK     1      -4.836  -0.691   0.000  0.00  0.00    +0.000 A 
ATOM     23  C   UNK     1      -4.122  -0.278   0.000  0.00  0.00    +0.000 A 
ATOM     24  C   UNK     1      -3.407  -0.691   0.000  0.00  0.00    +0.000 A 
ENDBRANCH  18  24
ENDBRANCH  17  18
ENDBRANCH   1  17
TORSDOF 8
