REMARK  Name = 4BR
REMARK  4 active torsions:
REMARK  status: ('A' for Active; 'I' for Inactive)
REMARK    1  A    between atoms: C_6  and  O_7
REMARK    2  A    between atoms: O_7  and  C_8
REMARK    3  A    between atoms: C_8  and  C_9
REMARK    4  A    between atoms: C_9  and  P_10
REMARK                            x       y       z     vdW  Elec       q    Type
REMARK                         _______ _______ _______ _____ _____    ______ ____
ROOT
ATOM      1  C   UNL     1      -0.145  -1.610   0.000  0.00  0.00    +0.000 A 
ATOM      2  C   UNL     1      -0.860  -1.197   0.000  0.00  0.00    +0.000 A 
ATOM      3  C   UNL     1      -0.860  -0.372   0.000  0.00  0.00    +0.000 A 
ATOM      4  C   UNL     1      -0.145   0.040   0.000  0.00  0.00    +0.000 A 
ATOM      5  C   UNL     1       0.569  -0.372   0.000  0.00  0.00    +0.000 A 
ATOM      6  C   UNL     1       0.569  -1.197   0.000  0.00  0.00    +0.000 A 
ATOM      7  C   UNL     1      -1.575   0.040   0.000  0.00  0.00    +0.000 C 
ENDROOT
BRANCH   6   8
ATOM      8  O   UNL     1       1.283  -1.610   0.000  0.00  0.00    +0.000 OA
BRANCH   8   9
ATOM      9  C   UNL     1       1.998  -1.197   0.000  0.00  0.00    +0.000 C 
BRANCH   9  10
ATOM     10  C   UNL     1       2.712  -1.610   0.000  0.00  0.00    +0.000 C 
BRANCH  10  11
ATOM     11  P   UNL     1       3.427  -1.197   0.000  0.00  0.00    +0.000 P 
ATOM     12  O   UNL     1       4.141  -1.610   0.000  0.00  0.00    +0.000 OA
ATOM     13  O   UNL     1       3.427  -0.372   0.000  0.00  0.00    +0.000 OA
ATOM     14  H   UNL     1       3.427  -1.926   0.000  0.00  0.00    +0.000 HD
ENDBRANCH  10  11
ENDBRANCH   9  10
ENDBRANCH   8   9
ENDBRANCH   6   8
TORSDOF 4
