REMARK  Name = 4BS
REMARK  7 active torsions:
REMARK  status: ('A' for Active; 'I' for Inactive)
REMARK    1  A    between atoms: C_2  and  C_3
REMARK    2  A    between atoms: C_3  and  C_4
REMARK    3  A    between atoms: C_4  and  C_5
REMARK    4  A    between atoms: N_7  and  C_8
REMARK    5  A    between atoms: C_11  and  O_14
REMARK    6  A    between atoms: O_14  and  C_15
REMARK    7  A    between atoms: C_15  and  C_16
REMARK                            x       y       z     vdW  Elec       q    Type
REMARK                         _______ _______ _______ _____ _____    ______ ____
ROOT
ATOM      1  C   UNL     1      -0.774   0.552   0.000  0.00  0.00    +0.000 A 
ATOM      2  C   UNL     1      -0.059   0.965   0.000  0.00  0.00    +0.000 A 
ATOM      3  C   UNL     1       0.655   0.552   0.000  0.00  0.00    +0.000 A 
ATOM      4  C   UNL     1       0.655  -0.273   0.000  0.00  0.00    +0.000 A 
ATOM      5  C   UNL     1      -0.059  -0.685   0.000  0.00  0.00    +0.000 A 
ATOM      6  C   UNL     1      -0.774  -0.273   0.000  0.00  0.00    +0.000 A 
ENDROOT
BRANCH   1   9
ATOM      7  C   UNL     1      -2.203   0.552   0.000  0.00  0.00    +0.000 C 
ATOM      8  O   UNL     1      -2.203  -0.273   0.000  0.00  0.00    +0.000 OA
ATOM      9  N   UNL     1      -1.488   0.965   0.000  0.00  0.00    +0.000 NA
BRANCH   7  10
ATOM     10  C   UNL     1      -2.917   0.965   0.000  0.00  0.00    +0.000 C 
BRANCH  10  11
ATOM     11  C   UNL     1      -3.632   0.552   0.000  0.00  0.00    +0.000 C 
BRANCH  11  13
ATOM     12  N   UNL     1      -5.061   0.552   0.000  0.00  0.00    +0.000 NA
ATOM     13  C   UNL     1      -4.346   0.965   0.000  0.00  0.00    +0.000 C 
ENDBRANCH  11  13
ENDBRANCH  10  11
ENDBRANCH   7  10
ENDBRANCH   1   9
BRANCH   4  14
ATOM     14  O   UNL     1       1.370  -0.685   0.000  0.00  0.00    +0.000 OA
BRANCH  14  15
ATOM     15  C   UNL     1       2.084  -0.273   0.000  0.00  0.00    +0.000 C 
BRANCH  15  16
ATOM     16  C   UNL     1       2.799  -0.685   0.000  0.00  0.00    +0.000 A 
ATOM     17  C   UNL     1       3.513  -0.273   0.000  0.00  0.00    +0.000 A 
ATOM     18  C   UNL     1       4.228  -0.685   0.000  0.00  0.00    +0.000 A 
ATOM     19  C   UNL     1       4.228  -1.510   0.000  0.00  0.00    +0.000 A 
ATOM     20  C   UNL     1       3.513  -1.923   0.000  0.00  0.00    +0.000 A 
ATOM     21  C   UNL     1       2.799  -1.510   0.000  0.00  0.00    +0.000 A 
ENDBRANCH  15  16
ENDBRANCH  14  15
ENDBRANCH   4  14
TORSDOF 7
