REMARK  Name = 4BT
REMARK  8 active torsions:
REMARK  status: ('A' for Active; 'I' for Inactive)
REMARK    1  A    between atoms: C_1  and  C_2
REMARK    2  A    between atoms: C_1  and  S_17
REMARK    3  A    between atoms: C_2  and  C_6
REMARK    4  A    between atoms: C_3  and  C_9
REMARK    5  A    between atoms: C_9  and  C_10
REMARK    6  A    between atoms: C_10  and  S_13
REMARK    7  A    between atoms: C_12  and  S_13
REMARK    8  A    between atoms: C_16  and  S_17
REMARK                            x       y       z     vdW  Elec       q    Type
REMARK                         _______ _______ _______ _____ _____    ______ ____
ROOT
ATOM      1  C   UNL     1      -1.068   0.229   0.000  0.00  0.00    +0.000 A 
ATOM      2  C   UNL     1      -1.068   1.054   0.000  0.00  0.00    +0.000 A 
ATOM      3  C   UNL     1      -0.353   1.466   0.000  0.00  0.00    +0.000 A 
ATOM      4  C   UNL     1       0.361   1.054   0.000  0.00  0.00    +0.000 A 
ATOM      5  C   UNL     1       0.361   0.229   0.000  0.00  0.00    +0.000 A 
ATOM      6  C   UNL     1      -0.353  -0.184   0.000  0.00  0.00    +0.000 A 
ENDROOT
BRANCH   1   7
ATOM      7  C   UNL     1      -1.782  -0.184   0.000  0.00  0.00    +0.000 C 
BRANCH   7   8
ATOM      8  C   UNL     1      -1.782  -1.009   0.000  0.00  0.00    +0.000 C 
BRANCH   8   9
ATOM      9  S   UNL     1      -2.497  -1.421   0.000  0.00  0.00    +0.000 S 
BRANCH   9  11
ATOM     10  N   UNL     1      -3.211  -2.659   0.000  0.00  0.00    +0.000 NA
ATOM     11  C   UNL     1      -2.497  -2.246   0.000  0.00  0.00    +0.000 C 
ATOM     12  N   UNL     1      -1.782  -2.659   0.000  0.00  0.00    +0.000 NA
ENDBRANCH   9  11
ENDBRANCH   8   9
ENDBRANCH   7   8
ENDBRANCH   1   7
BRANCH   4  13
ATOM     13  C   UNL     1       1.076   1.466   0.000  0.00  0.00    +0.000 C 
BRANCH  13  14
ATOM     14  C   UNL     1       1.790   1.054   0.000  0.00  0.00    +0.000 C 
BRANCH  14  15
ATOM     15  S   UNL     1       2.505   1.466   0.000  0.00  0.00    +0.000 S 
BRANCH  15  17
ATOM     16  N   UNL     1       3.933   1.466   0.000  0.00  0.00    +0.000 NA
ATOM     17  C   UNL     1       3.219   1.054   0.000  0.00  0.00    +0.000 C 
ATOM     18  N   UNL     1       3.219   0.229   0.000  0.00  0.00    +0.000 NA
ENDBRANCH  15  17
ENDBRANCH  14  15
ENDBRANCH  13  14
ENDBRANCH   4  13
TORSDOF 8
