REMARK  Name = 4DE
REMARK  5 active torsions:
REMARK  status: ('A' for Active; 'I' for Inactive)
REMARK    1  A    between atoms: C_2  and  O_3
REMARK    2  A    between atoms: C_2  and  C_6
REMARK    3  A    between atoms: O_3  and  C_4
REMARK    4  A    between atoms: N_10  and  C_13
REMARK    5  A    between atoms: C_16  and  O_19
REMARK                            x       y       z     vdW  Elec       q    Type
REMARK                         _______ _______ _______ _____ _____    ______ ____
ROOT
ATOM      1  C   UNL     1       0.290   0.840   0.000  0.00  0.00    +0.000 A 
ATOM      2  C   UNL     1       0.958   0.355   0.000  0.00  0.00    +0.000 A 
ATOM      3  C   UNL     1       1.742   0.610   0.000  0.00  0.00    +0.000 C 
ATOM      4  N   UNL     1       0.703  -0.429   0.000  0.00  0.00    +0.000 NA
ATOM      5  N   UNL     1      -0.122  -0.429   0.000  0.00  0.00    +0.000 N 
ATOM      6  C   UNL     1      -0.377   0.355   0.000  0.00  0.00    +0.000 A 
ATOM      7  C   UNL     1      -1.162   0.610   0.000  0.00  0.00    +0.000 C 
ENDROOT
BRANCH   5   8
ATOM      8  C   UNL     1      -0.607  -1.097   0.000  0.00  0.00    +0.000 A 
ATOM      9  C   UNL     1      -0.272  -1.851   0.000  0.00  0.00    +0.000 A 
ATOM     10  C   UNL     1      -0.757  -2.518   0.000  0.00  0.00    +0.000 A 
ATOM     11  C   UNL     1      -1.577  -2.432   0.000  0.00  0.00    +0.000 A 
ATOM     12  C   UNL     1      -1.913  -1.678   0.000  0.00  0.00    +0.000 A 
ATOM     13  C   UNL     1      -1.428  -1.011   0.000  0.00  0.00    +0.000 A 
BRANCH  11  14
ATOM     14  O   UNL     1      -2.062  -3.099   0.000  0.00  0.00    +0.000 OA
ATOM     15  C   UNL     1      -1.726  -3.853   0.000  0.00  0.00    +0.000 C 
ENDBRANCH  11  14
ENDBRANCH   5   8
BRANCH   1  17
ATOM     16  O   UNL     1      -0.424   2.078   0.000  0.00  0.00    +0.000 OA
ATOM     17  C   UNL     1       0.290   1.665   0.000  0.00  0.00    +0.000 C 
BRANCH  17  18
ATOM     18  O   UNL     1       1.005   2.078   0.000  0.00  0.00    +0.000 OA
BRANCH  18  19
ATOM     19  C   UNL     1       1.005   2.902   0.000  0.00  0.00    +0.000 C 
ATOM     20  C   UNL     1       1.719   3.315   0.000  0.00  0.00    +0.000 C 
ENDBRANCH  18  19
ENDBRANCH  17  18
ENDBRANCH   1  17
TORSDOF 5
