REMARK  Name = 4DI
REMARK  6 active torsions:
REMARK  status: ('A' for Active; 'I' for Inactive)
REMARK    1  A    between atoms: C_1  and  S_2
REMARK    2  A    between atoms: S_2  and  C_3
REMARK    3  A    between atoms: C_3  and  C_4
REMARK    4  A    between atoms: C_4  and  C_5
REMARK    5  A    between atoms: C_5  and  C_6
REMARK    6  A    between atoms: C_6  and  N_7
REMARK                            x       y       z     vdW  Elec       q    Type
REMARK                         _______ _______ _______ _____ _____    ______ ____
ROOT
ATOM      1  C   UNL     1       0.097  -0.337   0.000  0.00  0.00    +0.000 C 
ENDROOT
BRANCH   1   2
ATOM      2  C   UNL     1      -0.618   0.075   0.000  0.00  0.00    +0.000 C 
BRANCH   2   3
ATOM      3  S   UNL     1      -1.333  -0.337   0.000  0.00  0.00    +0.000 S 
BRANCH   3   4
ATOM      4  C   UNL     1      -2.047   0.075   0.000  0.00  0.00    +0.000 C 
ATOM      5  N   UNL     1      -2.762  -0.337   0.000  0.00  0.00    +0.000 NA
ATOM      6  N   UNL     1      -2.047   0.900   0.000  0.00  0.00    +0.000 NA
ENDBRANCH   3   4
ENDBRANCH   2   3
ENDBRANCH   1   2
BRANCH   1   7
ATOM      7  C   UNL     1       0.811   0.075   0.000  0.00  0.00    +0.000 C 
BRANCH   7   8
ATOM      8  C   UNL     1       1.526  -0.337   0.000  0.00  0.00    +0.000 C 
BRANCH   8   9
ATOM      9  N   UNL     1       2.240   0.075   0.000  0.00  0.00    +0.000 NA
ATOM     10  C   UNL     1       2.954  -0.337   0.000  0.00  0.00    +0.000 C 
ATOM     11  C   UNL     1       2.240   0.900   0.000  0.00  0.00    +0.000 C 
ENDBRANCH   8   9
ENDBRANCH   7   8
ENDBRANCH   1   7
TORSDOF 6
