REMARK  Name = 4EA
REMARK  7 active torsions:
REMARK  status: ('A' for Active; 'I' for Inactive)
REMARK    1  A    between atoms: C_1  and  C_21
REMARK    2  A    between atoms: C_2  and  C_3
REMARK    3  A    between atoms: C_17  and  C_27
REMARK    4  A    between atoms: C_23  and  O_24
REMARK    5  A    between atoms: O_24  and  C_25
REMARK    6  A    between atoms: C_25  and  C_26
REMARK    7  A    between atoms: C_26  and  C_27
REMARK                            x       y       z     vdW  Elec       q    Type
REMARK                         _______ _______ _______ _____ _____    ______ ____
ROOT
ATOM      1  C   UNL     1      -2.890   0.658   0.000  0.00  0.00    +0.000 A 
ATOM      2  N   UNL     1      -3.145   1.442   0.000  0.00  0.00    +0.000 NA
ATOM      3  C   UNL     1      -2.593   2.055   0.000  0.00  0.00    +0.000 A 
ATOM      4  C   UNL     1      -1.786   1.884   0.000  0.00  0.00    +0.000 A 
ATOM      5  C   UNL     1      -1.532   1.099   0.000  0.00  0.00    +0.000 A 
ATOM      6  C   UNL     1      -2.083   0.486   0.000  0.00  0.00    +0.000 A 
ENDROOT
BRANCH   4   7
ATOM      7  C   UNL     1      -1.234   2.497   0.000  0.00  0.00    +0.000 C 
ATOM      8  C   UNL     1      -0.427   2.325   0.000  0.00  0.00    +0.000 C 
BRANCH   8   9
ATOM      9  C   UNL     1       0.125   2.938   0.000  0.00  0.00    +0.000 A 
ATOM     10  C   UNL     1      -0.130   3.723   0.000  0.00  0.00    +0.000 A 
ATOM     11  C   UNL     1       0.932   2.767   0.000  0.00  0.00    +0.000 A 
ATOM     12  C   UNL     1       1.484   3.380   0.000  0.00  0.00    +0.000 A 
ATOM     13  N   UNL     1       1.229   4.165   0.000  0.00  0.00    +0.000 NA
ATOM     14  C   UNL     1       0.422   4.336   0.000  0.00  0.00    +0.000 A 
ENDBRANCH   8   9
ENDBRANCH   4   7
BRANCH   6  15
ATOM     15  O   UNL     1      -1.829  -0.298   0.000  0.00  0.00    +0.000 OA
BRANCH  15  16
ATOM     16  C   UNL     1      -1.022  -0.470   0.000  0.00  0.00    +0.000 C 
BRANCH  16  17
ATOM     17  C   UNL     1      -0.767  -1.255   0.000  0.00  0.00    +0.000 C 
ATOM     18  N   UNL     1      -1.319  -1.868   0.000  0.00  0.00    +0.000 NA
BRANCH  17  19
ATOM     19  C   UNL     1       0.040  -1.426   0.000  0.00  0.00    +0.000 C 
BRANCH  19  28
ATOM     20  C   UNL     1       2.509  -3.291   0.000  0.00  0.00    +0.000 A 
ATOM     21  C   UNL     1       1.794  -3.703   0.000  0.00  0.00    +0.000 A 
ATOM     22  C   UNL     1       1.080  -3.291   0.000  0.00  0.00    +0.000 A 
ATOM     23  C   UNL     1       1.080  -2.466   0.000  0.00  0.00    +0.000 A 
ATOM     24  C   UNL     1       1.794  -2.053   0.000  0.00  0.00    +0.000 A 
ATOM     25  C   UNL     1       2.509  -2.466   0.000  0.00  0.00    +0.000 A 
ATOM     26  N   UNL     1       0.295  -3.546   0.000  0.00  0.00    +0.000 NA
ATOM     27  C   UNL     1      -0.190  -2.878   0.000  0.00  0.00    +0.000 A 
ATOM     28  C   UNL     1       0.295  -2.211   0.000  0.00  0.00    +0.000 A 
ENDBRANCH  19  28
ENDBRANCH  17  19
ENDBRANCH  16  17
ENDBRANCH  15  16
ENDBRANCH   6  15
TORSDOF 7
