REMARK  Name = 4FC
REMARK  2 active torsions:
REMARK  status: ('A' for Active; 'I' for Inactive)
REMARK    1  A    between atoms: C_5  and  C_8
REMARK    2  A    between atoms: C_11  and  C_14
REMARK                            x       y       z     vdW  Elec       q    Type
REMARK                         _______ _______ _______ _____ _____    ______ ____
ROOT
ATOM      1  C   UNL     1      -0.722   0.459   0.000  0.00  0.00    +0.000 A 
ATOM      2  C   UNL     1      -0.007   0.046   0.000  0.00  0.00    +0.000 A 
ATOM      3  C   UNL     1      -0.007  -0.779   0.000  0.00  0.00    +0.000 A 
ATOM      4  C   UNL     1      -0.722  -1.191   0.000  0.00  0.00    +0.000 A 
ATOM      5  C   UNL     1      -1.437  -0.779   0.000  0.00  0.00    +0.000 A 
ATOM      6  C   UNL     1      -1.437   0.046   0.000  0.00  0.00    +0.000 A 
ENDROOT
BRANCH   2  11
ATOM      7  C   UNL     1       1.421   1.696   0.000  0.00  0.00    +0.000 A 
ATOM      8  C   UNL     1       2.136   1.284   0.000  0.00  0.00    +0.000 A 
ATOM      9  C   UNL     1       2.136   0.459   0.000  0.00  0.00    +0.000 A 
ATOM     10  C   UNL     1       1.421   0.046   0.000  0.00  0.00    +0.000 A 
ATOM     11  C   UNL     1       0.707   0.459   0.000  0.00  0.00    +0.000 A 
ATOM     12  C   UNL     1       0.707   1.284   0.000  0.00  0.00    +0.000 A 
ATOM     13  F   UNL     1       2.850   1.696   0.000  0.00  0.00    +0.000 F 
ENDBRANCH   2  11
BRANCH   5  14
ATOM     14  C   UNL     1      -2.151  -1.191   0.000  0.00  0.00    +0.000 C 
ATOM     15  O   UNL     1      -2.151  -2.016   0.000  0.00  0.00    +0.000 OA
ATOM     16  O   UNL     1      -2.865  -0.779   0.000  0.00  0.00    +0.000 OA
ENDBRANCH   5  14
TORSDOF 2
