REMARK  Name = 4FP
REMARK  2 active torsions:
REMARK  status: ('A' for Active; 'I' for Inactive)
REMARK    1  A    between atoms: C_5  and  C_6
REMARK    2  A    between atoms: C_6  and  C_7
REMARK                            x       y       z     vdW  Elec       q    Type
REMARK                         _______ _______ _______ _____ _____    ______ ____
ROOT
ATOM      1  F   UNL     1      -0.650   2.597   0.000  0.00  0.00    +0.000 F 
ATOM      2  C   UNL     1      -0.650   1.772   0.000  0.00  0.00    +0.000 A 
ATOM      3  C   UNL     1       0.064   1.359   0.000  0.00  0.00    +0.000 A 
ATOM      4  C   UNL     1       0.064   0.534   0.000  0.00  0.00    +0.000 A 
ATOM      5  C   UNL     1      -0.650   0.122   0.000  0.00  0.00    +0.000 A 
ATOM      6  C   UNL     1      -1.365   0.534   0.000  0.00  0.00    +0.000 A 
ATOM      7  C   UNL     1      -1.365   1.359   0.000  0.00  0.00    +0.000 A 
ENDROOT
BRANCH   5   8
ATOM      8  C   UNL     1      -0.650  -0.703   0.000  0.00  0.00    +0.000 C 
BRANCH   8   9
ATOM      9  C   UNL     1       0.064  -1.116   0.000  0.00  0.00    +0.000 C 
ATOM     10  C   UNL     1       0.064  -1.941   0.000  0.00  0.00    +0.000 C 
ATOM     11  C   UNL     1       0.779  -2.353   0.000  0.00  0.00    +0.000 C 
ATOM     12  N   UNL     1       1.493  -1.941   0.000  0.00  0.00    +0.000 NA
ATOM     13  C   UNL     1       1.493  -1.116   0.000  0.00  0.00    +0.000 C 
ATOM     14  C   UNL     1       0.779  -0.703   0.000  0.00  0.00    +0.000 C 
ENDBRANCH   8   9
ENDBRANCH   5   8
TORSDOF 2
