REMARK  Name = 4HG
REMARK  3 active torsions:
REMARK  status: ('A' for Active; 'I' for Inactive)
REMARK    1  A    between atoms: C_9  and  C_13
REMARK    2  A    between atoms: CA_14  and  C_15
REMARK    3  A    between atoms: CA_14  and  N_19
REMARK                            x       y       z     vdW  Elec       q    Type
REMARK                         _______ _______ _______ _____ _____    ______ ____
ROOT
ATOM      1  C   UNK A   1      -1.020  -2.250   0.000  0.00  0.00    +0.000 A 
ATOM      2  C   UNK A   1      -1.735  -1.838   0.000  0.00  0.00    +0.000 A 
ATOM      3  C   UNK A   1      -1.735  -1.013   0.000  0.00  0.00    +0.000 A 
ATOM      4  C   UNK A   1      -0.306  -1.838   0.000  0.00  0.00    +0.000 A 
ATOM      5  C   UNK A   1      -0.306  -1.013   0.000  0.00  0.00    +0.000 A 
ATOM      6  C   UNK A   1      -1.020  -0.600   0.000  0.00  0.00    +0.000 A 
ATOM      7  C   UNK A   1      -1.020   0.225   0.000  0.00  0.00    +0.000 A 
ATOM      8  N   UNK A   1      -0.306   0.637   0.000  0.00  0.00    +0.000 NA
ATOM      9  C   UNK A   1       0.409   0.225   0.000  0.00  0.00    +0.000 A 
ATOM     10  C   UNK A   1       0.409  -0.600   0.000  0.00  0.00    +0.000 A 
ATOM     11  I   UNK A   1      -2.449  -0.600   0.000  0.00  0.00    +0.000 I 
ATOM     12  O   UNK A   1       1.123  -1.013   0.000  0.00  0.00    +0.000 OA
ENDROOT
BRANCH   9  13
ATOM     13  C   UNK A   1       1.123   0.637   0.000  0.00  0.00    +0.000 C 
ATOM     14  O   UNK A   1       1.123   1.462   0.000  0.00  0.00    +0.000 OA
ATOM     15  N   GLY A   2       1.838   0.225   0.000  0.00  0.00    +0.000 NA
BRANCH  15  16
ATOM     16  CA  GLY A   2       2.552   0.637   0.000  0.00  0.00    +0.000 C 
BRANCH  16  17
ATOM     17  C   GLY A   2       3.267   0.225   0.000  0.00  0.00    +0.000 C 
ATOM     18  O   GLY A   2       3.981   0.637   0.000  0.00  0.00    +0.000 OA
ATOM     19  OXT GLY A   2       3.267  -0.600   0.000  0.00  0.00    +0.000 OA
ENDBRANCH  16  17
ENDBRANCH  15  16
ENDBRANCH   9  13
TORSDOF 3
