REMARK  Name = 4IG
REMARK  7 active torsions:
REMARK  status: ('A' for Active; 'I' for Inactive)
REMARK    1  A    between atoms: C_5  and  C_9
REMARK    2  A    between atoms: C_6  and  C_16
REMARK    3  A    between atoms: C_18  and  C_29
REMARK    4  A    between atoms: N_20  and  C_21
REMARK    5  A    between atoms: C_21  and  C_22
REMARK    6  A    between atoms: C_22  and  C_23
REMARK    7  A    between atoms: C_23  and  O_24
REMARK                            x       y       z     vdW  Elec       q    Type
REMARK                         _______ _______ _______ _____ _____    ______ ____
ROOT
ATOM      1  C   UNL     1      -1.375  -1.469   0.000  0.00  0.00    +0.000 A 
ATOM      2  C   UNL     1      -0.660  -1.881   0.000  0.00  0.00    +0.000 A 
ATOM      3  C   UNL     1       0.054  -1.469   0.000  0.00  0.00    +0.000 A 
ATOM      4  C   UNL     1       0.054  -0.644   0.000  0.00  0.00    +0.000 A 
ATOM      5  C   UNL     1      -0.660  -0.231   0.000  0.00  0.00    +0.000 A 
ATOM      6  C   UNL     1      -1.375  -0.644   0.000  0.00  0.00    +0.000 A 
ATOM      7  O   UNL     1       0.768  -1.881   0.000  0.00  0.00    +0.000 OA
ATOM      8  C   UNL     1       1.483  -1.469   0.000  0.00  0.00    +0.000 C 
ATOM      9  C   UNL     1       1.483  -0.644   0.000  0.00  0.00    +0.000 C 
ATOM     10  N   UNL     1       0.768  -0.231   0.000  0.00  0.00    +0.000 N 
ATOM     11  O   UNL     1       2.197  -0.231   0.000  0.00  0.00    +0.000 OA
ENDROOT
BRANCH   8  14
ATOM     12  C   UNL     1       2.912  -3.119   0.000  0.00  0.00    +0.000 A 
ATOM     13  C   UNL     1       2.197  -2.706   0.000  0.00  0.00    +0.000 A 
ATOM     14  C   UNL     1       2.197  -1.881   0.000  0.00  0.00    +0.000 A 
ATOM     15  C   UNL     1       2.912  -1.469   0.000  0.00  0.00    +0.000 A 
ATOM     16  C   UNL     1       3.626  -1.881   0.000  0.00  0.00    +0.000 A 
ATOM     17  C   UNL     1       3.626  -2.706   0.000  0.00  0.00    +0.000 A 
ATOM     18  F   UNL     1       2.912  -3.944   0.000  0.00  0.00    +0.000 F 
ATOM     19  F   UNL     1       4.341  -1.469   0.000  0.00  0.00    +0.000 F 
ENDBRANCH   8  14
BRANCH   6  25
ATOM     20  C   UNL     1      -2.804  -0.644   0.000  0.00  0.00    +0.000 A 
ATOM     21  N   UNL     1      -3.518  -0.231   0.000  0.00  0.00    +0.000 NA
ATOM     22  C   UNL     1      -3.518   0.594   0.000  0.00  0.00    +0.000 A 
ATOM     23  N   UNL     1      -2.804   1.006   0.000  0.00  0.00    +0.000 NA
ATOM     24  C   UNL     1      -2.089   0.594   0.000  0.00  0.00    +0.000 A 
ATOM     25  C   UNL     1      -2.089  -0.231   0.000  0.00  0.00    +0.000 A 
ATOM     26  N   UNL     1      -2.804  -1.469   0.000  0.00  0.00    +0.000 NA
ATOM     27  N   UNL     1      -4.233   1.006   0.000  0.00  0.00    +0.000 NA
BRANCH  24  28
ATOM     28  C   UNL     1      -1.375   1.006   0.000  0.00  0.00    +0.000 C 
ATOM     29  C   UNL     1      -0.660   0.594   0.000  0.00  0.00    +0.000 C 
ENDBRANCH  24  28
ENDBRANCH   6  25
BRANCH  10  30
ATOM     30  C   UNL     1       0.768   0.594   0.000  0.00  0.00    +0.000 C 
BRANCH  30  31
ATOM     31  C   UNL     1       0.054   1.006   0.000  0.00  0.00    +0.000 C 
BRANCH  31  32
ATOM     32  C   UNL     1       0.054   1.831   0.000  0.00  0.00    +0.000 C 
BRANCH  32  33
ATOM     33  O   UNL     1      -0.660   2.244   0.000  0.00  0.00    +0.000 OA
ATOM     34  C   UNL     1      -0.660   3.069   0.000  0.00  0.00    +0.000 C 
ENDBRANCH  32  33
ENDBRANCH  31  32
ENDBRANCH  30  31
ENDBRANCH  10  30
TORSDOF 7
