REMARK  Name = 4MB
REMARK  3 active torsions:
REMARK  status: ('A' for Active; 'I' for Inactive)
REMARK    1  A    between atoms: C_2  and  C_6
REMARK    2  A    between atoms: N_3  and  C_4
REMARK    3  A    between atoms: N_3  and  S_12
REMARK                            x       y       z     vdW  Elec       q    Type
REMARK                         _______ _______ _______ _____ _____    ______ ____
ROOT
ATOM      1  C   UNL     1       0.485   0.834   0.000  0.00  0.00    +0.000 A 
ATOM      2  C   UNL     1      -0.944   0.834   0.000  0.00  0.00    +0.000 A 
ATOM      3  C   UNL     1       0.485   0.009   0.000  0.00  0.00    +0.000 A 
ATOM      4  C   UNL     1      -0.230   1.246   0.000  0.00  0.00    +0.000 A 
ATOM      5  C   UNL     1      -0.944   0.009   0.000  0.00  0.00    +0.000 A 
ATOM      6  C   UNL     1      -0.230  -0.404   0.000  0.00  0.00    +0.000 A 
ENDROOT
BRANCH   2   7
ATOM      7  C   UNL     1      -1.659   1.246   0.000  0.00  0.00    +0.000 C 
ATOM      8  O   UNL     1      -2.373   0.834   0.000  0.00  0.00    +0.000 OA
ATOM      9  O   UNL     1      -1.659   2.071   0.000  0.00  0.00    +0.000 OA
ENDBRANCH   2   7
BRANCH   3  10
ATOM     10  N   UNL     1       1.199  -0.404   0.000  0.00  0.00    +0.000 NA
BRANCH  10  12
ATOM     11  C   UNL     1       1.199  -2.054   0.000  0.00  0.00    +0.000 C 
ATOM     12  S   UNL     1       1.199  -1.229   0.000  0.00  0.00    +0.000 S 
ATOM     13  O   UNL     1       2.024  -1.229   0.000  0.00  0.00    +0.000 OA
ATOM     14  O   UNL     1       0.374  -1.229   0.000  0.00  0.00    +0.000 OA
ENDBRANCH  10  12
ENDBRANCH   3  10
TORSDOF 3
