REMARK  Name = 4MD
REMARK  5 active torsions:
REMARK  status: ('A' for Active; 'I' for Inactive)
REMARK    1  A    between atoms: C_7  and  C_8
REMARK    2  A    between atoms: C_8  and  N_9
REMARK    3  A    between atoms: N_9  and  S_11
REMARK    4  A    between atoms: S_11  and  C_14
REMARK    5  A    between atoms: C_19  and  S_20
REMARK                            x       y       z     vdW  Elec       q    Type
REMARK                         _______ _______ _______ _____ _____    ______ ____
ROOT
ATOM      1  S   UNL     1      -0.179   0.012   0.000  0.00  0.00    +0.000 S 
ATOM      2  O   UNL     1       0.234   0.727   0.000  0.00  0.00    +0.000 OA
ATOM      3  O   UNL     1      -0.591  -0.702   0.000  0.00  0.00    +0.000 OA
ENDROOT
BRANCH   1   4
ATOM      4  C   UNL     1      -0.893   0.425   0.000  0.00  0.00    +0.000 A 
ATOM      5  C   UNL     1      -1.608   0.012   0.000  0.00  0.00    +0.000 A 
ATOM      6  C   UNL     1      -2.322   0.425   0.000  0.00  0.00    +0.000 A 
ATOM      7  C   UNL     1      -0.893   1.250   0.000  0.00  0.00    +0.000 A 
ATOM      8  C   UNL     1      -1.608   1.662   0.000  0.00  0.00    +0.000 A 
ATOM      9  C   UNL     1      -2.322   1.250   0.000  0.00  0.00    +0.000 A 
BRANCH   9  10
ATOM     10  S   UNL     1      -3.037   1.662   0.000  0.00  0.00    +0.000 S 
ATOM     11  O   UNL     1      -3.751   2.075   0.000  0.00  0.00    +0.000 OA
ATOM     12  O   UNL     1      -2.624   2.377   0.000  0.00  0.00    +0.000 OA
ATOM     13  N   UNL     1      -3.449   0.948   0.000  0.00  0.00    +0.000 NA
ENDBRANCH   9  10
ENDBRANCH   1   4
BRANCH   1  14
ATOM     14  N   UNL     1       0.536  -0.400   0.000  0.00  0.00    +0.000 NA
ATOM     15  C   UNL     1       0.536  -1.225   0.000  0.00  0.00    +0.000 C 
BRANCH  14  16
ATOM     16  C   UNL     1       1.250   0.012   0.000  0.00  0.00    +0.000 C 
BRANCH  16  23
ATOM     17  C   UNL     1       2.679   0.012   0.000  0.00  0.00    +0.000 A 
ATOM     18  C   UNL     1       3.394  -0.400   0.000  0.00  0.00    +0.000 A 
ATOM     19  C   UNL     1       3.394  -1.225   0.000  0.00  0.00    +0.000 A 
ATOM     20 CL   UNL     1       4.108  -1.638   0.000  0.00  0.00    +0.000 Cl
ATOM     21  C   UNL     1       2.679  -1.638   0.000  0.00  0.00    +0.000 A 
ATOM     22  C   UNL     1       1.965  -1.225   0.000  0.00  0.00    +0.000 A 
ATOM     23  C   UNL     1       1.965  -0.400   0.000  0.00  0.00    +0.000 A 
ENDBRANCH  16  23
ENDBRANCH  14  16
ENDBRANCH   1  14
TORSDOF 5
