REMARK  Name = 4MF
REMARK  4 active torsions:
REMARK  status: ('A' for Active; 'I' for Inactive)
REMARK    1  A    between atoms: P_3  and  O_5
REMARK    2  A    between atoms: O_5  and  C_6
REMARK    3  A    between atoms: C_6  and  C_7
REMARK    4  A    between atoms: C_11  and  N_13
REMARK                            x       y       z     vdW  Elec       q    Type
REMARK                         _______ _______ _______ _____ _____    ______ ____
ROOT
ATOM      1  C   UNL     1       0.347  -0.403   0.000  0.00  0.00    +0.000 C 
ATOM      2  C   UNL     1      -0.437  -0.148   0.000  0.00  0.00    +0.000 C 
ATOM      3  O   UNL     1      -1.105  -0.633   0.000  0.00  0.00    +0.000 OA
ATOM      4  C   UNL     1      -0.437   0.677   0.000  0.00  0.00    +0.000 C 
ATOM      5  C   UNL     1       0.347   0.932   0.000  0.00  0.00    +0.000 C 
ATOM      6  O   UNL     1       0.832   0.265   0.000  0.00  0.00    +0.000 OA
ENDROOT
BRANCH   5   7
ATOM      7  N   UNL     1       0.602   1.717   0.000  0.00  0.00    +0.000 N 
ATOM      8  C   UNL     1       1.387   1.972   0.000  0.00  0.00    +0.000 A 
ATOM      9  C   UNL     1       2.101   1.559   0.000  0.00  0.00    +0.000 A 
ATOM     10  C   UNL     1       2.816   1.972   0.000  0.00  0.00    +0.000 A 
ATOM     11  C   UNL     1       2.816   2.797   0.000  0.00  0.00    +0.000 A 
ATOM     12  C   UNL     1       2.101   3.209   0.000  0.00  0.00    +0.000 A 
ATOM     13  C   UNL     1       2.101   4.034   0.000  0.00  0.00    +0.000 C 
ATOM     14  C   UNL     1       1.387   2.797   0.000  0.00  0.00    +0.000 A 
ATOM     15  C   UNL     1       0.602   3.051   0.000  0.00  0.00    +0.000 A 
ATOM     16  C   UNL     1       0.117   2.384   0.000  0.00  0.00    +0.000 A 
ENDBRANCH   5   7
BRANCH   1  17
ATOM     17  C   UNL     1       0.602  -1.188   0.000  0.00  0.00    +0.000 C 
BRANCH  17  18
ATOM     18  O   UNL     1       0.050  -1.801   0.000  0.00  0.00    +0.000 OA
BRANCH  18  21
ATOM     19  O   UNL     1       0.560  -3.370   0.000  0.00  0.00    +0.000 OA
ATOM     20  O   UNL     1       1.090  -2.330   0.000  0.00  0.00    +0.000 OA
ATOM     21  P   UNL     1       0.305  -2.585   0.000  0.00  0.00    +0.000 P 
ATOM     22  O   UNL     1      -0.479  -2.840   0.000  0.00  0.00    +0.000 OA
ENDBRANCH  18  21
ENDBRANCH  17  18
ENDBRANCH   1  17
TORSDOF 4
