REMARK  Name = 4MP
REMARK  2 active torsions:
REMARK  status: ('A' for Active; 'I' for Inactive)
REMARK    1  A    between atoms: O_3  and  C_13
REMARK    2  A    between atoms: C_9  and  C_10
REMARK                            x       y       z     vdW  Elec       q    Type
REMARK                         _______ _______ _______ _____ _____    ______ ____
ROOT
ATOM      1  O   UNL     1      -0.750  -0.540   0.000  0.00  0.00    +0.000 OA
ATOM      2  O   UNL     1      -0.024   1.974   0.000  0.00  0.00    +0.000 OA
ATOM      3  N   UNL     1      -0.980   0.912   0.000  0.00  0.00    +0.000 N 
ATOM      4  C   UNL     1      -1.235   0.128   0.000  0.00  0.00    +0.000 C 
ATOM      5  C   UNL     1      -2.060   0.128   0.000  0.00  0.00    +0.000 C 
ATOM      6  C   UNL     1      -2.315   0.912   0.000  0.00  0.00    +0.000 C 
ATOM      7  C   UNL     1      -1.648   1.397   0.000  0.00  0.00    +0.000 C 
ATOM      8  C   UNL     1      -0.196   1.167   0.000  0.00  0.00    +0.000 C 
ENDROOT
BRANCH   8   9
ATOM      9  C   UNL     1       0.417   0.615   0.000  0.00  0.00    +0.000 A 
ATOM     10  C   UNL     1       1.202   0.870   0.000  0.00  0.00    +0.000 A 
ATOM     11  C   UNL     1       1.815   0.318   0.000  0.00  0.00    +0.000 A 
ATOM     12  C   UNL     1       1.644  -0.489   0.000  0.00  0.00    +0.000 A 
ATOM     13  C   UNL     1       0.859  -0.744   0.000  0.00  0.00    +0.000 A 
ATOM     14  C   UNL     1       0.246  -0.192   0.000  0.00  0.00    +0.000 A 
BRANCH  12  15
ATOM     15  O   UNL     1       2.257  -1.041   0.000  0.00  0.00    +0.000 OA
ATOM     16  C   UNL     1       3.041  -0.786   0.000  0.00  0.00    +0.000 C 
ENDBRANCH  12  15
ENDBRANCH   8   9
TORSDOF 2
