REMARK  Name = 4MR
REMARK  4 active torsions:
REMARK  status: ('A' for Active; 'I' for Inactive)
REMARK    1  A    between atoms: C_6  and  O_7
REMARK    2  A    between atoms: O_7  and  C_8
REMARK    3  A    between atoms: C_13  and  C_14
REMARK    4  A    between atoms: C_14  and  N_23
REMARK                            x       y       z     vdW  Elec       q    Type
REMARK                         _______ _______ _______ _____ _____    ______ ____
ROOT
ATOM      1  C   UNL     1       1.283   1.228   0.000  0.00  0.00    +0.000 C 
ATOM      2  C   UNL     1       1.001   2.003   0.000  0.00  0.00    +0.000 C 
ATOM      3  O   UNL     1       0.189   2.146   0.000  0.00  0.00    +0.000 OA
ATOM      4  N   UNL     1       1.532   2.635   0.000  0.00  0.00    +0.000 NA
ATOM      5  C   UNL     1       2.344   2.492   0.000  0.00  0.00    +0.000 C 
ATOM      6  O   UNL     1       2.874   3.124   0.000  0.00  0.00    +0.000 OA
ATOM      7  N   UNL     1       2.626   1.717   0.000  0.00  0.00    +0.000 NA
ATOM      8  C   UNL     1       2.096   1.085   0.000  0.00  0.00    +0.000 C 
ATOM      9  O   UNL     1       2.378   0.309   0.000  0.00  0.00    +0.000 OA
ENDROOT
BRANCH   1  10
ATOM     10  N   UNL     1       0.471   1.085   0.000  0.00  0.00    +0.000 NA
ATOM     11  C   UNL     1      -0.059   1.717   0.000  0.00  0.00    +0.000 C 
ATOM     12  C   UNL     1      -0.872   1.573   0.000  0.00  0.00    +0.000 C 
ATOM     13  C   UNL     1       0.189   0.309   0.000  0.00  0.00    +0.000 C 
ATOM     14  C   UNL     1      -0.624   0.166   0.000  0.00  0.00    +0.000 C 
ATOM     15  N   UNL     1      -1.154   0.798   0.000  0.00  0.00    +0.000 N 
ATOM     16  C   UNL     1      -1.966   0.655   0.000  0.00  0.00    +0.000 A 
ATOM     17  N   UNL     1      -2.497   1.287   0.000  0.00  0.00    +0.000 NA
ATOM     18  C   UNL     1      -3.309   1.144   0.000  0.00  0.00    +0.000 A 
ATOM     19  C   UNL     1      -3.591   0.368   0.000  0.00  0.00    +0.000 A 
ATOM     20  C   UNL     1      -3.061  -0.264   0.000  0.00  0.00    +0.000 A 
ATOM     21  N   UNL     1      -2.249  -0.120   0.000  0.00  0.00    +0.000 NA
ENDBRANCH   1  10
BRANCH   1  27
ATOM     22  C   UNL     1       1.283  -1.247   0.000  0.00  0.00    +0.000 A 
ATOM     23  C   UNL     1       0.569  -0.835   0.000  0.00  0.00    +0.000 A 
ATOM     24  C   UNL     1       0.569  -0.010   0.000  0.00  0.00    +0.000 A 
ATOM     25  C   UNL     1       1.998  -0.835   0.000  0.00  0.00    +0.000 A 
ATOM     26  C   UNL     1       1.998  -0.010   0.000  0.00  0.00    +0.000 A 
ATOM     27  C   UNL     1       1.283   0.403   0.000  0.00  0.00    +0.000 A 
BRANCH  22  28
ATOM     28  O   UNL     1       1.283  -2.072   0.000  0.00  0.00    +0.000 OA
BRANCH  28  34
ATOM     29  C   UNL     1       2.712  -2.072   0.000  0.00  0.00    +0.000 A 
ATOM     30  C   UNL     1       3.427  -2.485   0.000  0.00  0.00    +0.000 A 
ATOM     31  C   UNL     1       3.427  -3.310   0.000  0.00  0.00    +0.000 A 
ATOM     32  C   UNL     1       2.712  -3.722   0.000  0.00  0.00    +0.000 A 
ATOM     33  C   UNL     1       1.998  -3.310   0.000  0.00  0.00    +0.000 A 
ATOM     34  C   UNL     1       1.998  -2.485   0.000  0.00  0.00    +0.000 A 
ENDBRANCH  28  34
ENDBRANCH  22  28
ENDBRANCH   1  27
TORSDOF 4
