REMARK  Name = 4NA
REMARK  1 active torsions:
REMARK  status: ('A' for Active; 'I' for Inactive)
REMARK    1  A    between atoms: C_9  and  C_11
REMARK                            x       y       z     vdW  Elec       q    Type
REMARK                         _______ _______ _______ _____ _____    ______ ____
ROOT
ATOM      1  C   UNL     1      -2.197  -1.037   0.000  0.00  0.00    +0.000 A 
ATOM      2  C   UNL     1      -1.483  -1.449   0.000  0.00  0.00    +0.000 A 
ATOM      3  C   UNL     1      -0.768  -1.037   0.000  0.00  0.00    +0.000 A 
ATOM      4  C   UNL     1      -0.768  -0.212   0.000  0.00  0.00    +0.000 A 
ATOM      5  C   UNL     1      -1.483   0.201   0.000  0.00  0.00    +0.000 A 
ATOM      6  C   UNL     1      -2.197  -0.212   0.000  0.00  0.00    +0.000 A 
ATOM      7  C   UNL     1      -0.054  -1.449   0.000  0.00  0.00    +0.000 A 
ATOM      8  C   UNL     1       0.661  -1.037   0.000  0.00  0.00    +0.000 A 
ATOM      9  C   UNL     1       0.661  -0.212   0.000  0.00  0.00    +0.000 A 
ATOM     10  C   UNL     1      -0.054   0.201   0.000  0.00  0.00    +0.000 A 
ATOM     11 CL   UNL     1      -1.483  -2.274   0.000  0.00  0.00    +0.000 Cl
ATOM     12  O   UNL     1      -2.912  -1.449   0.000  0.00  0.00    +0.000 OA
ENDROOT
BRANCH   9  13
ATOM     13  C   UNL     1       1.375   0.201   0.000  0.00  0.00    +0.000 A 
ATOM     14  C   UNL     1       1.375   1.026   0.000  0.00  0.00    +0.000 A 
ATOM     15  C   UNL     1       2.090   1.438   0.000  0.00  0.00    +0.000 A 
ATOM     16  C   UNL     1       2.804   1.026   0.000  0.00  0.00    +0.000 A 
ATOM     17  C   UNL     1       2.804   0.201   0.000  0.00  0.00    +0.000 A 
ATOM     18  C   UNL     1       2.090  -0.212   0.000  0.00  0.00    +0.000 A 
ATOM     19  O   UNL     1       3.518   1.438   0.000  0.00  0.00    +0.000 OA
ENDBRANCH   9  13
TORSDOF 1
