REMARK  Name = 4NH
REMARK  7 active torsions:
REMARK  status: ('A' for Active; 'I' for Inactive)
REMARK    1  A    between atoms: C_3  and  C_23
REMARK    2  A    between atoms: N_4  and  S_8
REMARK    3  A    between atoms: S_8  and  C_11
REMARK    4  A    between atoms: C_14  and  O_17
REMARK    5  A    between atoms: O_17  and  C_18
REMARK    6  A    between atoms: C_18  and  C_19
REMARK    7  A    between atoms: C_20  and  C_21
REMARK                            x       y       z     vdW  Elec       q    Type
REMARK                         _______ _______ _______ _____ _____    ______ ____
ROOT
ATOM      1  S   UNL     1      -0.425   0.070   0.000  0.00  0.00    +0.000 S 
ATOM      2  O   UNL     1      -0.013   0.785   0.000  0.00  0.00    +0.000 OA
ATOM      3  O   UNL     1      -0.838  -0.644   0.000  0.00  0.00    +0.000 OA
ENDROOT
BRANCH   1   7
ATOM      4  C   UNL     1      -2.384   2.353   0.000  0.00  0.00    +0.000 C 
ATOM      5  C   UNL     1      -1.854   1.720   0.000  0.00  0.00    +0.000 C 
ATOM      6  C   UNL     1      -1.139   1.308   0.000  0.00  0.00    +0.000 C 
ATOM      7  N   UNL     1      -1.139   0.483   0.000  0.00  0.00    +0.000 NA
ATOM      8  C   UNL     1      -1.854   0.070   0.000  0.00  0.00    +0.000 C 
ATOM      9  C   UNL     1      -2.568   0.483   0.000  0.00  0.00    +0.000 C 
ATOM     10  S   UNL     1      -2.568   1.308   0.000  0.00  0.00    +0.000 S 
ATOM     11  C   UNL     1      -1.324   2.353   0.000  0.00  0.00    +0.000 C 
BRANCH   6  12
ATOM     12  C   UNL     1      -0.425   1.720   0.000  0.00  0.00    +0.000 C 
ATOM     13  O   UNL     1       0.289   1.308   0.000  0.00  0.00    +0.000 OA
ATOM     14  N   UNL     1      -0.425   2.546   0.000  0.00  0.00    +0.000 NA
ATOM     15  O   UNL     1      -1.139   2.958   0.000  0.00  0.00    +0.000 OA
ENDBRANCH   6  12
ENDBRANCH   1   7
BRANCH   1  16
ATOM     16  C   UNL     1       0.289  -0.342   0.000  0.00  0.00    +0.000 A 
ATOM     17  C   UNL     1       1.004   0.070   0.000  0.00  0.00    +0.000 A 
ATOM     18  C   UNL     1       1.718  -0.342   0.000  0.00  0.00    +0.000 A 
ATOM     19  C   UNL     1       1.718  -1.167   0.000  0.00  0.00    +0.000 A 
ATOM     20  C   UNL     1       1.004  -1.579   0.000  0.00  0.00    +0.000 A 
ATOM     21  C   UNL     1       0.289  -1.167   0.000  0.00  0.00    +0.000 A 
BRANCH  19  22
ATOM     22  O   UNL     1       2.433  -1.579   0.000  0.00  0.00    +0.000 OA
BRANCH  22  23
ATOM     23  C   UNL     1       2.433  -2.405   0.000  0.00  0.00    +0.000 C 
BRANCH  23  24
ATOM     24  C   UNL     1       3.147  -2.817   0.000  0.00  0.00    +0.000 C 
ATOM     25  C   UNL     1       3.862  -3.229   0.000  0.00  0.00    +0.000 C 
BRANCH  25  26
ATOM     26  C   UNL     1       4.576  -3.642   0.000  0.00  0.00    +0.000 C 
ATOM     27  N   UNL     1       4.576  -4.467   0.000  0.00  0.00    +0.000 NA
ENDBRANCH  25  26
ENDBRANCH  23  24
ENDBRANCH  22  23
ENDBRANCH  19  22
ENDBRANCH   1  16
TORSDOF 7
