REMARK  Name = 4NP
REMARK  3 active torsions:
REMARK  status: ('A' for Active; 'I' for Inactive)
REMARK    1  A    between atoms: P_1  and  O_2
REMARK    2  A    between atoms: O_2  and  C_6
REMARK    3  A    between atoms: C_9  and  N_12
REMARK                            x       y       z     vdW  Elec       q    Type
REMARK                         _______ _______ _______ _____ _____    ______ ____
ROOT
ATOM      1  C   UNL     1       0.444  -0.066   0.000  0.00  0.00    +0.000 A 
ATOM      2  C   UNL     1       0.444  -0.890   0.000  0.00  0.00    +0.000 A 
ATOM      3  C   UNL     1      -0.270  -1.303   0.000  0.00  0.00    +0.000 A 
ATOM      4  C   UNL     1      -0.985  -0.890   0.000  0.00  0.00    +0.000 A 
ATOM      5  C   UNL     1      -0.985  -0.066   0.000  0.00  0.00    +0.000 A 
ATOM      6  C   UNL     1      -0.270   0.347   0.000  0.00  0.00    +0.000 A 
ENDROOT
BRANCH   4   7
ATOM      7  N   UNL     1      -1.699  -1.303   0.000  0.00  0.00    +0.000 N 
ATOM      8  O   UNL     1      -1.699  -2.128   0.000  0.00  0.00    +0.000 OA
ATOM      9  O   UNL     1      -2.414  -0.890   0.000  0.00  0.00    +0.000 OA
ENDBRANCH   4   7
BRANCH   1  10
ATOM     10  O   UNL     1       1.159   0.347   0.000  0.00  0.00    +0.000 OA
BRANCH  10  11
ATOM     11  P   UNL     1       1.159   1.172   0.000  0.00  0.00    +0.000 P 
ATOM     12  O   UNL     1       1.159   1.997   0.000  0.00  0.00    +0.000 OA
ATOM     13  O   UNL     1       0.334   1.172   0.000  0.00  0.00    +0.000 OA
ATOM     14  O   UNL     1       1.984   1.172   0.000  0.00  0.00    +0.000 OA
ENDBRANCH  10  11
ENDBRANCH   1  10
TORSDOF 3
