REMARK  Name = 4PI
REMARK  3 active torsions:
REMARK  status: ('A' for Active; 'I' for Inactive)
REMARK    1  A    between atoms: C_6  and  C_19
REMARK    2  A    between atoms: C_9  and  C_19
REMARK    3  A    between atoms: C_13  and  C_20
REMARK                            x       y       z     vdW  Elec       q    Type
REMARK                         _______ _______ _______ _____ _____    ______ ____
ROOT
ATOM      1  C   UNL     1      -2.105  -2.981   0.000  0.00  0.00    +0.000 C 
ATOM      2  C   UNL     1      -1.390  -3.393   0.000  0.00  0.00    +0.000 C 
ATOM      3  C   UNL     1      -0.676  -2.981   0.000  0.00  0.00    +0.000 C 
ATOM      4  C   UNL     1      -0.676  -2.156   0.000  0.00  0.00    +0.000 C 
ATOM      5  C   UNL     1      -1.390  -1.743   0.000  0.00  0.00    +0.000 C 
ATOM      6  C   UNL     1      -2.819  -1.743   0.000  0.00  0.00    +0.000 C 
ATOM      7  N   UNL     1      -2.105  -2.156   0.000  0.00  0.00    +0.000 N 
ATOM      8  O   UNL     1      -3.534  -2.156   0.000  0.00  0.00    +0.000 OA
ENDROOT
BRANCH   6  13
ATOM      9  C   UNL     1      -2.819   0.732   0.000  0.00  0.00    +0.000 A 
ATOM     10  C   UNL     1      -3.534   0.319   0.000  0.00  0.00    +0.000 A 
ATOM     11  C   UNL     1      -3.534  -0.506   0.000  0.00  0.00    +0.000 A 
ATOM     12  C   UNL     1      -2.819   1.557   0.000  0.00  0.00    +0.000 C 
ATOM     13  C   UNL     1      -2.819  -0.918   0.000  0.00  0.00    +0.000 A 
ATOM     14  C   UNL     1      -2.105  -0.506   0.000  0.00  0.00    +0.000 A 
ATOM     15  C   UNL     1      -2.105   0.319   0.000  0.00  0.00    +0.000 A 
ENDBRANCH   6  13
BRANCH   3  16
ATOM     16  C   UNL     1       0.038  -3.393   0.000  0.00  0.00    +0.000 C 
BRANCH  16  17
ATOM     17  C   UNL     1       0.753  -2.981   0.000  0.00  0.00    +0.000 A 
ATOM     18  C   UNL     1       1.467  -3.393   0.000  0.00  0.00    +0.000 A 
ATOM     19  C   UNL     1       2.182  -2.156   0.000  0.00  0.00    +0.000 A 
ATOM     20  C   UNL     1       2.182  -2.981   0.000  0.00  0.00    +0.000 A 
ATOM     21  C   UNL     1       1.467  -1.743   0.000  0.00  0.00    +0.000 A 
ATOM     22  C   UNL     1       0.753  -2.156   0.000  0.00  0.00    +0.000 A 
ENDBRANCH  16  17
ENDBRANCH   3  16
TORSDOF 3
