REMARK  Name = 4PN
REMARK  1 active torsions:
REMARK  status: ('A' for Active; 'I' for Inactive)
REMARK    1  A    between atoms: N_6  and  C_7
REMARK                            x       y       z     vdW  Elec       q    Type
REMARK                         _______ _______ _______ _____ _____    ______ ____
ROOT
ATOM      1  C   UNL     1       1.013   0.213   0.000  0.00  0.00    +0.000 C 
ATOM      2  C   UNL     1       1.728  -0.200   0.000  0.00  0.00    +0.000 C 
ATOM      3  C   UNL     1       1.728  -1.024   0.000  0.00  0.00    +0.000 C 
ATOM      4  C   UNL     1       1.013  -1.437   0.000  0.00  0.00    +0.000 C 
ATOM      5  C   UNL     1       0.299  -1.024   0.000  0.00  0.00    +0.000 C 
ATOM      6  N   UNL     1       0.299  -0.200   0.000  0.00  0.00    +0.000 NA
ENDROOT
BRANCH   6   7
ATOM      7  C   UNL     1      -0.415   0.213   0.000  0.00  0.00    +0.000 C 
ATOM      8  C   UNL     1      -1.130  -0.200   0.000  0.00  0.00    +0.000 C 
ATOM      9  C   UNL     1      -1.844   0.213   0.000  0.00  0.00    +0.000 C 
ATOM     10  N   UNL     1      -1.844   1.038   0.000  0.00  0.00    +0.000 NA
ATOM     11  C   UNL     1      -1.130   1.450   0.000  0.00  0.00    +0.000 C 
ATOM     12  C   UNL     1      -0.415   1.038   0.000  0.00  0.00    +0.000 C 
ENDBRANCH   6   7
TORSDOF 1
