REMARK  Name = 4PY
REMARK  6 active torsions:
REMARK  status: ('A' for Active; 'I' for Inactive)
REMARK    1  A    between atoms: C_3  and  C_5
REMARK    2  A    between atoms: C_3  and  C_14
REMARK    3  A    between atoms: C_5  and  C_19
REMARK    4  A    between atoms: C_6  and  O_21
REMARK    5  A    between atoms: C_8  and  C_23
REMARK    6  A    between atoms: C_19  and  O_21
REMARK                            x       y       z     vdW  Elec       q    Type
REMARK                         _______ _______ _______ _____ _____    ______ ____
ROOT
ATOM      1  C   UNL     1       1.695   3.086   0.000  0.00  0.00    +0.000 A 
ATOM      2  C   UNL     1       0.888   3.258   0.000  0.00  0.00    +0.000 A 
ATOM      3  C   UNL     1       1.185   4.656   0.000  0.00  0.00    +0.000 A 
ATOM      4  C   UNL     1       2.247   3.700   0.000  0.00  0.00    +0.000 A 
ATOM      5  C   UNL     1       1.992   4.484   0.000  0.00  0.00    +0.000 A 
ATOM      6  N   UNL     1       0.633   4.043   0.000  0.00  0.00    +0.000 NA
ENDROOT
BRANCH   5   7
ATOM      7  C   UNL     1       2.544   5.097   0.000  0.00  0.00    +0.000 C 
ATOM      8  C   UNL     1       3.351   4.926   0.000  0.00  0.00    +0.000 C 
ATOM      9  C   UNL     1       3.903   5.539   0.000  0.00  0.00    +0.000 C 
ATOM     10  C   UNL     1       3.648   6.323   0.000  0.00  0.00    +0.000 C 
ATOM     11  N   UNL     1       2.289   5.882   0.000  0.00  0.00    +0.000 NA
ATOM     12  C   UNL     1       2.841   6.495   0.000  0.00  0.00    +0.000 C 
ATOM     13  C   UNL     1       4.728   5.539   0.000  0.00  0.00    +0.000 C 
ATOM     14  N   UNL     1       4.316   6.808   0.000  0.00  0.00    +0.000 NA
ATOM     15  N   UNL     1       4.983   6.323   0.000  0.00  0.00    +0.000 NA
ENDBRANCH   5   7
BRANCH   1  16
ATOM     16  O   UNL     1       1.950   2.302   0.000  0.00  0.00    +0.000 OA
BRANCH  16  17
ATOM     17  C   UNL     1       1.398   1.689   0.000  0.00  0.00    +0.000 C 
BRANCH  17  18
ATOM     18  C   UNL     1       1.653   0.904   0.000  0.00  0.00    +0.000 C 
ATOM     19  N   UNL     1       2.460   0.733   0.000  0.00  0.00    +0.000 NA
BRANCH  18  20
ATOM     20  C   UNL     1       1.101   0.291   0.000  0.00  0.00    +0.000 C 
BRANCH  20  25
ATOM     21  C   UNL     1       2.855  -0.336   0.000  0.00  0.00    +0.000 C 
ATOM     22  C   UNL     1       0.871  -1.161   0.000  0.00  0.00    +0.000 C 
ATOM     23  C   UNL     1       2.855  -1.986   0.000  0.00  0.00    +0.000 C 
ATOM     24  C   UNL     1       2.141  -0.749   0.000  0.00  0.00    +0.000 C 
ATOM     25  C   UNL     1       1.356  -0.494   0.000  0.00  0.00    +0.000 C 
ATOM     26  C   UNL     1       2.141  -1.574   0.000  0.00  0.00    +0.000 C 
ATOM     27  N   UNL     1       1.356  -1.829   0.000  0.00  0.00    +0.000 NA
ATOM     28  C   UNL     1       3.570  -0.749   0.000  0.00  0.00    +0.000 C 
ATOM     29  C   UNL     1       3.570  -1.574   0.000  0.00  0.00    +0.000 C 
ENDBRANCH  20  25
ENDBRANCH  18  20
ENDBRANCH  17  18
ENDBRANCH  16  17
ENDBRANCH   1  16
TORSDOF 6
