REMARK  Name = 4RB
REMARK  5 active torsions:
REMARK  status: ('A' for Active; 'I' for Inactive)
REMARK    1  A    between atoms: C_3  and  C_4
REMARK    2  A    between atoms: C_9  and  C_10
REMARK    3  A    between atoms: N_19  and  CA_20
REMARK    4  A    between atoms: CA_20  and  C_21
REMARK    5  A    between atoms: CA_20  and  C_23
REMARK                            x       y       z     vdW  Elec       q    Type
REMARK                         _______ _______ _______ _____ _____    ______ ____
ROOT
ATOM      1  C   UNL     1      -1.376   0.489   0.000  0.00  0.00    +0.000 A 
ATOM      2  C   UNL     1      -1.861   1.156   0.000  0.00  0.00    +0.000 A 
ATOM      3  N   UNL     1      -1.376   1.824   0.000  0.00  0.00    +0.000 NA
ATOM      4  C   UNL     1      -0.592   1.569   0.000  0.00  0.00    +0.000 A 
ATOM      5  C   UNL     1       0.123   1.981   0.000  0.00  0.00    +0.000 A 
ATOM      6  C   UNL     1       0.837   1.569   0.000  0.00  0.00    +0.000 A 
ATOM      7  N   UNL     1      -0.592   0.744   0.000  0.00  0.00    +0.000 N 
ATOM      8  N   UNL     1       0.123   0.331   0.000  0.00  0.00    +0.000 NA
ATOM      9  C   UNL     1       0.837   0.744   0.000  0.00  0.00    +0.000 A 
ATOM     10  N   UNL     1       1.552   0.331   0.000  0.00  0.00    +0.000 NA
ENDROOT
BRANCH   1  16
ATOM     11  C   UNL     1      -1.079  -0.909   0.000  0.00  0.00    +0.000 A 
ATOM     12  C   UNL     1      -1.334  -1.694   0.000  0.00  0.00    +0.000 A 
ATOM     13  C   UNL     1      -2.141  -1.865   0.000  0.00  0.00    +0.000 A 
ATOM     14  C   UNL     1      -2.693  -1.252   0.000  0.00  0.00    +0.000 A 
ATOM     15  C   UNL     1      -2.438  -0.467   0.000  0.00  0.00    +0.000 A 
ATOM     16  C   UNL     1      -1.631  -0.296   0.000  0.00  0.00    +0.000 A 
BRANCH  13  17
ATOM     17  C   UNL     1      -2.396  -2.650   0.000  0.00  0.00    +0.000 C 
ATOM     18  O   UNL     1      -3.203  -2.821   0.000  0.00  0.00    +0.000 OA
ATOM     19  O   UNL     1      -1.844  -3.263   0.000  0.00  0.00    +0.000 OA
ENDBRANCH  13  17
ENDBRANCH   1  16
BRANCH  10  20
ATOM     20  CA  UNL     1       2.266   0.744   0.000  0.00  0.00    +0.000 C 
BRANCH  20  21
ATOM     21  C   UNL     1       2.981   0.331   0.000  0.00  0.00    +0.000 C 
ATOM     22  C   UNL     1       3.695   0.744   0.000  0.00  0.00    +0.000 C 
ENDBRANCH  20  21
BRANCH  20  23
ATOM     23  C   UNL     1       2.266   1.569   0.000  0.00  0.00    +0.000 C 
ATOM     24  O   UNL     1       2.981   1.981   0.000  0.00  0.00    +0.000 OA
ENDBRANCH  20  23
ENDBRANCH  10  20
TORSDOF 5
