REMARK  Name = 4SP
REMARK  5 active torsions:
REMARK  status: ('A' for Active; 'I' for Inactive)
REMARK    1  A    between atoms: C_3  and  C_4
REMARK    2  A    between atoms: C_3  and  O_17
REMARK    3  A    between atoms: C_11  and  S_26
REMARK    4  A    between atoms: C_16  and  O_17
REMARK    5  A    between atoms: N_23  and  C_24
REMARK                            x       y       z     vdW  Elec       q    Type
REMARK                         _______ _______ _______ _____ _____    ______ ____
ROOT
ATOM      1  C   UNL     1       1.010   0.754   0.000  0.00  0.00    +0.000 A 
ATOM      2  C   UNL     1      -1.688   0.341   0.000  0.00  0.00    +0.000 A 
ATOM      3  N   UNL     1       1.010  -0.071   0.000  0.00  0.00    +0.000 NA
ATOM      4  C   UNL     1       0.296  -0.484   0.000  0.00  0.00    +0.000 A 
ATOM      5  C   UNL     1      -0.419  -0.071   0.000  0.00  0.00    +0.000 A 
ATOM      6  N   UNL     1      -1.203  -0.326   0.000  0.00  0.00    +0.000 NA
ATOM      7  N   UNL     1      -1.203   1.008   0.000  0.00  0.00    +0.000 NA
ATOM      8  C   UNL     1      -0.419   0.754   0.000  0.00  0.00    +0.000 A 
ATOM      9  N   UNL     1       0.296   1.166   0.000  0.00  0.00    +0.000 NA
ATOM     10  N   UNL     1       1.725   1.166   0.000  0.00  0.00    +0.000 NA
ENDROOT
BRANCH  10  15
ATOM     11  C   UNL     1       1.010   3.229   0.000  0.00  0.00    +0.000 A 
ATOM     12  C   UNL     1       1.725   3.641   0.000  0.00  0.00    +0.000 A 
ATOM     13  C   UNL     1       2.439   3.229   0.000  0.00  0.00    +0.000 A 
ATOM     14  C   UNL     1       2.439   2.404   0.000  0.00  0.00    +0.000 A 
ATOM     15  C   UNL     1       1.725   1.991   0.000  0.00  0.00    +0.000 A 
ATOM     16  C   UNL     1       1.010   2.404   0.000  0.00  0.00    +0.000 A 
BRANCH  12  18
ATOM     17  N   UNL     1       1.725   5.291   0.000  0.00  0.00    +0.000 NA
ATOM     18  S   UNL     1       1.725   4.466   0.000  0.00  0.00    +0.000 S 
ATOM     19  O   UNL     1       2.550   4.466   0.000  0.00  0.00    +0.000 OA
ATOM     20  O   UNL     1       0.900   4.466   0.000  0.00  0.00    +0.000 OA
ENDBRANCH  12  18
ENDBRANCH  10  15
BRANCH   4  21
ATOM     21  O   UNL     1       0.296  -1.309   0.000  0.00  0.00    +0.000 OA
BRANCH  21  22
ATOM     22  C   UNL     1      -0.419  -1.721   0.000  0.00  0.00    +0.000 C 
BRANCH  22  23
ATOM     23  C   UNL     1      -0.419  -2.546   0.000  0.00  0.00    +0.000 C 
ATOM     24  C   UNL     1       0.296  -2.959   0.000  0.00  0.00    +0.000 C 
ATOM     25  C   UNL     1       0.296  -3.784   0.000  0.00  0.00    +0.000 C 
ATOM     26  C   UNL     1      -0.419  -4.196   0.000  0.00  0.00    +0.000 C 
ATOM     27  C   UNL     1      -1.133  -3.784   0.000  0.00  0.00    +0.000 C 
ATOM     28  C   UNL     1      -1.133  -2.959   0.000  0.00  0.00    +0.000 C 
ENDBRANCH  22  23
ENDBRANCH  21  22
ENDBRANCH   4  21
TORSDOF 5
