REMARK  Name = 4TB
REMARK  4 active torsions:
REMARK  status: ('A' for Active; 'I' for Inactive)
REMARK    1  A    between atoms: C_2  and  C_6
REMARK    2  A    between atoms: C_6  and  C_7
REMARK    3  A    between atoms: C_7  and  C_8
REMARK    4  A    between atoms: C_8  and  C_9
REMARK                            x       y       z     vdW  Elec       q    Type
REMARK                         _______ _______ _______ _____ _____    ______ ____
ROOT
ATOM      1  C   UNL     1      -0.107   0.402   0.000  0.00  0.00    +0.000 C 
ENDROOT
BRANCH   1   3
ATOM      2  S   UNL     1      -1.576   0.325   0.000  0.00  0.00    +0.000 S 
ATOM      3  C   UNL     1      -0.822  -0.011   0.000  0.00  0.00    +0.000 A 
ATOM      4  C   UNL     1      -0.908  -0.831   0.000  0.00  0.00    +0.000 A 
ATOM      5  C   UNL     1      -1.715  -1.003   0.000  0.00  0.00    +0.000 A 
ATOM      6  C   UNL     1      -2.128  -0.288   0.000  0.00  0.00    +0.000 A 
ENDBRANCH   1   3
BRANCH   1   7
ATOM      7  C   UNL     1       0.607  -0.011   0.000  0.00  0.00    +0.000 C 
BRANCH   7   8
ATOM      8  C   UNL     1       1.322   0.402   0.000  0.00  0.00    +0.000 C 
BRANCH   8   9
ATOM      9  C   UNL     1       2.036  -0.011   0.000  0.00  0.00    +0.000 C 
ATOM     10  O   UNL     1       2.751   0.402   0.000  0.00  0.00    +0.000 OA
ATOM     11  O   UNL     1       2.036  -0.836   0.000  0.00  0.00    +0.000 OA
ENDBRANCH   8   9
ENDBRANCH   7   8
ENDBRANCH   1   7
TORSDOF 4
