REMARK  Name = 4TR
REMARK  7 active torsions:
REMARK  status: ('A' for Active; 'I' for Inactive)
REMARK    1  A    between atoms: S_1  and  O_4
REMARK    2  A    between atoms: O_4  and  C_6
REMARK    3  A    between atoms: C_9  and  C_12
REMARK    4  A    between atoms: C_12  and  N_21
REMARK    5  A    between atoms: C_13  and  C_15
REMARK    6  A    between atoms: C_18  and  N_21
REMARK    7  A    between atoms: N_21  and  N_25
REMARK                            x       y       z     vdW  Elec       q    Type
REMARK                         _______ _______ _______ _____ _____    ______ ____
ROOT
ATOM      1  N   UNL     1      -0.199   0.710   0.000  0.00  0.00    +0.000 N 
ENDROOT
BRANCH   1   5
ATOM      2  C   UNL     1      -0.713   3.131   0.000  0.00  0.00    +0.000 A 
ATOM      3  C   UNL     1       0.071   2.876   0.000  0.00  0.00    +0.000 A 
ATOM      4  C   UNL     1       0.243   2.070   0.000  0.00  0.00    +0.000 A 
ATOM      5  C   UNL     1      -0.370   1.517   0.000  0.00  0.00    +0.000 A 
ATOM      6  C   UNL     1      -1.155   1.772   0.000  0.00  0.00    +0.000 A 
ATOM      7  C   UNL     1      -1.326   2.579   0.000  0.00  0.00    +0.000 A 
BRANCH   2   8
ATOM      8  C   UNL     1      -0.885   3.938   0.000  0.00  0.00    +0.000 C 
ATOM      9  N   UNL     1      -1.056   4.745   0.000  0.00  0.00    +0.000 NA
ENDBRANCH   2   8
ENDBRANCH   1   5
BRANCH   1  13
ATOM     10  N   UNL     1       1.921   0.456   0.000  0.00  0.00    +0.000 NA
ATOM     11  N   UNL     1       1.666  -0.329   0.000  0.00  0.00    +0.000 NA
ATOM     12  C   UNL     1       0.841  -0.329   0.000  0.00  0.00    +0.000 A 
ATOM     13  N   UNL     1       0.586   0.456   0.000  0.00  0.00    +0.000 N 
ATOM     14  C   UNL     1       1.253   0.940   0.000  0.00  0.00    +0.000 A 
ENDBRANCH   1  13
BRANCH   1  15
ATOM     15  C   UNL     1      -0.812   0.158   0.000  0.00  0.00    +0.000 C 
BRANCH  15  19
ATOM     16  C   UNL     1      -0.297  -2.263   0.000  0.00  0.00    +0.000 A 
ATOM     17  C   UNL     1      -1.082  -2.008   0.000  0.00  0.00    +0.000 A 
ATOM     18  C   UNL     1      -1.253  -1.201   0.000  0.00  0.00    +0.000 A 
ATOM     19  C   UNL     1      -0.640  -0.649   0.000  0.00  0.00    +0.000 A 
ATOM     20  C   UNL     1       0.144  -0.903   0.000  0.00  0.00    +0.000 A 
ATOM     21  C   UNL     1       0.316  -1.710   0.000  0.00  0.00    +0.000 A 
ATOM     22 BR   UNL     1       1.101  -1.965   0.000  0.00  0.00    +0.000 Br
BRANCH  16  23
ATOM     23  O   UNL     1      -0.126  -3.070   0.000  0.00  0.00    +0.000 OA
BRANCH  23  24
ATOM     24  S   UNL     1       0.659  -3.324   0.000  0.00  0.00    +0.000 S 
ATOM     25  O   UNL     1       1.444  -3.579   0.000  0.00  0.00    +0.000 OA
ATOM     26  O   UNL     1       0.914  -2.540   0.000  0.00  0.00    +0.000 OA
ATOM     27  N   UNL     1       0.404  -4.109   0.000  0.00  0.00    +0.000 NA
ENDBRANCH  23  24
ENDBRANCH  16  23
ENDBRANCH  15  19
ENDBRANCH   1  15
TORSDOF 7
