REMARK  Name = 4TZ
REMARK  7 active torsions:
REMARK  status: ('A' for Active; 'I' for Inactive)
REMARK    1  A    between atoms: S_1  and  O_4
REMARK    2  A    between atoms: O_4  and  C_24
REMARK    3  A    between atoms: N_6  and  N_7
REMARK    4  A    between atoms: N_6  and  C_13
REMARK    5  A    between atoms: N_6  and  C_20
REMARK    6  A    between atoms: C_16  and  C_19
REMARK    7  A    between atoms: C_20  and  C_21
REMARK                            x       y       z     vdW  Elec       q    Type
REMARK                         _______ _______ _______ _____ _____    ______ ____
ROOT
ATOM      1  N   UNL     1      -0.559   0.279   0.000  0.00  0.00    +0.000 N 
ENDROOT
BRANCH   1   2
ATOM      2  C   UNL     1      -1.273   0.691   0.000  0.00  0.00    +0.000 A 
ATOM      3  C   UNL     1      -1.988   0.279   0.000  0.00  0.00    +0.000 A 
ATOM      4  C   UNL     1      -2.702   0.691   0.000  0.00  0.00    +0.000 A 
ATOM      5  C   UNL     1      -2.702   1.516   0.000  0.00  0.00    +0.000 A 
ATOM      6  C   UNL     1      -1.988   1.929   0.000  0.00  0.00    +0.000 A 
ATOM      7  C   UNL     1      -1.273   1.516   0.000  0.00  0.00    +0.000 A 
BRANCH   5   9
ATOM      8  N   UNL     1      -4.131   2.341   0.000  0.00  0.00    +0.000 NA
ATOM      9  C   UNL     1      -3.417   1.929   0.000  0.00  0.00    +0.000 C 
ENDBRANCH   5   9
ENDBRANCH   1   2
BRANCH   1  10
ATOM     10  N   UNL     1      -0.559  -0.546   0.000  0.00  0.00    +0.000 N 
ATOM     11  N   UNL     1      -0.146  -1.816   0.000  0.00  0.00    +0.000 NA
ATOM     12  N   UNL     1      -0.971  -1.816   0.000  0.00  0.00    +0.000 NA
ATOM     13  C   UNL     1       0.109  -1.031   0.000  0.00  0.00    +0.000 A 
ATOM     14  C   UNL     1      -1.226  -1.031   0.000  0.00  0.00    +0.000 A 
ENDBRANCH   1  10
BRANCH   1  15
ATOM     15  C   UNL     1       0.156   0.691   0.000  0.00  0.00    +0.000 C 
BRANCH  15  16
ATOM     16  C   UNL     1       0.870   0.279   0.000  0.00  0.00    +0.000 A 
ATOM     17  C   UNL     1       1.585   0.691   0.000  0.00  0.00    +0.000 A 
ATOM     18  C   UNL     1       2.299   0.279   0.000  0.00  0.00    +0.000 A 
ATOM     19  C   UNL     1       2.299  -0.546   0.000  0.00  0.00    +0.000 A 
ATOM     20  C   UNL     1       1.585  -0.959   0.000  0.00  0.00    +0.000 A 
ATOM     21  C   UNL     1       0.870  -0.546   0.000  0.00  0.00    +0.000 A 
BRANCH  19  22
ATOM     22  O   UNL     1       3.014  -0.959   0.000  0.00  0.00    +0.000 OA
BRANCH  22  23
ATOM     23  S   UNL     1       3.014  -1.784   0.000  0.00  0.00    +0.000 S 
ATOM     24  O   UNL     1       3.014  -2.609   0.000  0.00  0.00    +0.000 OA
ATOM     25  O   UNL     1       3.839  -1.784   0.000  0.00  0.00    +0.000 OA
ATOM     26  N   UNL     1       2.189  -1.784   0.000  0.00  0.00    +0.000 NA
ENDBRANCH  22  23
ENDBRANCH  19  22
ENDBRANCH  15  16
ENDBRANCH   1  15
TORSDOF 7
