REMARK  Name = 4UN
REMARK  8 active torsions:
REMARK  status: ('A' for Active; 'I' for Inactive)
REMARK    1  A    between atoms: S_2  and  N_5
REMARK    2  A    between atoms: N_5  and  C_6
REMARK    3  A    between atoms: C_9  and  C_12
REMARK    4  A    between atoms: C_12  and  C_13
REMARK    5  A    between atoms: C_13  and  C_14
REMARK    6  A    between atoms: C_13  and  C_20
REMARK    7  A    between atoms: C_13  and  C_26
REMARK    8  A    between atoms: C_26  and  C_27
REMARK                            x       y       z     vdW  Elec       q    Type
REMARK                         _______ _______ _______ _____ _____    ______ ____
ROOT
ATOM      1  C   UNL     1       0.039  -0.911   0.000  0.00  0.00    +0.000 C 
ENDROOT
BRANCH   1   2
ATOM      2  C   UNL     1       0.864  -0.911   0.000  0.00  0.00    +0.000 A 
ATOM      3  N   UNL     1       1.349  -0.244   0.000  0.00  0.00    +0.000 NA
ATOM      4  O   UNL     1       2.134  -0.499   0.000  0.00  0.00    +0.000 OA
ATOM      5  C   UNL     1       2.134  -1.324   0.000  0.00  0.00    +0.000 A 
ATOM      6  C   UNL     1       2.801  -1.809   0.000  0.00  0.00    +0.000 C 
ATOM      7  N   UNL     1       1.349  -1.579   0.000  0.00  0.00    +0.000 NA
ENDBRANCH   1   2
BRANCH   1   8
ATOM      8  C   UNL     1       0.039  -1.736   0.000  0.00  0.00    +0.000 A 
ATOM      9  N   UNL     1       0.706  -2.221   0.000  0.00  0.00    +0.000 NA
ATOM     10  O   UNL     1       0.452  -3.006   0.000  0.00  0.00    +0.000 OA
ATOM     11  C   UNL     1      -0.373  -3.006   0.000  0.00  0.00    +0.000 A 
ATOM     12  C   UNL     1      -0.858  -3.673   0.000  0.00  0.00    +0.000 C 
ATOM     13  N   UNL     1      -0.628  -2.221   0.000  0.00  0.00    +0.000 NA
ENDBRANCH   1   8
BRANCH   1  14
ATOM     14  C   UNL     1       0.039  -0.086   0.000  0.00  0.00    +0.000 C 
BRANCH  14  18
ATOM     15  C   UNL     1       1.695   1.753   0.000  0.00  0.00    +0.000 A 
ATOM     16  C   UNL     1       1.950   0.968   0.000  0.00  0.00    +0.000 A 
ATOM     17  C   UNL     1       1.398   0.355   0.000  0.00  0.00    +0.000 A 
ATOM     18  C   UNL     1       0.591   0.527   0.000  0.00  0.00    +0.000 A 
ATOM     19  C   UNL     1       0.336   1.311   0.000  0.00  0.00    +0.000 A 
ATOM     20  C   UNL     1       0.888   1.924   0.000  0.00  0.00    +0.000 A 
BRANCH  15  21
ATOM     21  N   UNL     1       2.247   2.366   0.000  0.00  0.00    +0.000 NA
BRANCH  21  23
ATOM     22  O   UNL     1       1.737   3.935   0.000  0.00  0.00    +0.000 OA
ATOM     23  S   UNL     1       1.992   3.151   0.000  0.00  0.00    +0.000 S 
ATOM     24  O   UNL     1       1.208   2.896   0.000  0.00  0.00    +0.000 OA
ATOM     25  O   UNL     1       2.777   3.406   0.000  0.00  0.00    +0.000 OA
ENDBRANCH  21  23
ENDBRANCH  15  21
ENDBRANCH  14  18
ENDBRANCH   1  14
BRANCH   1  26
ATOM     26  C   UNL     1      -0.786  -0.911   0.000  0.00  0.00    +0.000 C 
BRANCH  26  27
ATOM     27  C   UNL     1      -1.198  -0.197   0.000  0.00  0.00    +0.000 A 
ATOM     28  C   UNL     1      -2.023  -0.197   0.000  0.00  0.00    +0.000 A 
ATOM     29  C   UNL     1      -2.436   0.518   0.000  0.00  0.00    +0.000 A 
ATOM     30  C   UNL     1      -2.023   1.232   0.000  0.00  0.00    +0.000 A 
ATOM     31  C   UNL     1      -1.198   1.232   0.000  0.00  0.00    +0.000 A 
ATOM     32  C   UNL     1      -0.786   0.518   0.000  0.00  0.00    +0.000 A 
ENDBRANCH  26  27
ENDBRANCH   1  26
TORSDOF 8
