REMARK  Name = 500
REMARK  4 active torsions:
REMARK  status: ('A' for Active; 'I' for Inactive)
REMARK    1  A    between atoms: C_5  and  C_9
REMARK    2  A    between atoms: C_6  and  C_10
REMARK    3  A    between atoms: C_9  and  C_18
REMARK    4  A    between atoms: C_10  and  C_12
REMARK                            x       y       z     vdW  Elec       q    Type
REMARK                         _______ _______ _______ _____ _____    ______ ____
ROOT
ATOM      1  N   UNL     1       3.165   1.357   0.000  0.00  0.00    +0.000 N 
ATOM      2  C   UNL     1       3.972   1.529   0.000  0.00  0.00    +0.000 A 
ATOM      3  C   UNL     1       3.079   0.537   0.000  0.00  0.00    +0.000 A 
ATOM      4  C   UNL     1       4.385   0.814   0.000  0.00  0.00    +0.000 A 
ATOM      5  C   UNL     1       3.833   0.201   0.000  0.00  0.00    +0.000 A 
ATOM      6  C   UNL     1       2.552   1.909   0.000  0.00  0.00    +0.000 C 
ENDROOT
BRANCH   3   8
ATOM      7  O   UNL     1       1.650   0.537   0.000  0.00  0.00    +0.000 OA
ATOM      8  C   UNL     1       2.365   0.124   0.000  0.00  0.00    +0.000 C 
BRANCH   8   9
ATOM      9  C   UNL     1       2.365  -0.701   0.000  0.00  0.00    +0.000 A 
ATOM     10  C   UNL     1       1.650  -1.113   0.000  0.00  0.00    +0.000 A 
ATOM     11  C   UNL     1       3.079  -1.113   0.000  0.00  0.00    +0.000 A 
ATOM     12  C   UNL     1       2.365  -2.351   0.000  0.00  0.00    +0.000 A 
ATOM     13  C   UNL     1       1.650  -1.938   0.000  0.00  0.00    +0.000 A 
ATOM     14  C   UNL     1       3.079  -1.938   0.000  0.00  0.00    +0.000 A 
ATOM     15  C   UNL     1       2.365  -3.176   0.000  0.00  0.00    +0.000 C 
ENDBRANCH   8   9
ENDBRANCH   3   8
BRANCH   2  16
ATOM     16  C   UNL     1       4.308   2.282   0.000  0.00  0.00    +0.000 C 
BRANCH  16  19
ATOM     17  O   UNL     1       5.464   3.122   0.000  0.00  0.00    +0.000 OA
ATOM     18  O   UNL     1       5.613   1.701   0.000  0.00  0.00    +0.000 OA
ATOM     19  C   UNL     1       5.128   2.369   0.000  0.00  0.00    +0.000 C 
ENDBRANCH  16  19
ENDBRANCH   2  16
TORSDOF 4
