REMARK  Name = 501
REMARK  5 active torsions:
REMARK  status: ('A' for Active; 'I' for Inactive)
REMARK    1  A    between atoms: C_3  and  N_7
REMARK    2  A    between atoms: C_16  and  N_17
REMARK    3  A    between atoms: N_17  and  C_18
REMARK    4  A    between atoms: C_18  and  C_19
REMARK    5  A    between atoms: C_19  and  C_20
REMARK                            x       y       z     vdW  Elec       q    Type
REMARK                         _______ _______ _______ _____ _____    ______ ____
ROOT
ATOM      1  N   UNL     1      -0.782   1.515   0.000  0.00  0.00    +0.000 NA
ATOM      2  C   UNL     1      -0.370   0.800   0.000  0.00  0.00    +0.000 A 
ATOM      3  N   UNL     1      -0.705   0.046   0.000  0.00  0.00    +0.000 NA
ATOM      4  C   UNL     1      -0.092  -0.506   0.000  0.00  0.00    +0.000 A 
ATOM      5  N   UNL     1       0.622  -0.093   0.000  0.00  0.00    +0.000 N 
ATOM      6  N   UNL     1       0.451   0.714   0.000  0.00  0.00    +0.000 NA
ATOM      7  N   UNL     1      -0.092  -1.331   0.000  0.00  0.00    +0.000 NA
ATOM      8  C   UNL     1       0.622  -1.743   0.000  0.00  0.00    +0.000 A 
ATOM      9  C   UNL     1       1.337  -1.331   0.000  0.00  0.00    +0.000 A 
ATOM     10  C   UNL     1       1.337  -0.506   0.000  0.00  0.00    +0.000 A 
ATOM     11  C   UNL     1       0.622  -2.568   0.000  0.00  0.00    +0.000 C 
ENDROOT
BRANCH   1  14
ATOM     12  C   UNL     1      -2.845   2.229   0.000  0.00  0.00    +0.000 A 
ATOM     13  C   UNL     1      -2.020   2.229   0.000  0.00  0.00    +0.000 A 
ATOM     14  C   UNL     1      -1.607   1.515   0.000  0.00  0.00    +0.000 A 
ATOM     15  C   UNL     1      -2.020   0.800   0.000  0.00  0.00    +0.000 A 
ATOM     16  C   UNL     1      -2.845   0.800   0.000  0.00  0.00    +0.000 A 
ATOM     17  C   UNL     1      -3.257   1.515   0.000  0.00  0.00    +0.000 A 
ATOM     18 CL   UNL     1      -3.257   0.086   0.000  0.00  0.00    +0.000 Cl
ATOM     19  C   UNL     1      -1.607   2.943   0.000  0.00  0.00    +0.000 C 
ENDBRANCH   1  14
BRANCH  10  20
ATOM     20  N   UNL     1       2.051  -0.093   0.000  0.00  0.00    +0.000 NA
BRANCH  20  21
ATOM     21  C   UNL     1       2.766  -0.506   0.000  0.00  0.00    +0.000 C 
BRANCH  21  22
ATOM     22  C   UNL     1       3.480  -0.093   0.000  0.00  0.00    +0.000 C 
BRANCH  22  23
ATOM     23  C   UNL     1       4.195  -0.506   0.000  0.00  0.00    +0.000 C 
ATOM     24  C   UNL     1       4.909  -0.093   0.000  0.00  0.00    +0.000 C 
ENDBRANCH  22  23
ENDBRANCH  21  22
ENDBRANCH  20  21
ENDBRANCH  10  20
TORSDOF 5
