REMARK  Name = 502
REMARK  6 active torsions:
REMARK  status: ('A' for Active; 'I' for Inactive)
REMARK    1  A    between atoms: N_5  and  C_11
REMARK    2  A    between atoms: C_6  and  C_12
REMARK    3  A    between atoms: C_11  and  C_13
REMARK    4  A    between atoms: C_13  and  C_16
REMARK    5  A    between atoms: C_16  and  C_19
REMARK    6  A    between atoms: C_19  and  C_21
REMARK                            x       y       z     vdW  Elec       q    Type
REMARK                         _______ _______ _______ _____ _____    ______ ____
ROOT
ATOM      1  O   UNL     1       3.381   2.998   0.000  0.00  0.00    +0.000 OA
ATOM      2  N   UNL     1       3.793   0.633   0.000  0.00  0.00    +0.000 NA
ATOM      3  C   UNL     1       3.793   2.284   0.000  0.00  0.00    +0.000 C 
ATOM      4  C   UNL     1       3.079   1.871   0.000  0.00  0.00    +0.000 C 
ATOM      5  C   UNL     1       4.508   1.871   0.000  0.00  0.00    +0.000 C 
ATOM      6  C   UNL     1       3.079   1.046   0.000  0.00  0.00    +0.000 C 
ATOM      7  C   UNL     1       4.508   1.046   0.000  0.00  0.00    +0.000 C 
ENDROOT
BRANCH   3   9
ATOM      8 CL   UNL     1       5.444   5.142   0.000  0.00  0.00    +0.000 Cl
ATOM      9  C   UNL     1       4.206   2.998   0.000  0.00  0.00    +0.000 A 
ATOM     10  C   UNL     1       3.793   3.713   0.000  0.00  0.00    +0.000 A 
ATOM     11  C   UNL     1       5.031   2.998   0.000  0.00  0.00    +0.000 A 
ATOM     12  C   UNL     1       4.206   4.427   0.000  0.00  0.00    +0.000 A 
ATOM     13  C   UNL     1       5.444   3.713   0.000  0.00  0.00    +0.000 A 
ATOM     14  C   UNL     1       5.031   4.427   0.000  0.00  0.00    +0.000 A 
ENDBRANCH   3   9
BRANCH   2  15
ATOM     15  C   UNL     1       3.793  -0.192   0.000  0.00  0.00    +0.000 C 
BRANCH  15  16
ATOM     16  C   UNL     1       3.079  -0.604   0.000  0.00  0.00    +0.000 C 
BRANCH  16  17
ATOM     17  C   UNL     1       3.079  -1.429   0.000  0.00  0.00    +0.000 C 
BRANCH  17  19
ATOM     18  O   UNL     1       1.650  -1.429   0.000  0.00  0.00    +0.000 OA
ATOM     19  C   UNL     1       2.365  -1.841   0.000  0.00  0.00    +0.000 C 
BRANCH  19  21
ATOM     20  F   UNL     1       2.365  -5.142   0.000  0.00  0.00    +0.000 F 
ATOM     21  C   UNL     1       2.365  -2.667   0.000  0.00  0.00    +0.000 A 
ATOM     22  C   UNL     1       3.079  -3.079   0.000  0.00  0.00    +0.000 A 
ATOM     23  C   UNL     1       1.650  -3.079   0.000  0.00  0.00    +0.000 A 
ATOM     24  C   UNL     1       3.079  -3.904   0.000  0.00  0.00    +0.000 A 
ATOM     25  C   UNL     1       1.650  -3.904   0.000  0.00  0.00    +0.000 A 
ATOM     26  C   UNL     1       2.365  -4.317   0.000  0.00  0.00    +0.000 A 
ENDBRANCH  19  21
ENDBRANCH  17  19
ENDBRANCH  16  17
ENDBRANCH  15  16
ENDBRANCH   2  15
TORSDOF 6
