REMARK  Name = 505
REMARK  8 active torsions:
REMARK  status: ('A' for Active; 'I' for Inactive)
REMARK    1  A    between atoms: N_2  and  C_6
REMARK    2  A    between atoms: N_2  and  C_12
REMARK    3  A    between atoms: N_2  and  C_13
REMARK    4  A    between atoms: N_2  and  C_14
REMARK    5  A    between atoms: C_3  and  C_4
REMARK    6  A    between atoms: C_4  and  C_5
REMARK    7  A    between atoms: C_4  and  C_15
REMARK    8  A    between atoms: C_5  and  C_6
REMARK                            x       y       z     vdW  Elec       q    Type
REMARK                         _______ _______ _______ _____ _____    ______ ____
ROOT
ATOM      1  O   UNL     1       1.906   0.000   0.000  0.00  0.00    +0.000 OA
ATOM      2  C   UNL     1       2.731   0.000   0.000  0.00  0.00    +0.000 C 
ENDROOT
BRANCH   2   3
ATOM      3  C   UNL     1       2.731  -0.825   0.000  0.00  0.00    +0.000 A 
ATOM      4  C   UNL     1       3.445  -1.238   0.000  0.00  0.00    +0.000 A 
ATOM      5  C   UNL     1       2.016  -1.238   0.000  0.00  0.00    +0.000 A 
ATOM      6  C   UNL     1       3.445  -2.062   0.000  0.00  0.00    +0.000 A 
ATOM      7  C   UNL     1       2.016  -2.062   0.000  0.00  0.00    +0.000 A 
ATOM      8  C   UNL     1       2.731  -2.475   0.000  0.00  0.00    +0.000 A 
ENDBRANCH   2   3
BRANCH   2   9
ATOM      9  C   UNL     1       2.731   0.825   0.000  0.00  0.00    +0.000 C 
ATOM     10  C   UNL     1       3.445   1.238   0.000  0.00  0.00    +0.000 C 
ATOM     11  C   UNL     1       2.016   1.238   0.000  0.00  0.00    +0.000 C 
ATOM     12  C   UNL     1       3.445   2.062   0.000  0.00  0.00    +0.000 C 
ATOM     13  C   UNL     1       2.016   2.062   0.000  0.00  0.00    +0.000 C 
ATOM     14  C   UNL     1       2.731   2.475   0.000  0.00  0.00    +0.000 C 
ENDBRANCH   2   9
BRANCH   2  15
ATOM     15  C   UNL     1       3.556   0.000   0.000  0.00  0.00    +0.000 C 
BRANCH  15  16
ATOM     16  C   UNL     1       3.968  -0.715   0.000  0.00  0.00    +0.000 C 
BRANCH  16  17
ATOM     17  N   UNL     1       4.793  -0.715   0.000  0.00  0.00    +0.000 N 
BRANCH  17  18
ATOM     18  C   UNL     1       4.793   0.111   0.000  0.00  0.00    +0.000 C 
ATOM     19  C   UNL     1       5.508   0.523   0.000  0.00  0.00    +0.000 C 
ENDBRANCH  17  18
BRANCH  17  20
ATOM     20  C   UNL     1       4.793  -1.540   0.000  0.00  0.00    +0.000 C 
ATOM     21  C   UNL     1       5.508  -1.952   0.000  0.00  0.00    +0.000 C 
ENDBRANCH  17  20
BRANCH  17  22
ATOM     22  C   UNL     1       5.618  -0.715   0.000  0.00  0.00    +0.000 C 
ATOM     23  C   UNL     1       6.031  -1.429   0.000  0.00  0.00    +0.000 C 
ENDBRANCH  17  22
ENDBRANCH  16  17
ENDBRANCH  15  16
ENDBRANCH   2  15
TORSDOF 8
