REMARK  Name = 507
REMARK  4 active torsions:
REMARK  status: ('A' for Active; 'I' for Inactive)
REMARK    1  A    between atoms: O_2  and  C_11
REMARK    2  A    between atoms: O_2  and  C_20
REMARK    3  A    between atoms: N_9  and  C_18
REMARK    4  A    between atoms: C_10  and  C_12
REMARK                            x       y       z     vdW  Elec       q    Type
REMARK                         _______ _______ _______ _____ _____    ______ ____
ROOT
ATOM      1  S   UNL     1       4.555   0.996   0.000  0.00  0.00    +0.000 S 
ATOM      2  O   UNL     1       3.793  -0.314   0.000  0.00  0.00    +0.000 OA
ATOM      3  N   UNL     1       5.222  -0.314   0.000  0.00  0.00    +0.000 NA
ATOM      4  N   UNL     1       5.890   0.996   0.000  0.00  0.00    +0.000 NA
ATOM      5  C   UNL     1       4.508  -0.727   0.000  0.00  0.00    +0.000 C 
ATOM      6  C   UNL     1       5.222   0.511   0.000  0.00  0.00    +0.000 A 
ATOM      7  C   UNL     1       4.810   1.780   0.000  0.00  0.00    +0.000 A 
ATOM      8  C   UNL     1       5.635   1.780   0.000  0.00  0.00    +0.000 A 
ENDROOT
BRANCH   5   9
ATOM      9  C   UNL     1       4.508  -1.552   0.000  0.00  0.00    +0.000 A 
ATOM     10  C   UNL     1       3.793  -1.964   0.000  0.00  0.00    +0.000 A 
ATOM     11  C   UNL     1       5.222  -1.964   0.000  0.00  0.00    +0.000 A 
ATOM     12  C   UNL     1       3.793  -2.789   0.000  0.00  0.00    +0.000 A 
ATOM     13  C   UNL     1       5.222  -2.789   0.000  0.00  0.00    +0.000 A 
ATOM     14  C   UNL     1       4.508  -3.202   0.000  0.00  0.00    +0.000 A 
BRANCH  10  15
ATOM     15  O   UNL     1       3.079  -1.552   0.000  0.00  0.00    +0.000 OA
BRANCH  15  17
ATOM     16  O   UNL     1       2.365  -2.789   0.000  0.00  0.00    +0.000 OA
ATOM     17  C   UNL     1       2.365  -1.964   0.000  0.00  0.00    +0.000 C 
ATOM     18  C   UNL     1       1.650  -1.552   0.000  0.00  0.00    +0.000 C 
ENDBRANCH  15  17
ENDBRANCH  10  15
ENDBRANCH   5   9
BRANCH   7  21
ATOM     19  O   UNL     1       4.661   3.202   0.000  0.00  0.00    +0.000 OA
ATOM     20  O   UNL     1       3.505   2.362   0.000  0.00  0.00    +0.000 OA
ATOM     21  N   UNL     1       4.325   2.448   0.000  0.00  0.00    +0.000 N 
ENDBRANCH   7  21
TORSDOF 4
