REMARK  Name = 508
REMARK  5 active torsions:
REMARK  status: ('A' for Active; 'I' for Inactive)
REMARK    1  A    between atoms: N_5  and  C_7
REMARK    2  A    between atoms: N_6  and  C_11
REMARK    3  A    between atoms: C_7  and  C_8
REMARK    4  A    between atoms: C_8  and  C_11
REMARK    5  A    between atoms: C_16  and  C_24
REMARK                            x       y       z     vdW  Elec       q    Type
REMARK                         _______ _______ _______ _____ _____    ______ ____
ROOT
ATOM      1  S   UNL     1       3.696  -2.362   0.000  0.00  0.00    +0.000 S 
ATOM      2  N   UNL     1       3.696  -0.778   0.000  0.00  0.00    +0.000 N 
ATOM      3  C   UNL     1       4.382  -1.174   0.000  0.00  0.00    +0.000 A 
ATOM      4  C   UNL     1       3.010  -1.174   0.000  0.00  0.00    +0.000 A 
ATOM      5  C   UNL     1       4.382  -1.966   0.000  0.00  0.00    +0.000 A 
ATOM      6  C   UNL     1       3.010  -1.966   0.000  0.00  0.00    +0.000 A 
ATOM      7  C   UNL     1       5.090  -0.751   0.000  0.00  0.00    +0.000 A 
ATOM      8  C   UNL     1       2.302  -0.751   0.000  0.00  0.00    +0.000 A 
ATOM      9  C   UNL     1       5.808  -1.158   0.000  0.00  0.00    +0.000 A 
ATOM     10  C   UNL     1       5.090  -2.390   0.000  0.00  0.00    +0.000 A 
ATOM     11  C   UNL     1       2.302  -2.390   0.000  0.00  0.00    +0.000 A 
ATOM     12  C   UNL     1       5.808  -1.983   0.000  0.00  0.00    +0.000 A 
ATOM     13  C   UNL     1       1.584  -1.158   0.000  0.00  0.00    +0.000 A 
ATOM     14  C   UNL     1       1.584  -1.983   0.000  0.00  0.00    +0.000 A 
ENDROOT
BRANCH   9  18
ATOM     15  F   UNL     1       6.093  -0.075   0.000  0.00  0.00    +0.000 F 
ATOM     16  F   UNL     1       6.891  -1.444   0.000  0.00  0.00    +0.000 F 
ATOM     17  F   UNL     1       7.176  -0.360   0.000  0.00  0.00    +0.000 F 
ATOM     18  C   UNL     1       6.492  -0.759   0.000  0.00  0.00    +0.000 C 
ENDBRANCH   9  18
BRANCH   2  19
ATOM     19  C   UNL     1       3.696   0.014   0.000  0.00  0.00    +0.000 C 
BRANCH  19  20
ATOM     20  C   UNL     1       3.010   0.410   0.000  0.00  0.00    +0.000 C 
BRANCH  20  21
ATOM     21  C   UNL     1       3.010   1.202   0.000  0.00  0.00    +0.000 C 
BRANCH  21  22
ATOM     22  N   UNL     1       2.324   1.598   0.000  0.00  0.00    +0.000 NA
ATOM     23  C   UNL     1       1.638   1.202   0.000  0.00  0.00    +0.000 C 
ATOM     24  C   UNL     1       2.324   2.390   0.000  0.00  0.00    +0.000 C 
ENDBRANCH  21  22
ENDBRANCH  20  21
ENDBRANCH  19  20
ENDBRANCH   2  19
TORSDOF 5
