REMARK  Name = 509
REMARK  5 active torsions:
REMARK  status: ('A' for Active; 'I' for Inactive)
REMARK    1  A    between atoms: C_4  and  C_7
REMARK    2  A    between atoms: C_9  and  O_15
REMARK    3  A    between atoms: C_10  and  C_12
REMARK    4  A    between atoms: O_15  and  C_16
REMARK    5  A    between atoms: C_16  and  C_17
REMARK                            x       y       z     vdW  Elec       q    Type
REMARK                         _______ _______ _______ _____ _____    ______ ____
ROOT
ATOM      1  C   UNL     1      -0.624   0.526   0.000  0.00  0.00    +0.000 A 
ATOM      2  C   UNL     1       0.044   0.041   0.000  0.00  0.00    +0.000 A 
ATOM      3  C   UNL     1      -0.211  -0.744   0.000  0.00  0.00    +0.000 A 
ATOM      4  C   UNL     1      -1.036  -0.744   0.000  0.00  0.00    +0.000 A 
ATOM      5  S   UNL     1      -1.291   0.041   0.000  0.00  0.00    +0.000 S 
ATOM      6 BR   UNL     1       0.829   0.296   0.000  0.00  0.00    +0.000 Br
ENDROOT
BRANCH   1  10
ATOM      7  C   UNL     1      -0.624   3.001   0.000  0.00  0.00    +0.000 A 
ATOM      8  C   UNL     1       0.091   2.588   0.000  0.00  0.00    +0.000 A 
ATOM      9  C   UNL     1       0.091   1.763   0.000  0.00  0.00    +0.000 A 
ATOM     10  C   UNL     1      -0.624   1.351   0.000  0.00  0.00    +0.000 A 
ATOM     11  C   UNL     1      -1.338   1.763   0.000  0.00  0.00    +0.000 A 
ATOM     12  C   UNL     1      -1.338   2.588   0.000  0.00  0.00    +0.000 A 
ENDBRANCH   1  10
BRANCH   4  13
ATOM     13  C   UNL     1      -1.521  -1.411   0.000  0.00  0.00    +0.000 C 
ATOM     14  O   UNL     1      -2.341  -1.325   0.000  0.00  0.00    +0.000 OA
ATOM     15  O   UNL     1      -1.185  -2.165   0.000  0.00  0.00    +0.000 OA
ENDBRANCH   4  13
BRANCH   3  16
ATOM     16  O   UNL     1       0.274  -1.411   0.000  0.00  0.00    +0.000 OA
BRANCH  16  17
ATOM     17  C   UNL     1       1.094  -1.325   0.000  0.00  0.00    +0.000 C 
BRANCH  17  18
ATOM     18  C   UNL     1       1.579  -1.992   0.000  0.00  0.00    +0.000 C 
ATOM     19  O   UNL     1       2.400  -1.906   0.000  0.00  0.00    +0.000 OA
ATOM     20  O   UNL     1       1.244  -2.746   0.000  0.00  0.00    +0.000 OA
ENDBRANCH  17  18
ENDBRANCH  16  17
ENDBRANCH   3  16
TORSDOF 5
