REMARK  Name = 50U
REMARK  7 active torsions:
REMARK  status: ('A' for Active; 'I' for Inactive)
REMARK    1  A    between atoms: C_2  and  C_3
REMARK    2  A    between atoms: N_5  and  C_6
REMARK    3  A    between atoms: C_6  and  C_7
REMARK    4  A    between atoms: C_10  and  C_11
REMARK    5  A    between atoms: C_19  and  C_20
REMARK    6  A    between atoms: C_20  and  C_21
REMARK    7  A    between atoms: C_21  and  C_22
REMARK                            x       y       z     vdW  Elec       q    Type
REMARK                         _______ _______ _______ _____ _____    ______ ____
ROOT
ATOM      1  N   UNL     1      -0.415  -0.789   0.000  0.00  0.00    +0.000 N 
ATOM      2  C   UNL     1      -1.083  -0.304   0.000  0.00  0.00    +0.000 C 
ATOM      3  C   UNL     1      -1.750  -0.789   0.000  0.00  0.00    +0.000 C 
ATOM      4  C   UNL     1      -1.495  -1.573   0.000  0.00  0.00    +0.000 C 
ATOM      5  C   UNL     1      -0.670  -1.573   0.000  0.00  0.00    +0.000 C 
ATOM      6  C   UNL     1       0.369  -0.534   0.000  0.00  0.00    +0.000 C 
ATOM      7  O   UNL     1       0.541   0.273   0.000  0.00  0.00    +0.000 OA
ENDROOT
BRANCH   2   8
ATOM      8  C   UNL     1      -1.083   0.521   0.000  0.00  0.00    +0.000 C 
ATOM      9  O   UNL     1      -0.368   0.934   0.000  0.00  0.00    +0.000 OA
ATOM     10  N   UNL     1      -1.797   0.934   0.000  0.00  0.00    +0.000 NA
BRANCH  10  11
ATOM     11  C   UNL     1      -1.797   1.759   0.000  0.00  0.00    +0.000 C 
BRANCH  11  12
ATOM     12  C   UNL     1      -2.511   2.171   0.000  0.00  0.00    +0.000 A 
ATOM     13  C   UNL     1      -3.226   1.759   0.000  0.00  0.00    +0.000 A 
ATOM     14  C   UNL     1      -3.940   2.171   0.000  0.00  0.00    +0.000 A 
ATOM     15  C   UNL     1      -3.940   2.996   0.000  0.00  0.00    +0.000 A 
ATOM     16  C   UNL     1      -3.226   3.409   0.000  0.00  0.00    +0.000 A 
ATOM     17  C   UNL     1      -2.511   2.996   0.000  0.00  0.00    +0.000 A 
BRANCH  15  18
ATOM     18  C   UNL     1      -4.655   3.409   0.000  0.00  0.00    +0.000 C 
ATOM     19  N   UNL     1      -4.655   4.234   0.000  0.00  0.00    +0.000 NA
ATOM     20  N   UNL     1      -5.369   2.996   0.000  0.00  0.00    +0.000 NA
ENDBRANCH  15  18
ENDBRANCH  11  12
ENDBRANCH  10  11
ENDBRANCH   2   8
BRANCH   6  21
ATOM     21  C   UNL     1       0.983  -1.086   0.000  0.00  0.00    +0.000 C 
BRANCH  21  22
ATOM     22  C   UNL     1       1.767  -0.831   0.000  0.00  0.00    +0.000 C 
BRANCH  22  23
ATOM     23  C   UNL     1       2.380  -1.383   0.000  0.00  0.00    +0.000 C 
ATOM     24  C   UNL     1       3.165  -1.128   0.000  0.00  0.00    +0.000 C 
ATOM     25  C   UNL     1       3.778  -1.680   0.000  0.00  0.00    +0.000 C 
ATOM     26  C   UNL     1       3.607  -2.487   0.000  0.00  0.00    +0.000 C 
ATOM     27  C   UNL     1       2.822  -2.742   0.000  0.00  0.00    +0.000 C 
ATOM     28  C   UNL     1       2.209  -2.190   0.000  0.00  0.00    +0.000 C 
ENDBRANCH  22  23
ENDBRANCH  21  22
ENDBRANCH   6  21
TORSDOF 7
