REMARK  Name = 51-83-2
REMARK  4 active torsions:
REMARK  status: ('A' for Active; 'I' for Inactive)
REMARK    1  A    between atoms: C_1  and  N_2
REMARK    2  A    between atoms: C_1  and  C_6
REMARK    3  A    between atoms: C_6  and  O_7
REMARK    4  A    between atoms: O_7  and  C_8
REMARK                            x       y       z     vdW  Elec       q    Type
REMARK                         _______ _______ _______ _____ _____    ______ ____
ROOT
ATOM      1  C   UNL     1       0.655  -0.610   0.000  0.00  0.00    +0.000 C 
ENDROOT
BRANCH   1   2
ATOM      2  N   UNL     1       1.370  -0.197   0.000  0.00  0.00    +0.000 N 
ATOM      3  C   UNL     1       2.084   0.215   0.000  0.00  0.00    +0.000 C 
ATOM      4  C   UNL     1       0.957   0.517   0.000  0.00  0.00    +0.000 C 
ATOM      5  C   UNL     1       1.782  -0.912   0.000  0.00  0.00    +0.000 C 
ENDBRANCH   1   2
BRANCH   1   6
ATOM      6  C   UNL     1      -0.059  -0.197   0.000  0.00  0.00    +0.000 C 
BRANCH   6   7
ATOM      7  O   UNL     1      -0.774  -0.610   0.000  0.00  0.00    +0.000 OA
BRANCH   7   8
ATOM      8  C   UNL     1      -1.488  -0.197   0.000  0.00  0.00    +0.000 C 
ATOM      9  N   UNL     1      -2.203  -0.610   0.000  0.00  0.00    +0.000 NA
ATOM     10  O   UNL     1      -1.488   0.628   0.000  0.00  0.00    +0.000 OA
ENDBRANCH   7   8
ENDBRANCH   6   7
ENDBRANCH   1   6
TORSDOF 4
