REMARK  Name = 5105
REMARK  10 active torsions:
REMARK  status: ('A' for Active; 'I' for Inactive)
REMARK    1  A    between atoms: O_1  and  C_16
REMARK    2  A    between atoms: O_1  and  C_19
REMARK    3  A    between atoms: O_2  and  C_23
REMARK    4  A    between atoms: O_2  and  C_24
REMARK    5  A    between atoms: N_5  and  C_12
REMARK    6  A    between atoms: N_6  and  C_21
REMARK    7  A    between atoms: C_12  and  C_13
REMARK    8  A    between atoms: C_19  and  C_20
REMARK    9  A    between atoms: C_20  and  C_21
REMARK   10  A    between atoms: C_22  and  C_23
REMARK                            x       y       z     vdW  Elec       q    Type
REMARK                         _______ _______ _______ _____ _____    ______ ____
ROOT
ATOM      1  C   UNL     1       6.652   2.475   0.000  0.00  0.00    +0.000 A 
ATOM      2  C   UNL     1       5.937   2.062   0.000  0.00  0.00    +0.000 A 
ATOM      3  C   UNL     1       7.366   2.062   0.000  0.00  0.00    +0.000 A 
ATOM      4  C   UNL     1       5.937   1.238   0.000  0.00  0.00    +0.000 A 
ATOM      5  C   UNL     1       7.366   1.238   0.000  0.00  0.00    +0.000 A 
ATOM      6  C   UNL     1       6.652   0.825   0.000  0.00  0.00    +0.000 A 
ENDROOT
BRANCH   1   7
ATOM      7  C   UNL     1       6.652   3.300   0.000  0.00  0.00    +0.000 C 
BRANCH   7   8
ATOM      8  N   UNL     1       7.366   3.713   0.000  0.00  0.00    +0.000 NA
ATOM      9  C   UNL     1       8.080   3.300   0.000  0.00  0.00    +0.000 C 
ATOM     10  C   UNL     1       7.366   4.538   0.000  0.00  0.00    +0.000 C 
ATOM     11  C   UNL     1       8.080   4.950   0.000  0.00  0.00    +0.000 C 
ATOM     12  C   UNL     1       8.795   3.713   0.000  0.00  0.00    +0.000 C 
ATOM     13  C   UNL     1       8.795   4.538   0.000  0.00  0.00    +0.000 C 
ENDBRANCH   7   8
ENDBRANCH   1   7
BRANCH   4  14
ATOM     14  O   UNL     1       5.222   0.825   0.000  0.00  0.00    +0.000 OA
BRANCH  14  15
ATOM     15  C   UNL     1       5.222   0.000   0.000  0.00  0.00    +0.000 C 
BRANCH  15  16
ATOM     16  C   UNL     1       4.508  -0.412   0.000  0.00  0.00    +0.000 C 
BRANCH  16  17
ATOM     17  C   UNL     1       4.508  -1.238   0.000  0.00  0.00    +0.000 C 
BRANCH  17  19
ATOM     18  O   UNL     1       4.508  -2.888   0.000  0.00  0.00    +0.000 OA
ATOM     19  N   UNL     1       3.793  -1.650   0.000  0.00  0.00    +0.000 NA
ATOM     20  C   UNL     1       3.793  -2.475   0.000  0.00  0.00    +0.000 C 
BRANCH  20  21
ATOM     21  C   UNL     1       3.079  -2.888   0.000  0.00  0.00    +0.000 C 
BRANCH  21  22
ATOM     22  O   UNL     1       3.079  -3.713   0.000  0.00  0.00    +0.000 OA
BRANCH  22  24
ATOM     23  O   UNL     1       1.650  -3.713   0.000  0.00  0.00    +0.000 OA
ATOM     24  C   UNL     1       2.365  -4.125   0.000  0.00  0.00    +0.000 C 
ATOM     25  C   UNL     1       2.365  -4.950   0.000  0.00  0.00    +0.000 C 
ENDBRANCH  22  24
ENDBRANCH  21  22
ENDBRANCH  20  21
ENDBRANCH  17  19
ENDBRANCH  16  17
ENDBRANCH  15  16
ENDBRANCH  14  15
ENDBRANCH   4  14
TORSDOF 10
