REMARK  Name = 513
REMARK  5 active torsions:
REMARK  status: ('A' for Active; 'I' for Inactive)
REMARK    1  A    between atoms: C_4  and  C_5
REMARK    2  A    between atoms: C_4  and  C_6
REMARK    3  A    between atoms: C_5  and  C_7
REMARK    4  A    between atoms: C_6  and  C_8
REMARK    5  A    between atoms: C_7  and  C_9
REMARK                            x       y       z     vdW  Elec       q    Type
REMARK                         _______ _______ _______ _____ _____    ______ ____
ROOT
ATOM      1  C   UNL     1       4.237   0.206   0.000  0.00  0.00    +0.000 C 
ENDROOT
BRANCH   1   2
ATOM      2  C   UNL     1       4.951   0.619   0.000  0.00  0.00    +0.000 C 
BRANCH   2   3
ATOM      3  C   UNL     1       5.665   0.206   0.000  0.00  0.00    +0.000 C 
BRANCH   3   5
ATOM      4  N   UNL     1       7.094   0.206   0.000  0.00  0.00    +0.000 NA
ATOM      5  C   UNL     1       6.380   0.619   0.000  0.00  0.00    +0.000 C 
ENDBRANCH   3   5
ENDBRANCH   2   3
ENDBRANCH   1   2
BRANCH   1   6
ATOM      6  C   UNL     1       3.522   0.619   0.000  0.00  0.00    +0.000 C 
BRANCH   6   9
ATOM      7  O   UNL     1       2.093   0.619   0.000  0.00  0.00    +0.000 OA
ATOM      8  O   UNL     1       2.808  -0.619   0.000  0.00  0.00    +0.000 OA
ATOM      9  C   UNL     1       2.808   0.206   0.000  0.00  0.00    +0.000 C 
ENDBRANCH   6   9
ENDBRANCH   1   6
TORSDOF 5
