REMARK  Name = 5147
REMARK  1 active torsions:
REMARK  status: ('A' for Active; 'I' for Inactive)
REMARK    1  A    between atoms: C_4  and  C_10
REMARK                            x       y       z     vdW  Elec       q    Type
REMARK                         _______ _______ _______ _____ _____    ______ ____
ROOT
ATOM      1  O   UNL     1       2.093  -0.050   0.000  0.00  0.00    +0.000 OA
ATOM      2  C   UNL     1       3.522  -0.050   0.000  0.00  0.00    +0.000 A 
ATOM      3  C   UNL     1       2.808  -0.462   0.000  0.00  0.00    +0.000 A 
ATOM      4  C   UNL     1       4.237  -0.462   0.000  0.00  0.00    +0.000 A 
ATOM      5  C   UNL     1       2.808  -1.287   0.000  0.00  0.00    +0.000 A 
ATOM      6  C   UNL     1       4.237  -1.287   0.000  0.00  0.00    +0.000 A 
ATOM      7  C   UNL     1       3.522  -1.700   0.000  0.00  0.00    +0.000 A 
ENDROOT
BRANCH   2  10
ATOM      8  O   UNL     1       2.808   1.188   0.000  0.00  0.00    +0.000 OA
ATOM      9  N   UNL     1       4.237   1.188   0.000  0.00  0.00    +0.000 NA
ATOM     10  C   UNL     1       3.522   0.775   0.000  0.00  0.00    +0.000 C 
ENDBRANCH   2  10
TORSDOF 1
