REMARK  Name = 517
REMARK  3 active torsions:
REMARK  status: ('A' for Active; 'I' for Inactive)
REMARK    1  A    between atoms: C_5  and  C_6
REMARK    2  A    between atoms: C_6  and  C_8
REMARK    3  A    between atoms: C_17  and  N_18
REMARK                            x       y       z     vdW  Elec       q    Type
REMARK                         _______ _______ _______ _____ _____    ______ ____
ROOT
ATOM      1  C   UNL     1      -0.477   0.252   0.000  0.00  0.00    +0.000 C 
ATOM      2  C   UNL     1       0.307   0.506   0.000  0.00  0.00    +0.000 A 
ATOM      3  C   UNL     1       1.022   0.094   0.000  0.00  0.00    +0.000 A 
ATOM      4  C   UNL     1      -0.962   0.919   0.000  0.00  0.00    +0.000 C 
ATOM      5  O   UNL     1      -1.787   0.919   0.000  0.00  0.00    +0.000 OA
ATOM      6  N   UNL     1      -0.477   1.587   0.000  0.00  0.00    +0.000 NA
ATOM      7  C   UNL     1       0.307   1.331   0.000  0.00  0.00    +0.000 A 
ATOM      8  C   UNL     1       1.022   1.744   0.000  0.00  0.00    +0.000 A 
ATOM      9  C   UNL     1       1.736   1.331   0.000  0.00  0.00    +0.000 A 
ATOM     10  C   UNL     1       1.736   0.506   0.000  0.00  0.00    +0.000 A 
ENDROOT
BRANCH  10  11
ATOM     11  N   UNL     1       2.451   0.094   0.000  0.00  0.00    +0.000 NA
ATOM     12  C   UNL     1       2.451  -0.731   0.000  0.00  0.00    +0.000 C 
ATOM     13  O   UNL     1       3.165  -1.143   0.000  0.00  0.00    +0.000 OA
ATOM     14  N   UNL     1       1.736  -1.143   0.000  0.00  0.00    +0.000 NA
ENDBRANCH  10  11
BRANCH   1  15
ATOM     15  C   UNL     1      -0.732  -0.533   0.000  0.00  0.00    +0.000 C 
ATOM     16  C   UNL     1      -0.180  -1.146   0.000  0.00  0.00    +0.000 C 
BRANCH  15  21
ATOM     17  N   UNL     1      -2.152  -0.152   0.000  0.00  0.00    +0.000 NA
ATOM     18  C   UNL     1      -2.867  -0.565   0.000  0.00  0.00    +0.000 A 
ATOM     19  C   UNL     1      -2.695  -1.372   0.000  0.00  0.00    +0.000 A 
ATOM     20  C   UNL     1      -1.875  -1.458   0.000  0.00  0.00    +0.000 A 
ATOM     21  C   UNL     1      -1.539  -0.705   0.000  0.00  0.00    +0.000 A 
ENDBRANCH  15  21
ENDBRANCH   1  15
TORSDOF 3
