REMARK  Name = 519
REMARK  10 active torsions:
REMARK  status: ('A' for Active; 'I' for Inactive)
REMARK    1  A    between atoms: O_4  and  C_22
REMARK    2  A    between atoms: O_4  and  C_25
REMARK    3  A    between atoms: N_7  and  CA_18
REMARK    4  A    between atoms: N_7  and  C_20
REMARK    5  A    between atoms: CA_11  and  C_17
REMARK    6  A    between atoms: C_16  and  CA_18
REMARK    7  A    between atoms: C_20  and  C_21
REMARK    8  A    between atoms: C_20  and  C_22
REMARK    9  A    between atoms: C_21  and  C_23
REMARK   10  A    between atoms: C_23  and  C_24
REMARK                            x       y       z     vdW  Elec       q    Type
REMARK                         _______ _______ _______ _____ _____    ______ ____
ROOT
ATOM      1  CA  ALA A   1       5.725  -0.654   0.000  0.00  0.00    +0.000 C 
ATOM      2  CB  ALA A   1       4.918  -0.824   0.000  0.00  0.00    +0.000 C 
ENDROOT
BRANCH   1  13
ATOM      3  O   ALA A   1       7.083  -1.098   0.000  0.00  0.00    +0.000 OA
ATOM      4  N   ALA A   1       6.019  -2.052   0.000  0.00  0.00    +0.000 N 
ATOM      5  C   ALA A   1       5.239  -3.128   0.000  0.00  0.00    +0.000 C 
ATOM      6  C   ALA A   1       5.239  -2.304   0.000  0.00  0.00    +0.000 C 
ATOM      7  C   ALA A   1       6.019  -3.380   0.000  0.00  0.00    +0.000 C 
ATOM      8  CA  ALA A   1       6.501  -2.716   0.000  0.00  0.00    +0.000 C 
ATOM      9  C   ALA A   1       4.524  -3.541   0.000  0.00  0.00    +0.000 C 
ATOM     10  C   ALA A   1       4.524  -1.891   0.000  0.00  0.00    +0.000 C 
ATOM     11  C   ALA A   1       3.810  -3.128   0.000  0.00  0.00    +0.000 C 
ATOM     12  C   ALA A   1       3.810  -2.304   0.000  0.00  0.00    +0.000 C 
ATOM     13  C   ALA A   1       6.276  -1.268   0.000  0.00  0.00    +0.000 C 
BRANCH   8  16
ATOM     14  O   ALA A   1       7.739  -3.430   0.000  0.00  0.00    +0.000 OA
ATOM     15  OXT ALA A   1       7.739  -2.002   0.000  0.00  0.00    +0.000 OA
ATOM     16  C   ALA A   1       7.326  -2.716   0.000  0.00  0.00    +0.000 C 
ENDBRANCH   8  16
ENDBRANCH   1  13
BRANCH   1  17
ATOM     17  N   ALA A   1       5.981   0.130   0.000  0.00  0.00    +0.000 NA
BRANCH  17  18
ATOM     18  C   UNK A   0       5.430   0.745   0.000  0.00  0.00    +0.000 C 
BRANCH  18  20
ATOM     19  O   UNK A   0       6.494   1.699   0.000  0.00  0.00    +0.000 OA
ATOM     20  C   UNK A   0       5.686   1.529   0.000  0.00  0.00    +0.000 C 
BRANCH  20  21
ATOM     21  O   UNK A   0       5.136   2.143   0.000  0.00  0.00    +0.000 OA
BRANCH  21  22
ATOM     22  C   UNK A   0       5.392   2.927   0.000  0.00  0.00    +0.000 C 
ATOM     23  C   UNK A   0       4.841   3.541   0.000  0.00  0.00    +0.000 C 
ENDBRANCH  21  22
ENDBRANCH  20  21
ENDBRANCH  18  20
BRANCH  18  24
ATOM     24  C   UNK A   0       4.623   0.574   0.000  0.00  0.00    +0.000 C 
BRANCH  24  25
ATOM     25  C   UNK A   0       4.072   1.188   0.000  0.00  0.00    +0.000 C 
BRANCH  25  26
ATOM     26  C   UNK A   0       3.265   1.018   0.000  0.00  0.00    +0.000 A 
ATOM     27  C   UNK A   0       2.714   1.632   0.000  0.00  0.00    +0.000 A 
ATOM     28  C   UNK A   0       3.008   0.234   0.000  0.00  0.00    +0.000 A 
ATOM     29  C   UNK A   0       1.906   1.462   0.000  0.00  0.00    +0.000 A 
ATOM     30  C   UNK A   0       2.201   0.064   0.000  0.00  0.00    +0.000 A 
ATOM     31  C   UNK A   0       1.650   0.678   0.000  0.00  0.00    +0.000 A 
ENDBRANCH  25  26
ENDBRANCH  24  25
ENDBRANCH  18  24
ENDBRANCH  17  18
ENDBRANCH   1  17
TORSDOF 10
