REMARK  Name = 51U
REMARK  6 active torsions:
REMARK  status: ('A' for Active; 'I' for Inactive)
REMARK    1  A    between atoms: C_1  and  C_3
REMARK    2  A    between atoms: C_1  and  C_22
REMARK    3  A    between atoms: C_3  and  C_4
REMARK    4  A    between atoms: C_10  and  C_11
REMARK    5  A    between atoms: N_12  and  C_13
REMARK    6  A    between atoms: C_13  and  C_14
REMARK                            x       y       z     vdW  Elec       q    Type
REMARK                         _______ _______ _______ _____ _____    ______ ____
ROOT
ATOM      1  C   UNL     1       0.898  -0.574   0.000  0.00  0.00    +0.000 C 
ATOM      2  O   UNL     1       1.069   0.234   0.000  0.00  0.00    +0.000 OA
ATOM      3  N   UNL     1       0.113  -0.828   0.000  0.00  0.00    +0.000 N 
ATOM      4  C   UNL     1      -0.142  -1.613   0.000  0.00  0.00    +0.000 C 
ATOM      5  C   UNL     1      -0.967  -1.613   0.000  0.00  0.00    +0.000 C 
ATOM      6  C   UNL     1      -1.222  -0.828   0.000  0.00  0.00    +0.000 C 
ATOM      7  C   UNL     1      -0.554  -0.344   0.000  0.00  0.00    +0.000 C 
ENDROOT
BRANCH   7   8
ATOM      8  C   UNL     1      -0.554   0.481   0.000  0.00  0.00    +0.000 C 
ATOM      9  N   UNL     1      -1.269   0.894   0.000  0.00  0.00    +0.000 NA
ATOM     10  O   UNL     1       0.160   0.894   0.000  0.00  0.00    +0.000 OA
BRANCH   9  11
ATOM     11  C   UNL     1      -1.269   1.719   0.000  0.00  0.00    +0.000 C 
BRANCH  11  12
ATOM     12  C   UNL     1      -1.983   2.131   0.000  0.00  0.00    +0.000 A 
ATOM     13  C   UNL     1      -2.698   1.719   0.000  0.00  0.00    +0.000 A 
ATOM     14  C   UNL     1      -3.412   2.131   0.000  0.00  0.00    +0.000 A 
ATOM     15  C   UNL     1      -4.127   1.719   0.000  0.00  0.00    +0.000 C 
ATOM     16  C   UNL     1      -3.412   2.957   0.000  0.00  0.00    +0.000 A 
ATOM     17  C   UNL     1      -2.698   3.369   0.000  0.00  0.00    +0.000 A 
ATOM     18  C   UNL     1      -1.983   2.957   0.000  0.00  0.00    +0.000 A 
ENDBRANCH  11  12
ENDBRANCH   9  11
ENDBRANCH   7   8
BRANCH   1  20
ATOM     19  N   UNL     1       1.339  -1.933   0.000  0.00  0.00    +0.000 NA
ATOM     20  C   UNL     1       1.511  -1.125   0.000  0.00  0.00    +0.000 C 
BRANCH  20  21
ATOM     21  C   UNL     1       2.296  -0.871   0.000  0.00  0.00    +0.000 C 
BRANCH  21  22
ATOM     22  C   UNL     1       2.909  -1.423   0.000  0.00  0.00    +0.000 A 
ATOM     23  C   UNL     1       3.693  -1.168   0.000  0.00  0.00    +0.000 A 
ATOM     24  C   UNL     1       4.306  -1.720   0.000  0.00  0.00    +0.000 A 
ATOM     25  C   UNL     1       4.135  -2.527   0.000  0.00  0.00    +0.000 A 
ATOM     26  C   UNL     1       3.350  -2.782   0.000  0.00  0.00    +0.000 A 
ATOM     27  C   UNL     1       2.737  -2.230   0.000  0.00  0.00    +0.000 A 
ENDBRANCH  21  22
ENDBRANCH  20  21
ENDBRANCH   1  20
TORSDOF 6
