REMARK  Name = 521
REMARK  2 active torsions:
REMARK  status: ('A' for Active; 'I' for Inactive)
REMARK    1  A    between atoms: C_4  and  C_7
REMARK    2  A    between atoms: N_8  and  C_10
REMARK                            x       y       z     vdW  Elec       q    Type
REMARK                         _______ _______ _______ _____ _____    ______ ____
ROOT
ATOM      1  C   UNL     1       0.311  -0.541   0.000  0.00  0.00    +0.000 A 
ATOM      2  C   UNL     1       0.724  -1.810   0.000  0.00  0.00    +0.000 A 
ATOM      3  C   UNL     1       0.978  -1.026   0.000  0.00  0.00    +0.000 A 
ATOM      4  C   UNL     1      -0.102  -1.810   0.000  0.00  0.00    +0.000 A 
ATOM      5  S   UNL     1      -0.356  -1.026   0.000  0.00  0.00    +0.000 S 
ATOM      6 CL   UNL     1       1.763  -0.771   0.000  0.00  0.00    +0.000 Cl
ENDROOT
BRANCH   2   7
ATOM      7  N   UNL     1       1.208  -2.478   0.000  0.00  0.00    +0.000 N 
ATOM      8  N   UNL     1       2.288  -3.263   0.000  0.00  0.00    +0.000 NA
ATOM      9  C   UNL     1       0.954  -3.263   0.000  0.00  0.00    +0.000 C 
ATOM     10  C   UNL     1       1.621  -3.747   0.000  0.00  0.00    +0.000 C 
ATOM     11  O   UNL     1       1.621  -4.572   0.000  0.00  0.00    +0.000 OA
ATOM     12  S   UNL     1       2.033  -2.478   0.000  0.00  0.00    +0.000 S 
ATOM     13  O   UNL     1       2.784  -2.134   0.000  0.00  0.00    +0.000 OA
ATOM     14  O   UNL     1       2.128  -1.658   0.000  0.00  0.00    +0.000 OA
ENDBRANCH   2   7
BRANCH   1  18
ATOM     15  C   UNL     1       0.311   1.934   0.000  0.00  0.00    +0.000 A 
ATOM     16  C   UNL     1      -0.404   1.522   0.000  0.00  0.00    +0.000 A 
ATOM     17  C   UNL     1      -0.404   0.697   0.000  0.00  0.00    +0.000 A 
ATOM     18  C   UNL     1       0.311   0.284   0.000  0.00  0.00    +0.000 A 
ATOM     19  C   UNL     1       1.026   0.697   0.000  0.00  0.00    +0.000 A 
ATOM     20  C   UNL     1       1.026   1.522   0.000  0.00  0.00    +0.000 A 
ENDBRANCH   1  18
TORSDOF 2
