REMARK  Name = 5212
REMARK  7 active torsions:
REMARK  status: ('A' for Active; 'I' for Inactive)
REMARK    1  A    between atoms: C_1  and  C_2
REMARK    2  A    between atoms: C_3  and  O_8
REMARK    3  A    between atoms: O_8  and  C_13
REMARK    4  A    between atoms: C_9  and  S_14
REMARK    5  A    between atoms: S_14  and  N_18
REMARK    6  A    between atoms: C_16  and  C_23
REMARK    7  A    between atoms: C_23  and  C_27
REMARK                            x       y       z     vdW  Elec       q    Type
REMARK                         _______ _______ _______ _____ _____    ______ ____
ROOT
ATOM      1  C   UNL     1       0.378  -0.450   0.000  0.00  0.00    +0.000 A 
ATOM      2  C   UNL     1       0.378  -1.279   0.000  0.00  0.00    +0.000 A 
ATOM      3  C   UNL     1      -0.337  -0.041   0.000  0.00  0.00    +0.000 A 
ATOM      4  C   UNL     1      -0.337  -1.691   0.000  0.00  0.00    +0.000 A 
ATOM      5  C   UNL     1      -1.048  -0.450   0.000  0.00  0.00    +0.000 A 
ATOM      6  C   UNL     1      -1.052  -1.275   0.000  0.00  0.00    +0.000 A 
ENDROOT
BRANCH   1   7
ATOM      7  C   UNL     1       1.093  -0.035   0.000  0.00  0.00    +0.000 A 
ATOM      8  N   UNL     1       1.804  -0.447   0.000  0.00  0.00    +0.000 NA
ATOM      9  N   UNL     1       1.086   0.790   0.000  0.00  0.00    +0.000 NA
ATOM     10  C   UNL     1       2.523  -0.038   0.000  0.00  0.00    +0.000 A 
ATOM     11  C   UNL     1       1.804   1.203   0.000  0.00  0.00    +0.000 A 
ATOM     12  C   UNL     1       2.561   0.787   0.000  0.00  0.00    +0.000 A 
ATOM     13  C   UNL     1       3.306  -0.289   0.000  0.00  0.00    +0.000 A 
ATOM     14  N   UNL     1       3.303   1.048   0.000  0.00  0.00    +0.000 N 
ATOM     15  N   UNL     1       3.794   0.382   0.000  0.00  0.00    +0.000 NA
ATOM     16  C   UNL     1       3.561   1.835   0.000  0.00  0.00    +0.000 C 
ATOM     17  O   UNL     1       1.797   2.021   0.000  0.00  0.00    +0.000 OA
BRANCH  13  18
ATOM     18  C   UNL     1       3.557  -1.069   0.000  0.00  0.00    +0.000 C 
BRANCH  18  19
ATOM     19  C   UNL     1       4.358  -1.237   0.000  0.00  0.00    +0.000 C 
ATOM     20  C   UNL     1       4.612  -2.021   0.000  0.00  0.00    +0.000 C 
ENDBRANCH  18  19
ENDBRANCH  13  18
ENDBRANCH   1   7
BRANCH   5  21
ATOM     21  S   UNL     1      -1.760  -0.038   0.000  0.00  0.00    +0.000 S 
ATOM     22  O   UNL     1      -1.175   0.550   0.000  0.00  0.00    +0.000 OA
ATOM     23  O   UNL     1      -2.351   0.550   0.000  0.00  0.00    +0.000 OA
BRANCH  21  24
ATOM     24  N   UNL     1      -2.471  -0.447   0.000  0.00  0.00    +0.000 NA
ATOM     25  C   UNL     1      -2.471  -1.272   0.000  0.00  0.00    +0.000 C 
ATOM     26  C   UNL     1      -3.186  -0.031   0.000  0.00  0.00    +0.000 C 
ATOM     27  C   UNL     1      -3.186  -1.684   0.000  0.00  0.00    +0.000 C 
ATOM     28  C   UNL     1      -3.901  -0.447   0.000  0.00  0.00    +0.000 C 
ATOM     29  N   UNL     1      -3.901  -1.272   0.000  0.00  0.00    +0.000 NA
ATOM     30  C   UNL     1      -4.612  -1.688   0.000  0.00  0.00    +0.000 C 
ENDBRANCH  21  24
ENDBRANCH   5  21
BRANCH   2  31
ATOM     31  O   UNL     1       1.086  -1.688   0.000  0.00  0.00    +0.000 OA
BRANCH  31  32
ATOM     32  C   UNL     1       1.798  -1.275   0.000  0.00  0.00    +0.000 C 
ATOM     33  C   UNL     1       2.506  -1.688   0.000  0.00  0.00    +0.000 C 
ENDBRANCH  31  32
ENDBRANCH   2  31
TORSDOF 7
