REMARK  Name = 523
REMARK  5 active torsions:
REMARK  status: ('A' for Active; 'I' for Inactive)
REMARK    1  A    between atoms: C_6  and  C_11
REMARK    2  A    between atoms: C_13  and  C_14
REMARK    3  A    between atoms: C_16  and  C_17
REMARK    4  A    between atoms: C_18  and  C_19
REMARK    5  A    between atoms: C_21  and  C_22
REMARK                            x       y       z     vdW  Elec       q    Type
REMARK                         _______ _______ _______ _____ _____    ______ ____
ROOT
ATOM      1  C   UNL     1       5.244  -0.890   0.000  0.00  0.00    +0.000 C 
ATOM      2  C   UNL     1       4.530  -1.302   0.000  0.00  0.00    +0.000 C 
ENDROOT
BRANCH   1   6
ATOM      3  C   UNL     1       6.673  -0.890   0.000  0.00  0.00    +0.000 C 
ATOM      4  C   UNL     1       7.388  -1.302   0.000  0.00  0.00    +0.000 C 
ATOM      5  C   UNL     1       7.388  -2.127   0.000  0.00  0.00    +0.000 C 
ATOM      6  C   UNL     1       5.959  -1.302   0.000  0.00  0.00    +0.000 C 
ATOM      7  C   UNL     1       6.673  -2.540   0.000  0.00  0.00    +0.000 C 
ATOM      8  C   UNL     1       5.959  -2.127   0.000  0.00  0.00    +0.000 C 
ATOM      9  C   UNL     1       7.061  -0.161   0.000  0.00  0.00    +0.000 C 
ATOM     10  C   UNL     1       6.286  -0.161   0.000  0.00  0.00    +0.000 C 
ATOM     11  C   UNL     1       5.244  -2.540   0.000  0.00  0.00    +0.000 C 
ENDBRANCH   1   6
BRANCH   2  12
ATOM     12  C   UNL     1       3.815  -0.890   0.000  0.00  0.00    +0.000 C 
ATOM     13  C   UNL     1       3.815  -0.065   0.000  0.00  0.00    +0.000 C 
ATOM     14  C   UNL     1       3.101  -1.302   0.000  0.00  0.00    +0.000 C 
BRANCH  14  15
ATOM     15  C   UNL     1       3.101  -2.127   0.000  0.00  0.00    +0.000 C 
ATOM     16  C   UNL     1       2.386  -2.540   0.000  0.00  0.00    +0.000 C 
BRANCH  16  17
ATOM     17  C   UNL     1       2.386  -3.365   0.000  0.00  0.00    +0.000 C 
ATOM     18  C   UNL     1       3.101  -3.777   0.000  0.00  0.00    +0.000 C 
ATOM     19  C   UNL     1       1.672  -3.777   0.000  0.00  0.00    +0.000 C 
BRANCH  19  22
ATOM     20  O   UNL     1       0.957  -5.015   0.000  0.00  0.00    +0.000 OA
ATOM     21  O   UNL     1       2.386  -5.015   0.000  0.00  0.00    +0.000 OA
ATOM     22  C   UNL     1       1.672  -4.602   0.000  0.00  0.00    +0.000 C 
ENDBRANCH  19  22
ENDBRANCH  16  17
ENDBRANCH  14  15
ENDBRANCH   2  12
TORSDOF 5
