REMARK  Name = 524
REMARK  5 active torsions:
REMARK  status: ('A' for Active; 'I' for Inactive)
REMARK    1  A    between atoms: C_3  and  C_26
REMARK    2  A    between atoms: C_10  and  C_11
REMARK    3  A    between atoms: C_10  and  C_14
REMARK    4  A    between atoms: C_10  and  C_29
REMARK    5  A    between atoms: C_11  and  C_12
REMARK                            x       y       z     vdW  Elec       q    Type
REMARK                         _______ _______ _______ _____ _____    ______ ____
ROOT
ATOM      1  C   UNL     1       0.213  -0.957   0.000  0.00  0.00    +0.000 C 
ENDROOT
BRANCH   1   5
ATOM      2  C   UNL     1       0.213   1.518   0.000  0.00  0.00    +0.000 C 
ATOM      3  C   UNL     1       0.928   1.105   0.000  0.00  0.00    +0.000 C 
ATOM      4  C   UNL     1       0.928   0.280   0.000  0.00  0.00    +0.000 C 
ATOM      5  C   UNL     1       0.213  -0.132   0.000  0.00  0.00    +0.000 C 
ATOM      6  C   UNL     1      -0.501   0.280   0.000  0.00  0.00    +0.000 C 
ATOM      7  C   UNL     1      -0.501   1.105   0.000  0.00  0.00    +0.000 C 
BRANCH   2  10
ATOM      8  C   UNL     1       0.213   3.993   0.000  0.00  0.00    +0.000 A 
ATOM      9  C   UNL     1      -0.501   2.755   0.000  0.00  0.00    +0.000 A 
ATOM     10  C   UNL     1       0.213   2.343   0.000  0.00  0.00    +0.000 A 
ATOM     11  C   UNL     1       0.928   3.580   0.000  0.00  0.00    +0.000 A 
ATOM     12  C   UNL     1      -0.501   3.580   0.000  0.00  0.00    +0.000 A 
ATOM     13  N   UNL     1       0.928   2.755   0.000  0.00  0.00    +0.000 N 
ATOM     14  N   UNL     1       1.712   2.500   0.000  0.00  0.00    +0.000 NA
ATOM     15  C   UNL     1       2.197   3.168   0.000  0.00  0.00    +0.000 A 
ATOM     16  N   UNL     1       1.712   3.835   0.000  0.00  0.00    +0.000 NA
ENDBRANCH   2  10
ENDBRANCH   1   5
BRANCH   1  17
ATOM     17  C   UNL     1       0.928  -1.370   0.000  0.00  0.00    +0.000 C 
ATOM     18  O   UNL     1       0.928  -2.195   0.000  0.00  0.00    +0.000 OA
ATOM     19  N   UNL     1       1.642  -0.957   0.000  0.00  0.00    +0.000 N 
ATOM     20  C   UNL     1       1.642  -0.132   0.000  0.00  0.00    +0.000 C 
ATOM     21  C   UNL     1       2.357  -1.370   0.000  0.00  0.00    +0.000 C 
ENDBRANCH   1  17
BRANCH   1  22
ATOM     22  C   UNL     1      -0.501  -1.370   0.000  0.00  0.00    +0.000 C 
ATOM     23  N   UNL     1      -0.501  -2.195   0.000  0.00  0.00    +0.000 NA
BRANCH  22  24
ATOM     24  C   UNL     1      -1.216  -0.957   0.000  0.00  0.00    +0.000 C 
ATOM     25  N   UNL     1      -1.930  -1.370   0.000  0.00  0.00    +0.000 N 
ATOM     26  O   UNL     1      -1.216  -0.132   0.000  0.00  0.00    +0.000 OA
ATOM     27  C   UNL     1      -2.684  -1.034   0.000  0.00  0.00    +0.000 C 
ATOM     28  C   UNL     1      -3.236  -1.647   0.000  0.00  0.00    +0.000 C 
ATOM     29  C   UNL     1      -2.823  -2.362   0.000  0.00  0.00    +0.000 C 
ATOM     30  C   UNL     1      -2.016  -2.190   0.000  0.00  0.00    +0.000 C 
ATOM     31  F   UNL     1      -4.056  -1.561   0.000  0.00  0.00    +0.000 F 
ENDBRANCH  22  24
ENDBRANCH   1  22
TORSDOF 5
