REMARK  Name = 524
REMARK  2 active torsions:
REMARK  status: ('A' for Active; 'I' for Inactive)
REMARK    1  A    between atoms: S_2  and  C_17
REMARK    2  A    between atoms: N_6  and  C_13
REMARK                            x       y       z     vdW  Elec       q    Type
REMARK                         _______ _______ _______ _____ _____    ______ ____
ROOT
ATOM      1 CL   UNL     1       7.420   1.208   0.000  0.00  0.00    +0.000 Cl
ATOM      2  O   UNL     1       4.508  -1.287   0.000  0.00  0.00    +0.000 OA
ATOM      3  N   UNL     1       3.793  -0.050   0.000  0.00  0.00    +0.000 N 
ATOM      4  N   UNL     1       4.508   1.188   0.000  0.00  0.00    +0.000 NA
ATOM      5  C   UNL     1       3.793   0.775   0.000  0.00  0.00    +0.000 C 
ATOM      6  C   UNL     1       5.222   0.775   0.000  0.00  0.00    +0.000 A 
ATOM      7  C   UNL     1       5.222  -0.050   0.000  0.00  0.00    +0.000 A 
ATOM      8  C   UNL     1       4.508  -0.462   0.000  0.00  0.00    +0.000 C 
ATOM      9  C   UNL     1       3.079   1.188   0.000  0.00  0.00    +0.000 C 
ATOM     10  C   UNL     1       5.960  -0.491   0.000  0.00  0.00    +0.000 A 
ATOM     11  C   UNL     1       5.960   1.217   0.000  0.00  0.00    +0.000 A 
ATOM     12  C   UNL     1       6.707  -0.067   0.000  0.00  0.00    +0.000 A 
ATOM     13  C   UNL     1       6.707   0.793   0.000  0.00  0.00    +0.000 A 
ENDROOT
BRANCH   3  14
ATOM     14  C   UNL     1       3.079  -0.462   0.000  0.00  0.00    +0.000 A 
ATOM     15  C   UNL     1       2.364  -0.050   0.000  0.00  0.00    +0.000 A 
ATOM     16  C   UNL     1       3.079  -1.287   0.000  0.00  0.00    +0.000 A 
ATOM     17  C   UNL     1       1.650  -0.462   0.000  0.00  0.00    +0.000 A 
ATOM     18  C   UNL     1       2.364   0.775   0.000  0.00  0.00    +0.000 C 
ATOM     19  C   UNL     1       2.364  -1.700   0.000  0.00  0.00    +0.000 A 
ATOM     20  C   UNL     1       1.650  -1.287   0.000  0.00  0.00    +0.000 A 
ENDBRANCH   3  14
BRANCH  12  21
ATOM     21  S   UNL     1       7.420  -0.482   0.000  0.00  0.00    +0.000 S 
ATOM     22  O   UNL     1       7.835   0.231   0.000  0.00  0.00    +0.000 OA
ATOM     23  O   UNL     1       7.005  -1.195   0.000  0.00  0.00    +0.000 OA
ATOM     24  N   UNL     1       8.133  -0.897   0.000  0.00  0.00    +0.000 NA
ENDBRANCH  12  21
TORSDOF 2
