REMARK  Name = 525
REMARK  4 active torsions:
REMARK  status: ('A' for Active; 'I' for Inactive)
REMARK    1  A    between atoms: O_2  and  C_7
REMARK    2  A    between atoms: O_2  and  C_16
REMARK    3  A    between atoms: N_3  and  C_6
REMARK    4  A    between atoms: N_3  and  C_16
REMARK                            x       y       z     vdW  Elec       q    Type
REMARK                         _______ _______ _______ _____ _____    ______ ____
ROOT
ATOM      1  O   UNL     1       5.937  -0.427   0.000  0.00  0.00    +0.000 OA
ENDROOT
BRANCH   1   4
ATOM      2  C   UNL     1       8.080  -0.014   0.000  0.00  0.00    +0.000 A 
ATOM      3  C   UNL     1       8.080   0.811   0.000  0.00  0.00    +0.000 A 
ATOM      4  C   UNL     1       6.652  -0.014   0.000  0.00  0.00    +0.000 A 
ATOM      5  C   UNL     1       7.366  -0.427   0.000  0.00  0.00    +0.000 A 
ATOM      6  C   UNL     1       7.366   1.223   0.000  0.00  0.00    +0.000 A 
ATOM      7  C   UNL     1       6.652   0.811   0.000  0.00  0.00    +0.000 A 
ATOM      8  C   UNL     1       8.818  -0.455   0.000  0.00  0.00    +0.000 A 
ATOM      9  C   UNL     1       8.818   1.252   0.000  0.00  0.00    +0.000 A 
ATOM     10  C   UNL     1       9.565  -0.031   0.000  0.00  0.00    +0.000 A 
ATOM     11  C   UNL     1       9.565   0.828   0.000  0.00  0.00    +0.000 A 
ENDBRANCH   1   4
BRANCH   1  13
ATOM     12  S   UNL     1       5.222   0.811   0.000  0.00  0.00    +0.000 S 
ATOM     13  C   UNL     1       5.222  -0.014   0.000  0.00  0.00    +0.000 C 
BRANCH  13  14
ATOM     14  N   UNL     1       4.508  -0.427   0.000  0.00  0.00    +0.000 N 
ATOM     15  C   UNL     1       4.508  -1.252   0.000  0.00  0.00    +0.000 C 
BRANCH  14  16
ATOM     16  C   UNL     1       3.793  -0.014   0.000  0.00  0.00    +0.000 A 
ATOM     17  C   UNL     1       3.079  -0.427   0.000  0.00  0.00    +0.000 A 
ATOM     18  C   UNL     1       2.365  -0.014   0.000  0.00  0.00    +0.000 A 
ATOM     19  C   UNL     1       3.793   0.811   0.000  0.00  0.00    +0.000 A 
ATOM     20  C   UNL     1       2.365   0.811   0.000  0.00  0.00    +0.000 A 
ATOM     21  C   UNL     1       3.079   1.223   0.000  0.00  0.00    +0.000 A 
ATOM     22  C   UNL     1       1.650  -0.427   0.000  0.00  0.00    +0.000 C 
ENDBRANCH  14  16
ENDBRANCH  13  14
ENDBRANCH   1  13
TORSDOF 4
