REMARK  Name = 5280581
REMARK  15 active torsions:
REMARK  status: ('A' for Active; 'I' for Inactive)
REMARK    1  A    between atoms: C_3  and  C_4
REMARK    2  A    between atoms: C_3  and  C_5
REMARK    3  A    between atoms: C_4  and  C_6
REMARK    4  A    between atoms: C_5  and  C_7
REMARK    5  A    between atoms: C_6  and  C_8
REMARK    6  A    between atoms: C_7  and  C_13
REMARK    7  A    between atoms: C_8  and  C_16
REMARK    8  A    between atoms: C_9  and  C_10
REMARK    9  A    between atoms: C_9  and  C_11
REMARK   10  A    between atoms: C_10  and  C_12
REMARK   11  A    between atoms: C_11  and  C_15
REMARK   12  A    between atoms: C_14  and  C_18
REMARK   13  A    between atoms: C_18  and  C_21
REMARK   14  A    between atoms: C_19  and  C_20
REMARK   15  A    between atoms: C_20  and  C_22
REMARK                            x       y       z     vdW  Elec       q    Type
REMARK                         _______ _______ _______ _____ _____    ______ ____
ROOT
ATOM      1  C   UNL     1       4.508  -2.269   0.000  0.00  0.00    +0.000 C 
ATOM      2  C   UNL     1       5.222  -2.681   0.000  0.00  0.00    +0.000 C 
ENDROOT
BRANCH   1   3
ATOM      3  C   UNL     1       4.508  -1.444   0.000  0.00  0.00    +0.000 C 
BRANCH   3   4
ATOM      4  C   UNL     1       3.793  -1.031   0.000  0.00  0.00    +0.000 C 
BRANCH   4   5
ATOM      5  C   UNL     1       3.793  -0.206   0.000  0.00  0.00    +0.000 C 
BRANCH   5   6
ATOM      6  C   UNL     1       3.079   0.206   0.000  0.00  0.00    +0.000 C 
BRANCH   6   7
ATOM      7  C   UNL     1       3.079   1.031   0.000  0.00  0.00    +0.000 C 
BRANCH   7   8
ATOM      8  C   UNL     1       2.365   1.444   0.000  0.00  0.00    +0.000 C 
BRANCH   8  11
ATOM      9  O   UNL     1       1.650   2.681   0.000  0.00  0.00    +0.000 OA
ATOM     10  O   UNL     1       3.079   2.681   0.000  0.00  0.00    +0.000 OA
ATOM     11  C   UNL     1       2.365   2.269   0.000  0.00  0.00    +0.000 C 
ENDBRANCH   8  11
ENDBRANCH   7   8
ENDBRANCH   6   7
ENDBRANCH   5   6
ENDBRANCH   4   5
ENDBRANCH   3   4
ENDBRANCH   1   3
BRANCH   2  12
ATOM     12  C   UNL     1       5.937  -2.269   0.000  0.00  0.00    +0.000 C 
BRANCH  12  13
ATOM     13  C   UNL     1       6.652  -2.681   0.000  0.00  0.00    +0.000 C 
ATOM     14  C   UNL     1       7.366  -2.269   0.000  0.00  0.00    +0.000 C 
BRANCH  14  15
ATOM     15  C   UNL     1       7.366  -1.444   0.000  0.00  0.00    +0.000 C 
BRANCH  15  17
ATOM     16  C   UNL     1       8.080  -0.206   0.000  0.00  0.00    +0.000 C 
ATOM     17  C   UNL     1       8.080  -1.031   0.000  0.00  0.00    +0.000 C 
BRANCH  16  18
ATOM     18  C   UNL     1       7.366   0.206   0.000  0.00  0.00    +0.000 C 
BRANCH  18  19
ATOM     19  C   UNL     1       7.366   1.031   0.000  0.00  0.00    +0.000 C 
BRANCH  19  20
ATOM     20  C   UNL     1       6.652   1.444   0.000  0.00  0.00    +0.000 C 
BRANCH  20  21
ATOM     21  C   UNL     1       6.652   2.269   0.000  0.00  0.00    +0.000 C 
ATOM     22  C   UNL     1       5.937   2.681   0.000  0.00  0.00    +0.000 C 
ENDBRANCH  20  21
ENDBRANCH  19  20
ENDBRANCH  18  19
ENDBRANCH  16  18
ENDBRANCH  15  17
ENDBRANCH  14  15
ENDBRANCH  12  13
ENDBRANCH   2  12
TORSDOF 15
