REMARK  Name = 5281800
REMARK  11 active torsions:
REMARK  status: ('A' for Active; 'I' for Inactive)
REMARK    1  A    between atoms: O_1  and  C_16
REMARK    2  A    between atoms: O_1  and  C_20
REMARK    3  A    between atoms: O_4  and  C_17
REMARK    4  A    between atoms: O_4  and  C_29
REMARK    5  A    between atoms: O_5  and  C_22
REMARK    6  A    between atoms: O_5  and  C_28
REMARK    7  A    between atoms: C_19  and  C_26
REMARK    8  A    between atoms: C_28  and  C_30
REMARK    9  A    between atoms: C_29  and  C_31
REMARK   10  A    between atoms: C_30  and  C_32
REMARK   11  A    between atoms: C_33  and  C_38
REMARK                            x       y       z     vdW  Elec       q    Type
REMARK                         _______ _______ _______ _____ _____    ______ ____
ROOT
ATOM      1  O   UNL     1       8.523  -0.206   0.000  0.00  0.00    +0.000 OA
ATOM      2  O   UNL     1       9.952   1.444   0.000  0.00  0.00    +0.000 OA
ATOM      3  C   UNL     1       8.523   1.444   0.000  0.00  0.00    +0.000 C 
ATOM      4  C   UNL     1       7.809   1.031   0.000  0.00  0.00    +0.000 C 
ATOM      5  C   UNL     1       9.238   1.031   0.000  0.00  0.00    +0.000 C 
ATOM      6  C   UNL     1       7.809   0.206   0.000  0.00  0.00    +0.000 C 
ATOM      7  C   UNL     1       9.238   0.206   0.000  0.00  0.00    +0.000 C 
ENDROOT
BRANCH   6   9
ATOM      8  O   UNL     1       7.094  -1.031   0.000  0.00  0.00    +0.000 OA
ATOM      9  C   UNL     1       7.094  -0.206   0.000  0.00  0.00    +0.000 C 
ENDBRANCH   6   9
BRANCH   4  10
ATOM     10  O   UNL     1       7.094   1.444   0.000  0.00  0.00    +0.000 OA
BRANCH  10  12
ATOM     11  O   UNL     1       6.380   0.206   0.000  0.00  0.00    +0.000 OA
ATOM     12  C   UNL     1       6.380   1.031   0.000  0.00  0.00    +0.000 C 
BRANCH  12  13
ATOM     13  C   UNL     1       5.665   1.444   0.000  0.00  0.00    +0.000 C 
ATOM     14  C   UNL     1       4.951   1.031   0.000  0.00  0.00    +0.000 C 
BRANCH  14  17
ATOM     15  O   UNL     1       3.522   3.506   0.000  0.00  0.00    +0.000 OA
ATOM     16  O   UNL     1       2.093   2.681   0.000  0.00  0.00    +0.000 OA
ATOM     17  C   UNL     1       4.237   1.444   0.000  0.00  0.00    +0.000 A 
ATOM     18  C   UNL     1       4.237   2.269   0.000  0.00  0.00    +0.000 A 
ATOM     19  C   UNL     1       3.522   1.031   0.000  0.00  0.00    +0.000 A 
ATOM     20  C   UNL     1       3.522   2.681   0.000  0.00  0.00    +0.000 A 
ATOM     21  C   UNL     1       2.808   1.444   0.000  0.00  0.00    +0.000 A 
ATOM     22  C   UNL     1       2.808   2.269   0.000  0.00  0.00    +0.000 A 
ENDBRANCH  14  17
ENDBRANCH  12  13
ENDBRANCH  10  12
ENDBRANCH   4  10
BRANCH   7  23
ATOM     23  O   UNL     1       9.952  -0.206   0.000  0.00  0.00    +0.000 OA
BRANCH  23  24
ATOM     24  C   UNL     1       9.952  -1.031   0.000  0.00  0.00    +0.000 C 
BRANCH  24  25
ATOM     25  C   UNL     1      10.667  -1.444   0.000  0.00  0.00    +0.000 C 
BRANCH  25  28
ATOM     26  O   UNL     1       9.238  -3.919   0.000  0.00  0.00    +0.000 OA
ATOM     27  O   UNL     1      10.667  -4.744   0.000  0.00  0.00    +0.000 OA
ATOM     28  C   UNL     1      10.667  -2.269   0.000  0.00  0.00    +0.000 A 
ATOM     29  C   UNL     1       9.952  -2.681   0.000  0.00  0.00    +0.000 A 
ATOM     30  C   UNL     1      11.381  -2.681   0.000  0.00  0.00    +0.000 A 
ATOM     31  C   UNL     1       9.952  -3.506   0.000  0.00  0.00    +0.000 A 
ATOM     32  C   UNL     1      11.381  -3.506   0.000  0.00  0.00    +0.000 A 
ATOM     33  C   UNL     1      10.667  -3.919   0.000  0.00  0.00    +0.000 A 
ENDBRANCH  25  28
ENDBRANCH  24  25
ENDBRANCH  23  24
ENDBRANCH   7  23
BRANCH   3  34
ATOM     34  O   UNL     1       8.523   2.269   0.000  0.00  0.00    +0.000 OA
BRANCH  34  39
ATOM     35  O   UNL     1       9.952   2.269   0.000  0.00  0.00    +0.000 OA
ATOM     36  O   UNL     1       8.523   3.919   0.000  0.00  0.00    +0.000 OA
ATOM     37  O   UNL     1       9.952   4.744   0.000  0.00  0.00    +0.000 OA
ATOM     38  O   UNL     1      11.381   3.919   0.000  0.00  0.00    +0.000 OA
ATOM     39  C   UNL     1       9.238   2.681   0.000  0.00  0.00    +0.000 C 
ATOM     40  C   UNL     1       9.238   3.506   0.000  0.00  0.00    +0.000 C 
ATOM     41  C   UNL     1       9.952   3.919   0.000  0.00  0.00    +0.000 C 
ATOM     42  C   UNL     1      10.667   3.506   0.000  0.00  0.00    +0.000 C 
ATOM     43  C   UNL     1      10.667   2.681   0.000  0.00  0.00    +0.000 C 
ATOM     44  C   UNL     1      11.381   2.269   0.000  0.00  0.00    +0.000 C 
ENDBRANCH  34  39
ENDBRANCH   3  34
TORSDOF 11
