REMARK  Name = 5281613
REMARK  7 active torsions:
REMARK  status: ('A' for Active; 'I' for Inactive)
REMARK    1  A    between atoms: O_3  and  C_21
REMARK    2  A    between atoms: O_3  and  C_26
REMARK    3  A    between atoms: O_6  and  C_24
REMARK    4  A    between atoms: O_6  and  C_28
REMARK    5  A    between atoms: O_14  and  C_42
REMARK    6  A    between atoms: C_16  and  C_26
REMARK    7  A    between atoms: C_35  and  C_37
REMARK                            x       y       z     vdW  Elec       q    Type
REMARK                         _______ _______ _______ _____ _____    ______ ____
ROOT
ATOM      1  O   UNL     1       8.849   2.067   0.000  0.00  0.00    +0.000 OA
ENDROOT
BRANCH   1   5
ATOM      2  O   UNL     1       5.937   2.047   0.000  0.00  0.00    +0.000 OA
ATOM      3  O   UNL     1       7.379  -0.456   0.000  0.00  0.00    +0.000 OA
ATOM      4  O   UNL     1       5.937  -0.427   0.000  0.00  0.00    +0.000 OA
ATOM      5  C   UNL     1       8.136   1.652   0.000  0.00  0.00    +0.000 A 
ATOM      6  C   UNL     1       7.389   2.076   0.000  0.00  0.00    +0.000 A 
ATOM      7  C   UNL     1       8.136   0.793   0.000  0.00  0.00    +0.000 A 
ATOM      8  C   UNL     1       6.651   1.635   0.000  0.00  0.00    +0.000 A 
ATOM      9  C   UNL     1       7.389   0.369   0.000  0.00  0.00    +0.000 A 
ATOM     10  C   UNL     1       6.651   0.810   0.000  0.00  0.00    +0.000 A 
ATOM     11  C   UNL     1       5.937   0.398   0.000  0.00  0.00    +0.000 A 
ATOM     12  C   UNL     1       5.222   1.635   0.000  0.00  0.00    +0.000 A 
ATOM     13  C   UNL     1       5.222   0.810   0.000  0.00  0.00    +0.000 A 
BRANCH  12  15
ATOM     14  O   UNL     1       3.793   4.110   0.000  0.00  0.00    +0.000 OA
ATOM     15  C   UNL     1       4.508   2.047   0.000  0.00  0.00    +0.000 A 
ATOM     16  C   UNL     1       4.508   2.873   0.000  0.00  0.00    +0.000 A 
ATOM     17  C   UNL     1       3.793   1.635   0.000  0.00  0.00    +0.000 A 
ATOM     18  C   UNL     1       3.793   3.285   0.000  0.00  0.00    +0.000 A 
ATOM     19  C   UNL     1       3.079   2.047   0.000  0.00  0.00    +0.000 A 
ATOM     20  C   UNL     1       3.079   2.873   0.000  0.00  0.00    +0.000 A 
BRANCH  20  21
ATOM     21  O   UNL     1       2.365   3.285   0.000  0.00  0.00    +0.000 OA
ATOM     22  C   UNL     1       1.650   2.873   0.000  0.00  0.00    +0.000 C 
ENDBRANCH  20  21
ENDBRANCH  12  15
ENDBRANCH   1   5
BRANCH   1  31
ATOM     23  O   UNL     1       9.569   0.833   0.000  0.00  0.00    +0.000 OA
ATOM     24  O   UNL     1      11.714   0.428   0.000  0.00  0.00    +0.000 OA
ATOM     25  O   UNL     1      11.707   2.079   0.000  0.00  0.00    +0.000 OA
ATOM     26  O   UNL     1      10.275   2.898   0.000  0.00  0.00    +0.000 OA
ATOM     27  C   UNL     1      10.285   0.423   0.000  0.00  0.00    +0.000 C 
ATOM     28  C   UNL     1      10.997   0.838   0.000  0.00  0.00    +0.000 C 
ATOM     29  C   UNL     1      10.994   1.663   0.000  0.00  0.00    +0.000 C 
ATOM     30  C   UNL     1      10.278   2.073   0.000  0.00  0.00    +0.000 C 
ATOM     31  C   UNL     1       9.565   1.658   0.000  0.00  0.00    +0.000 C 
BRANCH  27  32
ATOM     32  C   UNL     1      10.288  -0.402   0.000  0.00  0.00    +0.000 C 
BRANCH  32  33
ATOM     33  O   UNL     1      11.004  -0.812   0.000  0.00  0.00    +0.000 OA
BRANCH  33  39
ATOM     34  O   UNL     1      11.723  -2.046   0.000  0.00  0.00    +0.000 OA
ATOM     35  O   UNL     1       9.578  -1.642   0.000  0.00  0.00    +0.000 OA
ATOM     36  O   UNL     1       9.585  -3.292   0.000  0.00  0.00    +0.000 OA
ATOM     37  O   UNL     1      11.017  -4.112   0.000  0.00  0.00    +0.000 OA
ATOM     38  C   UNL     1      10.294  -2.052   0.000  0.00  0.00    +0.000 C 
ATOM     39  C   UNL     1      11.007  -1.637   0.000  0.00  0.00    +0.000 C 
ATOM     40  C   UNL     1      10.297  -2.877   0.000  0.00  0.00    +0.000 C 
ATOM     41  C   UNL     1      11.013  -3.287   0.000  0.00  0.00    +0.000 C 
ATOM     42  C   UNL     1      11.726  -2.872   0.000  0.00  0.00    +0.000 C 
ATOM     43  C   UNL     1      12.442  -3.281   0.000  0.00  0.00    +0.000 C 
ENDBRANCH  33  39
ENDBRANCH  32  33
ENDBRANCH  27  32
ENDBRANCH   1  31
TORSDOF 7
