REMARK  Name = 5282443
REMARK  4 active torsions:
REMARK  status: ('A' for Active; 'I' for Inactive)
REMARK    1  A    between atoms: N_1  and  C_7
REMARK    2  A    between atoms: C_7  and  C_8
REMARK    3  A    between atoms: C_9  and  C_10
REMARK    4  A    between atoms: C_9  and  C_11
REMARK                            x       y       z     vdW  Elec       q    Type
REMARK                         _______ _______ _______ _____ _____    ______ ____
ROOT
ATOM      1  C   UNL     1       4.385   1.238   0.000  0.00  0.00    +0.000 C 
ATOM      2  C   UNL     1       5.099   0.825   0.000  0.00  0.00    +0.000 C 
ENDROOT
BRANCH   2   3
ATOM      3  C   UNL     1       5.099   0.000   0.000  0.00  0.00    +0.000 A 
ATOM      4  C   UNL     1       5.814  -0.412   0.000  0.00  0.00    +0.000 A 
ATOM      5  C   UNL     1       4.385  -0.412   0.000  0.00  0.00    +0.000 A 
ATOM      6  C   UNL     1       5.099  -1.650   0.000  0.00  0.00    +0.000 A 
ATOM      7  C   UNL     1       5.814  -1.238   0.000  0.00  0.00    +0.000 A 
ATOM      8  C   UNL     1       4.385  -1.238   0.000  0.00  0.00    +0.000 A 
ATOM      9  C   UNL     1       5.099  -2.475   0.000  0.00  0.00    +0.000 C 
ENDBRANCH   2   3
BRANCH   2  11
ATOM     10  N   UNL     1       6.528   0.825   0.000  0.00  0.00    +0.000 NA
ATOM     11  C   UNL     1       5.814   1.238   0.000  0.00  0.00    +0.000 A 
ATOM     12  C   UNL     1       5.814   2.062   0.000  0.00  0.00    +0.000 A 
ATOM     13  C   UNL     1       6.528   2.475   0.000  0.00  0.00    +0.000 A 
ATOM     14  C   UNL     1       7.243   1.238   0.000  0.00  0.00    +0.000 A 
ATOM     15  C   UNL     1       7.243   2.062   0.000  0.00  0.00    +0.000 A 
ENDBRANCH   2  11
BRANCH   1  16
ATOM     16  C   UNL     1       3.670   0.825   0.000  0.00  0.00    +0.000 C 
BRANCH  16  17
ATOM     17  N   UNL     1       2.956   1.238   0.000  0.00  0.00    +0.000 NA
ATOM     18  C   UNL     1       2.870   2.058   0.000  0.00  0.00    +0.000 C 
ATOM     19  C   UNL     1       2.202   0.902   0.000  0.00  0.00    +0.000 C 
ATOM     20  C   UNL     1       1.650   1.515   0.000  0.00  0.00    +0.000 C 
ATOM     21  C   UNL     1       2.062   2.229   0.000  0.00  0.00    +0.000 C 
ENDBRANCH  16  17
ENDBRANCH   1  16
TORSDOF 4
