REMARK  Name = 5288600
REMARK  4 active torsions:
REMARK  status: ('A' for Active; 'I' for Inactive)
REMARK    1  A    between atoms: O_1  and  C_13
REMARK    2  A    between atoms: O_2  and  C_14
REMARK    3  A    between atoms: O_4  and  C_20
REMARK    4  A    between atoms: C_9  and  C_10
REMARK                            x       y       z     vdW  Elec       q    Type
REMARK                         _______ _______ _______ _____ _____    ______ ____
ROOT
ATOM      1  C   UNL     1       3.946   0.216   0.000  0.00  0.00    +0.000 A 
ATOM      2  C   UNL     1       3.162   0.473   0.000  0.00  0.00    +0.000 A 
ATOM      3  C   UNL     1       4.560   0.767   0.000  0.00  0.00    +0.000 A 
ATOM      4  C   UNL     1       2.991   1.280   0.000  0.00  0.00    +0.000 A 
ATOM      5  C   UNL     1       4.390   1.575   0.000  0.00  0.00    +0.000 A 
ATOM      6  C   UNL     1       3.606   1.831   0.000  0.00  0.00    +0.000 A 
ENDROOT
BRANCH   1  12
ATOM      7  O   UNL     1       5.166  -2.039   0.000  0.00  0.00    +0.000 OA
ATOM      8  N   UNL     1       3.860  -2.703   0.000  0.00  0.00    +0.000 NA
ATOM      9  C   UNL     1       3.860  -1.375   0.000  0.00  0.00    +0.000 C 
ATOM     10  C   UNL     1       3.079  -1.627   0.000  0.00  0.00    +0.000 A 
ATOM     11  C   UNL     1       3.079  -2.451   0.000  0.00  0.00    +0.000 A 
ATOM     12  C   UNL     1       4.116  -0.591   0.000  0.00  0.00    +0.000 C 
ATOM     13  C   UNL     1       4.341  -2.039   0.000  0.00  0.00    +0.000 C 
ATOM     14  C   UNL     1       2.365  -1.214   0.000  0.00  0.00    +0.000 A 
ATOM     15  C   UNL     1       2.365  -2.864   0.000  0.00  0.00    +0.000 A 
ATOM     16  C   UNL     1       1.650  -1.627   0.000  0.00  0.00    +0.000 A 
ATOM     17  C   UNL     1       1.650  -2.451   0.000  0.00  0.00    +0.000 A 
ENDBRANCH   1  12
BRANCH   2  18
ATOM     18  O   UNL     1       2.905  -0.311   0.000  0.00  0.00    +0.000 OA
ATOM     19  C   UNL     1       2.098  -0.482   0.000  0.00  0.00    +0.000 C 
ENDBRANCH   2  18
BRANCH   3  20
ATOM     20  O   UNL     1       5.344   0.511   0.000  0.00  0.00    +0.000 OA
ATOM     21  C   UNL     1       5.958   1.062   0.000  0.00  0.00    +0.000 C 
ENDBRANCH   3  20
BRANCH   6  22
ATOM     22  O   UNL     1       3.436   2.638   0.000  0.00  0.00    +0.000 OA
ATOM     23  C   UNL     1       4.050   3.189   0.000  0.00  0.00    +0.000 C 
ENDBRANCH   6  22
TORSDOF 4
