REMARK  Name = 5289593
REMARK  4 active torsions:
REMARK  status: ('A' for Active; 'I' for Inactive)
REMARK    1  A    between atoms: C_9  and  C_10
REMARK    2  A    between atoms: C_9  and  C_11
REMARK    3  A    between atoms: C_10  and  C_12
REMARK    4  A    between atoms: C_11  and  C_13
REMARK                            x       y       z     vdW  Elec       q    Type
REMARK                         _______ _______ _______ _____ _____    ______ ____
ROOT
ATOM      1  O   UNL     1       3.793  -1.031   0.000  0.00  0.00    +0.000 OA
ATOM      2  C   UNL     1       3.793  -0.206   0.000  0.00  0.00    +0.000 C 
ENDROOT
BRANCH   2   4
ATOM      3  O   UNL     1       4.508   1.031   0.000  0.00  0.00    +0.000 OA
ATOM      4  C   UNL     1       4.508   0.206   0.000  0.00  0.00    +0.000 C 
BRANCH   4   8
ATOM      5  O   UNL     1       5.222  -1.031   0.000  0.00  0.00    +0.000 OA
ATOM      6  O   UNL     1       6.651  -0.206   0.000  0.00  0.00    +0.000 OA
ATOM      7  N   UNL     1       5.936   0.206   0.000  0.00  0.00    +0.000 NA
ATOM      8  C   UNL     1       5.222  -0.206   0.000  0.00  0.00    +0.000 C 
ENDBRANCH   4   8
ENDBRANCH   2   4
BRANCH   2  10
ATOM      9  O   UNL     1       3.079   1.031   0.000  0.00  0.00    +0.000 OA
ATOM     10  C   UNL     1       3.079   0.206   0.000  0.00  0.00    +0.000 C 
BRANCH  10  13
ATOM     11  O   UNL     1       1.650   0.206   0.000  0.00  0.00    +0.000 OA
ATOM     12  O   UNL     1       2.364  -1.031   0.000  0.00  0.00    +0.000 OA
ATOM     13  C   UNL     1       2.364  -0.206   0.000  0.00  0.00    +0.000 C 
ENDBRANCH  10  13
ENDBRANCH   2  10
TORSDOF 4
