REMARK  Name = 52P
REMARK  3 active torsions:
REMARK  status: ('A' for Active; 'I' for Inactive)
REMARK    1  A    between atoms: C_5  and  S_6
REMARK    2  A    between atoms: S_6  and  C_7
REMARK    3  A    between atoms: C_11  and  C_12
REMARK                            x       y       z     vdW  Elec       q    Type
REMARK                         _______ _______ _______ _____ _____    ______ ____
ROOT
ATOM      1  C   UNL     1      -0.969  -0.363   0.000  0.00  0.00    +0.000 A 
ATOM      2  C   UNL     1      -0.969   0.462   0.000  0.00  0.00    +0.000 A 
ATOM      3  C   UNL     1      -0.254   0.875   0.000  0.00  0.00    +0.000 A 
ATOM      4  C   UNL     1       0.460   0.462   0.000  0.00  0.00    +0.000 A 
ATOM      5  C   UNL     1       1.175   0.875   0.000  0.00  0.00    +0.000 A 
ATOM      6  C   UNL     1       1.889   0.462   0.000  0.00  0.00    +0.000 A 
ATOM      7  O   UNL     1       2.603   0.875   0.000  0.00  0.00    +0.000 OA
ATOM      8  N   UNL     1       1.889  -0.363   0.000  0.00  0.00    +0.000 NA
ATOM      9  C   UNL     1       1.175  -0.775   0.000  0.00  0.00    +0.000 A 
ATOM     10  N   UNL     1       0.460  -0.363   0.000  0.00  0.00    +0.000 N 
ATOM     11  N   UNL     1      -0.254  -0.775   0.000  0.00  0.00    +0.000 NA
ENDROOT
BRANCH   5  12
ATOM     12  C   UNL     1       1.175   1.700   0.000  0.00  0.00    +0.000 A 
ATOM     13  C   UNL     1       0.460   2.112   0.000  0.00  0.00    +0.000 A 
ATOM     14 CL   UNL     1      -0.254   1.700   0.000  0.00  0.00    +0.000 Cl
ATOM     15  C   UNL     1       0.460   2.937   0.000  0.00  0.00    +0.000 A 
ATOM     16  C   UNL     1       1.175   3.349   0.000  0.00  0.00    +0.000 A 
ATOM     17  C   UNL     1       1.889   2.937   0.000  0.00  0.00    +0.000 A 
ATOM     18  C   UNL     1       1.889   2.112   0.000  0.00  0.00    +0.000 A 
ATOM     19 CL   UNL     1       2.603   1.700   0.000  0.00  0.00    +0.000 Cl
ENDBRANCH   5  12
BRANCH   1  20
ATOM     20  S   UNL     1      -1.683  -0.775   0.000  0.00  0.00    +0.000 S 
BRANCH  20  25
ATOM     21  F   UNL     1      -1.683  -4.075   0.000  0.00  0.00    +0.000 F 
ATOM     22  C   UNL     1      -1.683  -3.251   0.000  0.00  0.00    +0.000 A 
ATOM     23  C   UNL     1      -2.398  -2.838   0.000  0.00  0.00    +0.000 A 
ATOM     24  C   UNL     1      -2.398  -2.013   0.000  0.00  0.00    +0.000 A 
ATOM     25  C   UNL     1      -1.683  -1.601   0.000  0.00  0.00    +0.000 A 
ATOM     26  C   UNL     1      -0.969  -2.013   0.000  0.00  0.00    +0.000 A 
ATOM     27  F   UNL     1      -0.254  -1.601   0.000  0.00  0.00    +0.000 F 
ATOM     28  C   UNL     1      -0.969  -2.838   0.000  0.00  0.00    +0.000 A 
ENDBRANCH  20  25
ENDBRANCH   1  20
TORSDOF 3
