REMARK  Name = 532
REMARK  2 active torsions:
REMARK  status: ('A' for Active; 'I' for Inactive)
REMARK    1  A    between atoms: C_5  and  C_6
REMARK    2  A    between atoms: C_5  and  C_8
REMARK                            x       y       z     vdW  Elec       q    Type
REMARK                         _______ _______ _______ _____ _____    ______ ____
ROOT
ATOM      1  O   UNL     1       2.008   1.230   0.000  0.00  0.00    +0.000 OA
ATOM      2  O   UNL     1       4.912   1.230   0.000  0.00  0.00    +0.000 OA
ATOM      3  N   UNL     1       3.873   0.190   0.000  0.00  0.00    +0.000 NA
ATOM      4  N   UNL     1       3.460   1.460   0.000  0.00  0.00    +0.000 N 
ATOM      5  C   UNL     1       3.048   0.190   0.000  0.00  0.00    +0.000 C 
ATOM      6  C   UNL     1       2.793   0.975   0.000  0.00  0.00    +0.000 C 
ATOM      7  C   UNL     1       4.128   0.975   0.000  0.00  0.00    +0.000 C 
ATOM      8  C   UNL     1       3.460   2.285   0.000  0.00  0.00    +0.000 C 
ENDROOT
BRANCH   5   9
ATOM      9  C   UNL     1       3.048  -0.635   0.000  0.00  0.00    +0.000 A 
ATOM     10  C   UNL     1       3.762  -1.047   0.000  0.00  0.00    +0.000 A 
ATOM     11  C   UNL     1       2.333  -1.047   0.000  0.00  0.00    +0.000 A 
ATOM     12  C   UNL     1       3.762  -1.872   0.000  0.00  0.00    +0.000 A 
ATOM     13  C   UNL     1       2.333  -1.872   0.000  0.00  0.00    +0.000 A 
ATOM     14  C   UNL     1       3.048  -2.285   0.000  0.00  0.00    +0.000 A 
ENDBRANCH   5   9
BRANCH   5  15
ATOM     15  C   UNL     1       2.263  -0.065   0.000  0.00  0.00    +0.000 C 
ATOM     16  C   UNL     1       1.650   0.487   0.000  0.00  0.00    +0.000 C 
ENDBRANCH   5  15
TORSDOF 2
