REMARK  Name = 533
REMARK  3 active torsions:
REMARK  status: ('A' for Active; 'I' for Inactive)
REMARK    1  A    between atoms: S_1  and  C_10
REMARK    2  A    between atoms: C_6  and  C_7
REMARK    3  A    between atoms: C_8  and  C_11
REMARK                            x       y       z     vdW  Elec       q    Type
REMARK                         _______ _______ _______ _____ _____    ______ ____
ROOT
ATOM      1  O   UNL     1       5.084   2.364   0.000  0.00  0.00    +0.000 OA
ATOM      2  O   UNL     1       3.774   3.031   0.000  0.00  0.00    +0.000 OA
ATOM      3  C   UNL     1       4.671   1.094   0.000  0.00  0.00    +0.000 C 
ATOM      4  C   UNL     1       4.004   1.579   0.000  0.00  0.00    +0.000 C 
ATOM      5  C   UNL     1       5.339   1.579   0.000  0.00  0.00    +0.000 C 
ATOM      6  C   UNL     1       4.259   2.364   0.000  0.00  0.00    +0.000 C 
ENDROOT
BRANCH   3   7
ATOM      7  C   UNL     1       4.671   0.269   0.000  0.00  0.00    +0.000 A 
ATOM      8  C   UNL     1       4.671  -1.381   0.000  0.00  0.00    +0.000 A 
ATOM      9  C   UNL     1       5.386  -0.143   0.000  0.00  0.00    +0.000 A 
ATOM     10  C   UNL     1       3.957  -0.143   0.000  0.00  0.00    +0.000 A 
ATOM     11  C   UNL     1       5.386  -0.969   0.000  0.00  0.00    +0.000 A 
ATOM     12  C   UNL     1       3.957  -0.969   0.000  0.00  0.00    +0.000 A 
BRANCH   8  13
ATOM     13  S   UNL     1       4.671  -2.206   0.000  0.00  0.00    +0.000 S 
ATOM     14  O   UNL     1       3.846  -2.206   0.000  0.00  0.00    +0.000 OA
ATOM     15  O   UNL     1       5.496  -2.206   0.000  0.00  0.00    +0.000 OA
ATOM     16  C   UNL     1       4.671  -3.031   0.000  0.00  0.00    +0.000 C 
ENDBRANCH   8  13
ENDBRANCH   3   7
BRANCH   4  17
ATOM     17  C   UNL     1       3.219   1.324   0.000  0.00  0.00    +0.000 A 
ATOM     18  C   UNL     1       3.048   0.517   0.000  0.00  0.00    +0.000 A 
ATOM     19  C   UNL     1       2.606   1.876   0.000  0.00  0.00    +0.000 A 
ATOM     20  C   UNL     1       2.263   0.262   0.000  0.00  0.00    +0.000 A 
ATOM     21  C   UNL     1       1.821   1.621   0.000  0.00  0.00    +0.000 A 
ATOM     22  C   UNL     1       1.650   0.814   0.000  0.00  0.00    +0.000 A 
ENDBRANCH   4  17
TORSDOF 3
