REMARK  Name = 534
REMARK  5 active torsions:
REMARK  status: ('A' for Active; 'I' for Inactive)
REMARK    1  A    between atoms: HG_1  and  C_9
REMARK    2  A    between atoms: O_3  and  C_7
REMARK    3  A    between atoms: N_5  and  C_8
REMARK    4  A    between atoms: C_7  and  C_8
REMARK    5  A    between atoms: C_7  and  C_9
REMARK                            x       y       z     vdW  Elec       q    Type
REMARK                         _______ _______ _______ _____ _____    ______ ____
ROOT
ATOM      1  C   UNL     1       4.441   0.218   0.000  0.00  0.00    +0.000 C 
ENDROOT
BRANCH   1   2
ATOM      2  O   UNL     1       5.246   0.402   0.000  0.00  0.00    +0.000 OA
ATOM      3  C   UNL     1       5.489   1.190   0.000  0.00  0.00    +0.000 C 
ENDBRANCH   1   2
BRANCH   1   4
ATOM      4  C   UNL     1       4.258  -0.586   0.000  0.00  0.00    +0.000 C 
BRANCH   4   6
ATOM      5  O   UNL     1       2.588   0.218   0.000  0.00  0.00    +0.000 OA
ATOM      6  N   UNL     1       3.514  -0.944   0.000  0.00  0.00    +0.000 NA
ATOM      7  N   UNL     1       2.126  -1.101   0.000  0.00  0.00    +0.000 NA
ATOM      8  C   UNL     1       2.771  -0.586   0.000  0.00  0.00    +0.000 C 
ENDBRANCH   4   6
ENDBRANCH   1   4
BRANCH   1   9
ATOM      9  C   UNL     1       3.927   0.863   0.000  0.00  0.00    +0.000 C 
BRANCH   9  10
ATOM     10 HG   UNL     1       3.102   0.863   0.000  0.00  0.00    +0.000 Hg
ATOM     11 CL   UNL     1       2.744   1.606   0.000  0.00  0.00    +0.000 Cl
ENDBRANCH   9  10
ENDBRANCH   1   9
TORSDOF 5
