REMARK  Name = 535
REMARK  5 active torsions:
REMARK  status: ('A' for Active; 'I' for Inactive)
REMARK    1  A    between atoms: N_9  and  C_14
REMARK    2  A    between atoms: C_16  and  C_19
REMARK    3  A    between atoms: C_18  and  C_21
REMARK    4  A    between atoms: C_20  and  C_22
REMARK    5  A    between atoms: C_22  and  C_24
REMARK                            x       y       z     vdW  Elec       q    Type
REMARK                         _______ _______ _______ _____ _____    ______ ____
ROOT
ATOM      1  S   UNK A   1       3.793  -0.674   0.000  0.00  0.00    +0.000 S 
ATOM      2  O   UNK A   1       5.922   1.151   0.000  0.00  0.00    +0.000 OA
ATOM      3  N   UNK A   1       4.508   0.563   0.000  0.00  0.00    +0.000 N 
ATOM      4  C   UNK A   1       4.508  -0.262   0.000  0.00  0.00    +0.000 C 
ATOM      5  C   UNK A   1       5.340  -0.265   0.000  0.00  0.00    +0.000 C 
ATOM      6  C   UNK A   1       5.340   0.567   0.000  0.00  0.00    +0.000 C 
ATOM      7  C   UNK A   1       3.793   0.976   0.000  0.00  0.00    +0.000 C 
ATOM      8  C   UNK A   1       3.079  -0.262   0.000  0.00  0.00    +0.000 C 
ATOM      9  C   UNK A   1       3.079   0.563   0.000  0.00  0.00    +0.000 C 
ENDROOT
BRANCH   7  12
ATOM     10  O   UNK A   1       3.079   2.213   0.000  0.00  0.00    +0.000 OA
ATOM     11  O   UNK A   1       4.508   2.213   0.000  0.00  0.00    +0.000 OA
ATOM     12  C   UNK A   1       3.793   1.801   0.000  0.00  0.00    +0.000 C 
ENDBRANCH   7  12
BRANCH   5  14
ATOM     13  O   UNK A   0       6.934   0.159   0.000  0.00  0.00    +0.000 OA
ATOM     14  N   UNK A   1       5.922  -0.850   0.000  0.00  0.00    +0.000 NA
ATOM     15  C   UNK A   0       6.719  -0.638   0.000  0.00  0.00    +0.000 C 
BRANCH  15  18
ATOM     16  O   UNK A   0       6.289  -2.231   0.000  0.00  0.00    +0.000 OA
ATOM     17  N   UNK A   0       7.086  -2.019   0.000  0.00  0.00    +0.000 NA
ATOM     18  C   UNK A   0       7.301  -1.222   0.000  0.00  0.00    +0.000 C 
BRANCH  18  22
ATOM     19  S   UNK A   0       9.432  -1.083   0.000  0.00  0.00    +0.000 S 
ATOM     20  N   UNK A   0       8.396  -0.241   0.000  0.00  0.00    +0.000 NA
ATOM     21  N   UNK A   0       9.740   0.354   0.000  0.00  0.00    +0.000 NA
ATOM     22  C   UNK A   0       8.099  -1.011   0.000  0.00  0.00    +0.000 A 
ATOM     23  C   UNK A   0       8.739  -1.531   0.000  0.00  0.00    +0.000 A 
ATOM     24  C   UNK A   0       9.220  -0.286   0.000  0.00  0.00    +0.000 A 
ENDBRANCH  18  22
ENDBRANCH  15  18
ENDBRANCH   5  14
BRANCH   9  25
ATOM     25  C   UNK A   1       2.365   0.976   0.000  0.00  0.00    +0.000 C 
ATOM     26  C   UNK A   1       1.650   0.563   0.000  0.00  0.00    +0.000 C 
ENDBRANCH   9  25
TORSDOF 5
