REMARK  Name = 537
REMARK  3 active torsions:
REMARK  status: ('A' for Active; 'I' for Inactive)
REMARK    1  A    between atoms: N_5  and  C_8
REMARK    2  A    between atoms: N_6  and  C_15
REMARK    3  A    between atoms: C_18  and  C_24
REMARK                            x       y       z     vdW  Elec       q    Type
REMARK                         _______ _______ _______ _____ _____    ______ ____
ROOT
ATOM      1  F   UNL     1       7.149   1.202   0.000  0.00  0.00    +0.000 F 
ATOM      2  O   UNL     1       4.236   2.007   0.000  0.00  0.00    +0.000 OA
ATOM      3  N   UNL     1       4.236  -0.468   0.000  0.00  0.00    +0.000 N 
ATOM      4  C   UNL     1       4.951  -0.055   0.000  0.00  0.00    +0.000 A 
ATOM      5  C   UNL     1       3.522  -0.055   0.000  0.00  0.00    +0.000 A 
ATOM      6  C   UNL     1       4.951   0.770   0.000  0.00  0.00    +0.000 A 
ATOM      7  C   UNL     1       5.688  -0.496   0.000  0.00  0.00    +0.000 A 
ATOM      8  C   UNL     1       6.436  -0.072   0.000  0.00  0.00    +0.000 A 
ATOM      9  C   UNL     1       3.522   0.770   0.000  0.00  0.00    +0.000 A 
ATOM     10  C   UNL     1       4.236   1.182   0.000  0.00  0.00    +0.000 A 
ATOM     11  C   UNL     1       5.688   1.211   0.000  0.00  0.00    +0.000 A 
ATOM     12  C   UNL     1       6.436   0.787   0.000  0.00  0.00    +0.000 A 
ENDROOT
BRANCH   8  13
ATOM     13  N   UNL     1       7.149  -0.488   0.000  0.00  0.00    +0.000 N 
ATOM     14  N   UNL     1       8.575  -1.318   0.000  0.00  0.00    +0.000 NA
ATOM     15  C   UNL     1       7.865  -0.078   0.000  0.00  0.00    +0.000 C 
ATOM     16  C   UNL     1       7.146  -1.313   0.000  0.00  0.00    +0.000 C 
ATOM     17  C   UNL     1       8.578  -0.493   0.000  0.00  0.00    +0.000 C 
ATOM     18  C   UNL     1       7.859  -1.728   0.000  0.00  0.00    +0.000 C 
ENDBRANCH   8  13
BRANCH   9  21
ATOM     19  O   UNL     1       2.093   0.770   0.000  0.00  0.00    +0.000 OA
ATOM     20  O   UNL     1       2.808   2.007   0.000  0.00  0.00    +0.000 OA
ATOM     21  C   UNL     1       2.808   1.182   0.000  0.00  0.00    +0.000 C 
ENDBRANCH   9  21
BRANCH   3  22
ATOM     22  C   UNL     1       4.236  -1.293   0.000  0.00  0.00    +0.000 C 
ATOM     23  C   UNL     1       3.824  -2.007   0.000  0.00  0.00    +0.000 C 
ATOM     24  C   UNL     1       4.649  -2.007   0.000  0.00  0.00    +0.000 C 
ENDBRANCH   3  22
TORSDOF 3
