REMARK  Name = 538
REMARK  22 active torsions:
REMARK  status: ('A' for Active; 'I' for Inactive)
REMARK    1  A    between atoms: O_10  and  C_33
REMARK    2  A    between atoms: O_11  and  C_34
REMARK    3  A    between atoms: N_12  and  C_17
REMARK    4  A    between atoms: N_12  and  C_18
REMARK    5  A    between atoms: N_12  and  C_21
REMARK    6  A    between atoms: N_13  and  C_19
REMARK    7  A    between atoms: N_13  and  C_22
REMARK    8  A    between atoms: N_13  and  C_24
REMARK    9  A    between atoms: N_14  and  C_20
REMARK   10  A    between atoms: N_14  and  C_23
REMARK   11  A    between atoms: N_14  and  C_25
REMARK   12  A    between atoms: N_15  and  C_31
REMARK   13  A    between atoms: N_16  and  C_32
REMARK   14  A    between atoms: C_17  and  C_19
REMARK   15  A    between atoms: C_18  and  C_20
REMARK   16  A    between atoms: C_21  and  C_26
REMARK   17  A    between atoms: C_22  and  C_27
REMARK   18  A    between atoms: C_23  and  C_28
REMARK   19  A    between atoms: C_24  and  C_29
REMARK   20  A    between atoms: C_25  and  C_30
REMARK   21  A    between atoms: C_31  and  C_33
REMARK   22  A    between atoms: C_32  and  C_34
REMARK                            x       y       z     vdW  Elec       q    Type
REMARK                         _______ _______ _______ _____ _____    ______ ____
ROOT
ATOM      1 GD   UNL     1       3.301   2.475   0.000  0.00  0.00    +0.000 Gd
ENDROOT
TORSDOF 0
REMARK  Name = 538
REMARK  22 active torsions:
REMARK  status: ('A' for Active; 'I' for Inactive)
REMARK    1  A    between atoms: O_10  and  C_33
REMARK    2  A    between atoms: O_11  and  C_34
REMARK    3  A    between atoms: N_12  and  C_17
REMARK    4  A    between atoms: N_12  and  C_18
REMARK    5  A    between atoms: N_12  and  C_21
REMARK    6  A    between atoms: N_13  and  C_19
REMARK    7  A    between atoms: N_13  and  C_22
REMARK    8  A    between atoms: N_13  and  C_24
REMARK    9  A    between atoms: N_14  and  C_20
REMARK   10  A    between atoms: N_14  and  C_23
REMARK   11  A    between atoms: N_14  and  C_25
REMARK   12  A    between atoms: N_15  and  C_31
REMARK   13  A    between atoms: N_16  and  C_32
REMARK   14  A    between atoms: C_17  and  C_19
REMARK   15  A    between atoms: C_18  and  C_20
REMARK   16  A    between atoms: C_21  and  C_26
REMARK   17  A    between atoms: C_22  and  C_27
REMARK   18  A    between atoms: C_23  and  C_28
REMARK   19  A    between atoms: C_24  and  C_29
REMARK   20  A    between atoms: C_25  and  C_30
REMARK   21  A    between atoms: C_31  and  C_33
REMARK   22  A    between atoms: C_32  and  C_34
REMARK                            x       y       z     vdW  Elec       q    Type
REMARK                         _______ _______ _______ _____ _____    ______ ____
ROOT
ATOM      1  N   UNL     1       6.159   2.475   0.000  0.00  0.00    +0.000 NA
ENDROOT
BRANCH   1   2
ATOM      2  C   UNL     1       6.873   2.062   0.000  0.00  0.00    +0.000 C 
BRANCH   2   3
ATOM      3  C   UNL     1       7.588   2.475   0.000  0.00  0.00    +0.000 C 
BRANCH   3   4
ATOM      4  N   UNL     1       8.302   2.062   0.000  0.00  0.00    +0.000 NA
BRANCH   4   5
ATOM      5  C   UNL     1       9.017   2.475   0.000  0.00  0.00    +0.000 C 
BRANCH   5   8
ATOM      6  O   UNL     1       9.731   1.238   0.000  0.00  0.00    +0.000 OA
ATOM      7  N   UNL     1      10.446   2.475   0.000  0.00  0.00    +0.000 NA
ATOM      8  C   UNL     1       9.731   2.062   0.000  0.00  0.00    +0.000 C 
BRANCH   7   9
ATOM      9  C   UNL     1      11.160   2.062   0.000  0.00  0.00    +0.000 C 
BRANCH   9  10
ATOM     10  C   UNL     1      11.875   2.475   0.000  0.00  0.00    +0.000 C 
BRANCH  10  11
ATOM     11  O   UNL     1      12.589   2.062   0.000  0.00  0.00    +0.000 OA
ATOM     12  C   UNL     1      13.304   2.475   0.000  0.00  0.00    +0.000 C 
ENDBRANCH  10  11
ENDBRANCH   9  10
ENDBRANCH   7   9
ENDBRANCH   5   8
ENDBRANCH   4   5
BRANCH   4  13
ATOM     13  C   UNL     1       8.302   1.238   0.000  0.00  0.00    +0.000 C 
BRANCH  13  16
ATOM     14  O   UNL     1       7.588   0.000   0.000  0.00  0.00    +0.000 OA
ATOM     15  O   UNL     1       6.873   1.238   0.000  0.00  0.00    +0.000 OA
ATOM     16  C   UNL     1       7.588   0.825   0.000  0.00  0.00    +0.000 C 
ENDBRANCH  13  16
ENDBRANCH   4  13
ENDBRANCH   3   4
ENDBRANCH   2   3
ENDBRANCH   1   2
BRANCH   1  17
ATOM     17  C   UNL     1       6.159   3.300   0.000  0.00  0.00    +0.000 C 
BRANCH  17  18
ATOM     18  C   UNL     1       5.444   3.713   0.000  0.00  0.00    +0.000 C 
BRANCH  18  19
ATOM     19  N   UNL     1       5.444   4.538   0.000  0.00  0.00    +0.000 NA
BRANCH  19  20
ATOM     20  C   UNL     1       4.730   4.950   0.000  0.00  0.00    +0.000 C 
BRANCH  20  23
ATOM     21  O   UNL     1       4.015   3.713   0.000  0.00  0.00    +0.000 OA
ATOM     22  N   UNL     1       3.301   4.950   0.000  0.00  0.00    +0.000 NA
ATOM     23  C   UNL     1       4.015   4.538   0.000  0.00  0.00    +0.000 C 
BRANCH  22  24
ATOM     24  C   UNL     1       2.586   4.538   0.000  0.00  0.00    +0.000 C 
BRANCH  24  25
ATOM     25  C   UNL     1       1.872   4.950   0.000  0.00  0.00    +0.000 C 
BRANCH  25  26
ATOM     26  O   UNL     1       1.157   4.538   0.000  0.00  0.00    +0.000 OA
ATOM     27  C   UNL     1       0.443   4.950   0.000  0.00  0.00    +0.000 C 
ENDBRANCH  25  26
ENDBRANCH  24  25
ENDBRANCH  22  24
ENDBRANCH  20  23
ENDBRANCH  19  20
BRANCH  19  28
ATOM     28  C   UNL     1       6.159   4.950   0.000  0.00  0.00    +0.000 C 
BRANCH  28  31
ATOM     29  O   UNL     1       6.873   6.188   0.000  0.00  0.00    +0.000 OA
ATOM     30  O   UNL     1       5.444   6.188   0.000  0.00  0.00    +0.000 OA
ATOM     31  C   UNL     1       6.159   5.775   0.000  0.00  0.00    +0.000 C 
ENDBRANCH  28  31
ENDBRANCH  19  28
ENDBRANCH  18  19
ENDBRANCH  17  18
ENDBRANCH   1  17
BRANCH   1  32
ATOM     32  C   UNL     1       5.444   2.062   0.000  0.00  0.00    +0.000 C 
BRANCH  32  35
ATOM     33  O   UNL     1       4.015   2.062   0.000  0.00  0.00    +0.000 OA
ATOM     34  O   UNL     1       4.730   3.300   0.000  0.00  0.00    +0.000 OA
ATOM     35  C   UNL     1       4.730   2.475   0.000  0.00  0.00    +0.000 C 
ENDBRANCH  32  35
ENDBRANCH   1  32
TORSDOF 22
