REMARK  Name = 539
REMARK  9 active torsions:
REMARK  status: ('A' for Active; 'I' for Inactive)
REMARK    1  A    between atoms: O_2  and  C_13
REMARK    2  A    between atoms: O_2  and  C_21
REMARK    3  A    between atoms: N_3  and  C_20
REMARK    4  A    between atoms: C_4  and  C_6
REMARK    5  A    between atoms: C_4  and  C_8
REMARK    6  A    between atoms: C_5  and  C_7
REMARK    7  A    between atoms: C_5  and  C_9
REMARK    8  A    between atoms: C_7  and  C_12
REMARK    9  A    between atoms: C_20  and  C_21
REMARK                            x       y       z     vdW  Elec       q    Type
REMARK                         _______ _______ _______ _____ _____    ______ ____
ROOT
ATOM      1  C   UNL     1       4.508   1.650   0.000  0.00  0.00    +0.000 C 
ATOM      2  C   UNL     1       3.793   2.062   0.000  0.00  0.00    +0.000 C 
ENDROOT
BRANCH   2   3
ATOM      3  C   UNL     1       3.079   1.650   0.000  0.00  0.00    +0.000 A 
ATOM      4  C   UNL     1       3.079   0.825   0.000  0.00  0.00    +0.000 A 
ATOM      5  C   UNL     1       2.365   2.062   0.000  0.00  0.00    +0.000 A 
ATOM      6  C   UNL     1       2.365   0.412   0.000  0.00  0.00    +0.000 A 
ATOM      7  C   UNL     1       1.650   1.650   0.000  0.00  0.00    +0.000 A 
ATOM      8  C   UNL     1       1.650   0.825   0.000  0.00  0.00    +0.000 A 
ENDBRANCH   2   3
BRANCH   1   9
ATOM      9  C   UNL     1       4.508   0.825   0.000  0.00  0.00    +0.000 A 
ATOM     10  C   UNL     1       5.222   0.412   0.000  0.00  0.00    +0.000 A 
ATOM     11  C   UNL     1       3.793   0.412   0.000  0.00  0.00    +0.000 A 
ATOM     12  C   UNL     1       4.508  -0.825   0.000  0.00  0.00    +0.000 A 
ATOM     13  C   UNL     1       5.222  -0.412   0.000  0.00  0.00    +0.000 A 
ATOM     14  C   UNL     1       3.793  -0.412   0.000  0.00  0.00    +0.000 A 
BRANCH  12  15
ATOM     15  O   UNL     1       4.508  -1.650   0.000  0.00  0.00    +0.000 OA
BRANCH  15  16
ATOM     16  C   UNL     1       3.793  -2.062   0.000  0.00  0.00    +0.000 C 
BRANCH  16  17
ATOM     17  C   UNL     1       3.793  -2.888   0.000  0.00  0.00    +0.000 C 
BRANCH  17  18
ATOM     18  N   UNL     1       3.079  -3.300   0.000  0.00  0.00    +0.000 NA
ATOM     19  C   UNL     1       2.365  -2.888   0.000  0.00  0.00    +0.000 C 
ATOM     20  C   UNL     1       3.079  -4.125   0.000  0.00  0.00    +0.000 C 
ENDBRANCH  17  18
ENDBRANCH  16  17
ENDBRANCH  15  16
ENDBRANCH  12  15
ENDBRANCH   1   9
BRANCH   1  21
ATOM     21  C   UNL     1       5.222   2.062   0.000  0.00  0.00    +0.000 A 
ATOM     22  C   UNL     1       5.222   2.888   0.000  0.00  0.00    +0.000 A 
ATOM     23  C   UNL     1       5.937   1.650   0.000  0.00  0.00    +0.000 A 
ATOM     24  C   UNL     1       5.937   3.300   0.000  0.00  0.00    +0.000 A 
ATOM     25  C   UNL     1       6.652   2.062   0.000  0.00  0.00    +0.000 A 
ATOM     26  C   UNL     1       6.652   2.888   0.000  0.00  0.00    +0.000 A 
ENDBRANCH   1  21
BRANCH   2  27
ATOM     27  C   UNL     1       3.793   2.888   0.000  0.00  0.00    +0.000 C 
BRANCH  27  29
ATOM     28 CL   UNL     1       3.079   4.125   0.000  0.00  0.00    +0.000 Cl
ATOM     29  C   UNL     1       3.079   3.300   0.000  0.00  0.00    +0.000 C 
ENDBRANCH  27  29
ENDBRANCH   2  27
TORSDOF 9
