REMARK  Name = 53N
REMARK  5 active torsions:
REMARK  status: ('A' for Active; 'I' for Inactive)
REMARK    1  A    between atoms: C_2  and  C_3
REMARK    2  A    between atoms: C_4  and  C_12
REMARK    3  A    between atoms: C_4  and  C_13
REMARK    4  A    between atoms: C_7  and  N_8
REMARK    5  A    between atoms: C_13  and  C_14
REMARK                            x       y       z     vdW  Elec       q    Type
REMARK                         _______ _______ _______ _____ _____    ______ ____
ROOT
ATOM      1  C   UNL     1      -0.834  -0.116   0.000  0.00  0.00    +0.000 A 
ATOM      2  C   UNL     1      -1.246  -1.386   0.000  0.00  0.00    +0.000 A 
ATOM      3  S   UNL     1      -0.167  -0.601   0.000  0.00  0.00    +0.000 S 
ATOM      4  C   UNL     1      -0.421  -1.386   0.000  0.00  0.00    +0.000 A 
ATOM      5  C   UNL     1      -1.501  -0.601   0.000  0.00  0.00    +0.000 A 
ENDROOT
BRANCH   1   7
ATOM      6  C   UNL     1      -0.119   1.121   0.000  0.00  0.00    +0.000 A 
ATOM      7  C   UNL     1      -0.834   0.709   0.000  0.00  0.00    +0.000 A 
ATOM      8  C   UNL     1      -1.548   1.121   0.000  0.00  0.00    +0.000 A 
ATOM      9  C   UNL     1      -0.119   1.946   0.000  0.00  0.00    +0.000 A 
ATOM     10  C   UNL     1      -1.548   1.946   0.000  0.00  0.00    +0.000 A 
ATOM     11  C   UNL     1      -0.834   2.359   0.000  0.00  0.00    +0.000 A 
BRANCH   9  12
ATOM     12  N   UNL     1       0.595   2.359   0.000  0.00  0.00    +0.000 N 
ATOM     13  O   UNL     1       0.595   3.184   0.000  0.00  0.00    +0.000 OA
ATOM     14  O   UNL     1       1.309   1.946   0.000  0.00  0.00    +0.000 OA
ENDBRANCH   9  12
ENDBRANCH   1   7
BRANCH   4  15
ATOM     15  C   UNL     1       0.063  -2.053   0.000  0.00  0.00    +0.000 C 
BRANCH  15  16
ATOM     16  C   UNL     1       0.884  -1.967   0.000  0.00  0.00    +0.000 C 
BRANCH  16  17
ATOM     17  C   UNL     1       1.369  -2.634   0.000  0.00  0.00    +0.000 C 
ATOM     18  O   UNL     1       2.189  -2.548   0.000  0.00  0.00    +0.000 OA
ATOM     19  O   UNL     1       1.033  -3.388   0.000  0.00  0.00    +0.000 OA
ENDBRANCH  16  17
ENDBRANCH  15  16
ENDBRANCH   4  15
TORSDOF 5
