REMARK  Name = 53R
REMARK  5 active torsions:
REMARK  status: ('A' for Active; 'I' for Inactive)
REMARK    1  A    between atoms: C_6  and  C_7
REMARK    2  A    between atoms: C_10  and  O_11
REMARK    3  A    between atoms: C_14  and  C_15
REMARK    4  A    between atoms: C_15  and  C_17
REMARK    5  A    between atoms: C_18  and  C_19
REMARK                            x       y       z     vdW  Elec       q    Type
REMARK                         _______ _______ _______ _____ _____    ______ ____
ROOT
ATOM      1  C   UNL     1       1.811  -0.348   0.000  0.00  0.00    +0.000 A 
ATOM      2  C   UNL     1       1.096  -0.761   0.000  0.00  0.00    +0.000 A 
ATOM      3  C   UNL     1       1.811   0.477   0.000  0.00  0.00    +0.000 A 
ATOM      4  C   UNL     1       1.096   0.889   0.000  0.00  0.00    +0.000 A 
ATOM      5  C   UNL     1       0.382   0.477   0.000  0.00  0.00    +0.000 A 
ATOM      6  C   UNL     1       0.382  -0.348   0.000  0.00  0.00    +0.000 A 
ENDROOT
BRANCH   1  12
ATOM      7  C   UNL     1       3.240  -0.348   0.000  0.00  0.00    +0.000 A 
ATOM      8  C   UNL     1       3.954  -0.761   0.000  0.00  0.00    +0.000 A 
ATOM      9  C   UNL     1       3.954  -1.586   0.000  0.00  0.00    +0.000 A 
ATOM     10  C   UNL     1       3.240  -1.998   0.000  0.00  0.00    +0.000 A 
ATOM     11  C   UNL     1       2.525  -1.586   0.000  0.00  0.00    +0.000 A 
ATOM     12  C   UNL     1       2.525  -0.761   0.000  0.00  0.00    +0.000 A 
ENDBRANCH   1  12
BRANCH   4  13
ATOM     13  O   UNL     1       1.096   1.714   0.000  0.00  0.00    +0.000 OA
ATOM     14  C   UNL     1       0.382   2.127   0.000  0.00  0.00    +0.000 C 
ENDBRANCH   4  13
BRANCH   6  15
ATOM     15  C   UNL     1      -0.333  -0.761   0.000  0.00  0.00    +0.000 C 
ATOM     16  C   UNL     1      -0.333  -1.586   0.000  0.00  0.00    +0.000 C 
BRANCH  15  17
ATOM     17  C   UNL     1      -1.047  -0.348   0.000  0.00  0.00    +0.000 C 
ATOM     18  C   UNL     1      -1.762   0.064   0.000  0.00  0.00    +0.000 C 
BRANCH  18  19
ATOM     19  C   UNL     1      -2.476   0.477   0.000  0.00  0.00    +0.000 A 
ATOM     20  C   UNL     1      -3.191   0.064   0.000  0.00  0.00    +0.000 A 
ATOM     21  C   UNL     1      -3.191  -0.761   0.000  0.00  0.00    +0.000 C 
ATOM     22  N   UNL     1      -3.905   0.477   0.000  0.00  0.00    +0.000 NA
ATOM     23  C   UNL     1      -3.905   1.302   0.000  0.00  0.00    +0.000 A 
ATOM     24  N   UNL     1      -4.620   1.714   0.000  0.00  0.00    +0.000 NA
ATOM     25  N   UNL     1      -3.191   1.714   0.000  0.00  0.00    +0.000 NA
ATOM     26  C   UNL     1      -2.476   1.302   0.000  0.00  0.00    +0.000 A 
ATOM     27  N   UNL     1      -1.762   1.714   0.000  0.00  0.00    +0.000 NA
ENDBRANCH  18  19
ENDBRANCH  15  17
ENDBRANCH   6  15
TORSDOF 5
