REMARK  Name = 53S
REMARK  5 active torsions:
REMARK  status: ('A' for Active; 'I' for Inactive)
REMARK    1  A    between atoms: C_1  and  C_21
REMARK    2  A    between atoms: C_10  and  C_11
REMARK    3  A    between atoms: C_14  and  O_15
REMARK    4  A    between atoms: C_17  and  C_18
REMARK    5  A    between atoms: C_18  and  C_20
REMARK                            x       y       z     vdW  Elec       q    Type
REMARK                         _______ _______ _______ _____ _____    ______ ____
ROOT
ATOM      1  C   UNL     1      -0.396   1.525   0.000  0.00  0.00    +0.000 A 
ATOM      2  C   UNL     1       0.319   1.112   0.000  0.00  0.00    +0.000 A 
ATOM      3  C   UNL     1      -1.110   1.112   0.000  0.00  0.00    +0.000 A 
ATOM      4  C   UNL     1      -1.110   0.287   0.000  0.00  0.00    +0.000 A 
ATOM      5  C   UNL     1      -0.396  -0.125   0.000  0.00  0.00    +0.000 A 
ATOM      6  C   UNL     1       0.319   0.287   0.000  0.00  0.00    +0.000 A 
ENDROOT
BRANCH   1  13
ATOM      7  C   UNL     1      -1.110   2.762   0.000  0.00  0.00    +0.000 A 
ATOM      8  C   UNL     1      -1.110   3.587   0.000  0.00  0.00    +0.000 A 
ATOM      9  C   UNL     1      -0.396   4.000   0.000  0.00  0.00    +0.000 A 
ATOM     10  C   UNL     1      -0.396   4.825   0.000  0.00  0.00    +0.000 C 
ATOM     11  C   UNL     1       0.319   3.587   0.000  0.00  0.00    +0.000 A 
ATOM     12  C   UNL     1       0.319   2.762   0.000  0.00  0.00    +0.000 A 
ATOM     13  C   UNL     1      -0.396   2.350   0.000  0.00  0.00    +0.000 A 
ENDBRANCH   1  13
BRANCH   4  15
ATOM     14  C   UNL     1      -1.825  -0.950   0.000  0.00  0.00    +0.000 C 
ATOM     15  O   UNL     1      -1.825  -0.125   0.000  0.00  0.00    +0.000 OA
ENDBRANCH   4  15
BRANCH   6  16
ATOM     16  C   UNL     1       1.033  -0.125   0.000  0.00  0.00    +0.000 C 
ATOM     17  C   UNL     1       1.748   0.287   0.000  0.00  0.00    +0.000 C 
BRANCH  16  18
ATOM     18  C   UNL     1       1.033  -0.950   0.000  0.00  0.00    +0.000 C 
ATOM     19  C   UNL     1       1.033  -1.775   0.000  0.00  0.00    +0.000 C 
BRANCH  19  20
ATOM     20  C   UNL     1       1.033  -2.600   0.000  0.00  0.00    +0.000 A 
ATOM     21  C   UNL     1       1.748  -3.013   0.000  0.00  0.00    +0.000 A 
ATOM     22  C   UNL     1       2.462  -2.600   0.000  0.00  0.00    +0.000 C 
ATOM     23  N   UNL     1       1.748  -3.838   0.000  0.00  0.00    +0.000 NA
ATOM     24  C   UNL     1       1.033  -4.250   0.000  0.00  0.00    +0.000 A 
ATOM     25  N   UNL     1       1.033  -5.075   0.000  0.00  0.00    +0.000 NA
ATOM     26  N   UNL     1       0.319  -3.838   0.000  0.00  0.00    +0.000 NA
ATOM     27  C   UNL     1       0.319  -3.013   0.000  0.00  0.00    +0.000 A 
ATOM     28  N   UNL     1      -0.396  -2.600   0.000  0.00  0.00    +0.000 NA
ENDBRANCH  19  20
ENDBRANCH  16  18
ENDBRANCH   6  16
TORSDOF 5
