REMARK  Name = 53T
REMARK  5 active torsions:
REMARK  status: ('A' for Active; 'I' for Inactive)
REMARK    1  A    between atoms: C_3  and  C_11
REMARK    2  A    between atoms: C_4  and  C_5
REMARK    3  A    between atoms: C_5  and  C_26
REMARK    4  A    between atoms: C_19  and  C_20
REMARK    5  A    between atoms: C_23  and  O_24
REMARK                            x       y       z     vdW  Elec       q    Type
REMARK                         _______ _______ _______ _____ _____    ______ ____
ROOT
ATOM      1  C   UNL     1      -0.952  -1.173   0.000  0.00  0.00    +0.000 A 
ATOM      2  C   UNL     1      -0.237  -0.760   0.000  0.00  0.00    +0.000 A 
ATOM      3  C   UNL     1      -0.952  -1.998   0.000  0.00  0.00    +0.000 A 
ATOM      4  C   UNL     1      -0.237  -2.410   0.000  0.00  0.00    +0.000 A 
ATOM      5  C   UNL     1       0.477  -1.998   0.000  0.00  0.00    +0.000 A 
ATOM      6  C   UNL     1       0.477  -1.173   0.000  0.00  0.00    +0.000 A 
ENDROOT
BRANCH   1  14
ATOM      7  C   UNL     1      -2.381   1.302   0.000  0.00  0.00    +0.000 C 
ATOM      8  C   UNL     1      -2.381   0.477   0.000  0.00  0.00    +0.000 A 
ATOM      9  C   UNL     1      -1.666   0.065   0.000  0.00  0.00    +0.000 A 
ATOM     10  C   UNL     1      -3.095   0.065   0.000  0.00  0.00    +0.000 A 
ATOM     11  C   UNL     1      -3.095  -0.760   0.000  0.00  0.00    +0.000 A 
ATOM     12  C   UNL     1      -3.810  -1.173   0.000  0.00  0.00    +0.000 C 
ATOM     13  C   UNL     1      -2.381  -1.173   0.000  0.00  0.00    +0.000 A 
ATOM     14  C   UNL     1      -1.666  -0.760   0.000  0.00  0.00    +0.000 A 
ENDBRANCH   1  14
BRANCH   6  15
ATOM     15  C   UNL     1       1.192  -0.760   0.000  0.00  0.00    +0.000 C 
ATOM     16  C   UNL     1       1.906  -1.173   0.000  0.00  0.00    +0.000 C 
BRANCH  15  18
ATOM     17  C   UNL     1       1.192   0.890   0.000  0.00  0.00    +0.000 C 
ATOM     18  C   UNL     1       1.192   0.065   0.000  0.00  0.00    +0.000 C 
BRANCH  17  24
ATOM     19  N   UNL     1       1.906   2.952   0.000  0.00  0.00    +0.000 NA
ATOM     20  C   UNL     1      -0.237   1.715   0.000  0.00  0.00    +0.000 C 
ATOM     21  C   UNL     1       1.906   2.127   0.000  0.00  0.00    +0.000 A 
ATOM     22  C   UNL     1       1.192   3.365   0.000  0.00  0.00    +0.000 A 
ATOM     23  C   UNL     1       0.477   2.127   0.000  0.00  0.00    +0.000 A 
ATOM     24  C   UNL     1       1.192   1.715   0.000  0.00  0.00    +0.000 A 
ATOM     25  N   UNL     1       0.477   2.952   0.000  0.00  0.00    +0.000 NA
ATOM     26  N   UNL     1       1.192   4.190   0.000  0.00  0.00    +0.000 NA
ATOM     27  N   UNL     1       2.620   1.715   0.000  0.00  0.00    +0.000 NA
ENDBRANCH  17  24
ENDBRANCH  15  18
ENDBRANCH   6  15
BRANCH   4  29
ATOM     28  C   UNL     1       0.477  -3.648   0.000  0.00  0.00    +0.000 C 
ATOM     29  O   UNL     1      -0.237  -3.235   0.000  0.00  0.00    +0.000 OA
ENDBRANCH   4  29
TORSDOF 5
