REMARK  Name = 53U
REMARK  6 active torsions:
REMARK  status: ('A' for Active; 'I' for Inactive)
REMARK    1  A    between atoms: C_1  and  C_3
REMARK    2  A    between atoms: C_1  and  C_21
REMARK    3  A    between atoms: C_3  and  C_4
REMARK    4  A    between atoms: C_10  and  C_11
REMARK    5  A    between atoms: N_12  and  C_13
REMARK    6  A    between atoms: C_13  and  C_14
REMARK                            x       y       z     vdW  Elec       q    Type
REMARK                         _______ _______ _______ _____ _____    ______ ____
ROOT
ATOM      1  C   UNL     1       0.719  -0.452   0.000  0.00  0.00    +0.000 C 
ATOM      2  O   UNL     1       0.890   0.355   0.000  0.00  0.00    +0.000 OA
ATOM      3  N   UNL     1      -0.066  -0.707   0.000  0.00  0.00    +0.000 N 
ATOM      4  C   UNL     1      -0.321  -1.491   0.000  0.00  0.00    +0.000 C 
ATOM      5  C   UNL     1      -1.146  -1.491   0.000  0.00  0.00    +0.000 C 
ATOM      6  C   UNL     1      -1.401  -0.707   0.000  0.00  0.00    +0.000 C 
ATOM      7  C   UNL     1      -0.734  -0.222   0.000  0.00  0.00    +0.000 C 
ENDROOT
BRANCH   7   8
ATOM      8  C   UNL     1      -0.734   0.603   0.000  0.00  0.00    +0.000 C 
ATOM      9  N   UNL     1      -1.448   1.016   0.000  0.00  0.00    +0.000 NA
ATOM     10  O   UNL     1      -0.019   1.016   0.000  0.00  0.00    +0.000 OA
BRANCH   9  11
ATOM     11  C   UNL     1      -1.448   1.841   0.000  0.00  0.00    +0.000 C 
BRANCH  11  12
ATOM     12  C   UNL     1      -2.163   2.253   0.000  0.00  0.00    +0.000 A 
ATOM     13  C   UNL     1      -2.877   1.841   0.000  0.00  0.00    +0.000 A 
ATOM     14  C   UNL     1      -3.591   2.253   0.000  0.00  0.00    +0.000 A 
ATOM     15  C   UNL     1      -3.591   3.078   0.000  0.00  0.00    +0.000 A 
ATOM     16  C   UNL     1      -2.877   3.491   0.000  0.00  0.00    +0.000 A 
ATOM     17  C   UNL     1      -2.163   3.078   0.000  0.00  0.00    +0.000 A 
ENDBRANCH  11  12
ENDBRANCH   9  11
ENDBRANCH   7   8
BRANCH   1  19
ATOM     18  N   UNL     1       1.160  -1.811   0.000  0.00  0.00    +0.000 NA
ATOM     19  C   UNL     1       1.332  -1.004   0.000  0.00  0.00    +0.000 C 
BRANCH  19  20
ATOM     20  C   UNL     1       2.116  -0.749   0.000  0.00  0.00    +0.000 C 
BRANCH  20  21
ATOM     21  C   UNL     1       2.729  -1.301   0.000  0.00  0.00    +0.000 A 
ATOM     22  C   UNL     1       3.514  -1.046   0.000  0.00  0.00    +0.000 A 
ATOM     23  C   UNL     1       4.127  -1.598   0.000  0.00  0.00    +0.000 A 
ATOM     24  C   UNL     1       3.955  -2.405   0.000  0.00  0.00    +0.000 A 
ATOM     25  C   UNL     1       3.171  -2.660   0.000  0.00  0.00    +0.000 A 
ATOM     26  C   UNL     1       2.558  -2.108   0.000  0.00  0.00    +0.000 A 
ENDBRANCH  20  21
ENDBRANCH  19  20
ENDBRANCH   1  19
TORSDOF 6
