REMARK  Name = 53V
REMARK  5 active torsions:
REMARK  status: ('A' for Active; 'I' for Inactive)
REMARK    1  A    between atoms: C_4  and  C_23
REMARK    2  A    between atoms: C_5  and  C_7
REMARK    3  A    between atoms: C_5  and  C_22
REMARK    4  A    between atoms: C_9  and  O_21
REMARK    5  A    between atoms: C_11  and  C_19
REMARK                            x       y       z     vdW  Elec       q    Type
REMARK                         _______ _______ _______ _____ _____    ______ ____
ROOT
ATOM      1  C   UNL     1       0.091  -0.017   0.000  0.00  0.00    +0.000 A 
ATOM      2  C   UNL     1      -0.624   0.395   0.000  0.00  0.00    +0.000 A 
ATOM      3  C   UNL     1      -0.624   1.220   0.000  0.00  0.00    +0.000 A 
ATOM      4  C   UNL     1       0.091   1.633   0.000  0.00  0.00    +0.000 A 
ATOM      5  C   UNL     1       0.805   1.220   0.000  0.00  0.00    +0.000 A 
ATOM      6  C   UNL     1       0.805   0.395   0.000  0.00  0.00    +0.000 A 
ENDROOT
BRANCH   5  14
ATOM      7  C   UNL     1       0.805   2.870   0.000  0.00  0.00    +0.000 C 
ATOM      8  C   UNL     1       1.520   2.458   0.000  0.00  0.00    +0.000 A 
ATOM      9  C   UNL     1       2.234   2.870   0.000  0.00  0.00    +0.000 A 
ATOM     10  C   UNL     1       2.949   2.458   0.000  0.00  0.00    +0.000 A 
ATOM     11  C   UNL     1       2.949   1.633   0.000  0.00  0.00    +0.000 A 
ATOM     12  C   UNL     1       2.234   1.220   0.000  0.00  0.00    +0.000 A 
ATOM     13  C   UNL     1       2.234   0.395   0.000  0.00  0.00    +0.000 C 
ATOM     14  C   UNL     1       1.520   1.633   0.000  0.00  0.00    +0.000 A 
ENDBRANCH   5  14
BRANCH   3  16
ATOM     15  C   UNL     1      -1.338   2.458   0.000  0.00  0.00    +0.000 C 
ATOM     16  O   UNL     1      -1.338   1.633   0.000  0.00  0.00    +0.000 OA
ENDBRANCH   3  16
BRANCH   1  17
ATOM     17  C   UNL     1       0.091  -0.842   0.000  0.00  0.00    +0.000 C 
ATOM     18  C   UNL     1       0.805  -1.255   0.000  0.00  0.00    +0.000 C 
BRANCH  17  19
ATOM     19  C   UNL     1      -0.624  -1.255   0.000  0.00  0.00    +0.000 C 
ATOM     20  C   UNL     1      -1.338  -1.667   0.000  0.00  0.00    +0.000 C 
BRANCH  20  23
ATOM     21  C   UNL     1      -2.767  -1.667   0.000  0.00  0.00    +0.000 A 
ATOM     22  C   UNL     1      -3.482  -2.905   0.000  0.00  0.00    +0.000 A 
ATOM     23  C   UNL     1      -2.053  -2.080   0.000  0.00  0.00    +0.000 A 
ATOM     24  C   UNL     1      -2.053  -2.905   0.000  0.00  0.00    +0.000 A 
ATOM     25  C   UNL     1      -1.338  -3.317   0.000  0.00  0.00    +0.000 C 
ATOM     26  N   UNL     1      -2.767  -3.317   0.000  0.00  0.00    +0.000 NA
ATOM     27  N   UNL     1      -4.196  -3.317   0.000  0.00  0.00    +0.000 NA
ATOM     28  N   UNL     1      -3.482  -2.080   0.000  0.00  0.00    +0.000 NA
ATOM     29  N   UNL     1      -2.767  -0.842   0.000  0.00  0.00    +0.000 NA
ENDBRANCH  20  23
ENDBRANCH  17  19
ENDBRANCH   1  17
TORSDOF 5
