REMARK  Name = 541
REMARK  6 active torsions:
REMARK  status: ('A' for Active; 'I' for Inactive)
REMARK    1  A    between atoms: C_11  and  C_12
REMARK    2  A    between atoms: C_12  and  O_14
REMARK    3  A    between atoms: C_13  and  O_14
REMARK    4  A    between atoms: C_17  and  C_21
REMARK    5  A    between atoms: C_26  and  C_27
REMARK    6  A    between atoms: C_26  and  N_32
REMARK                            x       y       z     vdW  Elec       q    Type
REMARK                         _______ _______ _______ _____ _____    ______ ____
ROOT
ATOM      1  C   UNL     1      -0.119   0.485   0.000  0.00  0.00    +0.000 A 
ATOM      2  C   UNL     1       0.595   0.073   0.000  0.00  0.00    +0.000 A 
ATOM      3  C   UNL     1       0.595  -0.752   0.000  0.00  0.00    +0.000 A 
ATOM      4  C   UNL     1      -0.119  -1.165   0.000  0.00  0.00    +0.000 A 
ATOM      5  C   UNL     1      -0.834  -0.752   0.000  0.00  0.00    +0.000 A 
ATOM      6  C   UNL     1      -0.834   0.073   0.000  0.00  0.00    +0.000 A 
ENDROOT
BRANCH   4   8
ATOM      7  C   UNL     1      -0.291  -2.797   0.000  0.00  0.00    +0.000 C 
ATOM      8  C   UNL     1      -0.119  -1.990   0.000  0.00  0.00    +0.000 C 
ATOM      9  C   UNL     1      -0.940  -1.903   0.000  0.00  0.00    +0.000 C 
ATOM     10  C   UNL     1       0.701  -1.903   0.000  0.00  0.00    +0.000 C 
ATOM     11  O   UNL     1       1.114  -1.189   0.000  0.00  0.00    +0.000 OA
ATOM     12  C   UNL     1       0.424  -3.209   0.000  0.00  0.00    +0.000 C 
ATOM     13  N   UNL     1       1.037  -2.657   0.000  0.00  0.00    +0.000 N 
BRANCH  13  14
ATOM     14  C   UNL     1       1.844  -2.829   0.000  0.00  0.00    +0.000 C 
ATOM     15  C   UNL     1       2.099  -3.613   0.000  0.00  0.00    +0.000 C 
BRANCH  14  16
ATOM     16  C   UNL     1       2.396  -2.216   0.000  0.00  0.00    +0.000 C 
ATOM     17  N   UNL     1       3.203  -2.387   0.000  0.00  0.00    +0.000 NA
ATOM     18  O   UNL     1       3.458  -3.172   0.000  0.00  0.00    +0.000 OA
ATOM     19  O   UNL     1       2.141  -1.431   0.000  0.00  0.00    +0.000 OA
ENDBRANCH  14  16
ENDBRANCH  13  14
ENDBRANCH   4   8
BRANCH   1  20
ATOM     20  O   UNL     1      -0.119   1.310   0.000  0.00  0.00    +0.000 OA
BRANCH  20  21
ATOM     21  C   UNL     1      -0.834   1.723   0.000  0.00  0.00    +0.000 C 
BRANCH  21  32
ATOM     22  C   UNL     1      -2.263   4.198   0.000  0.00  0.00    +0.000 A 
ATOM     23  C   UNL     1      -2.977   3.785   0.000  0.00  0.00    +0.000 A 
ATOM     24  C   UNL     1      -2.977   2.960   0.000  0.00  0.00    +0.000 A 
ATOM     25  C   UNL     1      -2.263   2.548   0.000  0.00  0.00    +0.000 A 
ATOM     26  C   UNL     1      -1.548   2.960   0.000  0.00  0.00    +0.000 A 
ATOM     27  C   UNL     1      -1.548   3.785   0.000  0.00  0.00    +0.000 A 
ATOM     28  N   UNL     1      -0.834   4.198   0.000  0.00  0.00    +0.000 NA
ATOM     29  C   UNL     1       0.595   4.198   0.000  0.00  0.00    +0.000 C 
ATOM     30  C   UNL     1      -0.119   3.785   0.000  0.00  0.00    +0.000 A 
ATOM     31  C   UNL     1      -0.119   2.960   0.000  0.00  0.00    +0.000 A 
ATOM     32  C   UNL     1      -0.834   2.548   0.000  0.00  0.00    +0.000 A 
ENDBRANCH  21  32
ENDBRANCH  20  21
ENDBRANCH   1  20
TORSDOF 6
