REMARK  Name = 543
REMARK  0 active torsions:
REMARK  status: ('A' for Active; 'I' for Inactive)
REMARK                            x       y       z     vdW  Elec       q    Type
REMARK                         _______ _______ _______ _____ _____    ______ ____
ROOT
ATOM      1 CL   UNL     1       1.584  -0.995   0.000  0.00  0.00    +0.000 Cl
ATOM      2  O   UNL     1       4.624  -2.046   0.000  0.00  0.00    +0.000 OA
ATOM      3  N   UNL     1       3.884   0.403   0.000  0.00  0.00    +0.000 N 
ATOM      4  N   UNL     1       3.197   1.830   0.000  0.00  0.00    +0.000 NA
ATOM      5  N   UNL     1       5.020  -0.311   0.000  0.00  0.00    +0.000 NA
ATOM      6  C   UNL     1       4.330   1.057   0.000  0.00  0.00    +0.000 C 
ATOM      7  C   UNL     1       3.094   0.462   0.000  0.00  0.00    +0.000 C 
ATOM      8  C   UNL     1       3.987   1.771   0.000  0.00  0.00    +0.000 C 
ATOM      9  C   UNL     1       2.751   1.176   0.000  0.00  0.00    +0.000 C 
ATOM     10  C   UNL     1       4.228  -0.311   0.000  0.00  0.00    +0.000 C 
ATOM     11  C   UNL     1       3.734  -0.930   0.000  0.00  0.00    +0.000 A 
ATOM     12  C   UNL     1       3.910  -1.702   0.000  0.00  0.00    +0.000 A 
ATOM     13  C   UNL     1       5.514  -0.930   0.000  0.00  0.00    +0.000 A 
ATOM     14  C   UNL     1       2.949  -0.675   0.000  0.00  0.00    +0.000 A 
ATOM     15  C   UNL     1       5.337  -1.702   0.000  0.00  0.00    +0.000 A 
ATOM     16  C   UNL     1       3.314  -2.273   0.000  0.00  0.00    +0.000 A 
ATOM     17  C   UNL     1       2.340  -1.231   0.000  0.00  0.00    +0.000 A 
ATOM     18  C   UNL     1       2.524  -2.035   0.000  0.00  0.00    +0.000 A 
ATOM     19  C   UNL     1       6.298  -0.675   0.000  0.00  0.00    +0.000 A 
ATOM     20  C   UNL     1       5.933  -2.273   0.000  0.00  0.00    +0.000 A 
ATOM     21  C   UNL     1       6.907  -1.231   0.000  0.00  0.00    +0.000 A 
ATOM     22  C   UNL     1       6.724  -2.035   0.000  0.00  0.00    +0.000 A 
ENDROOT
TORSDOF 0
