REMARK  Name = 544
REMARK  0 active torsions:
REMARK  status: ('A' for Active; 'I' for Inactive)
REMARK                            x       y       z     vdW  Elec       q    Type
REMARK                         _______ _______ _______ _____ _____    ______ ____
ROOT
ATOM      1  F   UNL     1       4.508   1.081   0.000  0.00  0.00    +0.000 F 
ATOM      2  O   UNL     1       4.508  -0.569   0.000  0.00  0.00    +0.000 OA
ATOM      3  O   UNL     1       1.650  -0.569   0.000  0.00  0.00    +0.000 OA
ATOM      4  N   UNL     1       3.079  -0.569   0.000  0.00  0.00    +0.000 NA
ATOM      5  N   UNL     1       2.365   0.668   0.000  0.00  0.00    +0.000 NA
ATOM      6  C   UNL     1       3.793  -0.157   0.000  0.00  0.00    +0.000 A 
ATOM      7  C   UNL     1       2.365  -0.157   0.000  0.00  0.00    +0.000 A 
ATOM      8  C   UNL     1       3.793   0.668   0.000  0.00  0.00    +0.000 A 
ATOM      9  C   UNL     1       3.079   1.081   0.000  0.00  0.00    +0.000 A 
ENDROOT
TORSDOF 0
