REMARK  Name = 545
REMARK  2 active torsions:
REMARK  status: ('A' for Active; 'I' for Inactive)
REMARK    1  A    between atoms: O_1  and  C_5
REMARK    2  A    between atoms: O_1  and  C_11
REMARK                            x       y       z     vdW  Elec       q    Type
REMARK                         _______ _______ _______ _____ _____    ______ ____
ROOT
ATOM      1  N   UNL     1       4.508  -1.444   0.000  0.00  0.00    +0.000 N 
ATOM      2  C   UNL     1       3.793  -0.206   0.000  0.00  0.00    +0.000 A 
ATOM      3  C   UNL     1       3.793  -1.031   0.000  0.00  0.00    +0.000 A 
ATOM      4  C   UNL     1       5.222  -1.031   0.000  0.00  0.00    +0.000 A 
ATOM      5  C   UNL     1       4.508   0.206   0.000  0.00  0.00    +0.000 A 
ATOM      6  C   UNL     1       5.222  -0.206   0.000  0.00  0.00    +0.000 A 
ATOM      7  C   UNL     1       4.508  -2.269   0.000  0.00  0.00    +0.000 C 
ENDROOT
BRANCH   2   8
ATOM      8  O   UNL     1       3.079   0.206   0.000  0.00  0.00    +0.000 OA
BRANCH   8  11
ATOM      9  O   UNL     1       3.793   1.444   0.000  0.00  0.00    +0.000 OA
ATOM     10  N   UNL     1       2.365   1.444   0.000  0.00  0.00    +0.000 N 
ATOM     11  C   UNL     1       3.079   1.031   0.000  0.00  0.00    +0.000 C 
ATOM     12  C   UNL     1       2.365   2.269   0.000  0.00  0.00    +0.000 C 
ATOM     13  C   UNL     1       1.650   1.031   0.000  0.00  0.00    +0.000 C 
ENDBRANCH   8  11
ENDBRANCH   2   8
TORSDOF 2
