REMARK  Name = 546
REMARK  3 active torsions:
REMARK  status: ('A' for Active; 'I' for Inactive)
REMARK    1  A    between atoms: N_3  and  C_11
REMARK    2  A    between atoms: C_8  and  C_11
REMARK    3  A    between atoms: C_13  and  C_16
REMARK                            x       y       z     vdW  Elec       q    Type
REMARK                         _______ _______ _______ _____ _____    ______ ____
ROOT
ATOM      1 CL   UNL     1       1.650   0.454   0.000  0.00  0.00    +0.000 Cl
ATOM      2  N   UNL     1       4.816  -0.641   0.000  0.00  0.00    +0.000 N 
ATOM      3  N   UNL     1       5.228   1.167   0.000  0.00  0.00    +0.000 NA
ATOM      4  N   UNL     1       5.735  -1.599   0.000  0.00  0.00    +0.000 NA
ATOM      5  N   UNL     1       6.124  -0.877   0.000  0.00  0.00    +0.000 NA
ATOM      6  C   UNL     1       4.073  -0.283   0.000  0.00  0.00    +0.000 A 
ATOM      7  C   UNL     1       4.928  -1.453   0.000  0.00  0.00    +0.000 A 
ATOM      8  C   UNL     1       5.559  -0.283   0.000  0.00  0.00    +0.000 A 
ATOM      9  C   UNL     1       3.889   0.522   0.000  0.00  0.00    +0.000 A 
ATOM     10  C   UNL     1       5.743   0.522   0.000  0.00  0.00    +0.000 C 
ATOM     11  C   UNL     1       4.403   1.167   0.000  0.00  0.00    +0.000 C 
ATOM     12  C   UNL     1       3.452  -0.877   0.000  0.00  0.00    +0.000 A 
ATOM     13  C   UNL     1       3.072   0.787   0.000  0.00  0.00    +0.000 A 
ATOM     14  C   UNL     1       2.629  -0.630   0.000  0.00  0.00    +0.000 A 
ATOM     15  C   UNL     1       2.437   0.208   0.000  0.00  0.00    +0.000 A 
ENDROOT
BRANCH  11  16
ATOM     16  C   UNL     1       4.045   1.910   0.000  0.00  0.00    +0.000 A 
ATOM     17  C   UNL     1       3.223   1.972   0.000  0.00  0.00    +0.000 A 
ATOM     18  C   UNL     1       4.510   2.592   0.000  0.00  0.00    +0.000 A 
ATOM     19  C   UNL     1       2.865   2.715   0.000  0.00  0.00    +0.000 A 
ATOM     20  C   UNL     1       4.152   3.335   0.000  0.00  0.00    +0.000 A 
ATOM     21  C   UNL     1       3.330   3.397   0.000  0.00  0.00    +0.000 A 
ENDBRANCH  11  16
BRANCH   7  22
ATOM     22  C   UNL     1       4.333  -2.024   0.000  0.00  0.00    +0.000 C 
BRANCH  22  23
ATOM     23  N   UNL     1       4.530  -2.825   0.000  0.00  0.00    +0.000 NA
ATOM     24  C   UNL     1       3.934  -3.397   0.000  0.00  0.00    +0.000 C 
ATOM     25  C   UNL     1       5.322  -3.055   0.000  0.00  0.00    +0.000 C 
ENDBRANCH  22  23
ENDBRANCH   7  22
TORSDOF 3
