REMARK  Name = 547
REMARK  6 active torsions:
REMARK  status: ('A' for Active; 'I' for Inactive)
REMARK    1  A    between atoms: C_5  and  N_22
REMARK    2  A    between atoms: C_8  and  C_16
REMARK    3  A    between atoms: C_9  and  C_10
REMARK    4  A    between atoms: N_22  and  C_23
REMARK    5  A    between atoms: C_23  and  C_24
REMARK    6  A    between atoms: C_24  and  N_25
REMARK                            x       y       z     vdW  Elec       q    Type
REMARK                         _______ _______ _______ _____ _____    ______ ____
ROOT
ATOM      1  C   UNL     1       2.338  -4.889   0.000  0.00  0.00    +0.000 A 
ATOM      2  N   UNL     1       1.623  -5.302   0.000  0.00  0.00    +0.000 NA
ATOM      3  C   UNL     1       0.909  -4.889   0.000  0.00  0.00    +0.000 A 
ATOM      4  C   UNL     1       0.909  -4.064   0.000  0.00  0.00    +0.000 A 
ATOM      5  C   UNL     1       1.623  -3.652   0.000  0.00  0.00    +0.000 A 
ATOM      6  C   UNL     1       2.338  -4.064   0.000  0.00  0.00    +0.000 A 
ATOM      7  O   UNL     1       0.124  -5.144   0.000  0.00  0.00    +0.000 OA
ATOM      8  C   UNL     1      -0.361  -4.477   0.000  0.00  0.00    +0.000 A 
ATOM      9  C   UNL     1       0.124  -3.809   0.000  0.00  0.00    +0.000 A 
ENDROOT
BRANCH   9  10
ATOM     10  C   UNL     1      -0.131  -3.025   0.000  0.00  0.00    +0.000 A 
ATOM     11  C   UNL     1      -0.938  -2.853   0.000  0.00  0.00    +0.000 A 
ATOM     12  C   UNL     1      -1.193  -2.069   0.000  0.00  0.00    +0.000 A 
ATOM     13  C   UNL     1      -0.641  -1.456   0.000  0.00  0.00    +0.000 A 
ATOM     14  C   UNL     1       0.166  -1.627   0.000  0.00  0.00    +0.000 A 
ATOM     15  C   UNL     1       0.421  -2.412   0.000  0.00  0.00    +0.000 A 
ENDBRANCH   9  10
BRANCH   8  16
ATOM     16  C   UNL     1      -1.186  -4.477   0.000  0.00  0.00    +0.000 A 
ATOM     17  C   UNL     1      -1.598  -5.191   0.000  0.00  0.00    +0.000 A 
ATOM     18  C   UNL     1      -2.423  -5.191   0.000  0.00  0.00    +0.000 A 
ATOM     19  C   UNL     1      -2.836  -4.477   0.000  0.00  0.00    +0.000 A 
ATOM     20  C   UNL     1      -2.423  -3.762   0.000  0.00  0.00    +0.000 A 
ATOM     21  C   UNL     1      -1.598  -3.762   0.000  0.00  0.00    +0.000 A 
ENDBRANCH   8  16
BRANCH   5  22
ATOM     22  N   UNL     1       1.623  -2.827   0.000  0.00  0.00    +0.000 NA
BRANCH  22  23
ATOM     23  C   UNL     1       0.909  -2.414   0.000  0.00  0.00    +0.000 C 
BRANCH  23  24
ATOM     24  C   UNL     1       0.909  -1.589   0.000  0.00  0.00    +0.000 C 
BRANCH  24  25
ATOM     25  N   UNL     1       1.623  -1.177   0.000  0.00  0.00    +0.000 NA
ATOM     26  C   UNL     1       2.338  -1.589   0.000  0.00  0.00    +0.000 C 
ATOM     27  C   UNL     1       3.052  -1.177   0.000  0.00  0.00    +0.000 C 
ATOM     28  N   UNL     1       3.052  -0.352   0.000  0.00  0.00    +0.000 NA
ATOM     29  C   UNL     1       2.338   0.061   0.000  0.00  0.00    +0.000 C 
ATOM     30  C   UNL     1       1.623  -0.352   0.000  0.00  0.00    +0.000 C 
ENDBRANCH  24  25
ENDBRANCH  23  24
ENDBRANCH  22  23
ENDBRANCH   5  22
TORSDOF 6
