REMARK  Name = 547
REMARK  2 active torsions:
REMARK  status: ('A' for Active; 'I' for Inactive)
REMARK    1  A    between atoms: C_10  and  C_20
REMARK    2  A    between atoms: C_20  and  C_25
REMARK                            x       y       z     vdW  Elec       q    Type
REMARK                         _______ _______ _______ _____ _____    ______ ____
ROOT
ATOM      1  F   UNL     1       4.140   0.037   0.000  0.00  0.00    +0.000 F 
ATOM      2  O   UNL     1       3.956   0.643   0.000  0.00  0.00    +0.000 OA
ATOM      3  O   UNL     1       1.650  -2.288   0.000  0.00  0.00    +0.000 OA
ATOM      4  C   UNL     1       6.099   0.230   0.000  0.00  0.00    +0.000 C 
ATOM      5  C   UNL     1       6.099  -0.595   0.000  0.00  0.00    +0.000 C 
ATOM      6  C   UNL     1       5.385  -1.007   0.000  0.00  0.00    +0.000 C 
ATOM      7  C   UNL     1       4.670  -0.595   0.000  0.00  0.00    +0.000 C 
ATOM      8  C   UNL     1       6.880   0.482   0.000  0.00  0.00    +0.000 C 
ATOM      9  C   UNL     1       6.880  -0.846   0.000  0.00  0.00    +0.000 C 
ATOM     10  C   UNL     1       5.385   0.643   0.000  0.00  0.00    +0.000 C 
ATOM     11  C   UNL     1       7.361  -0.182   0.000  0.00  0.00    +0.000 C 
ATOM     12  C   UNL     1       4.670   0.230   0.000  0.00  0.00    +0.000 C 
ATOM     13  C   UNL     1       3.920  -1.013   0.000  0.00  0.00    +0.000 C 
ATOM     14  C   UNL     1       5.398  -1.866   0.000  0.00  0.00    +0.000 C 
ATOM     15  C   UNL     1       6.099   1.055   0.000  0.00  0.00    +0.000 C 
ATOM     16  C   UNL     1       4.657  -2.302   0.000  0.00  0.00    +0.000 C 
ATOM     17  C   UNL     1       3.913  -1.872   0.000  0.00  0.00    +0.000 C 
ATOM     18  C   UNL     1       8.187  -0.182   0.000  0.00  0.00    +0.000 C 
ATOM     19  C   UNL     1       3.643  -0.235   0.000  0.00  0.00    +0.000 C 
ATOM     20  C   UNL     1       3.155  -0.547   0.000  0.00  0.00    +0.000 C 
ATOM     21  C   UNL     1       3.141  -2.326   0.000  0.00  0.00    +0.000 C 
ATOM     22  C   UNL     1       2.373  -0.983   0.000  0.00  0.00    +0.000 C 
ATOM     23  C   UNL     1       2.366  -1.878   0.000  0.00  0.00    +0.000 C 
ENDROOT
BRANCH   8  25
ATOM     24  O   UNL     1       6.585   1.880   0.000  0.00  0.00    +0.000 OA
ATOM     25  C   UNL     1       7.136   1.266   0.000  0.00  0.00    +0.000 C 
BRANCH  25  27
ATOM     26  O   UNL     1       8.200   2.220   0.000  0.00  0.00    +0.000 OA
ATOM     27  C   UNL     1       7.944   1.436   0.000  0.00  0.00    +0.000 C 
ENDBRANCH  25  27
ENDBRANCH   8  25
TORSDOF 2
