REMARK  Name = 548
REMARK  8 active torsions:
REMARK  status: ('A' for Active; 'I' for Inactive)
REMARK    1  A    between atoms: C_5  and  C_6
REMARK    2  A    between atoms: C_5  and  C_7
REMARK    3  A    between atoms: C_6  and  C_8
REMARK    4  A    between atoms: C_7  and  C_9
REMARK    5  A    between atoms: C_8  and  C_10
REMARK    6  A    between atoms: C_9  and  C_11
REMARK    7  A    between atoms: C_10  and  C_12
REMARK    8  A    between atoms: C_11  and  C_13
REMARK                            x       y       z     vdW  Elec       q    Type
REMARK                         _______ _______ _______ _____ _____    ______ ____
ROOT
ATOM      1  C   UNL     1       5.665   0.206   0.000  0.00  0.00    +0.000 C 
ENDROOT
BRANCH   1   2
ATOM      2  C   UNL     1       4.951   0.619   0.000  0.00  0.00    +0.000 C 
BRANCH   2   3
ATOM      3  C   UNL     1       4.237   0.206   0.000  0.00  0.00    +0.000 C 
BRANCH   3   4
ATOM      4  C   UNL     1       3.522   0.619   0.000  0.00  0.00    +0.000 C 
BRANCH   4   7
ATOM      5  O   UNL     1       2.093   0.619   0.000  0.00  0.00    +0.000 OA
ATOM      6  O   UNL     1       2.808  -0.619   0.000  0.00  0.00    +0.000 OA
ATOM      7  C   UNL     1       2.808   0.206   0.000  0.00  0.00    +0.000 C 
ENDBRANCH   4   7
ENDBRANCH   3   4
ENDBRANCH   2   3
ENDBRANCH   1   2
BRANCH   1   8
ATOM      8  C   UNL     1       6.380   0.619   0.000  0.00  0.00    +0.000 C 
BRANCH   8   9
ATOM      9  C   UNL     1       7.094   0.206   0.000  0.00  0.00    +0.000 C 
BRANCH   9  10
ATOM     10  C   UNL     1       7.809   0.619   0.000  0.00  0.00    +0.000 C 
BRANCH  10  13
ATOM     11  O   UNL     1       9.238   0.619   0.000  0.00  0.00    +0.000 OA
ATOM     12  O   UNL     1       8.523  -0.619   0.000  0.00  0.00    +0.000 OA
ATOM     13  C   UNL     1       8.523   0.206   0.000  0.00  0.00    +0.000 C 
ENDBRANCH  10  13
ENDBRANCH   9  10
ENDBRANCH   8   9
ENDBRANCH   1   8
TORSDOF 8
