REMARK  Name = 550
REMARK  8 active torsions:
REMARK  status: ('A' for Active; 'I' for Inactive)
REMARK    1  A    between atoms: O_3  and  C_9
REMARK    2  A    between atoms: O_5  and  C_17
REMARK    3  A    between atoms: O_5  and  C_20
REMARK    4  A    between atoms: C_6  and  C_11
REMARK    5  A    between atoms: C_7  and  C_9
REMARK    6  A    between atoms: C_7  and  C_10
REMARK    7  A    between atoms: C_10  and  C_14
REMARK    8  A    between atoms: C_20  and  C_21
REMARK                            x       y       z     vdW  Elec       q    Type
REMARK                         _______ _______ _______ _____ _____    ______ ____
ROOT
ATOM      1  C   UNL     1      -0.713  -0.252   0.000  0.00  0.00    +0.000 A 
ATOM      2  C   UNL     1       0.002   0.161   0.000  0.00  0.00    +0.000 A 
ATOM      3  C   UNL     1       0.716  -0.252   0.000  0.00  0.00    +0.000 A 
ATOM      4  C   UNL     1       0.716  -1.077   0.000  0.00  0.00    +0.000 A 
ATOM      5  C   UNL     1       0.002  -1.489   0.000  0.00  0.00    +0.000 A 
ATOM      6  C   UNL     1      -0.713  -1.077   0.000  0.00  0.00    +0.000 A 
ENDROOT
BRANCH   4   7
ATOM      7  O   UNL     1       1.431  -1.489   0.000  0.00  0.00    +0.000 OA
BRANCH   7   8
ATOM      8  C   UNL     1       2.145  -1.077   0.000  0.00  0.00    +0.000 C 
BRANCH   8   9
ATOM      9  C   UNL     1       2.145  -0.252   0.000  0.00  0.00    +0.000 A 
ATOM     10  C   UNL     1       1.431   0.161   0.000  0.00  0.00    +0.000 A 
ATOM     11  C   UNL     1       1.431   0.986   0.000  0.00  0.00    +0.000 A 
ATOM     12  N   UNL     1       2.145   1.398   0.000  0.00  0.00    +0.000 NA
ATOM     13  C   UNL     1       2.860   0.161   0.000  0.00  0.00    +0.000 A 
ATOM     14  C   UNL     1       2.860   0.986   0.000  0.00  0.00    +0.000 A 
ATOM     15  C   UNL     1       3.574   1.398   0.000  0.00  0.00    +0.000 A 
ATOM     16  C   UNL     1       4.288   0.986   0.000  0.00  0.00    +0.000 A 
ATOM     17  C   UNL     1       4.288   0.161   0.000  0.00  0.00    +0.000 A 
ATOM     18  C   UNL     1       3.574  -0.252   0.000  0.00  0.00    +0.000 A 
ATOM     19  C   UNL     1       0.716   1.398   0.000  0.00  0.00    +0.000 C 
ENDBRANCH   8   9
ENDBRANCH   7   8
ENDBRANCH   4   7
BRANCH   1  20
ATOM     20  C   UNL     1      -1.427   0.161   0.000  0.00  0.00    +0.000 C 
BRANCH  20  22
ATOM     21  C   UNL     1      -2.818  -0.725   0.000  0.00  0.00    +0.000 C 
ATOM     22  C   UNL     1      -2.142  -0.252   0.000  0.00  0.00    +0.000 C 
ATOM     23  C   UNL     1      -2.070  -1.074   0.000  0.00  0.00    +0.000 C 
BRANCH  21  26
ATOM     24  O   UNL     1      -4.113  -0.121   0.000  0.00  0.00    +0.000 OA
ATOM     25  O   UNL     1      -4.810  -1.617   0.000  0.00  0.00    +0.000 OA
ATOM     26  C   UNL     1      -3.639  -0.797   0.000  0.00  0.00    +0.000 C 
ATOM     27  N   UNL     1      -3.988  -1.544   0.000  0.00  0.00    +0.000 NA
ENDBRANCH  21  26
BRANCH  22  29
ATOM     28  O   UNL     1      -1.653   1.091   0.000  0.00  0.00    +0.000 OA
ATOM     29  C   UNL     1      -2.285   0.561   0.000  0.00  0.00    +0.000 C 
BRANCH  29  30
ATOM     30  O   UNL     1      -3.060   0.843   0.000  0.00  0.00    +0.000 OA
ATOM     31  C   UNL     1      -3.204   1.655   0.000  0.00  0.00    +0.000 C 
ENDBRANCH  29  30
ENDBRANCH  22  29
ENDBRANCH  20  22
ENDBRANCH   1  20
TORSDOF 8
