REMARK  Name = 550
REMARK  2 active torsions:
REMARK  status: ('A' for Active; 'I' for Inactive)
REMARK    1  A    between atoms: C_5  and  C_6
REMARK    2  A    between atoms: C_5  and  C_7
REMARK                            x       y       z     vdW  Elec       q    Type
REMARK                         _______ _______ _______ _____ _____    ______ ____
ROOT
ATOM      1  S   UNL     1       5.937  -0.982   0.000  0.00  0.00    +0.000 S 
ATOM      2  O   UNL     1       4.508   1.493   0.000  0.00  0.00    +0.000 OA
ATOM      3  N   UNL     1       4.508  -0.982   0.000  0.00  0.00    +0.000 NA
ATOM      4  N   UNL     1       5.222   0.256   0.000  0.00  0.00    +0.000 NA
ATOM      5  C   UNL     1       3.793  -0.569   0.000  0.00  0.00    +0.000 A 
ATOM      6  C   UNL     1       3.793   0.256   0.000  0.00  0.00    +0.000 A 
ATOM      7  C   UNL     1       5.222  -0.569   0.000  0.00  0.00    +0.000 A 
ATOM      8  C   UNL     1       4.508   0.668   0.000  0.00  0.00    +0.000 A 
ENDROOT
BRANCH   5   9
ATOM      9  C   UNL     1       3.079  -0.982   0.000  0.00  0.00    +0.000 C 
BRANCH   9  10
ATOM     10  C   UNL     1       2.365  -0.569   0.000  0.00  0.00    +0.000 C 
ATOM     11  C   UNL     1       1.650  -0.982   0.000  0.00  0.00    +0.000 C 
ENDBRANCH   9  10
ENDBRANCH   5   9
TORSDOF 2
