REMARK  Name = 5502
REMARK  6 active torsions:
REMARK  status: ('A' for Active; 'I' for Inactive)
REMARK    1  A    between atoms: O_1  and  C_16
REMARK    2  A    between atoms: O_2  and  C_17
REMARK    3  A    between atoms: O_3  and  C_22
REMARK    4  A    between atoms: O_4  and  C_24
REMARK    5  A    between atoms: C_7  and  C_9
REMARK    6  A    between atoms: C_13  and  C_19
REMARK                            x       y       z     vdW  Elec       q    Type
REMARK                         _______ _______ _______ _____ _____    ______ ____
ROOT
ATOM      1  N   UNL     1       4.891   1.850   0.000  0.00  0.00    +0.000 NA
ATOM      2  N   UNL     1       5.405   1.205   0.000  0.00  0.00    +0.000 NA
ATOM      3  C   UNL     1       3.552   1.205   0.000  0.00  0.00    +0.000 C 
ATOM      4  C   UNL     1       3.735   0.400   0.000  0.00  0.00    +0.000 A 
ATOM      5  C   UNL     1       4.479   0.042   0.000  0.00  0.00    +0.000 A 
ATOM      6  C   UNL     1       4.066   1.850   0.000  0.00  0.00    +0.000 C 
ATOM      7  C   UNL     1       3.018  -0.073   0.000  0.00  0.00    +0.000 A 
ATOM      8  C   UNL     1       5.222   0.400   0.000  0.00  0.00    +0.000 C 
ATOM      9  C   UNL     1       4.556  -0.814   0.000  0.00  0.00    +0.000 A 
ATOM     10  C   UNL     1       3.075  -0.930   0.000  0.00  0.00    +0.000 A 
ATOM     11  C   UNL     1       3.850  -1.303   0.000  0.00  0.00    +0.000 A 
ATOM     12  C   UNL     1       3.708   2.593   0.000  0.00  0.00    +0.000 C 
ENDROOT
BRANCH   8  13
ATOM     13  C   UNL     1       5.867  -0.114   0.000  0.00  0.00    +0.000 A 
ATOM     14  C   UNL     1       6.635   0.187   0.000  0.00  0.00    +0.000 A 
ATOM     15  C   UNL     1       5.744  -0.930   0.000  0.00  0.00    +0.000 A 
ATOM     16  C   UNL     1       7.280  -0.327   0.000  0.00  0.00    +0.000 A 
ATOM     17  C   UNL     1       6.389  -1.444   0.000  0.00  0.00    +0.000 A 
ATOM     18  C   UNL     1       7.157  -1.143   0.000  0.00  0.00    +0.000 A 
BRANCH  16  19
ATOM     19  O   UNL     1       8.048  -0.026   0.000  0.00  0.00    +0.000 OA
ATOM     20  C   UNL     1       8.171   0.790   0.000  0.00  0.00    +0.000 C 
ENDBRANCH  16  19
BRANCH  18  21
ATOM     21  O   UNL     1       7.802  -1.657   0.000  0.00  0.00    +0.000 OA
ATOM     22  C   UNL     1       7.679  -2.473   0.000  0.00  0.00    +0.000 C 
ENDBRANCH  18  21
ENDBRANCH   8  13
BRANCH  10  23
ATOM     23  O   UNL     1       2.392  -1.392   0.000  0.00  0.00    +0.000 OA
ATOM     24  C   UNL     1       1.650  -1.032   0.000  0.00  0.00    +0.000 C 
ENDBRANCH  10  23
BRANCH  11  25
ATOM     25  O   UNL     1       3.914  -2.126   0.000  0.00  0.00    +0.000 OA
ATOM     26  C   UNL     1       3.235  -2.593   0.000  0.00  0.00    +0.000 C 
ENDBRANCH  11  25
BRANCH   3  27
ATOM     27  C   UNL     1       2.747   1.388   0.000  0.00  0.00    +0.000 C 
ATOM     28  C   UNL     1       2.504   2.177   0.000  0.00  0.00    +0.000 C 
ENDBRANCH   3  27
TORSDOF 6
