REMARK  Name = 552
REMARK  4 active torsions:
REMARK  status: ('A' for Active; 'I' for Inactive)
REMARK    1  A    between atoms: C_6  and  C_7
REMARK    2  A    between atoms: C_18  and  O_19
REMARK    3  A    between atoms: O_19  and  C_20
REMARK    4  A    between atoms: C_20  and  C_21
REMARK                            x       y       z     vdW  Elec       q    Type
REMARK                         _______ _______ _______ _____ _____    ______ ____
ROOT
ATOM      1 CL   UNL     1      -0.123  -2.327   0.000  0.00  0.00    +0.000 Cl
ATOM      2  C   UNL     1      -0.123  -1.502   0.000  0.00  0.00    +0.000 A 
ATOM      3  N   UNL     1       0.592  -1.089   0.000  0.00  0.00    +0.000 NA
ATOM      4  C   UNL     1      -0.837  -1.089   0.000  0.00  0.00    +0.000 A 
ATOM      5  N   UNL     1      -0.837  -0.264   0.000  0.00  0.00    +0.000 N 
ATOM      6  C   UNL     1      -1.622  -0.009   0.000  0.00  0.00    +0.000 C 
ATOM      7  C   UNL     1      -2.107  -0.677   0.000  0.00  0.00    +0.000 C 
ATOM      8  C   UNL     1      -1.622  -1.344   0.000  0.00  0.00    +0.000 C 
ATOM      9  C   UNL     1      -0.123   0.148   0.000  0.00  0.00    +0.000 A 
ATOM     10  O   UNL     1      -0.123   0.973   0.000  0.00  0.00    +0.000 OA
ATOM     11  C   UNL     1       0.592  -0.264   0.000  0.00  0.00    +0.000 A 
ENDROOT
BRANCH   6  12
ATOM     12  C   UNL     1      -1.877   0.775   0.000  0.00  0.00    +0.000 C 
ATOM     13  N   UNL     1      -2.684   0.947   0.000  0.00  0.00    +0.000 N 
ATOM     14  C   UNL     1      -3.019   1.701   0.000  0.00  0.00    +0.000 C 
ATOM     15  C   UNL     1      -3.840   1.614   0.000  0.00  0.00    +0.000 C 
ATOM     16  C   UNL     1      -4.011   0.807   0.000  0.00  0.00    +0.000 C 
ATOM     17  C   UNL     1      -3.297   0.395   0.000  0.00  0.00    +0.000 C 
ATOM     18  O   UNL     1      -1.325   1.389   0.000  0.00  0.00    +0.000 OA
ENDBRANCH   6  12
BRANCH  11  19
ATOM     19  O   UNL     1       1.306   0.148   0.000  0.00  0.00    +0.000 OA
BRANCH  19  20
ATOM     20  C   UNL     1       2.021  -0.264   0.000  0.00  0.00    +0.000 C 
BRANCH  20  21
ATOM     21  C   UNL     1       2.735   0.148   0.000  0.00  0.00    +0.000 A 
ATOM     22  C   UNL     1       3.450  -0.264   0.000  0.00  0.00    +0.000 A 
ATOM     23  C   UNL     1       4.164   0.148   0.000  0.00  0.00    +0.000 A 
ATOM     24  C   UNL     1       2.735   0.973   0.000  0.00  0.00    +0.000 A 
ATOM     25  C   UNL     1       3.450   1.386   0.000  0.00  0.00    +0.000 A 
ATOM     26  C   UNL     1       4.164   0.973   0.000  0.00  0.00    +0.000 A 
ATOM     27  F   UNL     1       4.879   1.386   0.000  0.00  0.00    +0.000 F 
ENDBRANCH  20  21
ENDBRANCH  19  20
ENDBRANCH  11  19
TORSDOF 4
