REMARK  Name = 553
REMARK  3 active torsions:
REMARK  status: ('A' for Active; 'I' for Inactive)
REMARK    1  A    between atoms: C_5  and  C_6
REMARK    2  A    between atoms: C_6  and  C_7
REMARK    3  A    between atoms: C_13  and  C_14
REMARK                            x       y       z     vdW  Elec       q    Type
REMARK                         _______ _______ _______ _____ _____    ______ ____
ROOT
ATOM      1  O   UNL     1       1.171  -2.062   0.000  0.00  0.00    +0.000 OA
ATOM      2  C   UNL     1       1.171  -1.238   0.000  0.00  0.00    +0.000 C 
ATOM      3  N   UNL     1       1.885  -0.825   0.000  0.00  0.00    +0.000 NA
ATOM      4  C   UNL     1       1.885   0.000   0.000  0.00  0.00    +0.000 C 
ATOM      5  C   UNL     1       1.171   0.412   0.000  0.00  0.00    +0.000 C 
ATOM      6  C   UNL     1       0.456   0.000   0.000  0.00  0.00    +0.000 A 
ATOM      7  N   UNL     1      -0.328   0.255   0.000  0.00  0.00    +0.000 NA
ATOM      8  C   UNL     1       0.456  -0.825   0.000  0.00  0.00    +0.000 A 
ATOM      9  C   UNL     1      -0.328  -1.080   0.000  0.00  0.00    +0.000 A 
ATOM     10  C   UNL     1      -0.813  -0.412   0.000  0.00  0.00    +0.000 A 
ENDROOT
BRANCH  10  11
ATOM     11  C   UNL     1      -1.638  -0.412   0.000  0.00  0.00    +0.000 A 
ATOM     12  C   UNL     1      -2.051  -1.127   0.000  0.00  0.00    +0.000 A 
ATOM     13  C   UNL     1      -2.876  -1.127   0.000  0.00  0.00    +0.000 A 
ATOM     14  N   UNL     1      -2.051   0.302   0.000  0.00  0.00    +0.000 NA
ATOM     15  C   UNL     1      -2.876   0.302   0.000  0.00  0.00    +0.000 A 
ATOM     16  N   UNL     1      -3.288  -0.412   0.000  0.00  0.00    +0.000 NA
ATOM     17  N   UNL     1      -3.288   1.016   0.000  0.00  0.00    +0.000 NA
ENDBRANCH  10  11
BRANCH   5  18
ATOM     18  C   UNL     1       1.171   1.238   0.000  0.00  0.00    +0.000 C 
BRANCH  18  19
ATOM     19  C   UNL     1       1.885   1.650   0.000  0.00  0.00    +0.000 C 
ATOM     20  F   UNL     1       1.885   2.475   0.000  0.00  0.00    +0.000 F 
ENDBRANCH  18  19
ENDBRANCH   5  18
TORSDOF 3
