REMARK  Name = 555
REMARK  2 active torsions:
REMARK  status: ('A' for Active; 'I' for Inactive)
REMARK    1  A    between atoms: C_7  and  C_18
REMARK    2  A    between atoms: C_10  and  C_11
REMARK                            x       y       z     vdW  Elec       q    Type
REMARK                         _______ _______ _______ _____ _____    ______ ____
ROOT
ATOM      1  C   UNL     1      -0.983  -1.331   0.000  0.00  0.00    +0.000 A 
ATOM      2  C   UNL     1      -0.983  -2.156   0.000  0.00  0.00    +0.000 A 
ATOM      3  C   UNL     1      -0.268  -2.569   0.000  0.00  0.00    +0.000 A 
ATOM      4  C   UNL     1       0.446  -2.156   0.000  0.00  0.00    +0.000 A 
ATOM      5  C   UNL     1       0.446  -1.331   0.000  0.00  0.00    +0.000 A 
ATOM      6  C   UNL     1      -0.268  -0.919   0.000  0.00  0.00    +0.000 A 
ATOM      7  C   UNL     1       1.161  -0.919   0.000  0.00  0.00    +0.000 A 
ATOM      8  C   UNL     1       1.875  -1.331   0.000  0.00  0.00    +0.000 A 
ATOM      9  C   UNL     1       1.875  -2.156   0.000  0.00  0.00    +0.000 A 
ATOM     10  C   UNL     1       1.161  -2.569   0.000  0.00  0.00    +0.000 A 
ENDROOT
BRANCH  10  11
ATOM     11  C   UNL     1       1.161  -3.394   0.000  0.00  0.00    +0.000 A 
ATOM     12  C   UNL     1       0.446  -3.806   0.000  0.00  0.00    +0.000 A 
ATOM     13  C   UNL     1       0.446  -4.631   0.000  0.00  0.00    +0.000 A 
ATOM     14  C   UNL     1       1.161  -5.044   0.000  0.00  0.00    +0.000 A 
ATOM     15  C   UNL     1       1.875  -4.631   0.000  0.00  0.00    +0.000 A 
ATOM     16  C   UNL     1       1.875  -3.806   0.000  0.00  0.00    +0.000 A 
ATOM     17  O   UNL     1       1.161  -5.869   0.000  0.00  0.00    +0.000 OA
ENDBRANCH  10  11
BRANCH   7  18
ATOM     18  C   UNL     1       1.161  -0.094   0.000  0.00  0.00    +0.000 C 
ATOM     19  N   UNL     1       1.875   0.319   0.000  0.00  0.00    +0.000 NA
ATOM     20  O   UNL     1       1.875   1.144   0.000  0.00  0.00    +0.000 OA
ENDBRANCH   7  18
TORSDOF 2
