REMARK  Name = 555
REMARK  1 active torsions:
REMARK  status: ('A' for Active; 'I' for Inactive)
REMARK    1  A    between atoms: C_8  and  C_9
REMARK                            x       y       z     vdW  Elec       q    Type
REMARK                         _______ _______ _______ _____ _____    ______ ____
ROOT
ATOM      1 CL   UNL     1       4.951   0.953   0.000  0.00  0.00    +0.000 Cl
ATOM      2 CL   UNL     1       4.951   2.603   0.000  0.00  0.00    +0.000 Cl
ATOM      3  C   UNL     1       3.522   0.953   0.000  0.00  0.00    +0.000 A 
ATOM      4  C   UNL     1       4.237   1.365   0.000  0.00  0.00    +0.000 A 
ATOM      5  C   UNL     1       2.808   1.365   0.000  0.00  0.00    +0.000 A 
ATOM      6  C   UNL     1       4.237   2.190   0.000  0.00  0.00    +0.000 A 
ATOM      7  C   UNL     1       2.808   2.190   0.000  0.00  0.00    +0.000 A 
ATOM      8  C   UNL     1       3.522   2.603   0.000  0.00  0.00    +0.000 A 
ENDROOT
BRANCH   3  14
ATOM      9  N   UNL     1       4.237  -0.285   0.000  0.00  0.00    +0.000 NA
ATOM     10  N   UNL     1       2.808  -1.110   0.000  0.00  0.00    +0.000 NA
ATOM     11  N   UNL     1       2.093   0.128   0.000  0.00  0.00    +0.000 NA
ATOM     12  N   UNL     1       4.237  -1.110   0.000  0.00  0.00    +0.000 NA
ATOM     13  N   UNL     1       3.522  -2.347   0.000  0.00  0.00    +0.000 NA
ATOM     14  C   UNL     1       3.522   0.128   0.000  0.00  0.00    +0.000 A 
ATOM     15  C   UNL     1       2.808  -0.285   0.000  0.00  0.00    +0.000 A 
ATOM     16  C   UNL     1       3.522  -1.522   0.000  0.00  0.00    +0.000 A 
ENDBRANCH   3  14
TORSDOF 1
