REMARK  Name = 558
REMARK  6 active torsions:
REMARK  status: ('A' for Active; 'I' for Inactive)
REMARK    1  A    between atoms: N_8  and  C_13
REMARK    2  A    between atoms: N_9  and  C_15
REMARK    3  A    between atoms: C_12  and  C_14
REMARK    4  A    between atoms: C_14  and  C_16
REMARK    5  A    between atoms: C_16  and  C_19
REMARK    6  A    between atoms: C_18  and  C_21
REMARK                            x       y       z     vdW  Elec       q    Type
REMARK                         _______ _______ _______ _____ _____    ______ ____
ROOT
ATOM      1  O   UNL     1       4.951  -0.569   0.000  0.00  0.00    +0.000 OA
ATOM      2  C   UNL     1       4.951   0.256   0.000  0.00  0.00    +0.000 C 
ATOM      3  C   UNL     1       5.665   0.668   0.000  0.00  0.00    +0.000 C 
ATOM      4  C   UNL     1       6.380   0.256   0.000  0.00  0.00    +0.000 C 
ATOM      5  C   UNL     1       6.380  -0.569   0.000  0.00  0.00    +0.000 C 
ATOM      6  C   UNL     1       5.665  -0.982   0.000  0.00  0.00    +0.000 C 
ENDROOT
BRANCH   4   7
ATOM      7  N   UNL     1       7.094   0.668   0.000  0.00  0.00    +0.000 NA
ATOM      8  N   UNL     1       8.523   0.668   0.000  0.00  0.00    +0.000 NA
ATOM      9  N   UNL     1       7.809  -0.569   0.000  0.00  0.00    +0.000 NA
ATOM     10  C   UNL     1       7.809   0.256   0.000  0.00  0.00    +0.000 C 
ENDBRANCH   4   7
BRANCH   3  12
ATOM     11  O   UNL     1       7.094   1.493   0.000  0.00  0.00    +0.000 OA
ATOM     12  N   UNL     1       5.665   1.493   0.000  0.00  0.00    +0.000 NA
ATOM     13  C   UNL     1       6.380   1.906   0.000  0.00  0.00    +0.000 C 
ATOM     14  C   UNL     1       6.380   2.731   0.000  0.00  0.00    +0.000 C 
ENDBRANCH   3  12
BRANCH   6  17
ATOM     15  O   UNL     1       6.380  -2.219   0.000  0.00  0.00    +0.000 OA
ATOM     16  O   UNL     1       4.951  -2.219   0.000  0.00  0.00    +0.000 OA
ATOM     17  C   UNL     1       5.665  -1.807   0.000  0.00  0.00    +0.000 C 
ENDBRANCH   6  17
BRANCH   2  19
ATOM     18  O   UNL     1       4.237   1.493   0.000  0.00  0.00    +0.000 OA
ATOM     19  C   UNL     1       4.237   0.668   0.000  0.00  0.00    +0.000 C 
BRANCH  19  21
ATOM     20  O   UNL     1       3.522  -0.569   0.000  0.00  0.00    +0.000 OA
ATOM     21  C   UNL     1       3.522   0.256   0.000  0.00  0.00    +0.000 C 
BRANCH  21  23
ATOM     22  O   UNL     1       2.093   0.256   0.000  0.00  0.00    +0.000 OA
ATOM     23  C   UNL     1       2.808   0.668   0.000  0.00  0.00    +0.000 C 
ENDBRANCH  21  23
ENDBRANCH  19  21
ENDBRANCH   2  19
TORSDOF 6
