REMARK  Name = 559
REMARK  11 active torsions:
REMARK  status: ('A' for Active; 'I' for Inactive)
REMARK    1  A    between atoms: S_1  and  N_8
REMARK    2  A    between atoms: S_1  and  C_20
REMARK    3  A    between atoms: O_4  and  C_24
REMARK    4  A    between atoms: O_4  and  C_27
REMARK    5  A    between atoms: O_5  and  C_25
REMARK    6  A    between atoms: O_5  and  C_29
REMARK    7  A    between atoms: O_6  and  C_30
REMARK    8  A    between atoms: N_8  and  C_23
REMARK    9  A    between atoms: C_13  and  C_14
REMARK   10  A    between atoms: C_26  and  C_28
REMARK   11  A    between atoms: C_29  and  C_33
REMARK                            x       y       z     vdW  Elec       q    Type
REMARK                         _______ _______ _______ _____ _____    ______ ____
ROOT
ATOM      1  N   UNL     1       5.937  -0.229   0.000  0.00  0.00    +0.000 NA
ATOM      2  N   UNL     1       5.222  -1.467   0.000  0.00  0.00    +0.000 NA
ATOM      3  C   UNL     1       5.222   0.183   0.000  0.00  0.00    +0.000 A 
ATOM      4  C   UNL     1       4.508  -0.229   0.000  0.00  0.00    +0.000 A 
ATOM      5  C   UNL     1       4.508  -1.054   0.000  0.00  0.00    +0.000 A 
ATOM      6  C   UNL     1       5.937  -1.054   0.000  0.00  0.00    +0.000 A 
ENDROOT
BRANCH   6   9
ATOM      7  N   UNL     1       7.366  -1.054   0.000  0.00  0.00    +0.000 NA
ATOM      8  N   UNL     1       6.652  -2.292   0.000  0.00  0.00    +0.000 NA
ATOM      9  C   UNL     1       6.652  -1.467   0.000  0.00  0.00    +0.000 A 
ATOM     10  C   UNL     1       8.080  -1.467   0.000  0.00  0.00    +0.000 A 
ATOM     11  C   UNL     1       7.366  -2.704   0.000  0.00  0.00    +0.000 A 
ATOM     12  C   UNL     1       8.080  -2.292   0.000  0.00  0.00    +0.000 A 
ENDBRANCH   6   9
BRANCH   3  13
ATOM     13  N   UNL     1       5.222   1.008   0.000  0.00  0.00    +0.000 NA
BRANCH  13  14
ATOM     14  S   UNL     1       5.937   1.421   0.000  0.00  0.00    +0.000 S 
ATOM     15  O   UNL     1       6.349   0.706   0.000  0.00  0.00    +0.000 OA
ATOM     16  O   UNL     1       5.524   2.135   0.000  0.00  0.00    +0.000 OA
BRANCH  14  20
ATOM     17  C   UNL     1       8.080   2.658   0.000  0.00  0.00    +0.000 A 
ATOM     18  C   UNL     1       8.080   1.833   0.000  0.00  0.00    +0.000 A 
ATOM     19  C   UNL     1       7.366   3.071   0.000  0.00  0.00    +0.000 A 
ATOM     20  C   UNL     1       6.652   1.833   0.000  0.00  0.00    +0.000 A 
ATOM     21  C   UNL     1       7.366   1.421   0.000  0.00  0.00    +0.000 A 
ATOM     22  C   UNL     1       6.652   2.658   0.000  0.00  0.00    +0.000 A 
BRANCH  17  23
ATOM     23  C   UNL     1       8.795   3.071   0.000  0.00  0.00    +0.000 C 
ATOM     24  C   UNL     1       9.509   3.483   0.000  0.00  0.00    +0.000 C 
ATOM     25  C   UNL     1       8.382   3.785   0.000  0.00  0.00    +0.000 C 
ATOM     26  C   UNL     1       9.207   2.356   0.000  0.00  0.00    +0.000 C 
ENDBRANCH  17  23
ENDBRANCH  14  20
ENDBRANCH  13  14
ENDBRANCH   3  13
BRANCH   5  27
ATOM     27  O   UNL     1       3.793  -1.467   0.000  0.00  0.00    +0.000 OA
BRANCH  27  28
ATOM     28  C   UNL     1       3.793  -2.292   0.000  0.00  0.00    +0.000 C 
BRANCH  28  30
ATOM     29  O   UNL     1       3.079  -3.529   0.000  0.00  0.00    +0.000 OA
ATOM     30  C   UNL     1       3.079  -2.704   0.000  0.00  0.00    +0.000 C 
ENDBRANCH  28  30
ENDBRANCH  27  28
ENDBRANCH   5  27
BRANCH   4  31
ATOM     31  O   UNL     1       3.793   0.183   0.000  0.00  0.00    +0.000 OA
BRANCH  31  32
ATOM     32  C   UNL     1       3.079  -0.229   0.000  0.00  0.00    +0.000 A 
ATOM     33  C   UNL     1       2.365   0.183   0.000  0.00  0.00    +0.000 A 
ATOM     34  C   UNL     1       3.079  -1.054   0.000  0.00  0.00    +0.000 A 
ATOM     35  C   UNL     1       1.650  -0.229   0.000  0.00  0.00    +0.000 A 
ATOM     36  C   UNL     1       2.365  -1.467   0.000  0.00  0.00    +0.000 A 
ATOM     37  C   UNL     1       1.650  -1.054   0.000  0.00  0.00    +0.000 A 
BRANCH  33  38
ATOM     38  O   UNL     1       2.365   1.008   0.000  0.00  0.00    +0.000 OA
ATOM     39  C   UNL     1       1.650   1.421   0.000  0.00  0.00    +0.000 C 
ENDBRANCH  33  38
ENDBRANCH  31  32
ENDBRANCH   4  31
TORSDOF 11
