REMARK  Name = 55E
REMARK  2 active torsions:
REMARK  status: ('A' for Active; 'I' for Inactive)
REMARK    1  A    between atoms: C_4  and  C_5
REMARK    2  A    between atoms: C_14  and  C_16
REMARK                            x       y       z     vdW  Elec       q    Type
REMARK                         _______ _______ _______ _____ _____    ______ ____
ROOT
ATOM      1  O   UNL     1      -0.357  -2.670   0.000  0.00  0.00    +0.000 OA
ATOM      2  C   UNL     1      -0.357  -1.845   0.000  0.00  0.00    +0.000 C 
ATOM      3  N   UNL     1       0.357  -1.432   0.000  0.00  0.00    +0.000 NA
ATOM      4  C   UNL     1       0.357  -0.607   0.000  0.00  0.00    +0.000 C 
ATOM      5  C   UNL     1      -0.357  -0.195   0.000  0.00  0.00    +0.000 C 
ATOM      6  C   UNL     1      -1.072  -0.607   0.000  0.00  0.00    +0.000 C 
ATOM      7  N   UNL     1      -1.072  -1.432   0.000  0.00  0.00    +0.000 NA
ENDROOT
BRANCH   4   8
ATOM      8  C   UNL     1       1.072  -0.195   0.000  0.00  0.00    +0.000 A 
ATOM      9  C   UNL     1       1.072   0.630   0.000  0.00  0.00    +0.000 A 
ATOM     10  C   UNL     1       1.786   1.043   0.000  0.00  0.00    +0.000 A 
ATOM     11  C   UNL     1       1.786   1.868   0.000  0.00  0.00    +0.000 C 
ATOM     12  C   UNL     1       2.501   0.630   0.000  0.00  0.00    +0.000 A 
ATOM     13  O   UNL     1       3.215   1.043   0.000  0.00  0.00    +0.000 OA
ATOM     14  C   UNL     1       2.501  -0.195   0.000  0.00  0.00    +0.000 A 
ATOM     15  C   UNL     1       1.786  -0.607   0.000  0.00  0.00    +0.000 A 
ENDBRANCH   4   8
BRANCH   6  16
ATOM     16  C   UNL     1      -1.786  -0.195   0.000  0.00  0.00    +0.000 A 
ATOM     17  C   UNL     1      -1.786   0.630   0.000  0.00  0.00    +0.000 A 
ATOM     18  C   UNL     1      -2.501   1.043   0.000  0.00  0.00    +0.000 A 
ATOM     19  C   UNL     1      -3.215   0.630   0.000  0.00  0.00    +0.000 A 
ATOM     20  C   UNL     1      -3.215  -0.195   0.000  0.00  0.00    +0.000 A 
ATOM     21  C   UNL     1      -2.501  -0.607   0.000  0.00  0.00    +0.000 A 
ENDBRANCH   6  16
TORSDOF 2
