REMARK  Name = 55F
REMARK  2 active torsions:
REMARK  status: ('A' for Active; 'I' for Inactive)
REMARK    1  A    between atoms: C_9  and  C_11
REMARK    2  A    between atoms: C_12  and  C_16
REMARK                            x       y       z     vdW  Elec       q    Type
REMARK                         _______ _______ _______ _____ _____    ______ ____
ROOT
ATOM      1  C   UNL     1       0.164   0.440   0.000  0.00  0.00    +0.000 A 
ATOM      2  C   UNL     1       0.918   0.104   0.000  0.00  0.00    +0.000 A 
ATOM      3  N   UNL     1       1.470   0.718   0.000  0.00  0.00    +0.000 NA
ATOM      4  C   UNL     1       1.057   1.432   0.000  0.00  0.00    +0.000 A 
ATOM      5  N   UNL     1       0.250   1.260   0.000  0.00  0.00    +0.000 NA
ATOM      6  N   UNL     1       1.393   2.186   0.000  0.00  0.00    +0.000 NA
ATOM      7  C   UNL     1       0.908   2.853   0.000  0.00  0.00    +0.000 C 
ATOM      8  O   UNL     1       0.087   2.767   0.000  0.00  0.00    +0.000 OA
ATOM      9  C   UNL     1       1.243   3.607   0.000  0.00  0.00    +0.000 C 
ENDROOT
BRANCH   1  18
ATOM     10  C   UNL     1      -3.409   0.028   0.000  0.00  0.00    +0.000 A 
ATOM     11  C   UNL     1      -3.409  -0.797   0.000  0.00  0.00    +0.000 A 
ATOM     12  N   UNL     1      -2.694  -1.210   0.000  0.00  0.00    +0.000 NA
ATOM     13  C   UNL     1      -1.980  -0.797   0.000  0.00  0.00    +0.000 A 
ATOM     14  C   UNL     1      -1.980   0.028   0.000  0.00  0.00    +0.000 A 
ATOM     15  N   UNL     1      -2.694   0.440   0.000  0.00  0.00    +0.000 NA
ATOM     16  C   UNL     1      -1.265  -1.210   0.000  0.00  0.00    +0.000 A 
ATOM     17  C   UNL     1      -0.551  -0.797   0.000  0.00  0.00    +0.000 A 
ATOM     18  C   UNL     1      -0.551   0.028   0.000  0.00  0.00    +0.000 A 
ATOM     19  C   UNL     1      -1.265   0.440   0.000  0.00  0.00    +0.000 A 
ENDBRANCH   1  18
BRANCH   2  20
ATOM     20  C   UNL     1       1.089  -0.703   0.000  0.00  0.00    +0.000 A 
ATOM     21  C   UNL     1       1.874  -0.958   0.000  0.00  0.00    +0.000 A 
ATOM     22  C   UNL     1       2.045  -1.764   0.000  0.00  0.00    +0.000 A 
ATOM     23  C   UNL     1       1.432  -2.317   0.000  0.00  0.00    +0.000 A 
ATOM     24  C   UNL     1       0.647  -2.062   0.000  0.00  0.00    +0.000 A 
ATOM     25  N   UNL     1       0.476  -1.255   0.000  0.00  0.00    +0.000 NA
ATOM     26  C   UNL     1       0.034  -2.614   0.000  0.00  0.00    +0.000 C 
ATOM     27  F   UNL     1       1.604  -3.123   0.000  0.00  0.00    +0.000 F 
ENDBRANCH   2  20
TORSDOF 2
