REMARK  Name = 55V
REMARK  6 active torsions:
REMARK  status: ('A' for Active; 'I' for Inactive)
REMARK    1  A    between atoms: O_2  and  C_3
REMARK    2  A    between atoms: C_5  and  O_6
REMARK    3  A    between atoms: C_8  and  O_9
REMARK    4  A    between atoms: C_12  and  C_13
REMARK    5  A    between atoms: C_13  and  C_16
REMARK    6  A    between atoms: C_17  and  C_18
REMARK                            x       y       z     vdW  Elec       q    Type
REMARK                         _______ _______ _______ _____ _____    ______ ____
ROOT
ATOM      1  C   UNL     1      -0.055   0.139   0.000  0.00  0.00    +0.000 C 
ATOM      2  C   UNL     1       0.357  -0.576   0.000  0.00  0.00    +0.000 C 
ATOM      3  C   UNL     1      -0.468   0.853   0.000  0.00  0.00    +0.000 C 
ENDROOT
BRANCH   1   9
ATOM      4  C   UNL     1       1.374   1.788   0.000  0.00  0.00    +0.000 A 
ATOM      5  C   UNL     1       0.659   1.376   0.000  0.00  0.00    +0.000 A 
ATOM      6  C   UNL     1       2.088   1.376   0.000  0.00  0.00    +0.000 A 
ATOM      7  C   UNL     1       2.088   0.551   0.000  0.00  0.00    +0.000 A 
ATOM      8  C   UNL     1       1.374   0.139   0.000  0.00  0.00    +0.000 A 
ATOM      9  C   UNL     1       0.659   0.551   0.000  0.00  0.00    +0.000 A 
BRANCH   4  11
ATOM     10  C   UNL     1       0.659   3.026   0.000  0.00  0.00    +0.000 C 
ATOM     11  O   UNL     1       1.374   2.614   0.000  0.00  0.00    +0.000 OA
ENDBRANCH   4  11
BRANCH   6  12
ATOM     12  O   UNL     1       2.803   1.788   0.000  0.00  0.00    +0.000 OA
ATOM     13  C   UNL     1       3.517   1.376   0.000  0.00  0.00    +0.000 C 
ENDBRANCH   6  12
BRANCH   7  14
ATOM     14  O   UNL     1       2.803   0.139   0.000  0.00  0.00    +0.000 OA
ATOM     15  C   UNL     1       2.803  -0.686   0.000  0.00  0.00    +0.000 C 
ENDBRANCH   7  14
ENDBRANCH   1   9
BRANCH   1  16
ATOM     16  C   UNL     1      -0.770  -0.274   0.000  0.00  0.00    +0.000 C 
ATOM     17  C   UNL     1      -1.484  -0.686   0.000  0.00  0.00    +0.000 C 
BRANCH  17  18
ATOM     18  C   UNL     1      -2.199  -1.099   0.000  0.00  0.00    +0.000 A 
ATOM     19  C   UNL     1      -2.913  -0.686   0.000  0.00  0.00    +0.000 A 
ATOM     20  C   UNL     1      -2.913   0.139   0.000  0.00  0.00    +0.000 C 
ATOM     21  N   UNL     1      -3.628  -1.099   0.000  0.00  0.00    +0.000 NA
ATOM     22  C   UNL     1      -3.628  -1.924   0.000  0.00  0.00    +0.000 A 
ATOM     23  N   UNL     1      -4.342  -2.337   0.000  0.00  0.00    +0.000 NA
ATOM     24  N   UNL     1      -2.913  -2.337   0.000  0.00  0.00    +0.000 NA
ATOM     25  C   UNL     1      -2.199  -1.924   0.000  0.00  0.00    +0.000 A 
ATOM     26  N   UNL     1      -1.484  -2.337   0.000  0.00  0.00    +0.000 NA
ENDBRANCH  17  18
ENDBRANCH   1  16
TORSDOF 6
