REMARK  Name = 561
REMARK  6 active torsions:
REMARK  status: ('A' for Active; 'I' for Inactive)
REMARK    1  A    between atoms: N_3  and  C_13
REMARK    2  A    between atoms: N_4  and  C_12
REMARK    3  A    between atoms: C_5  and  C_8
REMARK    4  A    between atoms: C_6  and  C_10
REMARK    5  A    between atoms: C_6  and  C_11
REMARK    6  A    between atoms: C_8  and  C_12
REMARK                            x       y       z     vdW  Elec       q    Type
REMARK                         _______ _______ _______ _____ _____    ______ ____
ROOT
ATOM      1  O   UNL     1       3.061   1.121   0.000  0.00  0.00    +0.000 OA
ATOM      2  N   UNL     1       4.513   1.351   0.000  0.00  0.00    +0.000 N 
ATOM      3  C   UNL     1       4.926   0.081   0.000  0.00  0.00    +0.000 C 
ATOM      4  C   UNL     1       4.101   0.081   0.000  0.00  0.00    +0.000 C 
ATOM      5  C   UNL     1       5.181   0.866   0.000  0.00  0.00    +0.000 C 
ATOM      6  C   UNL     1       3.846   0.866   0.000  0.00  0.00    +0.000 C 
ENDROOT
BRANCH   4   7
ATOM      7  C   UNL     1       4.101  -0.744   0.000  0.00  0.00    +0.000 A 
ATOM      8  C   UNL     1       4.816  -1.156   0.000  0.00  0.00    +0.000 A 
ATOM      9  C   UNL     1       3.386  -1.156   0.000  0.00  0.00    +0.000 A 
ATOM     10  C   UNL     1       4.816  -1.981   0.000  0.00  0.00    +0.000 A 
ATOM     11  C   UNL     1       3.386  -1.981   0.000  0.00  0.00    +0.000 A 
ATOM     12  C   UNL     1       4.101  -2.394   0.000  0.00  0.00    +0.000 A 
ENDBRANCH   4   7
BRANCH   4  13
ATOM     13  C   UNL     1       3.284  -0.033   0.000  0.00  0.00    +0.000 A 
ATOM     14  C   UNL     1       2.975  -0.798   0.000  0.00  0.00    +0.000 A 
ATOM     15  C   UNL     1       2.776   0.617   0.000  0.00  0.00    +0.000 A 
ATOM     16  C   UNL     1       2.158  -0.913   0.000  0.00  0.00    +0.000 A 
ATOM     17  C   UNL     1       1.959   0.502   0.000  0.00  0.00    +0.000 A 
ATOM     18  C   UNL     1       1.650  -0.263   0.000  0.00  0.00    +0.000 A 
ENDBRANCH   4  13
BRANCH   2  19
ATOM     19  C   UNL     1       4.513   2.176   0.000  0.00  0.00    +0.000 C 
ATOM     20  C   UNL     1       5.228   2.588   0.000  0.00  0.00    +0.000 C 
ENDBRANCH   2  19
BRANCH   3  21
ATOM     21  C   UNL     1       5.411  -0.586   0.000  0.00  0.00    +0.000 C 
BRANCH  21  22
ATOM     22  C   UNL     1       6.231  -0.500   0.000  0.00  0.00    +0.000 C 
BRANCH  22  24
ATOM     23  O   UNL     1       7.686  -2.502   0.000  0.00  0.00    +0.000 OA
ATOM     24  N   UNL     1       6.716  -1.167   0.000  0.00  0.00    +0.000 NA
ATOM     25  C   UNL     1       6.381  -1.921   0.000  0.00  0.00    +0.000 C 
ATOM     26  C   UNL     1       7.537  -1.081   0.000  0.00  0.00    +0.000 C 
ATOM     27  C   UNL     1       6.866  -2.588   0.000  0.00  0.00    +0.000 C 
ATOM     28  C   UNL     1       8.022  -1.748   0.000  0.00  0.00    +0.000 C 
ENDBRANCH  22  24
ENDBRANCH  21  22
ENDBRANCH   3  21
TORSDOF 6
