REMARK  Name = 564
REMARK  0 active torsions:
REMARK  status: ('A' for Active; 'I' for Inactive)
REMARK                            x       y       z     vdW  Elec       q    Type
REMARK                         _______ _______ _______ _____ _____    ______ ____
ROOT
ATOM      1  O   UNL     1       4.554  -1.216   0.000  0.00  0.00    +0.000 OA
ATOM      2  N   UNL     1       3.868  -0.028   0.000  0.00  0.00    +0.000 N 
ATOM      3  N   UNL     1       3.182  -1.216   0.000  0.00  0.00    +0.000 NA
ATOM      4  C   UNL     1       4.581   0.316   0.000  0.00  0.00    +0.000 A 
ATOM      5  C   UNL     1       3.154   0.316   0.000  0.00  0.00    +0.000 A 
ATOM      6  C   UNL     1       4.758   1.088   0.000  0.00  0.00    +0.000 A 
ATOM      7  C   UNL     1       2.978   1.088   0.000  0.00  0.00    +0.000 A 
ATOM      8  C   UNL     1       4.264   1.707   0.000  0.00  0.00    +0.000 C 
ATOM      9  C   UNL     1       3.472   1.707   0.000  0.00  0.00    +0.000 C 
ATOM     10  C   UNL     1       5.177  -0.255   0.000  0.00  0.00    +0.000 A 
ATOM     11  C   UNL     1       2.558  -0.255   0.000  0.00  0.00    +0.000 A 
ATOM     12  C   UNL     1       5.542   1.343   0.000  0.00  0.00    +0.000 A 
ATOM     13  C   UNL     1       2.193   1.343   0.000  0.00  0.00    +0.000 A 
ATOM     14  C   UNL     1       3.868  -0.820   0.000  0.00  0.00    +0.000 C 
ATOM     15  C   UNL     1       5.968  -0.018   0.000  0.00  0.00    +0.000 A 
ATOM     16  C   UNL     1       1.768  -0.018   0.000  0.00  0.00    +0.000 A 
ATOM     17  C   UNL     1       6.151   0.787   0.000  0.00  0.00    +0.000 A 
ATOM     18  C   UNL     1       1.584   0.787   0.000  0.00  0.00    +0.000 A 
ENDROOT
TORSDOF 0
