REMARK  Name = 565
REMARK  4 active torsions:
REMARK  status: ('A' for Active; 'I' for Inactive)
REMARK    1  A    between atoms: C_3  and  C_9
REMARK    2  A    between atoms: C_9  and  C_10
REMARK    3  A    between atoms: C_10  and  C_11
REMARK    4  A    between atoms: C_11  and  C_12
REMARK                            x       y       z     vdW  Elec       q    Type
REMARK                         _______ _______ _______ _____ _____    ______ ____
ROOT
ATOM      1  C   UNL     1       1.268   0.598   0.000  0.00  0.00    +0.000 C 
ATOM      2  N   UNL     1       1.268  -0.227   0.000  0.00  0.00    +0.000 NA
ENDROOT
BRANCH   1   3
ATOM      3  C   UNL     1       0.554   1.011   0.000  0.00  0.00    +0.000 C 
BRANCH   3   6
ATOM      4  C   UNL     1      -1.590   0.598   0.000  0.00  0.00    +0.000 A 
ATOM      5  C   UNL     1      -0.875   1.011   0.000  0.00  0.00    +0.000 A 
ATOM      6  C   UNL     1      -0.161   0.598   0.000  0.00  0.00    +0.000 A 
ATOM      7  C   UNL     1      -0.161  -0.227   0.000  0.00  0.00    +0.000 A 
ATOM      8  C   UNL     1      -0.875  -0.639   0.000  0.00  0.00    +0.000 A 
ATOM      9  C   UNL     1      -1.590  -0.227   0.000  0.00  0.00    +0.000 A 
ATOM     10  F   UNL     1      -0.875  -1.464   0.000  0.00  0.00    +0.000 F 
ATOM     11  F   UNL     1      -0.875   1.836   0.000  0.00  0.00    +0.000 F 
ATOM     12  F   UNL     1      -2.304  -0.639   0.000  0.00  0.00    +0.000 F 
ENDBRANCH   3   6
ENDBRANCH   1   3
BRANCH   1  13
ATOM     13  C   UNL     1       1.983   1.011   0.000  0.00  0.00    +0.000 C 
BRANCH  13  14
ATOM     14  C   UNL     1       2.697   0.598   0.000  0.00  0.00    +0.000 C 
ATOM     15  N   UNL     1       3.412   1.011   0.000  0.00  0.00    +0.000 N 
ATOM     16  O   UNL     1       2.697  -0.227   0.000  0.00  0.00    +0.000 OA
ATOM     17  C   UNL     1       3.350   1.834   0.000  0.00  0.00    +0.000 C 
ATOM     18  C   UNL     1       3.955   2.395   0.000  0.00  0.00    +0.000 C 
ATOM     19  C   UNL     1       4.771   2.272   0.000  0.00  0.00    +0.000 C 
ATOM     20  N   UNL     1       5.183   1.557   0.000  0.00  0.00    +0.000 NA
ATOM     21  C   UNL     1       4.882   0.789   0.000  0.00  0.00    +0.000 C 
ATOM     22  C   UNL     1       4.093   0.546   0.000  0.00  0.00    +0.000 C 
ATOM     23  C   UNL     1       3.970  -0.270   0.000  0.00  0.00    +0.000 C 
ATOM     24  O   UNL     1       5.443   0.184   0.000  0.00  0.00    +0.000 OA
ENDBRANCH  13  14
ENDBRANCH   1  13
TORSDOF 4
