REMARK  Name = 566
REMARK  3 active torsions:
REMARK  status: ('A' for Active; 'I' for Inactive)
REMARK    1  A    between atoms: C_3  and  N_11
REMARK    2  A    between atoms: C_9  and  C_18
REMARK    3  A    between atoms: C_17  and  N_19
REMARK                            x       y       z     vdW  Elec       q    Type
REMARK                         _______ _______ _______ _____ _____    ______ ____
ROOT
ATOM      1  C   UNL     1       0.417  -0.914   0.000  0.00  0.00    +0.000 C 
ATOM      2  C   UNL     1      -0.408  -0.914   0.000  0.00  0.00    +0.000 C 
ATOM      3  C   UNL     1      -0.663  -0.129   0.000  0.00  0.00    +0.000 C 
ATOM      4  C   UNL     1       0.005   0.356   0.000  0.00  0.00    +0.000 C 
ATOM      5  N   UNL     1       0.672  -0.129   0.000  0.00  0.00    +0.000 N 
ATOM      6  O   UNL     1       0.902  -1.581   0.000  0.00  0.00    +0.000 OA
ENDROOT
BRANCH   5   9
ATOM      7  C   UNL     1       2.854  -0.171   0.000  0.00  0.00    +0.000 C 
ATOM      8  C   UNL     1       2.070  -0.426   0.000  0.00  0.00    +0.000 C 
ATOM      9  C   UNL     1       1.457   0.126   0.000  0.00  0.00    +0.000 C 
ATOM     10  C   UNL     1       1.628   0.933   0.000  0.00  0.00    +0.000 C 
ATOM     11  C   UNL     1       2.413   1.188   0.000  0.00  0.00    +0.000 C 
ATOM     12  C   UNL     1       3.026   0.636   0.000  0.00  0.00    +0.000 C 
ENDBRANCH   5   9
BRANCH   3  13
ATOM     13  C   UNL     1      -1.447   0.126   0.000  0.00  0.00    +0.000 C 
ATOM     14  N   UNL     1      -2.060  -0.426   0.000  0.00  0.00    +0.000 NA
ATOM     15  O   UNL     1      -1.619   0.933   0.000  0.00  0.00    +0.000 OA
BRANCH  14  21
ATOM     16  C   UNL     1      -3.458  -0.723   0.000  0.00  0.00    +0.000 A 
ATOM     17  C   UNL     1      -4.243  -0.468   0.000  0.00  0.00    +0.000 A 
ATOM     18  C   UNL     1      -4.414   0.339   0.000  0.00  0.00    +0.000 A 
ATOM     19  C   UNL     1      -3.801   0.891   0.000  0.00  0.00    +0.000 A 
ATOM     20  C   UNL     1      -3.017   0.636   0.000  0.00  0.00    +0.000 A 
ATOM     21  C   UNL     1      -2.845  -0.171   0.000  0.00  0.00    +0.000 A 
ENDBRANCH  14  21
ENDBRANCH   3  13
TORSDOF 3
