REMARK  Name = 573
REMARK  4 active torsions:
REMARK  status: ('A' for Active; 'I' for Inactive)
REMARK    1  A    between atoms: O_1  and  C_9
REMARK    2  A    between atoms: O_1  and  C_13
REMARK    3  A    between atoms: C_4  and  C_5
REMARK    4  A    between atoms: C_4  and  C_10
REMARK                            x       y       z     vdW  Elec       q    Type
REMARK                         _______ _______ _______ _____ _____    ______ ____
ROOT
ATOM      1  C   UNL     1       3.793   0.903   0.000  0.00  0.00    +0.000 A 
ATOM      2  C   UNL     1       3.079   0.491   0.000  0.00  0.00    +0.000 A 
ATOM      3  C   UNL     1       4.508   0.491   0.000  0.00  0.00    +0.000 A 
ATOM      4  C   UNL     1       3.079  -0.334   0.000  0.00  0.00    +0.000 A 
ATOM      5  C   UNL     1       4.508  -0.334   0.000  0.00  0.00    +0.000 A 
ATOM      6  C   UNL     1       3.793  -0.747   0.000  0.00  0.00    +0.000 A 
ENDROOT
BRANCH   1   7
ATOM      7  C   UNL     1       3.793   1.728   0.000  0.00  0.00    +0.000 C 
ATOM      8  C   UNL     1       3.079   2.141   0.000  0.00  0.00    +0.000 C 
BRANCH   7  11
ATOM      9  O   UNL     1       4.508   2.966   0.000  0.00  0.00    +0.000 OA
ATOM     10  O   UNL     1       5.222   1.728   0.000  0.00  0.00    +0.000 OA
ATOM     11  C   UNL     1       4.508   2.141   0.000  0.00  0.00    +0.000 C 
ENDBRANCH   7  11
ENDBRANCH   1   7
BRANCH   4  12
ATOM     12  O   UNL     1       2.365  -0.747   0.000  0.00  0.00    +0.000 OA
BRANCH  12  13
ATOM     13  C   UNL     1       2.365  -1.572   0.000  0.00  0.00    +0.000 A 
ATOM     14  C   UNL     1       3.079  -1.984   0.000  0.00  0.00    +0.000 A 
ATOM     15  C   UNL     1       1.650  -1.984   0.000  0.00  0.00    +0.000 A 
ATOM     16  C   UNL     1       3.079  -2.809   0.000  0.00  0.00    +0.000 A 
ATOM     17  C   UNL     1       1.650  -2.809   0.000  0.00  0.00    +0.000 A 
ATOM     18  C   UNL     1       2.365  -3.222   0.000  0.00  0.00    +0.000 A 
ENDBRANCH  12  13
ENDBRANCH   4  12
TORSDOF 4
