REMARK  Name = 575
REMARK  1 active torsions:
REMARK  status: ('A' for Active; 'I' for Inactive)
REMARK    1  A    between atoms: N_4  and  C_9
REMARK                            x       y       z     vdW  Elec       q    Type
REMARK                         _______ _______ _______ _____ _____    ______ ____
ROOT
ATOM      1 CL   UNL     1       4.508  -0.375   0.000  0.00  0.00    +0.000 Cl
ATOM      2 CL   UNL     1       1.650  -0.375   0.000  0.00  0.00    +0.000 Cl
ATOM      3  C   UNL     1       3.079  -0.375   0.000  0.00  0.00    +0.000 A 
ATOM      4  C   UNL     1       3.793  -0.788   0.000  0.00  0.00    +0.000 A 
ATOM      5  C   UNL     1       2.365  -0.788   0.000  0.00  0.00    +0.000 A 
ATOM      6  C   UNL     1       3.793  -1.613   0.000  0.00  0.00    +0.000 A 
ATOM      7  C   UNL     1       2.365  -1.613   0.000  0.00  0.00    +0.000 A 
ATOM      8  C   UNL     1       3.079  -2.025   0.000  0.00  0.00    +0.000 A 
ENDROOT
BRANCH   3  10
ATOM      9  N   UNL     1       3.880   1.683   0.000  0.00  0.00    +0.000 NA
ATOM     10  N   UNL     1       3.079   0.450   0.000  0.00  0.00    +0.000 NA
ATOM     11  N   UNL     1       4.547   0.527   0.000  0.00  0.00    +0.000 NA
ATOM     12  C   UNL     1       4.687   1.854   0.000  0.00  0.00    +0.000 C 
ATOM     13  C   UNL     1       5.099   1.140   0.000  0.00  0.00    +0.000 C 
ATOM     14  C   UNL     1       3.793   0.862   0.000  0.00  0.00    +0.000 C 
ENDBRANCH   3  10
TORSDOF 1
