REMARK  Name = 577
REMARK  8 active torsions:
REMARK  status: ('A' for Active; 'I' for Inactive)
REMARK    1  A    between atoms: O_1  and  C_15
REMARK    2  A    between atoms: O_1  and  C_18
REMARK    3  A    between atoms: O_2  and  C_17
REMARK    4  A    between atoms: O_2  and  C_20
REMARK    5  A    between atoms: N_5  and  C_17
REMARK    6  A    between atoms: C_11  and  C_12
REMARK    7  A    between atoms: C_12  and  C_15
REMARK    8  A    between atoms: C_18  and  C_20
REMARK                            x       y       z     vdW  Elec       q    Type
REMARK                         _______ _______ _______ _____ _____    ______ ____
ROOT
ATOM      1  C   UNL     1       5.273  -0.433   0.000  0.00  0.00    +0.000 C 
ENDROOT
BRANCH   1   3
ATOM      2  O   UNL     1       3.522  -3.531   0.000  0.00  0.00    +0.000 OA
ATOM      3  N   UNL     1       5.017  -1.217   0.000  0.00  0.00    +0.000 N 
ATOM      4  N   UNL     1       3.522  -1.056   0.000  0.00  0.00    +0.000 NA
ATOM      5  N   UNL     1       5.017  -2.545   0.000  0.00  0.00    +0.000 NA
ATOM      6  N   UNL     1       2.808  -2.293   0.000  0.00  0.00    +0.000 NA
ATOM      7  N   UNL     1       2.093  -1.056   0.000  0.00  0.00    +0.000 NA
ATOM      8  C   UNL     1       4.237  -1.468   0.000  0.00  0.00    +0.000 A 
ATOM      9  C   UNL     1       4.237  -2.293   0.000  0.00  0.00    +0.000 A 
ATOM     10  C   UNL     1       5.499  -1.881   0.000  0.00  0.00    +0.000 A 
ATOM     11  C   UNL     1       3.522  -2.706   0.000  0.00  0.00    +0.000 A 
ATOM     12  C   UNL     1       2.808  -1.468   0.000  0.00  0.00    +0.000 A 
ENDBRANCH   1   3
BRANCH   1  13
ATOM     13  O   UNL     1       6.081  -0.262   0.000  0.00  0.00    +0.000 OA
BRANCH  13  14
ATOM     14  C   UNL     1       6.337   0.522   0.000  0.00  0.00    +0.000 C 
BRANCH  14  15
ATOM     15  C   UNL     1       7.144   0.692   0.000  0.00  0.00    +0.000 C 
BRANCH  15  16
ATOM     16  O   UNL     1       7.401   1.476   0.000  0.00  0.00    +0.000 OA
BRANCH  16  18
ATOM     17  O   UNL     1       8.759   1.032   0.000  0.00  0.00    +0.000 OA
ATOM     18  C   UNL     1       8.208   1.646   0.000  0.00  0.00    +0.000 C 
BRANCH  18  20
ATOM     19  N   UNL     1       7.913   3.045   0.000  0.00  0.00    +0.000 NA
ATOM     20  C   UNL     1       8.464   2.430   0.000  0.00  0.00    +0.000 C 
BRANCH  20  21
ATOM     21  C   UNL     1       9.271   2.600   0.000  0.00  0.00    +0.000 C 
ATOM     22  C   UNL     1       9.822   1.986   0.000  0.00  0.00    +0.000 C 
ATOM     23  C   UNL     1       9.528   3.385   0.000  0.00  0.00    +0.000 C 
ENDBRANCH  20  21
ENDBRANCH  18  20
ENDBRANCH  16  18
ENDBRANCH  15  16
ENDBRANCH  14  15
ENDBRANCH  13  14
ENDBRANCH   1  13
TORSDOF 8
