REMARK  Name = 578
REMARK  11 active torsions:
REMARK  status: ('A' for Active; 'I' for Inactive)
REMARK    1  A    between atoms: C_6  and  C_7
REMARK    2  A    between atoms: C_7  and  O_8
REMARK    3  A    between atoms: O_8  and  C_9
REMARK    4  A    between atoms: N_11  and  C_12
REMARK    5  A    between atoms: C_12  and  C_13
REMARK    6  A    between atoms: C_12  and  P_16
REMARK    7  A    between atoms: P_16  and  O_19
REMARK    8  A    between atoms: O_19  and  C_20
REMARK    9  A    between atoms: C_20  and  C_21
REMARK   10  A    between atoms: C_20  and  C_24
REMARK   11  A    between atoms: C_29  and  C_30
REMARK                            x       y       z     vdW  Elec       q    Type
REMARK                         _______ _______ _______ _____ _____    ______ ____
ROOT
ATOM      1  P   UNL     1       0.357  -0.216   0.000  0.00  0.00    +0.000 P 
ATOM      2  O   UNL     1      -0.113  -0.894   0.000  0.00  0.00    +0.000 OA
ATOM      3  O   UNL     1       0.827   0.462   0.000  0.00  0.00    +0.000 OA
ENDROOT
BRANCH   1   4
ATOM      4  C   UNL     1      -0.321   0.254   0.000  0.00  0.00    +0.000 C 
BRANCH   4   7
ATOM      5  C   UNL     1      -1.745   0.371   0.000  0.00  0.00    +0.000 C 
ATOM      6  O   UNL     1      -1.677   1.193   0.000  0.00  0.00    +0.000 OA
ATOM      7  N   UNL     1      -1.067  -0.099   0.000  0.00  0.00    +0.000 NA
BRANCH   5   8
ATOM      8  O   UNL     1      -2.491   0.019   0.000  0.00  0.00    +0.000 OA
BRANCH   8   9
ATOM      9  C   UNL     1      -3.169   0.489   0.000  0.00  0.00    +0.000 C 
BRANCH   9  15
ATOM     10  C   UNL     1      -4.593   0.606   0.000  0.00  0.00    +0.000 A 
ATOM     11  C   UNL     1      -5.339   0.254   0.000  0.00  0.00    +0.000 A 
ATOM     12  C   UNL     1      -5.407  -0.569   0.000  0.00  0.00    +0.000 A 
ATOM     13  C   UNL     1      -4.729  -1.038   0.000  0.00  0.00    +0.000 A 
ATOM     14  C   UNL     1      -3.983  -0.686   0.000  0.00  0.00    +0.000 A 
ATOM     15  C   UNL     1      -3.915   0.136   0.000  0.00  0.00    +0.000 A 
ENDBRANCH   9  15
ENDBRANCH   8   9
ENDBRANCH   5   8
ENDBRANCH   4   7
BRANCH   4  16
ATOM     16  C   UNL     1      -0.253   1.076   0.000  0.00  0.00    +0.000 C 
ATOM     17  C   UNL     1      -0.931   1.546   0.000  0.00  0.00    +0.000 C 
ATOM     18  C   UNL     1       0.493   1.428   0.000  0.00  0.00    +0.000 C 
ENDBRANCH   4  16
ENDBRANCH   1   4
BRANCH   1  19
ATOM     19  O   UNL     1       1.036  -0.686   0.000  0.00  0.00    +0.000 OA
BRANCH  19  20
ATOM     20  C   UNL     1       1.782  -0.334   0.000  0.00  0.00    +0.000 C 
BRANCH  20  21
ATOM     21  C   UNL     1       2.460  -0.803   0.000  0.00  0.00    +0.000 A 
ATOM     22  C   UNL     1       3.206  -0.451   0.000  0.00  0.00    +0.000 A 
ATOM     23  C   UNL     1       2.392  -1.626   0.000  0.00  0.00    +0.000 A 
ATOM     24  C   UNL     1       3.070  -2.095   0.000  0.00  0.00    +0.000 A 
ATOM     25  C   UNL     1       3.816  -1.743   0.000  0.00  0.00    +0.000 A 
ATOM     26  C   UNL     1       3.884  -0.921   0.000  0.00  0.00    +0.000 A 
BRANCH  26  27
ATOM     27  C   UNL     1       4.630  -0.569   0.000  0.00  0.00    +0.000 C 
ATOM     28  N   UNL     1       4.697   0.254   0.000  0.00  0.00    +0.000 NA
ENDBRANCH  26  27
ENDBRANCH  20  21
BRANCH  20  29
ATOM     29  C   UNL     1       1.849   0.489   0.000  0.00  0.00    +0.000 C 
ATOM     30  O   UNL     1       1.171   0.958   0.000  0.00  0.00    +0.000 OA
ATOM     31  O   UNL     1       2.595   0.841   0.000  0.00  0.00    +0.000 OA
ENDBRANCH  20  29
ENDBRANCH  19  20
ENDBRANCH   1  19
TORSDOF 11
