REMARK  Name = 578
REMARK  5 active torsions:
REMARK  status: ('A' for Active; 'I' for Inactive)
REMARK    1  A    between atoms: N_9  and  CA_13
REMARK    2  A    between atoms: CA_12  and  C_17
REMARK    3  A    between atoms: C_18  and  C_19
REMARK    4  A    between atoms: C_19  and  C_20
REMARK    5  A    between atoms: C_19  and  C_21
REMARK                            x       y       z     vdW  Elec       q    Type
REMARK                         _______ _______ _______ _____ _____    ______ ____
ROOT
ATOM      1  O   UNL     1       4.409  -0.356   0.000  0.00  0.00    +0.000 OA
ATOM      2  N   UNL     1       5.421   0.652   0.000  0.00  0.00    +0.000 NA
ATOM      3  C   UNL     1       4.624   0.440   0.000  0.00  0.00    +0.000 C 
ENDROOT
BRANCH   2  10
ATOM      4  S   UNL     1       7.620   0.319   0.000  0.00  0.00    +0.000 S 
ATOM      5  O   UNL     1       5.421  -1.349   0.000  0.00  0.00    +0.000 OA
ATOM      6  N   UNL     1       6.835  -0.761   0.000  0.00  0.00    +0.000 N 
ATOM      7  C   UNL     1       6.835   0.064   0.000  0.00  0.00    +0.000 C 
ATOM      8  C   UNL     1       8.105  -0.348   0.000  0.00  0.00    +0.000 C 
ATOM      9  CA  UNL     1       7.620  -1.016   0.000  0.00  0.00    +0.000 C 
ATOM     10  CA  UNL     1       6.004   0.068   0.000  0.00  0.00    +0.000 C 
ATOM     11  C   UNL     1       6.004  -0.764   0.000  0.00  0.00    +0.000 C 
ATOM     12  C   UNL     1       8.772   0.137   0.000  0.00  0.00    +0.000 C 
ATOM     13  C   UNL     1       8.772  -0.833   0.000  0.00  0.00    +0.000 C 
BRANCH   9  16
ATOM     14  O   UNL     1       7.323  -2.413   0.000  0.00  0.00    +0.000 OA
ATOM     15  OXT UNL     1       8.682  -1.972   0.000  0.00  0.00    +0.000 OA
ATOM     16  C   UNL     1       7.875  -1.800   0.000  0.00  0.00    +0.000 C 
ENDBRANCH   9  16
ENDBRANCH   2  10
BRANCH   3  17
ATOM     17  C   UNL     1       4.042   1.025   0.000  0.00  0.00    +0.000 C 
BRANCH  17  18
ATOM     18  C   UNL     1       3.245   0.813   0.000  0.00  0.00    +0.000 A 
ATOM     19  C   UNL     1       3.030   0.017   0.000  0.00  0.00    +0.000 A 
ATOM     20  C   UNL     1       2.663   1.398   0.000  0.00  0.00    +0.000 A 
ATOM     21  C   UNL     1       2.232  -0.195   0.000  0.00  0.00    +0.000 A 
ATOM     22  C   UNL     1       1.865   1.186   0.000  0.00  0.00    +0.000 A 
ATOM     23  C   UNL     1       1.650   0.389   0.000  0.00  0.00    +0.000 A 
ENDBRANCH  17  18
BRANCH  17  26
ATOM     24  O   UNL     1       3.675   2.406   0.000  0.00  0.00    +0.000 OA
ATOM     25  O   UNL     1       5.054   2.033   0.000  0.00  0.00    +0.000 OA
ATOM     26  C   UNL     1       4.257   1.821   0.000  0.00  0.00    +0.000 C 
ENDBRANCH  17  26
ENDBRANCH   3  17
TORSDOF 5
