REMARK  Name = 579
REMARK  1 active torsions:
REMARK  status: ('A' for Active; 'I' for Inactive)
REMARK    1  A    between atoms: C_5  and  C_10
REMARK                            x       y       z     vdW  Elec       q    Type
REMARK                         _______ _______ _______ _____ _____    ______ ____
ROOT
ATOM      1  O   UNL     1       4.148   1.191   0.000  0.00  0.00    +0.000 OA
ATOM      2  N   UNL     1       4.402  -0.419   0.000  0.00  0.00    +0.000 N 
ATOM      3  N   UNL     1       3.990  -1.683   0.000  0.00  0.00    +0.000 NA
ATOM      4  C   UNL     1       4.148   0.366   0.000  0.00  0.00    +0.000 C 
ATOM      5  C   UNL     1       3.323   0.366   0.000  0.00  0.00    +0.000 A 
ATOM      6  C   UNL     1       3.735  -0.903   0.000  0.00  0.00    +0.000 C 
ATOM      7  C   UNL     1       5.065  -0.902   0.000  0.00  0.00    +0.000 C 
ATOM      8  C   UNL     1       3.068  -0.419   0.000  0.00  0.00    +0.000 A 
ATOM      9  C   UNL     1       4.811  -1.682   0.000  0.00  0.00    +0.000 C 
ATOM     10  C   UNL     1       2.757   1.013   0.000  0.00  0.00    +0.000 A 
ATOM     11  C   UNL     1       2.230  -0.610   0.000  0.00  0.00    +0.000 A 
ATOM     12  C   UNL     1       1.916   0.841   0.000  0.00  0.00    +0.000 A 
ATOM     13  C   UNL     1       1.650   0.024   0.000  0.00  0.00    +0.000 A 
ENDROOT
BRANCH   4  15
ATOM     14 CL   UNL     1       7.286   1.386   0.000  0.00  0.00    +0.000 Cl
ATOM     15  C   UNL     1       4.932   0.621   0.000  0.00  0.00    +0.000 A 
ATOM     16  C   UNL     1       5.104   1.428   0.000  0.00  0.00    +0.000 A 
ATOM     17  C   UNL     1       5.545   0.069   0.000  0.00  0.00    +0.000 A 
ATOM     18  C   UNL     1       5.888   1.683   0.000  0.00  0.00    +0.000 A 
ATOM     19  C   UNL     1       6.330   0.324   0.000  0.00  0.00    +0.000 A 
ATOM     20  C   UNL     1       6.501   1.131   0.000  0.00  0.00    +0.000 A 
ENDBRANCH   4  15
TORSDOF 1
