REMARK  Name = 580
REMARK  2 active torsions:
REMARK  status: ('A' for Active; 'I' for Inactive)
REMARK    1  A    between atoms: C_1  and  C_10
REMARK    2  A    between atoms: C_2  and  C_9
REMARK                            x       y       z     vdW  Elec       q    Type
REMARK                         _______ _______ _______ _____ _____    ______ ____
ROOT
ATOM      1  C   UNL     1       0.597  -0.095   0.000  0.00  0.00    +0.000 A 
ATOM      2  C   UNL     1       0.113  -0.762   0.000  0.00  0.00    +0.000 A 
ATOM      3  N   UNL     1       0.597  -1.430   0.000  0.00  0.00    +0.000 NA
ATOM      4  N   UNL     1       1.382  -1.175   0.000  0.00  0.00    +0.000 N 
ATOM      5  C   UNL     1       1.382  -0.350   0.000  0.00  0.00    +0.000 A 
ATOM      6  C   UNL     1       2.167  -1.430   0.000  0.00  0.00    +0.000 C 
ATOM      7  C   UNL     1       2.652  -0.762   0.000  0.00  0.00    +0.000 C 
ATOM      8  C   UNL     1       2.167  -0.095   0.000  0.00  0.00    +0.000 C 
ENDROOT
BRANCH   2   9
ATOM      9  C   UNL     1      -0.713  -0.762   0.000  0.00  0.00    +0.000 A 
ATOM     10  C   UNL     1      -1.125  -1.477   0.000  0.00  0.00    +0.000 A 
ATOM     11  C   UNL     1      -1.950  -1.477   0.000  0.00  0.00    +0.000 A 
ATOM     12  C   UNL     1      -2.362  -0.762   0.000  0.00  0.00    +0.000 A 
ATOM     13  C   UNL     1      -1.950  -0.048   0.000  0.00  0.00    +0.000 A 
ATOM     14  N   UNL     1      -1.125  -0.048   0.000  0.00  0.00    +0.000 NA
ATOM     15  C   UNL     1      -2.362   0.666   0.000  0.00  0.00    +0.000 C 
ENDBRANCH   2   9
BRANCH   1  16
ATOM     16  C   UNL     1       0.342   0.690   0.000  0.00  0.00    +0.000 A 
ATOM     17  C   UNL     1      -0.465   0.861   0.000  0.00  0.00    +0.000 A 
ATOM     18  C   UNL     1      -0.720   1.646   0.000  0.00  0.00    +0.000 A 
ATOM     19  C   UNL     1      -0.167   2.259   0.000  0.00  0.00    +0.000 A 
ATOM     20  C   UNL     1       0.639   2.087   0.000  0.00  0.00    +0.000 A 
ATOM     21  C   UNL     1       0.894   1.303   0.000  0.00  0.00    +0.000 A 
ATOM     22  F   UNL     1      -0.422   3.043   0.000  0.00  0.00    +0.000 F 
ENDBRANCH   1  16
TORSDOF 2
