REMARK  Name = 580
REMARK  3 active torsions:
REMARK  status: ('A' for Active; 'I' for Inactive)
REMARK    1  A    between atoms: S_1  and  C_11
REMARK    2  A    between atoms: C_7  and  C_8
REMARK    3  A    between atoms: C_9  and  C_14
REMARK                            x       y       z     vdW  Elec       q    Type
REMARK                         _______ _______ _______ _____ _____    ______ ____
ROOT
ATOM      1  O   UNL     1       2.690   2.825   0.000  0.00  0.00    +0.000 OA
ATOM      2  N   UNL     1       3.515   2.825   0.000  0.00  0.00    +0.000 NA
ATOM      3  C   UNL     1       3.102   1.556   0.000  0.00  0.00    +0.000 A 
ATOM      4  C   UNL     1       3.769   2.041   0.000  0.00  0.00    +0.000 A 
ATOM      5  C   UNL     1       2.435   2.041   0.000  0.00  0.00    +0.000 A 
ATOM      6  C   UNL     1       1.650   1.786   0.000  0.00  0.00    +0.000 C 
ENDROOT
BRANCH   3   7
ATOM      7  C   UNL     1       3.102   0.731   0.000  0.00  0.00    +0.000 A 
ATOM      8  C   UNL     1       3.102  -0.919   0.000  0.00  0.00    +0.000 A 
ATOM      9  C   UNL     1       3.817   0.318   0.000  0.00  0.00    +0.000 A 
ATOM     10  C   UNL     1       2.388   0.318   0.000  0.00  0.00    +0.000 A 
ATOM     11  C   UNL     1       3.817  -0.507   0.000  0.00  0.00    +0.000 A 
ATOM     12  C   UNL     1       2.388  -0.507   0.000  0.00  0.00    +0.000 A 
BRANCH   8  13
ATOM     13  S   UNL     1       3.102  -1.744   0.000  0.00  0.00    +0.000 S 
ATOM     14  O   UNL     1       3.927  -1.744   0.000  0.00  0.00    +0.000 OA
ATOM     15  O   UNL     1       2.277  -1.744   0.000  0.00  0.00    +0.000 OA
ATOM     16  N   UNL     1       3.102  -2.569   0.000  0.00  0.00    +0.000 NA
ENDBRANCH   8  13
ENDBRANCH   3   7
BRANCH   4  17
ATOM     17  C   UNL     1       4.554   1.786   0.000  0.00  0.00    +0.000 A 
ATOM     18  C   UNL     1       5.167   2.338   0.000  0.00  0.00    +0.000 A 
ATOM     19  C   UNL     1       4.726   0.979   0.000  0.00  0.00    +0.000 A 
ATOM     20  C   UNL     1       5.952   2.083   0.000  0.00  0.00    +0.000 A 
ATOM     21  C   UNL     1       5.510   0.724   0.000  0.00  0.00    +0.000 A 
ATOM     22  C   UNL     1       6.123   1.276   0.000  0.00  0.00    +0.000 A 
ENDBRANCH   4  17
TORSDOF 3
