REMARK  Name = 581
REMARK  1 active torsions:
REMARK  status: ('A' for Active; 'I' for Inactive)
REMARK    1  A    between atoms: C_2  and  C_3
REMARK                            x       y       z     vdW  Elec       q    Type
REMARK                         _______ _______ _______ _____ _____    ______ ____
ROOT
ATOM      1  C   UNL     1      -2.180   1.072   0.000  0.00  0.00    +0.000 C 
ATOM      2  C   UNL     1      -1.768   0.357   0.000  0.00  0.00    +0.000 C 
ATOM      3  O   UNL     1      -0.943   0.357   0.000  0.00  0.00    +0.000 OA
ENDROOT
BRANCH   2   4
ATOM      4  C   UNL     1      -2.180  -0.357   0.000  0.00  0.00    +0.000 C 
ATOM      5  O   UNL     1      -1.768  -1.072   0.000  0.00  0.00    +0.000 OA
ATOM      6  O   UNL     1      -3.005  -0.357   0.000  0.00  0.00    +0.000 OA
ENDBRANCH   2   4
TORSDOF 1
