REMARK  Name = 581
REMARK  5 active torsions:
REMARK  status: ('A' for Active; 'I' for Inactive)
REMARK    1  A    between atoms: O_1  and  C_12
REMARK    2  A    between atoms: O_1  and  C_16
REMARK    3  A    between atoms: C_14  and  C_21
REMARK    4  A    between atoms: C_15  and  C_22
REMARK    5  A    between atoms: C_20  and  C_23
REMARK                            x       y       z     vdW  Elec       q    Type
REMARK                         _______ _______ _______ _____ _____    ______ ____
ROOT
ATOM      1  O   UNL     1       5.665  -0.556   0.000  0.00  0.00    +0.000 OA
ENDROOT
BRANCH   1   6
ATOM      2  O   UNL     1       4.237  -0.556   0.000  0.00  0.00    +0.000 OA
ATOM      3  O   UNL     1       5.665  -2.206   0.000  0.00  0.00    +0.000 OA
ATOM      4  O   UNL     1       4.237  -3.031   0.000  0.00  0.00    +0.000 OA
ATOM      5  O   UNL     1       2.808  -2.206   0.000  0.00  0.00    +0.000 OA
ATOM      6  C   UNL     1       4.951  -0.969   0.000  0.00  0.00    +0.000 C 
ATOM      7  C   UNL     1       4.951  -1.794   0.000  0.00  0.00    +0.000 C 
ATOM      8  C   UNL     1       4.237  -2.206   0.000  0.00  0.00    +0.000 C 
ATOM      9  C   UNL     1       3.522  -1.794   0.000  0.00  0.00    +0.000 C 
ATOM     10  C   UNL     1       3.522  -0.969   0.000  0.00  0.00    +0.000 C 
BRANCH  10  12
ATOM     11  O   UNL     1       2.093  -0.969   0.000  0.00  0.00    +0.000 OA
ATOM     12  C   UNL     1       2.808  -0.556   0.000  0.00  0.00    +0.000 C 
ENDBRANCH  10  12
ENDBRANCH   1   6
BRANCH   1  16
ATOM     13  O   UNL     1       5.253   1.538   0.000  0.00  0.00    +0.000 OA
ATOM     14  O   UNL     1       7.117   0.499   0.000  0.00  0.00    +0.000 OA
ATOM     15  O   UNL     1       6.863   1.793   0.000  0.00  0.00    +0.000 OA
ATOM     16  C   UNL     1       5.665   0.269   0.000  0.00  0.00    +0.000 C 
ATOM     17  C   UNL     1       6.333   0.754   0.000  0.00  0.00    +0.000 C 
ATOM     18  C   UNL     1       4.998   0.754   0.000  0.00  0.00    +0.000 C 
ATOM     19  C   UNL     1       6.078   1.538   0.000  0.00  0.00    +0.000 C 
BRANCH  18  21
ATOM     20  O   UNL     1       3.600   1.051   0.000  0.00  0.00    +0.000 OA
ATOM     21  C   UNL     1       4.213   0.499   0.000  0.00  0.00    +0.000 C 
ENDBRANCH  18  21
BRANCH  19  23
ATOM     22  O   UNL     1       5.363   2.776   0.000  0.00  0.00    +0.000 OA
ATOM     23  C   UNL     1       6.078   2.363   0.000  0.00  0.00    +0.000 C 
ENDBRANCH  19  23
ENDBRANCH   1  16
TORSDOF 5
