REMARK  Name = 582
REMARK  1 active torsions:
REMARK  status: ('A' for Active; 'I' for Inactive)
REMARK    1  A    between atoms: N_7  and  C_12
REMARK                            x       y       z     vdW  Elec       q    Type
REMARK                         _______ _______ _______ _____ _____    ______ ____
ROOT
ATOM      1  C   UNL     1       1.879  -0.678   0.000  0.00  0.00    +0.000 A 
ATOM      2  C   UNL     1       1.445   0.023   0.000  0.00  0.00    +0.000 A 
ATOM      3  C   UNL     1       0.620  -0.003   0.000  0.00  0.00    +0.000 A 
ATOM      4  C   UNL     1       0.230  -0.730   0.000  0.00  0.00    +0.000 A 
ATOM      5  C   UNL     1       0.665  -1.431   0.000  0.00  0.00    +0.000 A 
ATOM      6  C   UNL     1       1.490  -1.405   0.000  0.00  0.00    +0.000 A 
ATOM      7  N   UNL     1       0.186   0.699   0.000  0.00  0.00    +0.000 N 
ATOM      8  C   UNL     1      -0.639   0.673   0.000  0.00  0.00    +0.000 A 
ATOM      9  C   UNL     1      -1.029  -0.054   0.000  0.00  0.00    +0.000 A 
ATOM     10  C   UNL     1      -0.594  -0.755   0.000  0.00  0.00    +0.000 A 
ATOM     11  O   UNL     1      -1.074   1.374   0.000  0.00  0.00    +0.000 OA
ATOM     12  N   UNL     1      -1.127  -1.385   0.000  0.00  0.00    +0.000 NA
ATOM     13  C   UNL     1      -1.830  -0.251   0.000  0.00  0.00    +0.000 A 
ATOM     14  C   UNL     1      -2.460   0.282   0.000  0.00  0.00    +0.000 C 
ATOM     15  N   UNL     1      -1.891  -1.074   0.000  0.00  0.00    +0.000 NA
ENDROOT
BRANCH   7  16
ATOM     16  C   UNL     1       0.576   1.425   0.000  0.00  0.00    +0.000 C 
ATOM     17  C   UNL     1       0.141   2.127   0.000  0.00  0.00    +0.000 C 
ENDBRANCH   7  16
TORSDOF 1
