REMARK  Name = 582
REMARK  5 active torsions:
REMARK  status: ('A' for Active; 'I' for Inactive)
REMARK    1  A    between atoms: N_5  and  C_12
REMARK    2  A    between atoms: C_10  and  C_11
REMARK    3  A    between atoms: C_10  and  C_12
REMARK    4  A    between atoms: C_10  and  C_13
REMARK    5  A    between atoms: C_11  and  C_15
REMARK                            x       y       z     vdW  Elec       q    Type
REMARK                         _______ _______ _______ _____ _____    ______ ____
ROOT
ATOM      1  O   UNL     1       2.254   0.412   0.000  0.00  0.00    +0.000 OA
ATOM      2  C   UNL     1       3.079   0.412   0.000  0.00  0.00    +0.000 C 
ENDROOT
BRANCH   2   5
ATOM      3  F   UNL     1       1.650  -0.412   0.000  0.00  0.00    +0.000 F 
ATOM      4  F   UNL     1       3.079  -2.888   0.000  0.00  0.00    +0.000 F 
ATOM      5  C   UNL     1       3.079  -0.412   0.000  0.00  0.00    +0.000 A 
ATOM      6  C   UNL     1       2.365  -0.825   0.000  0.00  0.00    +0.000 A 
ATOM      7  C   UNL     1       3.793  -0.825   0.000  0.00  0.00    +0.000 A 
ATOM      8  C   UNL     1       2.365  -1.650   0.000  0.00  0.00    +0.000 A 
ATOM      9  C   UNL     1       3.793  -1.650   0.000  0.00  0.00    +0.000 A 
ATOM     10  C   UNL     1       3.079  -2.062   0.000  0.00  0.00    +0.000 A 
ENDBRANCH   2   5
BRANCH   2  11
ATOM     11  C   UNL     1       3.079   1.238   0.000  0.00  0.00    +0.000 C 
ATOM     12  C   UNL     1       2.365   1.650   0.000  0.00  0.00    +0.000 C 
BRANCH  11  16
ATOM     13  F   UNL     1       4.508   0.412   0.000  0.00  0.00    +0.000 F 
ATOM     14  N   UNL     1       3.793   2.475   0.000  0.00  0.00    +0.000 NA
ATOM     15  N   UNL     1       5.222   2.475   0.000  0.00  0.00    +0.000 NA
ATOM     16  C   UNL     1       3.793   1.650   0.000  0.00  0.00    +0.000 A 
ATOM     17  C   UNL     1       4.508   1.238   0.000  0.00  0.00    +0.000 A 
ATOM     18  C   UNL     1       5.222   1.650   0.000  0.00  0.00    +0.000 A 
ATOM     19  C   UNL     1       4.508   2.888   0.000  0.00  0.00    +0.000 A 
ENDBRANCH  11  16
ENDBRANCH   2  11
BRANCH   2  20
ATOM     20  C   UNL     1       3.904   0.412   0.000  0.00  0.00    +0.000 C 
BRANCH  20  21
ATOM     21  N   UNL     1       4.536  -0.118   0.000  0.00  0.00    +0.000 N 
ATOM     22  N   UNL     1       5.336   0.082   0.000  0.00  0.00    +0.000 NA
ATOM     23  N   UNL     1       5.243  -1.250   0.000  0.00  0.00    +0.000 NA
ATOM     24  C   UNL     1       4.478  -0.941   0.000  0.00  0.00    +0.000 A 
ATOM     25  C   UNL     1       5.774  -0.618   0.000  0.00  0.00    +0.000 A 
ENDBRANCH  20  21
ENDBRANCH   2  20
TORSDOF 5
