REMARK  Name = 583
REMARK  4 active torsions:
REMARK  status: ('A' for Active; 'I' for Inactive)
REMARK    1  A    between atoms: N_4  and  C_5
REMARK    2  A    between atoms: C_5  and  C_6
REMARK    3  A    between atoms: C_6  and  C_10
REMARK    4  A    between atoms: C_10  and  C_11
REMARK                            x       y       z     vdW  Elec       q    Type
REMARK                         _______ _______ _______ _____ _____    ______ ____
ROOT
ATOM      1  O   UNL     1       3.793  -0.642   0.000  0.00  0.00    +0.000 OA
ATOM      2  C   UNL     1       3.793   0.183   0.000  0.00  0.00    +0.000 C 
ENDROOT
BRANCH   2   3
ATOM      3  C   UNL     1       3.079   0.596   0.000  0.00  0.00    +0.000 C 
BRANCH   3   4
ATOM      4  N   UNL     1       2.365   0.183   0.000  0.00  0.00    +0.000 N 
ATOM      5  C   UNL     1       1.650  -0.229   0.000  0.00  0.00    +0.000 C 
ATOM      6  C   UNL     1       1.952   0.898   0.000  0.00  0.00    +0.000 C 
ATOM      7  C   UNL     1       2.777  -0.531   0.000  0.00  0.00    +0.000 C 
ENDBRANCH   3   4
ENDBRANCH   2   3
BRANCH   2   8
ATOM      8  C   UNL     1       4.508   0.596   0.000  0.00  0.00    +0.000 C 
BRANCH   8  11
ATOM      9  O   UNL     1       5.937   0.596   0.000  0.00  0.00    +0.000 OA
ATOM     10  O   UNL     1       5.222  -0.642   0.000  0.00  0.00    +0.000 OA
ATOM     11  C   UNL     1       5.222   0.183   0.000  0.00  0.00    +0.000 C 
ENDBRANCH   8  11
ENDBRANCH   2   8
TORSDOF 4
