REMARK  Name = 586
REMARK  4 active torsions:
REMARK  status: ('A' for Active; 'I' for Inactive)
REMARK    1  A    between atoms: N_5  and  C_7
REMARK    2  A    between atoms: N_5  and  C_9
REMARK    3  A    between atoms: C_6  and  C_8
REMARK    4  A    between atoms: C_8  and  C_16
REMARK                            x       y       z     vdW  Elec       q    Type
REMARK                         _______ _______ _______ _____ _____    ______ ____
ROOT
ATOM      1  C   UNL     1       3.793   0.775   0.000  0.00  0.00    +0.000 A 
ATOM      2  C   UNL     1       3.793  -0.050   0.000  0.00  0.00    +0.000 A 
ATOM      3  C   UNL     1       4.508   1.188   0.000  0.00  0.00    +0.000 A 
ATOM      4  C   UNL     1       4.508  -0.462   0.000  0.00  0.00    +0.000 A 
ATOM      5  C   UNL     1       5.222   0.775   0.000  0.00  0.00    +0.000 A 
ATOM      6  C   UNL     1       5.222  -0.050   0.000  0.00  0.00    +0.000 A 
ENDROOT
BRANCH   2   7
ATOM      7  N   UNL     1       3.079  -0.462   0.000  0.00  0.00    +0.000 NA
BRANCH   7  10
ATOM      8 CL   UNL     1       4.508  -1.287   0.000  0.00  0.00    +0.000 Cl
ATOM      9 CL   UNL     1       1.650  -1.287   0.000  0.00  0.00    +0.000 Cl
ATOM     10  C   UNL     1       3.079  -1.287   0.000  0.00  0.00    +0.000 A 
ATOM     11  C   UNL     1       3.793  -1.700   0.000  0.00  0.00    +0.000 A 
ATOM     12  C   UNL     1       2.365  -1.700   0.000  0.00  0.00    +0.000 A 
ATOM     13  C   UNL     1       3.793  -2.525   0.000  0.00  0.00    +0.000 A 
ATOM     14  C   UNL     1       2.365  -2.525   0.000  0.00  0.00    +0.000 A 
ATOM     15  C   UNL     1       3.079  -2.937   0.000  0.00  0.00    +0.000 A 
ENDBRANCH   7  10
ENDBRANCH   2   7
BRANCH   1  16
ATOM     16  C   UNL     1       3.079   1.188   0.000  0.00  0.00    +0.000 C 
BRANCH  16  19
ATOM     17  O   UNL     1       2.365   2.426   0.000  0.00  0.00    +0.000 OA
ATOM     18  O   UNL     1       3.793   2.426   0.000  0.00  0.00    +0.000 OA
ATOM     19  C   UNL     1       3.079   2.013   0.000  0.00  0.00    +0.000 C 
ENDBRANCH  16  19
ENDBRANCH   1  16
TORSDOF 4
