REMARK  Name = 589
REMARK  3 active torsions:
REMARK  status: ('A' for Active; 'I' for Inactive)
REMARK    1  A    between atoms: N_3  and  C_9
REMARK    2  A    between atoms: N_5  and  C_22
REMARK    3  A    between atoms: N_5  and  C_23
REMARK                            x       y       z     vdW  Elec       q    Type
REMARK                         _______ _______ _______ _____ _____    ______ ____
ROOT
ATOM      1  N   UNL     1       5.998   0.477   0.000  0.00  0.00    +0.000 NA
ATOM      2  N   UNL     1       6.973  -2.919   0.000  0.00  0.00    +0.000 NA
ATOM      3  C   UNL     1       5.985  -0.382   0.000  0.00  0.00    +0.000 C 
ATOM      4  C   UNL     1       5.271  -0.795   0.000  0.00  0.00    +0.000 C 
ATOM      5  C   UNL     1       6.700  -0.795   0.000  0.00  0.00    +0.000 C 
ATOM      6  C   UNL     1       4.514   0.483   0.000  0.00  0.00    +0.000 C 
ATOM      7  C   UNL     1       5.258   0.912   0.000  0.00  0.00    +0.000 C 
ATOM      8  C   UNL     1       6.700  -1.619   0.000  0.00  0.00    +0.000 A 
ATOM      9  C   UNL     1       5.271  -1.619   0.000  0.00  0.00    +0.000 A 
ATOM     10  C   UNL     1       5.985  -2.032   0.000  0.00  0.00    +0.000 A 
ATOM     11  C   UNL     1       4.520  -0.377   0.000  0.00  0.00    +0.000 C 
ATOM     12  C   UNL     1       5.998  -2.891   0.000  0.00  0.00    +0.000 A 
ATOM     13  C   UNL     1       6.718   0.881   0.000  0.00  0.00    +0.000 C 
ATOM     14  C   UNL     1       7.308  -2.170   0.000  0.00  0.00    +0.000 A 
ATOM     15  C   UNL     1       4.520  -2.038   0.000  0.00  0.00    +0.000 A 
ATOM     16  C   UNL     1       5.258  -3.326   0.000  0.00  0.00    +0.000 A 
ATOM     17  C   UNL     1       4.514  -2.897   0.000  0.00  0.00    +0.000 A 
ENDROOT
BRANCH   6  19
ATOM     18  O   UNL     1       4.507   2.132   0.000  0.00  0.00    +0.000 OA
ATOM     19  N   UNL     1       3.798   0.892   0.000  0.00  0.00    +0.000 NA
ATOM     20  N   UNL     1       3.079   2.127   0.000  0.00  0.00    +0.000 N 
ATOM     21  C   UNL     1       3.795   1.717   0.000  0.00  0.00    +0.000 C 
BRANCH  20  22
ATOM     22  C   UNL     1       2.366   1.712   0.000  0.00  0.00    +0.000 C 
ATOM     23  C   UNL     1       1.650   2.121   0.000  0.00  0.00    +0.000 C 
ENDBRANCH  20  22
BRANCH  20  24
ATOM     24  C   UNL     1       3.075   2.952   0.000  0.00  0.00    +0.000 C 
ATOM     25  C   UNL     1       2.359   3.361   0.000  0.00  0.00    +0.000 C 
ENDBRANCH  20  24
ENDBRANCH   6  19
TORSDOF 3
