REMARK  Name = 590
REMARK  3 active torsions:
REMARK  status: ('A' for Active; 'I' for Inactive)
REMARK    1  A    between atoms: O_4  and  C_28
REMARK    2  A    between atoms: O_5  and  C_29
REMARK    3  A    between atoms: C_15  and  C_16
REMARK                            x       y       z     vdW  Elec       q    Type
REMARK                         _______ _______ _______ _____ _____    ______ ____
ROOT
ATOM      1  O   UNL     1       5.278   2.396   0.000  0.00  0.00    +0.000 OA
ATOM      2  N   UNL     1       5.992   1.159   0.000  0.00  0.00    +0.000 N 
ATOM      3  N   UNL     1       7.421   0.334   0.000  0.00  0.00    +0.000 N 
ATOM      4  N   UNL     1       8.850   0.334   0.000  0.00  0.00    +0.000 NA
ATOM      5  N   UNL     1       8.135  -0.903   0.000  0.00  0.00    +0.000 NA
ATOM      6  N   UNL     1       8.850  -2.141   0.000  0.00  0.00    +0.000 NA
ATOM      7  C   UNL     1       6.706   1.571   0.000  0.00  0.00    +0.000 C 
ATOM      8  C   UNL     1       5.992   0.334   0.000  0.00  0.00    +0.000 C 
ATOM      9  C   UNL     1       7.421   1.159   0.000  0.00  0.00    +0.000 C 
ATOM     10  C   UNL     1       6.706  -0.078   0.000  0.00  0.00    +0.000 C 
ATOM     11  C   UNL     1       5.278   1.571   0.000  0.00  0.00    +0.000 C 
ATOM     12  C   UNL     1       8.135  -0.078   0.000  0.00  0.00    +0.000 A 
ATOM     13  C   UNL     1       9.564  -0.078   0.000  0.00  0.00    +0.000 A 
ATOM     14  C   UNL     1       9.564  -0.903   0.000  0.00  0.00    +0.000 A 
ATOM     15  C   UNL     1       8.850  -1.316   0.000  0.00  0.00    +0.000 A 
ATOM     16  C   UNL     1      10.301   0.363   0.000  0.00  0.00    +0.000 A 
ATOM     17  C   UNL     1      10.301  -1.344   0.000  0.00  0.00    +0.000 A 
ATOM     18  C   UNL     1      11.049  -0.061   0.000  0.00  0.00    +0.000 A 
ATOM     19  C   UNL     1      11.049  -0.920   0.000  0.00  0.00    +0.000 A 
ENDROOT
BRANCH  11  22
ATOM     20  O   UNL     1       3.849   1.571   0.000  0.00  0.00    +0.000 OA
ATOM     21  O   UNL     1       3.849  -0.078   0.000  0.00  0.00    +0.000 OA
ATOM     22  C   UNL     1       4.563   1.159   0.000  0.00  0.00    +0.000 C 
ATOM     23  C   UNL     1       4.563   0.334   0.000  0.00  0.00    +0.000 C 
ATOM     24  C   UNL     1       3.135   1.159   0.000  0.00  0.00    +0.000 A 
ATOM     25  C   UNL     1       3.135   0.334   0.000  0.00  0.00    +0.000 A 
ATOM     26  C   UNL     1       2.397   1.600   0.000  0.00  0.00    +0.000 A 
ATOM     27  C   UNL     1       2.397  -0.107   0.000  0.00  0.00    +0.000 A 
ATOM     28  C   UNL     1       1.650   1.176   0.000  0.00  0.00    +0.000 A 
ATOM     29  C   UNL     1       1.650   0.317   0.000  0.00  0.00    +0.000 A 
ENDBRANCH  11  22
BRANCH  18  30
ATOM     30  O   UNL     1      11.761   0.354   0.000  0.00  0.00    +0.000 OA
ATOM     31  C   UNL     1      11.758   1.179   0.000  0.00  0.00    +0.000 C 
ENDBRANCH  18  30
BRANCH  19  32
ATOM     32  O   UNL     1      11.761  -1.336   0.000  0.00  0.00    +0.000 OA
ATOM     33  C   UNL     1      12.477  -0.926   0.000  0.00  0.00    +0.000 C 
ENDBRANCH  19  32
TORSDOF 3
