REMARK  Name = 592
REMARK  0 active torsions:
REMARK  status: ('A' for Active; 'I' for Inactive)
REMARK                            x       y       z     vdW  Elec       q    Type
REMARK                         _______ _______ _______ _____ _____    ______ ____
ROOT
ATOM      1  N   UNL     1       2.365  -0.825   0.000  0.00  0.00    +0.000 NA
ATOM      2  N   UNL     1       2.365   0.825   0.000  0.00  0.00    +0.000 NA
ATOM      3  C   UNL     1       3.079  -0.412   0.000  0.00  0.00    +0.000 C 
ATOM      4  C   UNL     1       1.650  -0.412   0.000  0.00  0.00    +0.000 C 
ATOM      5  C   UNL     1       3.079   0.412   0.000  0.00  0.00    +0.000 C 
ATOM      6  C   UNL     1       1.650   0.412   0.000  0.00  0.00    +0.000 C 
ENDROOT
TORSDOF 0
