REMARK  Name = 593
REMARK  1 active torsions:
REMARK  status: ('A' for Active; 'I' for Inactive)
REMARK    1  A    between atoms: C_4  and  C_6
REMARK                            x       y       z     vdW  Elec       q    Type
REMARK                         _______ _______ _______ _____ _____    ______ ____
ROOT
ATOM      1  O   UNL     1       4.554  -0.680   0.000  0.00  0.00    +0.000 OA
ATOM      2  O   UNL     1       1.650  -0.680   0.000  0.00  0.00    +0.000 OA
ATOM      3  N   UNL     1       3.102  -0.910   0.000  0.00  0.00    +0.000 NA
ATOM      4  C   UNL     1       3.515   0.360   0.000  0.00  0.00    +0.000 C 
ATOM      5  C   UNL     1       2.690   0.360   0.000  0.00  0.00    +0.000 C 
ATOM      6  C   UNL     1       3.770  -0.425   0.000  0.00  0.00    +0.000 C 
ATOM      7  C   UNL     1       3.515   1.185   0.000  0.00  0.00    +0.000 C 
ATOM      8  C   UNL     1       2.435  -0.425   0.000  0.00  0.00    +0.000 C 
ENDROOT
BRANCH   4   9
ATOM      9  C   UNL     1       4.299   0.615   0.000  0.00  0.00    +0.000 C 
ATOM     10  C   UNL     1       4.471   1.422   0.000  0.00  0.00    +0.000 C 
ENDBRANCH   4   9
TORSDOF 1
