REMARK  Name = 59A
REMARK  8 active torsions:
REMARK  status: ('A' for Active; 'I' for Inactive)
REMARK    1  A    between atoms: C_1  and  C_15
REMARK    2  A    between atoms: C_3  and  C_4
REMARK    3  A    between atoms: N_6  and  CA_7
REMARK    4  A    between atoms: CA_7  and  C_8
REMARK    5  A    between atoms: CA_7  and  CB_10
REMARK    6  A    between atoms: CB_10  and  CG1_11
REMARK    7  A    between atoms: C_15  and  O_17
REMARK    8  A    between atoms: O_17  and  C_18
REMARK                            x       y       z     vdW  Elec       q    Type
REMARK                         _______ _______ _______ _____ _____    ______ ____
ROOT
ATOM      1  C   UNK A   0      -0.489   0.604   0.000  0.00  0.00    +0.000 C 
ATOM      2  O   UNK A   0      -0.489  -0.221   0.000  0.00  0.00    +0.000 OA
ATOM      3  N   ILE A   1       0.226   1.017   0.000  0.00  0.00    +0.000 NA
ENDROOT
BRANCH   1   6
ATOM      4  C   UNK A   0      -2.028   1.017   0.000  0.00  0.00    +0.000 C 
ATOM      5  O   UNK A   0      -1.616   1.731   0.000  0.00  0.00    +0.000 OA
ATOM      6  C   UNK A   0      -1.203   1.017   0.000  0.00  0.00    +0.000 C 
BRANCH   4   7
ATOM      7  C   UNK A   0      -2.743   0.604   0.000  0.00  0.00    +0.000 C 
ATOM      8  O   UNK A   0      -3.457   1.017   0.000  0.00  0.00    +0.000 OA
BRANCH   7   9
ATOM      9  O   UNK A   0      -2.743  -0.221   0.000  0.00  0.00    +0.000 OA
BRANCH   9  10
ATOM     10  C   UNK A   0      -3.457  -0.633   0.000  0.00  0.00    +0.000 C 
ATOM     11  C   UNK A   0      -3.457  -1.458   0.000  0.00  0.00    +0.000 C 
ENDBRANCH   9  10
ENDBRANCH   7   9
ENDBRANCH   4   7
ENDBRANCH   1   6
BRANCH   3  12
ATOM     12  CA  ILE A   1       0.940   0.604   0.000  0.00  0.00    +0.000 C 
BRANCH  12  13
ATOM     13  C   ILE A   1       0.940  -0.221   0.000  0.00  0.00    +0.000 C 
ATOM     14  O   ILE A   1       1.655  -0.633   0.000  0.00  0.00    +0.000 OA
ATOM     15  OXT ILE A   1       0.226  -0.633   0.000  0.00  0.00    +0.000 OA
ENDBRANCH  12  13
BRANCH  12  16
ATOM     16  CB  ILE A   1       1.655   1.017   0.000  0.00  0.00    +0.000 C 
ATOM     17  CG2 ILE A   1       1.655   1.842   0.000  0.00  0.00    +0.000 C 
BRANCH  16  18
ATOM     18  CG1 ILE A   1       2.369   0.604   0.000  0.00  0.00    +0.000 C 
ATOM     19  CD1 ILE A   1       3.084   1.017   0.000  0.00  0.00    +0.000 C 
ENDBRANCH  16  18
ENDBRANCH  12  16
ENDBRANCH   3  12
TORSDOF 8
