REMARK  Name = 5AP
REMARK  5 active torsions:
REMARK  status: ('A' for Active; 'I' for Inactive)
REMARK    1  A    between atoms: C_8  and  C_9
REMARK    2  A    between atoms: C_10  and  C_11
REMARK    3  A    between atoms: C_16  and  C_18
REMARK    4  A    between atoms: C_20  and  O_21
REMARK    5  A    between atoms: C_24  and  O_26
REMARK                            x       y       z     vdW  Elec       q    Type
REMARK                         _______ _______ _______ _____ _____    ______ ____
ROOT
ATOM      1  C   UNL     1       0.119  -0.831   0.000  0.00  0.00    +0.000 A 
ATOM      2  C   UNL     1      -0.595  -1.244   0.000  0.00  0.00    +0.000 A 
ATOM      3  C   UNL     1      -1.309  -0.831   0.000  0.00  0.00    +0.000 A 
ATOM      4  N   UNL     1      -2.024  -1.244   0.000  0.00  0.00    +0.000 NA
ATOM      5  N   UNL     1       0.119  -0.006   0.000  0.00  0.00    +0.000 NA
ATOM      6  C   UNL     1      -0.595   0.406   0.000  0.00  0.00    +0.000 A 
ATOM      7  N   UNL     1      -1.309  -0.006   0.000  0.00  0.00    +0.000 NA
ENDROOT
BRANCH   1  15
ATOM      8 CL   UNL     1       1.548  -0.006   0.000  0.00  0.00    +0.000 Cl
ATOM      9  C   UNL     1       1.548  -0.831   0.000  0.00  0.00    +0.000 A 
ATOM     10  C   UNL     1       2.263  -1.244   0.000  0.00  0.00    +0.000 A 
ATOM     11  C   UNL     1       2.263  -2.069   0.000  0.00  0.00    +0.000 A 
ATOM     12 CL   UNL     1       2.977  -2.481   0.000  0.00  0.00    +0.000 Cl
ATOM     13  C   UNL     1       1.548  -2.481   0.000  0.00  0.00    +0.000 A 
ATOM     14  C   UNL     1       0.834  -2.069   0.000  0.00  0.00    +0.000 A 
ATOM     15  C   UNL     1       0.834  -1.244   0.000  0.00  0.00    +0.000 A 
ENDBRANCH   1  15
BRANCH   6  16
ATOM     16  C   UNL     1      -0.595   1.231   0.000  0.00  0.00    +0.000 A 
ATOM     17  C   UNL     1      -1.309   1.644   0.000  0.00  0.00    +0.000 A 
ATOM     18  C   UNL     1      -1.309   2.469   0.000  0.00  0.00    +0.000 A 
ATOM     19  C   UNL     1      -0.595   2.881   0.000  0.00  0.00    +0.000 A 
ATOM     20  C   UNL     1       0.119   2.469   0.000  0.00  0.00    +0.000 A 
ATOM     21  C   UNL     1       0.119   1.644   0.000  0.00  0.00    +0.000 A 
BRANCH  18  22
ATOM     22  O   UNL     1      -2.024   2.881   0.000  0.00  0.00    +0.000 OA
ATOM     23  C   UNL     1      -2.738   2.469   0.000  0.00  0.00    +0.000 C 
ENDBRANCH  18  22
BRANCH  20  24
ATOM     24  O   UNL     1       0.834   2.881   0.000  0.00  0.00    +0.000 OA
ATOM     25  C   UNL     1       1.548   2.469   0.000  0.00  0.00    +0.000 C 
ENDBRANCH  20  24
ENDBRANCH   6  16
BRANCH   2  26
ATOM     26  C   UNL     1      -0.595  -2.069   0.000  0.00  0.00    +0.000 C 
ATOM     27  N   UNL     1      -1.309  -2.481   0.000  0.00  0.00    +0.000 NA
ENDBRANCH   2  26
TORSDOF 5
