REMARK  Name = 5B2
REMARK  1 active torsions:
REMARK  status: ('A' for Active; 'I' for Inactive)
REMARK    1  A    between atoms: C_5  and  C_11
REMARK                            x       y       z     vdW  Elec       q    Type
REMARK                         _______ _______ _______ _____ _____    ______ ____
ROOT
ATOM      1  C   UNL     1      -1.407  -0.202   0.000  0.00  0.00    +0.000 A 
ATOM      2  C   UNL     1      -0.693   0.211   0.000  0.00  0.00    +0.000 A 
ATOM      3  C   UNL     1      -2.192   0.053   0.000  0.00  0.00    +0.000 A 
ATOM      4  N   UNL     1      -2.447   0.838   0.000  0.00  0.00    +0.000 NA
ATOM      5  C   UNL     1       0.022  -0.202   0.000  0.00  0.00    +0.000 A 
ATOM      6  C   UNL     1       0.022  -1.027   0.000  0.00  0.00    +0.000 A 
ATOM      7  C   UNL     1      -0.693  -1.439   0.000  0.00  0.00    +0.000 A 
ATOM      8  C   UNL     1      -1.407  -1.027   0.000  0.00  0.00    +0.000 A 
ATOM      9  N   UNL     1      -2.192  -1.282   0.000  0.00  0.00    +0.000 NA
ATOM     10  N   UNL     1      -2.677  -0.614   0.000  0.00  0.00    +0.000 NA
ENDROOT
BRANCH   5  11
ATOM     11  C   UNL     1       0.736   0.211   0.000  0.00  0.00    +0.000 A 
ATOM     12  C   UNL     1       0.736   1.036   0.000  0.00  0.00    +0.000 A 
ATOM     13  C   UNL     1       1.450   1.448   0.000  0.00  0.00    +0.000 A 
ATOM     14  C   UNL     1       2.165   1.036   0.000  0.00  0.00    +0.000 A 
ATOM     15  C   UNL     1       2.165   0.211   0.000  0.00  0.00    +0.000 A 
ATOM     16  C   UNL     1       1.450  -0.202   0.000  0.00  0.00    +0.000 A 
ENDBRANCH   5  11
TORSDOF 1
