REMARK  Name = 5B3
REMARK  4 active torsions:
REMARK  status: ('A' for Active; 'I' for Inactive)
REMARK    1  A    between atoms: N_6  and  C_10
REMARK    2  A    between atoms: N_6  and  S_11
REMARK    3  A    between atoms: C_7  and  S_11
REMARK    4  A    between atoms: C_14  and  C_15
REMARK                            x       y       z     vdW  Elec       q    Type
REMARK                         _______ _______ _______ _____ _____    ______ ____
ROOT
ATOM      1  C   UNL     1       0.064   1.416   0.000  0.00  0.00    +0.000 A 
ATOM      2  C   UNL     1       0.778   1.003   0.000  0.00  0.00    +0.000 A 
ATOM      3  C   UNL     1       0.778   0.178   0.000  0.00  0.00    +0.000 A 
ATOM      4  C   UNL     1       0.064  -0.234   0.000  0.00  0.00    +0.000 A 
ATOM      5  C   UNL     1      -0.651   0.178   0.000  0.00  0.00    +0.000 A 
ATOM      6  C   UNL     1      -0.651   1.003   0.000  0.00  0.00    +0.000 A 
ENDROOT
BRANCH   6   7
ATOM      7  C   UNL     1      -1.365   1.416   0.000  0.00  0.00    +0.000 A 
ATOM      8  C   UNL     1      -2.080   1.003   0.000  0.00  0.00    +0.000 A 
ATOM      9  C   UNL     1      -2.794   1.416   0.000  0.00  0.00    +0.000 A 
ATOM     10  C   UNL     1      -3.579   1.161   0.000  0.00  0.00    +0.000 A 
ATOM     11  N   UNL     1      -3.834   0.376   0.000  0.00  0.00    +0.000 NA
ATOM     12  N   UNL     1      -4.064   1.828   0.000  0.00  0.00    +0.000 NA
ATOM     13  N   UNL     1      -3.579   2.496   0.000  0.00  0.00    +0.000 NA
ATOM     14  C   UNL     1      -2.794   2.241   0.000  0.00  0.00    +0.000 A 
ATOM     15  C   UNL     1      -2.080   2.653   0.000  0.00  0.00    +0.000 A 
ATOM     16  C   UNL     1      -1.365   2.241   0.000  0.00  0.00    +0.000 A 
ENDBRANCH   6   7
BRANCH   3  19
ATOM     17  O   UNL     1       1.905   0.480   0.000  0.00  0.00    +0.000 OA
ATOM     18  O   UNL     1       1.080  -0.949   0.000  0.00  0.00    +0.000 OA
ATOM     19  S   UNL     1       1.492  -0.234   0.000  0.00  0.00    +0.000 S 
BRANCH  19  20
ATOM     20  N   UNL     1       2.207  -0.647   0.000  0.00  0.00    +0.000 NA
BRANCH  20  24
ATOM     21  C   UNL     1       2.207  -2.297   0.000  0.00  0.00    +0.000 C 
ATOM     22  C   UNL     1       3.032  -1.472   0.000  0.00  0.00    +0.000 C 
ATOM     23  C   UNL     1       1.382  -1.472   0.000  0.00  0.00    +0.000 C 
ATOM     24  C   UNL     1       2.207  -1.472   0.000  0.00  0.00    +0.000 C 
ENDBRANCH  20  24
ENDBRANCH  19  20
ENDBRANCH   3  19
TORSDOF 4
