REMARK  Name = 5BN
REMARK  4 active torsions:
REMARK  status: ('A' for Active; 'I' for Inactive)
REMARK    1  A    between atoms: C_2  and  C_3
REMARK    2  A    between atoms: C_3  and  N_4
REMARK    3  A    between atoms: N_4  and  C_5
REMARK    4  A    between atoms: C_7  and  C_8
REMARK                            x       y       z     vdW  Elec       q    Type
REMARK                         _______ _______ _______ _____ _____    ______ ____
ROOT
ATOM      1  C   UNL     1       0.115  -0.514   0.000  0.00  0.00    +0.000 A 
ATOM      2  C   UNL     1      -0.597  -0.102   0.000  0.00  0.00    +0.000 A 
ATOM      3  C   UNL     1      -0.597   0.723   0.000  0.00  0.00    +0.000 A 
ATOM      4  C   UNL     1       0.115   1.136   0.000  0.00  0.00    +0.000 A 
ATOM      5  C   UNL     1       0.415   1.993   0.000  0.00  0.00    +0.000 C 
ATOM      6  O   UNL     1      -0.062   2.666   0.000  0.00  0.00    +0.000 OA
ATOM      7  N   UNL     1       1.240   1.993   0.000  0.00  0.00    +0.000 NA
ATOM      8  C   UNL     1       1.546   1.136   0.000  0.00  0.00    +0.000 A 
ATOM      9  C   UNL     1       2.258   0.723   0.000  0.00  0.00    +0.000 A 
ATOM     10  C   UNL     1       2.258  -0.102   0.000  0.00  0.00    +0.000 A 
ATOM     11  C   UNL     1       1.546  -0.514   0.000  0.00  0.00    +0.000 A 
ATOM     12  F   UNL     1       1.547  -1.339   0.000  0.00  0.00    +0.000 F 
ATOM     13  C   UNL     1       0.828  -0.102   0.000  0.00  0.00    +0.000 A 
ATOM     14  C   UNL     1       0.828   0.723   0.000  0.00  0.00    +0.000 A 
ENDROOT
BRANCH   3  15
ATOM     15  C   UNL     1      -1.312   1.135   0.000  0.00  0.00    +0.000 A 
ATOM     16  C   UNL     1      -2.065   0.799   0.000  0.00  0.00    +0.000 A 
ATOM     17  C   UNL     1      -2.618   1.412   0.000  0.00  0.00    +0.000 A 
ATOM     18  C   UNL     1      -2.206   2.127   0.000  0.00  0.00    +0.000 A 
ATOM     19  N   UNL     1      -1.399   1.956   0.000  0.00  0.00    +0.000 NA
ENDBRANCH   3  15
BRANCH   1  20
ATOM     20  N   UNL     1       0.115  -1.339   0.000  0.00  0.00    +0.000 NA
BRANCH  20  21
ATOM     21  C   UNL     1       0.830  -1.752   0.000  0.00  0.00    +0.000 C 
BRANCH  21  23
ATOM     22  N   UNL     1       1.544  -2.989   0.000  0.00  0.00    +0.000 NA
ATOM     23  C   UNL     1       0.830  -2.577   0.000  0.00  0.00    +0.000 C 
ENDBRANCH  21  23
ENDBRANCH  20  21
ENDBRANCH   1  20
TORSDOF 4
