REMARK  Name = 5BP
REMARK  2 active torsions:
REMARK  status: ('A' for Active; 'I' for Inactive)
REMARK    1  A    between atoms: C_6  and  C_10
REMARK    2  A    between atoms: C_8  and  N_17
REMARK                            x       y       z     vdW  Elec       q    Type
REMARK                         _______ _______ _______ _____ _____    ______ ____
ROOT
ATOM      1  C   UNL     1      -0.719   0.067   0.000  0.00  0.00    +0.000 A 
ATOM      2  C   UNL     1      -1.526  -0.105   0.000  0.00  0.00    +0.000 A 
ATOM      3  N   UNL     1      -0.167  -0.546   0.000  0.00  0.00    +0.000 NA
ATOM      4  C   UNL     1      -0.421  -1.331   0.000  0.00  0.00    +0.000 A 
ATOM      5  N   UNL     1      -1.228  -1.502   0.000  0.00  0.00    +0.000 NA
ATOM      6  C   UNL     1      -1.780  -0.889   0.000  0.00  0.00    +0.000 A 
ATOM      7  N   UNL     1       0.131  -1.944   0.000  0.00  0.00    +0.000 NA
ENDROOT
BRANCH   1  14
ATOM      8  N   UNL     1      -0.464   2.187   0.000  0.00  0.00    +0.000 NA
ATOM      9  C   UNL     1       0.321   1.107   0.000  0.00  0.00    +0.000 A 
ATOM     10  C   UNL     1       1.036   0.694   0.000  0.00  0.00    +0.000 A 
ATOM     11  C   UNL     1       1.750   1.107   0.000  0.00  0.00    +0.000 A 
ATOM     12  C   UNL     1       1.750   1.931   0.000  0.00  0.00    +0.000 A 
ATOM     13  C   UNL     1      -0.949   1.519   0.000  0.00  0.00    +0.000 A 
ATOM     14  C   UNL     1      -0.464   0.852   0.000  0.00  0.00    +0.000 A 
ATOM     15  N   UNL     1       1.036   2.344   0.000  0.00  0.00    +0.000 NA
ATOM     16  N   UNL     1       0.321   1.931   0.000  0.00  0.00    +0.000 N 
ENDBRANCH   1  14
BRANCH   7  17
ATOM     17  C   UNL     1       0.938  -1.772   0.000  0.00  0.00    +0.000 C 
ATOM     18  C   UNL     1       1.722  -2.027   0.000  0.00  0.00    +0.000 C 
ATOM     19  C   UNL     1       1.551  -1.220   0.000  0.00  0.00    +0.000 C 
ENDBRANCH   7  17
TORSDOF 2
