REMARK  Name = 5CB
REMARK  7 active torsions:
REMARK  status: ('A' for Active; 'I' for Inactive)
REMARK    1  A    between atoms: C_12  and  C_13
REMARK    2  A    between atoms: C_13  and  N_14
REMARK    3  A    between atoms: C_15  and  C_16
REMARK    4  A    between atoms: C_16  and  N_18
REMARK    5  A    between atoms: N_23  and  C_24
REMARK    6  A    between atoms: C_24  and  C_25
REMARK    7  A    between atoms: C_25  and  C_27
REMARK                            x       y       z     vdW  Elec       q    Type
REMARK                         _______ _______ _______ _____ _____    ______ ____
ROOT
ATOM      1  O   UNL     1      -0.796   0.107   0.000  0.00  0.00    +0.000 OA
ATOM      2 CL   UNL     1       1.922   0.990   0.000  0.00  0.00    +0.000 Cl
ATOM      3  C   UNL     1       1.115   1.161   0.000  0.00  0.00    +0.000 C 
ATOM      4  N   UNL     1       0.563   0.548   0.000  0.00  0.00    +0.000 NA
ATOM      5  C   UNL     1       0.860   1.946   0.000  0.00  0.00    +0.000 C 
ATOM      6  C   UNL     1      -0.244   0.720   0.000  0.00  0.00    +0.000 C 
ATOM      7  N   UNL     1       0.053   2.117   0.000  0.00  0.00    +0.000 NA
ATOM      8  C   UNL     1      -0.499   1.504   0.000  0.00  0.00    +0.000 C 
ATOM      9  N   UNL     1      -1.306   1.676   0.000  0.00  0.00    +0.000 NA
ENDROOT
BRANCH   9  10
ATOM     10  C   UNL     1      -1.858   1.063   0.000  0.00  0.00    +0.000 C 
BRANCH  10  11
ATOM     11  C   UNL     1      -2.665   1.234   0.000  0.00  0.00    +0.000 C 
BRANCH  11  13
ATOM     12  C   UNL     1      -2.368   2.632   0.000  0.00  0.00    +0.000 A 
ATOM     13  C   UNL     1      -2.920   2.019   0.000  0.00  0.00    +0.000 A 
ATOM     14  C   UNL     1      -2.623   3.417   0.000  0.00  0.00    +0.000 A 
ATOM     15  N   UNL     1      -3.727   2.190   0.000  0.00  0.00    +0.000 NA
ATOM     16  C   UNL     1      -3.430   3.588   0.000  0.00  0.00    +0.000 A 
ATOM     17  C   UNL     1      -3.982   2.975   0.000  0.00  0.00    +0.000 A 
ENDBRANCH  11  13
ENDBRANCH  10  11
ENDBRANCH   9  10
BRANCH   4  18
ATOM     18  C   UNL     1       0.818  -0.236   0.000  0.00  0.00    +0.000 C 
BRANCH  18  20
ATOM     19  N   UNL     1       1.880  -1.193   0.000  0.00  0.00    +0.000 NA
ATOM     20  C   UNL     1       1.625  -0.408   0.000  0.00  0.00    +0.000 C 
ATOM     21  O   UNL     1       2.177   0.205   0.000  0.00  0.00    +0.000 OA
BRANCH  19  22
ATOM     22  C   UNL     1       2.687  -1.364   0.000  0.00  0.00    +0.000 C 
BRANCH  22  32
ATOM     23 CL   UNL     1       5.870  -1.991   0.000  0.00  0.00    +0.000 Cl
ATOM     24  C   UNL     1       5.155  -3.229   0.000  0.00  0.00    +0.000 A 
ATOM     25  C   UNL     1       4.441  -3.641   0.000  0.00  0.00    +0.000 A 
ATOM     26  C   UNL     1       5.155  -2.404   0.000  0.00  0.00    +0.000 A 
ATOM     27  C   UNL     1       3.726  -3.229   0.000  0.00  0.00    +0.000 A 
ATOM     28  C   UNL     1       4.441  -1.991   0.000  0.00  0.00    +0.000 A 
ATOM     29  C   UNL     1       3.726  -2.404   0.000  0.00  0.00    +0.000 A 
ATOM     30  S   UNL     1       2.942  -3.484   0.000  0.00  0.00    +0.000 S 
ATOM     31  C   UNL     1       2.457  -2.816   0.000  0.00  0.00    +0.000 A 
ATOM     32  C   UNL     1       2.942  -2.149   0.000  0.00  0.00    +0.000 A 
ENDBRANCH  22  32
ENDBRANCH  19  22
ENDBRANCH  18  20
ENDBRANCH   4  18
TORSDOF 7
