REMARK  Name = 5CN
REMARK  5 active torsions:
REMARK  status: ('A' for Active; 'I' for Inactive)
REMARK    1  A    between atoms: C_1  and  N_18
REMARK    2  A    between atoms: C_10  and  C_15
REMARK    3  A    between atoms: C_11  and  C_12
REMARK    4  A    between atoms: C_14  and  C_23
REMARK    5  A    between atoms: C_17  and  N_20
REMARK                            x       y       z     vdW  Elec       q    Type
REMARK                         _______ _______ _______ _____ _____    ______ ____
ROOT
ATOM      1  C   UNL     1      -1.357   2.765   0.000  0.00  0.00    +0.000 A 
ATOM      2  C   UNL     1      -1.357   3.590   0.000  0.00  0.00    +0.000 A 
ATOM      3  C   UNL     1      -0.643   4.002   0.000  0.00  0.00    +0.000 A 
ATOM      4  C   UNL     1       0.072   3.590   0.000  0.00  0.00    +0.000 A 
ATOM      5  C   UNL     1       0.072   2.765   0.000  0.00  0.00    +0.000 A 
ATOM      6  C   UNL     1      -0.643   2.352   0.000  0.00  0.00    +0.000 A 
ENDROOT
BRANCH   1  13
ATOM      7  C   UNL     1      -2.786   1.115   0.000  0.00  0.00    +0.000 C 
ATOM      8  C   UNL     1      -2.071   1.527   0.000  0.00  0.00    +0.000 C 
ATOM      9  C   UNL     1      -2.786   2.765   0.000  0.00  0.00    +0.000 C 
ATOM     10  C   UNL     1      -3.501   2.352   0.000  0.00  0.00    +0.000 C 
ATOM     11  C   UNL     1      -3.501   1.527   0.000  0.00  0.00    +0.000 C 
ATOM     12  C   UNL     1      -4.215   1.115   0.000  0.00  0.00    +0.000 C 
ATOM     13  N   UNL     1      -2.071   2.352   0.000  0.00  0.00    +0.000 N 
ENDBRANCH   1  13
BRANCH   6  15
ATOM     14  C   UNL     1       0.072   1.115   0.000  0.00  0.00    +0.000 C 
ATOM     15  N   UNL     1      -0.643   1.527   0.000  0.00  0.00    +0.000 NA
ATOM     16  O   UNL     1       0.786   1.527   0.000  0.00  0.00    +0.000 OA
BRANCH  14  17
ATOM     17  C   UNL     1       0.072   0.290   0.000  0.00  0.00    +0.000 A 
ATOM     18  C   UNL     1      -0.596  -0.195   0.000  0.00  0.00    +0.000 A 
ATOM     19  C   UNL     1      -0.341  -0.980   0.000  0.00  0.00    +0.000 A 
ATOM     20  C   UNL     1       0.484  -0.980   0.000  0.00  0.00    +0.000 A 
ATOM     21  O   UNL     1       0.739  -0.195   0.000  0.00  0.00    +0.000 OA
BRANCH  20  22
ATOM     22  C   UNL     1       0.969  -1.647   0.000  0.00  0.00    +0.000 C 
ATOM     23  N   UNL     1       1.454  -2.315   0.000  0.00  0.00    +0.000 NA
ENDBRANCH  20  22
ENDBRANCH  14  17
ENDBRANCH   6  15
BRANCH   4  24
ATOM     24  C   UNL     1       0.786   4.002   0.000  0.00  0.00    +0.000 C 
ATOM     25  O   UNL     1       1.501   3.590   0.000  0.00  0.00    +0.000 OA
ENDBRANCH   4  24
TORSDOF 5
