REMARK  Name = 5CP
REMARK  5 active torsions:
REMARK  status: ('A' for Active; 'I' for Inactive)
REMARK    1  A    between atoms: C_1  and  N_14
REMARK    2  A    between atoms: C_8  and  C_9
REMARK    3  A    between atoms: N_18  and  C_19
REMARK    4  A    between atoms: C_24  and  C_25
REMARK    5  A    between atoms: C_25  and  C_26
REMARK                            x       y       z     vdW  Elec       q    Type
REMARK                         _______ _______ _______ _____ _____    ______ ____
ROOT
ATOM      1  C   UNL     1      -0.029   0.202   0.000  0.00  0.00    +0.000 A 
ATOM      2  C   UNL     1       0.791   0.288   0.000  0.00  0.00    +0.000 A 
ATOM      3  C   UNL     1       1.276  -0.379   0.000  0.00  0.00    +0.000 A 
ATOM      4  N   UNL     1       0.940  -1.133   0.000  0.00  0.00    +0.000 NA
ATOM      5  N   UNL     1      -0.365  -0.552   0.000  0.00  0.00    +0.000 NA
ATOM      6  N   UNL     1       2.096  -0.293   0.000  0.00  0.00    +0.000 NA
ATOM      7  C   UNL     1       2.581  -0.961   0.000  0.00  0.00    +0.000 C 
ATOM      8  C   UNL     1       0.120  -1.219   0.000  0.00  0.00    +0.000 A 
ATOM      9  N   UNL     1      -0.216  -1.973   0.000  0.00  0.00    +0.000 NA
ENDROOT
BRANCH   1  15
ATOM     10  C   UNL     1       0.714   2.615   0.000  0.00  0.00    +0.000 A 
ATOM     11  C   UNL     1       0.628   1.795   0.000  0.00  0.00    +0.000 A 
ATOM     12  N   UNL     1      -0.039   2.951   0.000  0.00  0.00    +0.000 NA
ATOM     13  N   UNL     1      -0.591   2.337   0.000  0.00  0.00    +0.000 NA
ATOM     14  C   UNL     1      -0.179   1.623   0.000  0.00  0.00    +0.000 A 
ATOM     15  N   UNL     1      -0.514   0.869   0.000  0.00  0.00    +0.000 NA
BRANCH  10  18
ATOM     16  C   UNL     1       1.841   3.742   0.000  0.00  0.00    +0.000 C 
ATOM     17  C   UNL     1       2.254   3.028   0.000  0.00  0.00    +0.000 C 
ATOM     18  C   UNL     1       1.429   3.028   0.000  0.00  0.00    +0.000 C 
ENDBRANCH  10  18
ENDBRANCH   1  15
BRANCH   9  19
ATOM     19  C   UNL     1      -1.036  -2.059   0.000  0.00  0.00    +0.000 A 
ATOM     20  C   UNL     1      -1.372  -2.813   0.000  0.00  0.00    +0.000 A 
ATOM     21  C   UNL     1      -2.192  -2.899   0.000  0.00  0.00    +0.000 A 
ATOM     22  C   UNL     1      -1.521  -1.392   0.000  0.00  0.00    +0.000 A 
ATOM     23  C   UNL     1      -2.341  -1.478   0.000  0.00  0.00    +0.000 A 
ATOM     24  C   UNL     1      -2.677  -2.232   0.000  0.00  0.00    +0.000 A 
BRANCH  24  25
ATOM     25  C   UNL     1      -3.498  -2.318   0.000  0.00  0.00    +0.000 C 
BRANCH  25  26
ATOM     26  C   UNL     1      -3.833  -3.071   0.000  0.00  0.00    +0.000 C 
ATOM     27  N   UNL     1      -4.169  -3.825   0.000  0.00  0.00    +0.000 NA
ENDBRANCH  25  26
ENDBRANCH  24  25
ENDBRANCH   9  19
TORSDOF 5
