REMARK  Name = 5DE
REMARK  4 active torsions:
REMARK  status: ('A' for Active; 'I' for Inactive)
REMARK    1  A    between atoms: C_2  and  O_3
REMARK    2  A    between atoms: C_2  and  C_6
REMARK    3  A    between atoms: O_3  and  C_4
REMARK    4  A    between atoms: N_12  and  C_13
REMARK                            x       y       z     vdW  Elec       q    Type
REMARK                         _______ _______ _______ _____ _____    ______ ____
ROOT
ATOM      1  C   UNL     1       0.286   0.593   0.000  0.00  0.00    +0.000 A 
ATOM      2  C   UNL     1       0.953   0.108   0.000  0.00  0.00    +0.000 A 
ATOM      3  N   UNL     1       0.698  -0.677   0.000  0.00  0.00    +0.000 NA
ATOM      4  C   UNL     1       1.738   0.363   0.000  0.00  0.00    +0.000 C 
ATOM      5  C   UNL     1      -0.382   0.108   0.000  0.00  0.00    +0.000 A 
ATOM      6  C   UNL     1      -1.166   0.363   0.000  0.00  0.00    +0.000 C 
ATOM      7  N   UNL     1      -0.127  -0.677   0.000  0.00  0.00    +0.000 N 
ENDROOT
BRANCH   7   8
ATOM      8  C   UNL     1      -0.612  -1.344   0.000  0.00  0.00    +0.000 A 
ATOM      9  C   UNL     1      -0.276  -2.098   0.000  0.00  0.00    +0.000 A 
ATOM     10  C   UNL     1      -0.761  -2.765   0.000  0.00  0.00    +0.000 A 
ATOM     11  C   UNL     1      -1.432  -1.258   0.000  0.00  0.00    +0.000 A 
ATOM     12  C   UNL     1      -1.917  -1.925   0.000  0.00  0.00    +0.000 A 
ATOM     13  C   UNL     1      -1.581  -2.679   0.000  0.00  0.00    +0.000 A 
ATOM     14  N   UNL     1      -2.066  -3.347   0.000  0.00  0.00    +0.000 NA
ENDBRANCH   7   8
BRANCH   1  16
ATOM     15  O   UNL     1      -0.428   1.830   0.000  0.00  0.00    +0.000 OA
ATOM     16  C   UNL     1       0.286   1.418   0.000  0.00  0.00    +0.000 C 
BRANCH  16  17
ATOM     17  O   UNL     1       1.000   1.830   0.000  0.00  0.00    +0.000 OA
BRANCH  17  18
ATOM     18  C   UNL     1       1.000   2.655   0.000  0.00  0.00    +0.000 C 
ATOM     19  C   UNL     1       1.715   3.068   0.000  0.00  0.00    +0.000 C 
ENDBRANCH  17  18
ENDBRANCH  16  17
ENDBRANCH   1  16
TORSDOF 4
