REMARK  Name = 5EE
REMARK  5 active torsions:
REMARK  status: ('A' for Active; 'I' for Inactive)
REMARK    1  A    between atoms: S_1  and  N_4
REMARK    2  A    between atoms: S_1  and  C_5
REMARK    3  A    between atoms: N_4  and  N_17
REMARK    4  A    between atoms: C_10  and  C_11
REMARK    5  A    between atoms: C_10  and  C_19
REMARK                            x       y       z     vdW  Elec       q    Type
REMARK                         _______ _______ _______ _____ _____    ______ ____
ROOT
ATOM      1  N   UNL     1       0.176  -0.106   0.000  0.00  0.00    +0.000 N 
ATOM      2  C   UNL     1      -0.578  -0.442   0.000  0.00  0.00    +0.000 C 
ATOM      3  C   UNL     1      -0.717   0.886   0.000  0.00  0.00    +0.000 C 
ATOM      4  C   UNL     1       0.090   0.714   0.000  0.00  0.00    +0.000 C 
ATOM      5  S   UNL     1      -1.130   0.171   0.000  0.00  0.00    +0.000 S 
ATOM      6  S   UNL     1      -0.749  -1.249   0.000  0.00  0.00    +0.000 S 
ATOM      7  O   UNL     1       0.703   1.266   0.000  0.00  0.00    +0.000 OA
ENDROOT
BRANCH   1   8
ATOM      8  N   UNL     1       0.890  -0.519   0.000  0.00  0.00    +0.000 NA
BRANCH   8   9
ATOM      9  S   UNL     1       0.890  -1.344   0.000  0.00  0.00    +0.000 S 
ATOM     10  O   UNL     1       1.715  -1.344   0.000  0.00  0.00    +0.000 OA
ATOM     11  O   UNL     1       0.065  -1.344   0.000  0.00  0.00    +0.000 OA
BRANCH   9  12
ATOM     12  C   UNL     1       0.890  -2.169   0.000  0.00  0.00    +0.000 A 
ATOM     13  S   UNL     1       1.558  -2.654   0.000  0.00  0.00    +0.000 S 
ATOM     14  C   UNL     1       1.303  -3.438   0.000  0.00  0.00    +0.000 A 
ATOM     15  C   UNL     1       0.478  -3.438   0.000  0.00  0.00    +0.000 A 
ATOM     16  C   UNL     1       0.223  -2.654   0.000  0.00  0.00    +0.000 A 
ENDBRANCH   9  12
ENDBRANCH   8   9
ENDBRANCH   1   8
BRANCH   3  17
ATOM     17  C   UNL     1      -1.053   1.639   0.000  0.00  0.00    +0.000 C 
BRANCH  17  18
ATOM     18  C   UNL     1      -0.568   2.307   0.000  0.00  0.00    +0.000 A 
ATOM     19  C   UNL     1      -0.903   3.060   0.000  0.00  0.00    +0.000 A 
ATOM     20  C   UNL     1      -0.419   3.728   0.000  0.00  0.00    +0.000 A 
ATOM     21  C   UNL     1       0.737   2.888   0.000  0.00  0.00    +0.000 A 
ATOM     22  C   UNL     1       0.402   3.642   0.000  0.00  0.00    +0.000 A 
ATOM     23 CL   UNL     1       0.887   4.309   0.000  0.00  0.00    +0.000 Cl
ATOM     24  C   UNL     1       0.253   2.220   0.000  0.00  0.00    +0.000 A 
ATOM     25 CL   UNL     1       1.558   2.802   0.000  0.00  0.00    +0.000 Cl
ENDBRANCH  17  18
ENDBRANCH   3  17
TORSDOF 5
