REMARK  Name = 5HE
REMARK  13 active torsions:
REMARK  status: ('A' for Active; 'I' for Inactive)
REMARK    1  A    between atoms: C_2  and  C_3
REMARK    2  A    between atoms: C_4  and  C_5
REMARK    3  A    between atoms: C_5  and  C_6
REMARK    4  A    between atoms: C_7  and  C_8
REMARK    5  A    between atoms: C_8  and  C_9
REMARK    6  A    between atoms: C_10  and  C_11
REMARK    7  A    between atoms: C_11  and  C_12
REMARK    8  A    between atoms: C_13  and  C_14
REMARK    9  A    between atoms: C_15  and  C_16
REMARK   10  A    between atoms: C_16  and  C_17
REMARK   11  A    between atoms: C_17  and  C_18
REMARK   12  A    between atoms: C_18  and  C_19
REMARK   13  A    between atoms: C_19  and  C_20
REMARK                            x       y       z     vdW  Elec       q    Type
REMARK                         _______ _______ _______ _____ _____    ______ ____
ROOT
ATOM      1  C   UNL     1      -2.854   0.781   0.000  0.00  0.00    +0.000 C 
ATOM      2  C   UNL     1      -2.854  -0.044   0.000  0.00  0.00    +0.000 C 
ENDROOT
BRANCH   2   3
ATOM      3  C   UNL     1      -2.139  -0.457   0.000  0.00  0.00    +0.000 C 
ATOM      4  C   UNL     1      -2.139  -1.282   0.000  0.00  0.00    +0.000 C 
BRANCH   4   5
ATOM      5  C   UNL     1      -1.425  -1.694   0.000  0.00  0.00    +0.000 C 
ATOM      6  O   UNL     1      -1.425  -2.519   0.000  0.00  0.00    +0.000 OA
BRANCH   5   7
ATOM      7  C   UNL     1      -0.710  -1.282   0.000  0.00  0.00    +0.000 C 
BRANCH   7   8
ATOM      8  C   UNL     1       0.004  -1.694   0.000  0.00  0.00    +0.000 C 
BRANCH   8   9
ATOM      9  C   UNL     1       0.719  -1.282   0.000  0.00  0.00    +0.000 C 
BRANCH   9  10
ATOM     10  C   UNL     1       1.433  -1.694   0.000  0.00  0.00    +0.000 C 
ATOM     11  O   UNL     1       2.148  -1.282   0.000  0.00  0.00    +0.000 OA
ATOM     12  O   UNL     1       1.433  -2.519   0.000  0.00  0.00    +0.000 OA
ENDBRANCH   9  10
ENDBRANCH   8   9
ENDBRANCH   7   8
ENDBRANCH   5   7
ENDBRANCH   4   5
ENDBRANCH   2   3
BRANCH   1  13
ATOM     13  C   UNL     1      -2.139   1.194   0.000  0.00  0.00    +0.000 C 
BRANCH  13  15
ATOM     14  C   UNL     1      -1.425   2.431   0.000  0.00  0.00    +0.000 C 
ATOM     15  C   UNL     1      -2.139   2.018   0.000  0.00  0.00    +0.000 C 
BRANCH  14  16
ATOM     16  C   UNL     1      -0.710   2.018   0.000  0.00  0.00    +0.000 C 
BRANCH  16  18
ATOM     17  C   UNL     1       0.719   2.018   0.000  0.00  0.00    +0.000 C 
ATOM     18  C   UNL     1       0.004   2.431   0.000  0.00  0.00    +0.000 C 
BRANCH  17  19
ATOM     19  C   UNL     1       0.719   1.194   0.000  0.00  0.00    +0.000 C 
BRANCH  19  21
ATOM     20  C   UNL     1       1.433  -0.044   0.000  0.00  0.00    +0.000 C 
ATOM     21  C   UNL     1       1.433   0.781   0.000  0.00  0.00    +0.000 C 
BRANCH  20  23
ATOM     22  C   UNL     1       0.004  -0.044   0.000  0.00  0.00    +0.000 C 
ATOM     23  C   UNL     1       0.719  -0.457   0.000  0.00  0.00    +0.000 C 
ENDBRANCH  20  23
ENDBRANCH  19  21
ENDBRANCH  17  19
ENDBRANCH  16  18
ENDBRANCH  14  16
ENDBRANCH  13  15
ENDBRANCH   1  13
TORSDOF 13
