REMARK  Name = 5ID
REMARK  2 active torsions:
REMARK  status: ('A' for Active; 'I' for Inactive)
REMARK    1  A    between atoms: C5*_2  and  C4*_3
REMARK    2  A    between atoms: C1*_5  and  N_6
REMARK                            x       y       z     vdW  Elec       q    Type
REMARK                         _______ _______ _______ _____ _____    ______ ____
ROOT
ATOM      1  N   UNL     1      -0.877   0.805   0.000  0.00  0.00    +0.000 N 
ATOM      2  C   UNL     1      -1.362   1.472   0.000  0.00  0.00    +0.000 A 
ATOM      3  C   UNL     1      -0.877   2.140   0.000  0.00  0.00    +0.000 A 
ATOM      4  C   UNL     1      -0.092   1.885   0.000  0.00  0.00    +0.000 A 
ATOM      5  C   UNL     1       0.622   2.297   0.000  0.00  0.00    +0.000 A 
ATOM      6  N   UNL     1       1.337   1.885   0.000  0.00  0.00    +0.000 NA
ATOM      7  C   UNL     1       1.337   1.060   0.000  0.00  0.00    +0.000 A 
ATOM      8  N   UNL     1       0.622   0.647   0.000  0.00  0.00    +0.000 NA
ATOM      9  C   UNL     1      -0.092   1.060   0.000  0.00  0.00    +0.000 A 
ATOM     10  N   UNL     1       0.622   3.122   0.000  0.00  0.00    +0.000 NA
ATOM     11  I   UNL     1      -1.132   2.924   0.000  0.00  0.00    +0.000 I 
ENDROOT
BRANCH   1  14
ATOM     12  C4* UNL     1      -1.917  -1.060   0.000  0.00  0.00    +0.000 C 
ATOM     13  O4* UNL     1      -1.917  -0.235   0.000  0.00  0.00    +0.000 OA
ATOM     14  C1* UNL     1      -1.132   0.020   0.000  0.00  0.00    +0.000 C 
ATOM     15  C2* UNL     1      -0.647  -0.647   0.000  0.00  0.00    +0.000 C 
ATOM     16  O2* UNL     1       0.178  -0.647   0.000  0.00  0.00    +0.000 OA
ATOM     17  C3* UNL     1      -1.132  -1.315   0.000  0.00  0.00    +0.000 C 
ATOM     18  O3* UNL     1      -0.877  -2.099   0.000  0.00  0.00    +0.000 OA
BRANCH  12  20
ATOM     19  O5* UNL     1      -2.498  -2.365   0.000  0.00  0.00    +0.000 OA
ATOM     20  C5* UNL     1      -2.584  -1.545   0.000  0.00  0.00    +0.000 C 
ENDBRANCH  12  20
ENDBRANCH   1  14
TORSDOF 2
