REMARK  Name = 5IG
REMARK  6 active torsions:
REMARK  status: ('A' for Active; 'I' for Inactive)
REMARK    1  A    between atoms: C_5  and  C_9
REMARK    2  A    between atoms: C_6  and  C_15
REMARK    3  A    between atoms: N_19  and  C_20
REMARK    4  A    between atoms: C_20  and  C_21
REMARK    5  A    between atoms: C_21  and  C_22
REMARK    6  A    between atoms: C_22  and  O_23
REMARK                            x       y       z     vdW  Elec       q    Type
REMARK                         _______ _______ _______ _____ _____    ______ ____
ROOT
ATOM      1  C   UNL     1      -1.839   0.448   0.000  0.00  0.00    +0.000 A 
ATOM      2  C   UNL     1      -1.839  -0.377   0.000  0.00  0.00    +0.000 A 
ATOM      3  C   UNL     1      -1.125  -0.789   0.000  0.00  0.00    +0.000 A 
ATOM      4  C   UNL     1      -0.410  -0.377   0.000  0.00  0.00    +0.000 A 
ATOM      5  C   UNL     1      -0.410   0.448   0.000  0.00  0.00    +0.000 A 
ATOM      6  C   UNL     1      -1.125   0.861   0.000  0.00  0.00    +0.000 A 
ATOM      7  O   UNL     1      -1.125  -1.614   0.000  0.00  0.00    +0.000 OA
ATOM      8  C   UNL     1      -0.410  -2.027   0.000  0.00  0.00    +0.000 C 
ATOM      9  C   UNL     1       0.304  -1.614   0.000  0.00  0.00    +0.000 C 
ATOM     10  N   UNL     1       0.304  -0.789   0.000  0.00  0.00    +0.000 N 
ATOM     11  C   UNL     1      -0.797  -2.755   0.000  0.00  0.00    +0.000 C 
ATOM     12  C   UNL     1      -0.023  -2.755   0.000  0.00  0.00    +0.000 C 
ATOM     13  O   UNL     1       1.019  -2.027   0.000  0.00  0.00    +0.000 OA
ENDROOT
BRANCH   6  19
ATOM     14  C   UNL     1      -1.839   2.098   0.000  0.00  0.00    +0.000 A 
ATOM     15  N   UNL     1      -1.839   2.923   0.000  0.00  0.00    +0.000 NA
ATOM     16  C   UNL     1      -1.125   3.336   0.000  0.00  0.00    +0.000 A 
ATOM     17  N   UNL     1      -0.410   2.923   0.000  0.00  0.00    +0.000 NA
ATOM     18  C   UNL     1      -0.410   2.098   0.000  0.00  0.00    +0.000 A 
ATOM     19  C   UNL     1      -1.125   1.686   0.000  0.00  0.00    +0.000 A 
ATOM     20  N   UNL     1      -2.553   1.686   0.000  0.00  0.00    +0.000 NA
ATOM     21  N   UNL     1      -1.125   4.161   0.000  0.00  0.00    +0.000 NA
BRANCH  18  22
ATOM     22  C   UNL     1       0.304   1.686   0.000  0.00  0.00    +0.000 C 
ATOM     23  C   UNL     1       0.304   0.861   0.000  0.00  0.00    +0.000 C 
ENDBRANCH  18  22
ENDBRANCH   6  19
BRANCH  10  24
ATOM     24  C   UNL     1       1.019  -0.377   0.000  0.00  0.00    +0.000 C 
BRANCH  24  25
ATOM     25  C   UNL     1       1.733  -0.789   0.000  0.00  0.00    +0.000 C 
BRANCH  25  26
ATOM     26  C   UNL     1       2.448  -0.377   0.000  0.00  0.00    +0.000 C 
BRANCH  26  27
ATOM     27  O   UNL     1       3.162  -0.789   0.000  0.00  0.00    +0.000 OA
ATOM     28  C   UNL     1       3.877  -0.377   0.000  0.00  0.00    +0.000 C 
ENDBRANCH  26  27
ENDBRANCH  25  26
ENDBRANCH  24  25
ENDBRANCH  10  24
TORSDOF 6
