REMARK  Name = 5MS
REMARK  5 active torsions:
REMARK  status: ('A' for Active; 'I' for Inactive)
REMARK    1  A    between atoms: C_4  and  N_7
REMARK    2  A    between atoms: C_6  and  N_21
REMARK    3  A    between atoms: N_7  and  C_8
REMARK    4  A    between atoms: C_10  and  C_14
REMARK    5  A    between atoms: N_21  and  S_22
REMARK                            x       y       z     vdW  Elec       q    Type
REMARK                         _______ _______ _______ _____ _____    ______ ____
ROOT
ATOM      1  N   UNL     1      -0.872  -1.119   0.000  0.00  0.00    +0.000 NA
ENDROOT
BRANCH   1   5
ATOM      2  C   UNL     1      -0.872   1.356   0.000  0.00  0.00    +0.000 A 
ATOM      3  C   UNL     1      -0.157   0.944   0.000  0.00  0.00    +0.000 A 
ATOM      4  C   UNL     1      -0.157   0.119   0.000  0.00  0.00    +0.000 A 
ATOM      5  C   UNL     1      -0.872  -0.294   0.000  0.00  0.00    +0.000 A 
ATOM      6  C   UNL     1      -1.586   0.119   0.000  0.00  0.00    +0.000 A 
ATOM      7  C   UNL     1      -1.586   0.944   0.000  0.00  0.00    +0.000 A 
ATOM      8  C   UNL     1      -0.872   2.181   0.000  0.00  0.00    +0.000 C 
BRANCH   7   9
ATOM      9  N   UNL     1      -2.301   1.356   0.000  0.00  0.00    +0.000 NA
BRANCH   9  10
ATOM     10  S   UNL     1      -3.015   0.944   0.000  0.00  0.00    +0.000 S 
ATOM     11  C   UNL     1      -3.730   0.531   0.000  0.00  0.00    +0.000 C 
ATOM     12  O   UNL     1      -3.428   1.658   0.000  0.00  0.00    +0.000 OA
ATOM     13  O   UNL     1      -2.603   0.229   0.000  0.00  0.00    +0.000 OA
ENDBRANCH   9  10
ENDBRANCH   7   9
ENDBRANCH   1   5
BRANCH   1  14
ATOM     14  C   UNL     1      -0.157  -1.531   0.000  0.00  0.00    +0.000 A 
ATOM     15  C   UNL     1       0.557  -1.119   0.000  0.00  0.00    +0.000 A 
ATOM     16  C   UNL     1       1.272  -1.531   0.000  0.00  0.00    +0.000 A 
ATOM     17  N   UNL     1       1.272  -2.356   0.000  0.00  0.00    +0.000 NA
ATOM     18  C   UNL     1       0.557  -2.769   0.000  0.00  0.00    +0.000 A 
ATOM     19  N   UNL     1      -0.157  -2.356   0.000  0.00  0.00    +0.000 NA
BRANCH  16  20
ATOM     20  C   UNL     1       1.986  -1.119   0.000  0.00  0.00    +0.000 A 
ATOM     21  C   UNL     1       1.986  -0.294   0.000  0.00  0.00    +0.000 A 
ATOM     22  C   UNL     1       2.700   0.119   0.000  0.00  0.00    +0.000 A 
ATOM     23  C   UNL     1       3.415  -0.294   0.000  0.00  0.00    +0.000 A 
ATOM     24  C   UNL     1       3.415  -1.119   0.000  0.00  0.00    +0.000 A 
ATOM     25  C   UNL     1       2.700  -1.531   0.000  0.00  0.00    +0.000 A 
ENDBRANCH  16  20
ENDBRANCH   1  14
TORSDOF 5
