REMARK  Name = 5PP
REMARK  6 active torsions:
REMARK  status: ('A' for Active; 'I' for Inactive)
REMARK    1  A    between atoms: C_3  and  O_4
REMARK    2  A    between atoms: O_4  and  C_5
REMARK    3  A    between atoms: C_13  and  C_15
REMARK    4  A    between atoms: C_15  and  C_16
REMARK    5  A    between atoms: C_16  and  C_17
REMARK    6  A    between atoms: C_17  and  C_18
REMARK                            x       y       z     vdW  Elec       q    Type
REMARK                         _______ _______ _______ _____ _____    ______ ____
ROOT
ATOM      1  O   UNL     1       0.132  -2.041   0.000  0.00  0.00    +0.000 OA
ATOM      2  C   UNL     1       0.132  -1.216   0.000  0.00  0.00    +0.000 A 
ATOM      3  C   UNL     1      -0.583  -0.803   0.000  0.00  0.00    +0.000 A 
ATOM      4  C   UNL     1      -0.583   0.021   0.000  0.00  0.00    +0.000 A 
ATOM      5  C   UNL     1       0.132   0.434   0.000  0.00  0.00    +0.000 A 
ATOM      6  C   UNL     1       0.846   0.021   0.000  0.00  0.00    +0.000 A 
ATOM      7  C   UNL     1       0.846  -0.803   0.000  0.00  0.00    +0.000 A 
ENDROOT
BRANCH   3   8
ATOM      8  O   UNL     1      -1.297  -1.216   0.000  0.00  0.00    +0.000 OA
BRANCH   8   9
ATOM      9  C   UNL     1      -2.011  -0.803   0.000  0.00  0.00    +0.000 A 
ATOM     10  C   UNL     1      -2.726  -1.216   0.000  0.00  0.00    +0.000 A 
ATOM     11  C   UNL     1      -3.440  -0.803   0.000  0.00  0.00    +0.000 A 
ATOM     12  C   UNL     1      -3.440   0.021   0.000  0.00  0.00    +0.000 A 
ATOM     13  C   UNL     1      -2.726   0.434   0.000  0.00  0.00    +0.000 A 
ATOM     14  C   UNL     1      -2.011   0.021   0.000  0.00  0.00    +0.000 A 
ENDBRANCH   8   9
ENDBRANCH   3   8
BRANCH   6  15
ATOM     15  C   UNL     1       1.561   0.434   0.000  0.00  0.00    +0.000 C 
BRANCH  15  16
ATOM     16  C   UNL     1       2.275   0.021   0.000  0.00  0.00    +0.000 C 
BRANCH  16  17
ATOM     17  C   UNL     1       2.990   0.434   0.000  0.00  0.00    +0.000 C 
BRANCH  17  18
ATOM     18  C   UNL     1       3.704   0.021   0.000  0.00  0.00    +0.000 C 
ATOM     19  C   UNL     1       4.419   0.434   0.000  0.00  0.00    +0.000 C 
ENDBRANCH  17  18
ENDBRANCH  16  17
ENDBRANCH  15  16
ENDBRANCH   6  15
TORSDOF 6
