REMARK  Name = 5RM
REMARK  5 active torsions:
REMARK  status: ('A' for Active; 'I' for Inactive)
REMARK    1  A    between atoms: C_6  and  C_8
REMARK    2  A    between atoms: C_11  and  O_12
REMARK    3  A    between atoms: C_14  and  O_16
REMARK    4  A    between atoms: O_16  and  C_17
REMARK    5  A    between atoms: C_17  and  C_18
REMARK                            x       y       z     vdW  Elec       q    Type
REMARK                         _______ _______ _______ _____ _____    ______ ____
ROOT
ATOM      1  C   UNL     1       0.392  -1.254   0.000  0.00  0.00    +0.000 A 
ATOM      2  C   UNL     1      -0.413  -1.434   0.000  0.00  0.00    +0.000 A 
ATOM      3  C   UNL     1      -0.971  -0.827   0.000  0.00  0.00    +0.000 A 
ATOM      4  C   UNL     1      -0.725  -0.039   0.000  0.00  0.00    +0.000 A 
ATOM      5  C   UNL     1       0.081   0.141   0.000  0.00  0.00    +0.000 A 
ATOM      6  C   UNL     1       0.639  -0.467   0.000  0.00  0.00    +0.000 A 
ENDROOT
BRANCH   1  12
ATOM      7  O   UNL     1       2.516  -3.313   0.000  0.00  0.00    +0.000 OA
ATOM      8  C   UNL     1       2.031  -2.646   0.000  0.00  0.00    +0.000 C 
ATOM      9  O   UNL     1       1.206  -2.646   0.000  0.00  0.00    +0.000 OA
ATOM     10  N   UNL     1       2.286  -1.861   0.000  0.00  0.00    +0.000 NA
ATOM     11  C   UNL     1       1.618  -1.376   0.000  0.00  0.00    +0.000 C 
ATOM     12  C   UNL     1       0.951  -1.861   0.000  0.00  0.00    +0.000 C 
ATOM     13  C   UNL     1       0.142  -2.024   0.000  0.00  0.00    +0.000 C 
ENDBRANCH   1  12
BRANCH   4  14
ATOM     14  O   UNL     1      -1.283   0.568   0.000  0.00  0.00    +0.000 OA
ATOM     15  C   UNL     1      -1.036   1.355   0.000  0.00  0.00    +0.000 C 
ENDBRANCH   4  14
BRANCH   5  16
ATOM     16  O   UNL     1       0.327   0.928   0.000  0.00  0.00    +0.000 OA
BRANCH  16  17
ATOM     17  C   UNL     1      -0.231   1.535   0.000  0.00  0.00    +0.000 C 
BRANCH  17  18
ATOM     18  C   UNL     1       0.016   2.322   0.000  0.00  0.00    +0.000 C 
ATOM     19  C   UNL     1      -0.543   2.930   0.000  0.00  0.00    +0.000 C 
ENDBRANCH  17  18
ENDBRANCH  16  17
ENDBRANCH   5  16
TORSDOF 5
