REMARK  Name = 5SC
REMARK  4 active torsions:
REMARK  status: ('A' for Active; 'I' for Inactive)
REMARK    1  A    between atoms: C_7  and  C_11
REMARK    2  A    between atoms: C_9  and  N_10
REMARK    3  A    between atoms: N_10  and  C_12
REMARK    4  A    between atoms: C_12  and  C_13
REMARK                            x       y       z     vdW  Elec       q    Type
REMARK                         _______ _______ _______ _____ _____    ______ ____
ROOT
ATOM      1  C   UNL     1      -2.133   0.891   0.000  0.00  0.00    +0.000 A 
ATOM      2  C   UNL     1      -1.348   0.636   0.000  0.00  0.00    +0.000 A 
ATOM      3  N   UNL     1      -1.348  -0.189   0.000  0.00  0.00    +0.000 N 
ATOM      4  N   UNL     1      -2.133  -0.444   0.000  0.00  0.00    +0.000 NA
ATOM      5  C   UNL     1      -2.618   0.224   0.000  0.00  0.00    +0.000 A 
ATOM      6  N   UNL     1      -0.634   1.049   0.000  0.00  0.00    +0.000 NA
ATOM      7  C   UNL     1       0.081   0.636   0.000  0.00  0.00    +0.000 A 
ATOM      8  C   UNL     1       0.081  -0.189   0.000  0.00  0.00    +0.000 A 
ATOM      9  C   UNL     1      -0.634  -0.601   0.000  0.00  0.00    +0.000 A 
ATOM     10 BR   UNL     1      -2.388   1.676   0.000  0.00  0.00    +0.000 Br
ENDROOT
BRANCH   7  11
ATOM     11  C   UNL     1       0.795   1.049   0.000  0.00  0.00    +0.000 A 
ATOM     12  C   UNL     1       0.795   1.874   0.000  0.00  0.00    +0.000 A 
ATOM     13  C   UNL     1       1.510   2.286   0.000  0.00  0.00    +0.000 A 
ATOM     14  C   UNL     1       2.224   1.874   0.000  0.00  0.00    +0.000 A 
ATOM     15  C   UNL     1       2.224   1.049   0.000  0.00  0.00    +0.000 A 
ATOM     16  C   UNL     1       1.510   0.636   0.000  0.00  0.00    +0.000 A 
ATOM     17  C   UNL     1       0.081   2.286   0.000  0.00  0.00    +0.000 C 
ENDBRANCH   7  11
BRANCH   9  18
ATOM     18  N   UNL     1      -0.634  -1.426   0.000  0.00  0.00    +0.000 NA
BRANCH  18  19
ATOM     19  C   UNL     1      -1.348  -1.839   0.000  0.00  0.00    +0.000 C 
BRANCH  19  20
ATOM     20  C   UNL     1      -1.348  -2.664   0.000  0.00  0.00    +0.000 A 
ATOM     21  C   UNL     1      -2.063  -3.076   0.000  0.00  0.00    +0.000 A 
ATOM     22  N   UNL     1      -2.063  -3.901   0.000  0.00  0.00    +0.000 N 
ATOM     23  C   UNL     1      -1.348  -4.314   0.000  0.00  0.00    +0.000 A 
ATOM     24  C   UNL     1      -0.634  -3.901   0.000  0.00  0.00    +0.000 A 
ATOM     25  C   UNL     1      -0.634  -3.076   0.000  0.00  0.00    +0.000 A 
ATOM     26  O   UNL     1      -2.777  -4.314   0.000  0.00  0.00    +0.000 OA
ENDBRANCH  19  20
ENDBRANCH  18  19
ENDBRANCH   9  18
TORSDOF 4
