REMARK  Name = 600
REMARK  3 active torsions:
REMARK  status: ('A' for Active; 'I' for Inactive)
REMARK    1  A    between atoms: O_1  and  C_4
REMARK    2  A    between atoms: O_1  and  C_5
REMARK    3  A    between atoms: C_3  and  C_4
REMARK                            x       y       z     vdW  Elec       q    Type
REMARK                         _______ _______ _______ _____ _____    ______ ____
ROOT
ATOM      1  O   UNL     1       2.364   0.334   0.000  0.00  0.00    +0.000 OA
ENDROOT
BRANCH   1   3
ATOM      2  O   UNL     1       2.364  -2.966   0.000  0.00  0.00    +0.000 OA
ATOM      3  C   UNL     1       2.364  -0.491   0.000  0.00  0.00    +0.000 A 
ATOM      4  C   UNL     1       1.650  -0.903   0.000  0.00  0.00    +0.000 A 
ATOM      5  C   UNL     1       3.079  -0.903   0.000  0.00  0.00    +0.000 A 
ATOM      6  C   UNL     1       1.650  -1.728   0.000  0.00  0.00    +0.000 A 
ATOM      7  C   UNL     1       3.079  -1.728   0.000  0.00  0.00    +0.000 A 
ATOM      8  C   UNL     1       2.364  -2.141   0.000  0.00  0.00    +0.000 A 
ENDBRANCH   1   3
BRANCH   1   9
ATOM      9  C   UNL     1       3.079   0.747   0.000  0.00  0.00    +0.000 C 
BRANCH   9  10
ATOM     10  C   UNL     1       3.079   1.572   0.000  0.00  0.00    +0.000 A 
ATOM     11  C   UNL     1       2.364   1.984   0.000  0.00  0.00    +0.000 A 
ATOM     12  C   UNL     1       3.793   1.984   0.000  0.00  0.00    +0.000 A 
ATOM     13  C   UNL     1       2.364   2.809   0.000  0.00  0.00    +0.000 A 
ATOM     14  C   UNL     1       3.793   2.809   0.000  0.00  0.00    +0.000 A 
ATOM     15  C   UNL     1       3.079   3.222   0.000  0.00  0.00    +0.000 A 
ENDBRANCH   9  10
ENDBRANCH   1   9
TORSDOF 3
