REMARK  Name = 601
REMARK  4 active torsions:
REMARK  status: ('A' for Active; 'I' for Inactive)
REMARK    1  A    between atoms: N_6  and  C_13
REMARK    2  A    between atoms: N_7  and  C_15
REMARK    3  A    between atoms: N_8  and  C_14
REMARK    4  A    between atoms: C_9  and  C_14
REMARK                            x       y       z     vdW  Elec       q    Type
REMARK                         _______ _______ _______ _____ _____    ______ ____
ROOT
ATOM      1  F   UNL     1       2.088  -2.056   0.000  0.00  0.00    +0.000 F 
ATOM      2  C   UNL     1       3.517  -0.406   0.000  0.00  0.00    +0.000 A 
ATOM      3  C   UNL     1       3.517  -2.056   0.000  0.00  0.00    +0.000 A 
ATOM      4  C   UNL     1       2.803  -0.818   0.000  0.00  0.00    +0.000 A 
ATOM      5  C   UNL     1       4.232  -0.818   0.000  0.00  0.00    +0.000 A 
ATOM      6  C   UNL     1       2.803  -1.643   0.000  0.00  0.00    +0.000 A 
ATOM      7  C   UNL     1       4.232  -1.643   0.000  0.00  0.00    +0.000 A 
ENDROOT
BRANCH   2  10
ATOM      8  O   UNL     1       3.930   1.689   0.000  0.00  0.00    +0.000 OA
ATOM      9  O   UNL     1       4.969   0.649   0.000  0.00  0.00    +0.000 OA
ATOM     10  N   UNL     1       3.517   0.419   0.000  0.00  0.00    +0.000 N 
ATOM     11  C   UNL     1       3.105   1.689   0.000  0.00  0.00    +0.000 C 
ATOM     12  C   UNL     1       2.850   0.904   0.000  0.00  0.00    +0.000 C 
ATOM     13  C   UNL     1       4.185   0.904   0.000  0.00  0.00    +0.000 C 
BRANCH  11  14
ATOM     14  C   UNL     1       2.620   2.356   0.000  0.00  0.00    +0.000 C 
BRANCH  14  16
ATOM     15  O   UNL     1       1.650   3.691   0.000  0.00  0.00    +0.000 OA
ATOM     16  N   UNL     1       2.955   3.110   0.000  0.00  0.00    +0.000 NA
ATOM     17  C   UNL     1       2.470   3.777   0.000  0.00  0.00    +0.000 C 
ATOM     18  C   UNL     1       2.806   4.531   0.000  0.00  0.00    +0.000 C 
ENDBRANCH  14  16
ENDBRANCH  11  14
ENDBRANCH   2  10
BRANCH   3  20
ATOM     19  O   UNL     1       3.517  -4.531   0.000  0.00  0.00    +0.000 OA
ATOM     20  N   UNL     1       3.517  -2.881   0.000  0.00  0.00    +0.000 N 
ATOM     21  C   UNL     1       4.232  -3.293   0.000  0.00  0.00    +0.000 C 
ATOM     22  C   UNL     1       2.803  -3.293   0.000  0.00  0.00    +0.000 C 
ATOM     23  C   UNL     1       4.232  -4.118   0.000  0.00  0.00    +0.000 C 
ATOM     24  C   UNL     1       2.803  -4.118   0.000  0.00  0.00    +0.000 C 
ENDBRANCH   3  20
TORSDOF 4
