REMARK  Name = 605
REMARK  5 active torsions:
REMARK  status: ('A' for Active; 'I' for Inactive)
REMARK    1  A    between atoms: C_3  and  C_7
REMARK    2  A    between atoms: C_7  and  C_8
REMARK    3  A    between atoms: C_8  and  C_9
REMARK    4  A    between atoms: C_13  and  C_16
REMARK    5  A    between atoms: C_20  and  C_24
REMARK                            x       y       z     vdW  Elec       q    Type
REMARK                         _______ _______ _______ _____ _____    ______ ____
ROOT
ATOM      1  C   UNL     1      -0.427   0.524   0.000  0.00  0.00    +0.000 A 
ATOM      2  C   UNL     1       0.287   0.937   0.000  0.00  0.00    +0.000 A 
ATOM      3  C   UNL     1       1.002   0.524   0.000  0.00  0.00    +0.000 A 
ATOM      4  C   UNL     1       1.002  -0.300   0.000  0.00  0.00    +0.000 A 
ATOM      5  C   UNL     1       0.287  -0.713   0.000  0.00  0.00    +0.000 A 
ATOM      6  C   UNL     1      -0.427  -0.300   0.000  0.00  0.00    +0.000 A 
ENDROOT
BRANCH   4   7
ATOM      7  C   UNL     1       1.716  -0.713   0.000  0.00  0.00    +0.000 A 
ATOM      8  C   UNL     1       2.430  -0.300   0.000  0.00  0.00    +0.000 A 
ATOM      9  C   UNL     1       3.145  -0.713   0.000  0.00  0.00    +0.000 A 
ATOM     10  C   UNL     1       3.145  -1.538   0.000  0.00  0.00    +0.000 A 
ATOM     11  C   UNL     1       2.430  -1.950   0.000  0.00  0.00    +0.000 A 
ATOM     12  C   UNL     1       1.716  -1.538   0.000  0.00  0.00    +0.000 A 
BRANCH  11  13
ATOM     13  C   UNL     1       2.430  -2.776   0.000  0.00  0.00    +0.000 C 
ATOM     14  N   UNL     1       3.145  -3.188   0.000  0.00  0.00    +0.000 NA
ATOM     15  O   UNL     1       1.716  -3.188   0.000  0.00  0.00    +0.000 OA
ENDBRANCH  11  13
ENDBRANCH   4   7
BRANCH   1  16
ATOM     16  C   UNL     1      -1.142   0.937   0.000  0.00  0.00    +0.000 C 
ATOM     17  N   UNL     1      -1.142   1.762   0.000  0.00  0.00    +0.000 NA
BRANCH  16  18
ATOM     18  C   UNL     1      -1.856   0.524   0.000  0.00  0.00    +0.000 C 
BRANCH  18  21
ATOM     19  C   UNL     1      -3.285   2.175   0.000  0.00  0.00    +0.000 A 
ATOM     20  C   UNL     1      -2.571   1.762   0.000  0.00  0.00    +0.000 A 
ATOM     21  C   UNL     1      -2.571   0.937   0.000  0.00  0.00    +0.000 A 
ATOM     22  C   UNL     1      -3.285   0.524   0.000  0.00  0.00    +0.000 A 
ATOM     23  C   UNL     1      -4.000   0.937   0.000  0.00  0.00    +0.000 A 
ATOM     24  C   UNL     1      -4.000   1.762   0.000  0.00  0.00    +0.000 A 
ATOM     25  F   UNL     1      -4.714   0.524   0.000  0.00  0.00    +0.000 F 
ATOM     26  F   UNL     1      -1.856   2.175   0.000  0.00  0.00    +0.000 F 
ENDBRANCH  18  21
ENDBRANCH  16  18
ENDBRANCH   1  16
TORSDOF 5
