REMARK  Name = 60714
REMARK  8 active torsions:
REMARK  status: ('A' for Active; 'I' for Inactive)
REMARK    1  A    between atoms: N_9  and  C_21
REMARK    2  A    between atoms: N_10  and  C_23
REMARK    3  A    between atoms: N_11  and  C_24
REMARK    4  A    between atoms: N_12  and  C_25
REMARK    5  A    between atoms: C_21  and  C_22
REMARK    6  A    between atoms: C_23  and  C_28
REMARK    7  A    between atoms: C_24  and  C_27
REMARK    8  A    between atoms: C_25  and  C_29
REMARK                            x       y       z     vdW  Elec       q    Type
REMARK                         _______ _______ _______ _____ _____    ______ ____
ROOT
ATOM      1 GD   UNL     1       1.650   2.769   0.000  0.00  0.00    +0.000 Gd
ENDROOT
TORSDOF 0
REMARK  Name = 60714
REMARK  8 active torsions:
REMARK  status: ('A' for Active; 'I' for Inactive)
REMARK    1  A    between atoms: N_9  and  C_21
REMARK    2  A    between atoms: N_10  and  C_23
REMARK    3  A    between atoms: N_11  and  C_24
REMARK    4  A    between atoms: N_12  and  C_25
REMARK    5  A    between atoms: C_21  and  C_22
REMARK    6  A    between atoms: C_23  and  C_28
REMARK    7  A    between atoms: C_24  and  C_27
REMARK    8  A    between atoms: C_25  and  C_29
REMARK                            x       y       z     vdW  Elec       q    Type
REMARK                         _______ _______ _______ _____ _____    ______ ____
ROOT
ATOM      1  N   UNL     1       6.171   1.029   0.000  0.00  0.00    +0.000 NA
ATOM      2  N   UNL     1       6.095  -1.119   0.000  0.00  0.00    +0.000 NA
ATOM      3  N   UNL     1       3.917   1.029   0.000  0.00  0.00    +0.000 NA
ATOM      4  N   UNL     1       3.917  -0.963   0.000  0.00  0.00    +0.000 NA
ATOM      5  C   UNL     1       5.457   1.441   0.000  0.00  0.00    +0.000 C 
ATOM      6  C   UNL     1       6.171   0.204   0.000  0.00  0.00    +0.000 C 
ATOM      7  C   UNL     1       6.507  -0.405   0.000  0.00  0.00    +0.000 C 
ATOM      8  C   UNL     1       4.742   1.029   0.000  0.00  0.00    +0.000 C 
ATOM      9  C   UNL     1       5.298  -1.333   0.000  0.00  0.00    +0.000 C 
ATOM     10  C   UNL     1       3.334   0.446   0.000  0.00  0.00    +0.000 C 
ATOM     11  C   UNL     1       4.714  -0.749   0.000  0.00  0.00    +0.000 C 
ATOM     12  C   UNL     1       3.334  -0.380   0.000  0.00  0.00    +0.000 C 
ENDROOT
BRANCH   1  13
ATOM     13  C   UNL     1       6.886   1.441   0.000  0.00  0.00    +0.000 C 
BRANCH  13  15
ATOM     14  O   UNL     1       7.600   2.679   0.000  0.00  0.00    +0.000 OA
ATOM     15  C   UNL     1       6.886   2.266   0.000  0.00  0.00    +0.000 C 
ATOM     16  C   UNL     1       6.171   2.679   0.000  0.00  0.00    +0.000 C 
ENDBRANCH  13  15
ENDBRANCH   1  13
BRANCH   2  17
ATOM     17  C   UNL     1       6.597  -1.774   0.000  0.00  0.00    +0.000 C 
BRANCH  17  20
ATOM     18  O   UNL     1       6.783  -3.190   0.000  0.00  0.00    +0.000 OA
ATOM     19  O   UNL     1       5.463  -2.644   0.000  0.00  0.00    +0.000 OA
ATOM     20  C   UNL     1       6.281  -2.536   0.000  0.00  0.00    +0.000 C 
ENDBRANCH  17  20
ENDBRANCH   2  17
BRANCH   3  21
ATOM     21  C   UNL     1       3.602   1.791   0.000  0.00  0.00    +0.000 C 
BRANCH  21  24
ATOM     22  O   UNL     1       2.468   2.661   0.000  0.00  0.00    +0.000 OA
ATOM     23  O   UNL     1       2.281   1.244   0.000  0.00  0.00    +0.000 OA
ATOM     24  C   UNL     1       2.784   1.899   0.000  0.00  0.00    +0.000 C 
ENDBRANCH  21  24
ENDBRANCH   3  21
BRANCH   4  25
ATOM     25  C   UNL     1       3.704  -1.760   0.000  0.00  0.00    +0.000 C 
BRANCH  25  28
ATOM     26  O   UNL     1       2.693  -2.770   0.000  0.00  0.00    +0.000 OA
ATOM     27  O   UNL     1       2.324  -1.390   0.000  0.00  0.00    +0.000 OA
ATOM     28  C   UNL     1       2.907  -1.973   0.000  0.00  0.00    +0.000 C 
ENDBRANCH  25  28
ENDBRANCH   4  25
TORSDOF 8
