REMARK  Name = 608
REMARK  7 active torsions:
REMARK  status: ('A' for Active; 'I' for Inactive)
REMARK    1  A    between atoms: C_3  and  N_22
REMARK    2  A    between atoms: C_6  and  O_24
REMARK    3  A    between atoms: C_10  and  C_20
REMARK    4  A    between atoms: C_13  and  C_21
REMARK    5  A    between atoms: C_18  and  N_19
REMARK    6  A    between atoms: N_19  and  C_20
REMARK    7  A    between atoms: O_24  and  C_29
REMARK                            x       y       z     vdW  Elec       q    Type
REMARK                         _______ _______ _______ _____ _____    ______ ____
ROOT
ATOM      1  C   UNL     1       1.714  -0.882   0.000  0.00  0.00    +0.000 C 
ATOM      2  N   UNL     1       1.714  -0.057   0.000  0.00  0.00    +0.000 NA
ATOM      3  O   UNL     1       2.428  -1.294   0.000  0.00  0.00    +0.000 OA
ENDROOT
BRANCH   2   6
ATOM      4  C   UNL     1       3.143   1.593   0.000  0.00  0.00    +0.000 A 
ATOM      5  C   UNL     1       2.428   1.181   0.000  0.00  0.00    +0.000 A 
ATOM      6  C   UNL     1       2.428   0.356   0.000  0.00  0.00    +0.000 A 
ATOM      7  C   UNL     1       3.143  -0.057   0.000  0.00  0.00    +0.000 A 
ATOM      8  C   UNL     1       3.857   0.356   0.000  0.00  0.00    +0.000 A 
ATOM      9  C   UNL     1       3.857   1.181   0.000  0.00  0.00    +0.000 A 
BRANCH   9  10
ATOM     10  O   UNL     1       4.572   1.593   0.000  0.00  0.00    +0.000 OA
BRANCH  10  15
ATOM     11  C   UNL     1       3.857   3.656   0.000  0.00  0.00    +0.000 A 
ATOM     12  C   UNL     1       4.572   4.068   0.000  0.00  0.00    +0.000 A 
ATOM     13  C   UNL     1       5.286   3.656   0.000  0.00  0.00    +0.000 A 
ATOM     14  C   UNL     1       5.286   2.831   0.000  0.00  0.00    +0.000 A 
ATOM     15  C   UNL     1       4.572   2.418   0.000  0.00  0.00    +0.000 A 
ATOM     16  C   UNL     1       3.857   2.831   0.000  0.00  0.00    +0.000 A 
ENDBRANCH  10  15
ENDBRANCH   9  10
ENDBRANCH   2   6
BRANCH   1  17
ATOM     17  C   UNL     1       1.000  -1.294   0.000  0.00  0.00    +0.000 A 
ATOM     18  C   UNL     1       0.285  -0.882   0.000  0.00  0.00    +0.000 A 
ATOM     19  C   UNL     1      -0.429  -1.294   0.000  0.00  0.00    +0.000 A 
ATOM     20  C   UNL     1      -0.429  -2.119   0.000  0.00  0.00    +0.000 A 
ATOM     21  N   UNL     1       0.285  -2.532   0.000  0.00  0.00    +0.000 NA
ATOM     22  C   UNL     1       1.000  -2.119   0.000  0.00  0.00    +0.000 A 
BRANCH  22  23
ATOM     23  N   UNL     1       1.714  -2.532   0.000  0.00  0.00    +0.000 NA
BRANCH  23  24
ATOM     24  C   UNL     1       1.714  -3.357   0.000  0.00  0.00    +0.000 C 
BRANCH  24  28
ATOM     25  C   UNL     1      -0.429  -3.769   0.000  0.00  0.00    +0.000 A 
ATOM     26  N   UNL     1      -0.429  -4.594   0.000  0.00  0.00    +0.000 NA
ATOM     27  C   UNL     1       0.285  -3.357   0.000  0.00  0.00    +0.000 A 
ATOM     28  C   UNL     1       1.000  -3.769   0.000  0.00  0.00    +0.000 A 
ATOM     29  C   UNL     1       1.000  -4.594   0.000  0.00  0.00    +0.000 A 
ATOM     30  C   UNL     1       0.285  -5.007   0.000  0.00  0.00    +0.000 A 
ENDBRANCH  24  28
ENDBRANCH  23  24
ENDBRANCH  22  23
ENDBRANCH   1  17
TORSDOF 7
