REMARK  Name = 609
REMARK  2 active torsions:
REMARK  status: ('A' for Active; 'I' for Inactive)
REMARK    1  A    between atoms: C_4  and  C_5
REMARK    2  A    between atoms: C_7  and  C_11
REMARK                            x       y       z     vdW  Elec       q    Type
REMARK                         _______ _______ _______ _____ _____    ______ ____
ROOT
ATOM      1  N   UNL     1       3.079  -1.287   0.000  0.00  0.00    +0.000 NA
ATOM      2  C   UNL     1       2.364  -0.875   0.000  0.00  0.00    +0.000 A 
ATOM      3  C   UNL     1       2.364  -0.050   0.000  0.00  0.00    +0.000 A 
ATOM      4  C   UNL     1       3.079   0.363   0.000  0.00  0.00    +0.000 A 
ATOM      5  C   UNL     1       3.793  -0.050   0.000  0.00  0.00    +0.000 A 
ATOM      6  C   UNL     1       3.793  -0.875   0.000  0.00  0.00    +0.000 A 
ENDROOT
BRANCH   4   9
ATOM      7  S   UNL     1       2.364   1.601   0.000  0.00  0.00    +0.000 S 
ATOM      8  N   UNL     1       3.793   1.601   0.000  0.00  0.00    +0.000 NA
ATOM      9  C   UNL     1       3.079   1.188   0.000  0.00  0.00    +0.000 C 
ENDBRANCH   4   9
BRANCH   2  10
ATOM     10  C   UNL     1       1.650  -1.287   0.000  0.00  0.00    +0.000 C 
ATOM     11  C   UNL     1       1.650  -2.112   0.000  0.00  0.00    +0.000 C 
ENDBRANCH   2  10
TORSDOF 2
