REMARK  Name = 611
REMARK  2 active torsions:
REMARK  status: ('A' for Active; 'I' for Inactive)
REMARK    1  A    between atoms: N_3  and  C_16
REMARK    2  A    between atoms: C_16  and  C_17
REMARK                            x       y       z     vdW  Elec       q    Type
REMARK                         _______ _______ _______ _____ _____    ______ ____
ROOT
ATOM      1  O   UNL     1       6.435  -0.234   0.000  0.00  0.00    +0.000 OA
ATOM      2  O   UNL     1       2.094  -1.079   0.000  0.00  0.00    +0.000 OA
ATOM      3  N   UNL     1       5.372   0.171   0.000  0.00  0.00    +0.000 NA
ATOM      4  C   UNL     1       5.006  -1.059   0.000  0.00  0.00    +0.000 C 
ATOM      5  C   UNL     1       5.721  -0.647   0.000  0.00  0.00    +0.000 C 
ATOM      6  C   UNL     1       5.721   0.178   0.000  0.00  0.00    +0.000 C 
ATOM      7  C   UNL     1       4.839  -0.754   0.000  0.00  0.00    +0.000 C 
ATOM      8  C   UNL     1       4.993  -1.918   0.000  0.00  0.00    +0.000 C 
ATOM      9  C   UNL     1       6.471  -1.065   0.000  0.00  0.00    +0.000 C 
ATOM     10  C   UNL     1       4.292  -0.647   0.000  0.00  0.00    +0.000 A 
ATOM     11  C   UNL     1       4.769  -0.098   0.000  0.00  0.00    +0.000 C 
ATOM     12  C   UNL     1       5.006   0.591   0.000  0.00  0.00    +0.000 C 
ATOM     13  C   UNL     1       5.734  -2.354   0.000  0.00  0.00    +0.000 C 
ATOM     14  C   UNL     1       6.478  -1.924   0.000  0.00  0.00    +0.000 C 
ATOM     15  C   UNL     1       4.292   0.178   0.000  0.00  0.00    +0.000 A 
ATOM     16  C   UNL     1       3.554  -1.088   0.000  0.00  0.00    +0.000 A 
ATOM     17  C   UNL     1       3.554   0.620   0.000  0.00  0.00    +0.000 A 
ATOM     18  C   UNL     1       2.807  -0.664   0.000  0.00  0.00    +0.000 A 
ATOM     19  C   UNL     1       2.807   0.196   0.000  0.00  0.00    +0.000 A 
ENDROOT
BRANCH   3  20
ATOM     20  C   UNL     1       5.544   0.978   0.000  0.00  0.00    +0.000 C 
BRANCH  20  21
ATOM     21  C   UNL     1       4.931   1.530   0.000  0.00  0.00    +0.000 C 
ATOM     22  C   UNL     1       4.107   1.487   0.000  0.00  0.00    +0.000 C 
ATOM     23  C   UNL     1       4.888   2.354   0.000  0.00  0.00    +0.000 C 
ATOM     24  C   UNL     1       4.064   2.310   0.000  0.00  0.00    +0.000 C 
ENDBRANCH  20  21
ENDBRANCH   3  20
TORSDOF 2
