REMARK  Name = 612
REMARK  6 active torsions:
REMARK  status: ('A' for Active; 'I' for Inactive)
REMARK    1  A    between atoms: C_1  and  S_7
REMARK    2  A    between atoms: S_7  and  C_8
REMARK    3  A    between atoms: C_9  and  C_10
REMARK    4  A    between atoms: N_15  and  C_19
REMARK    5  A    between atoms: C_19  and  O_20
REMARK    6  A    between atoms: O_20  and  C_21
REMARK                            x       y       z     vdW  Elec       q    Type
REMARK                         _______ _______ _______ _____ _____    ______ ____
ROOT
ATOM      1  C   UNL     1      -0.072   0.654   0.000  0.00  0.00    +0.000 A 
ATOM      2  C   UNL     1      -0.072   1.479   0.000  0.00  0.00    +0.000 A 
ATOM      3  C   UNL     1      -0.786   1.892   0.000  0.00  0.00    +0.000 A 
ATOM      4  O   UNL     1      -0.786   2.717   0.000  0.00  0.00    +0.000 OA
ATOM      5  N   UNL     1      -0.786   0.242   0.000  0.00  0.00    +0.000 N 
ATOM      6  C   UNL     1      -1.501   0.654   0.000  0.00  0.00    +0.000 A 
ATOM      7  O   UNL     1      -2.215   0.242   0.000  0.00  0.00    +0.000 OA
ATOM      8  N   UNL     1      -1.501   1.479   0.000  0.00  0.00    +0.000 NA
ENDROOT
BRANCH   2   9
ATOM      9  C   UNL     1       0.643   1.892   0.000  0.00  0.00    +0.000 C 
ATOM     10  C   UNL     1       1.357   1.479   0.000  0.00  0.00    +0.000 C 
ATOM     11  C   UNL     1       0.643   2.717   0.000  0.00  0.00    +0.000 C 
ENDBRANCH   2   9
BRANCH   1  12
ATOM     12  S   UNL     1       0.643   0.242   0.000  0.00  0.00    +0.000 S 
BRANCH  12  13
ATOM     13  C   UNL     1       0.643  -0.583   0.000  0.00  0.00    +0.000 C 
ATOM     14  C   UNL     1      -0.072  -0.996   0.000  0.00  0.00    +0.000 C 
ATOM     15  C   UNL     1      -0.072  -1.821   0.000  0.00  0.00    +0.000 C 
ATOM     16  C   UNL     1       0.643  -2.233   0.000  0.00  0.00    +0.000 C 
ATOM     17  C   UNL     1       1.357  -1.821   0.000  0.00  0.00    +0.000 C 
ATOM     18  C   UNL     1       1.357  -0.996   0.000  0.00  0.00    +0.000 C 
ENDBRANCH  12  13
ENDBRANCH   1  12
BRANCH   5  19
ATOM     19  C   UNL     1      -0.786  -0.583   0.000  0.00  0.00    +0.000 C 
BRANCH  19  20
ATOM     20  O   UNL     1      -1.501  -0.996   0.000  0.00  0.00    +0.000 OA
BRANCH  20  21
ATOM     21  C   UNL     1      -2.215  -0.583   0.000  0.00  0.00    +0.000 C 
ATOM     22  C   UNL     1      -2.929  -0.996   0.000  0.00  0.00    +0.000 C 
ENDBRANCH  20  21
ENDBRANCH  19  20
ENDBRANCH   5  19
TORSDOF 6
