REMARK  Name = 613
REMARK  6 active torsions:
REMARK  status: ('A' for Active; 'I' for Inactive)
REMARK    1  A    between atoms: N_3  and  C_6
REMARK    2  A    between atoms: N_3  and  C_8
REMARK    3  A    between atoms: N_3  and  C_9
REMARK    4  A    between atoms: N_4  and  C_11
REMARK    5  A    between atoms: N_4  and  C_16
REMARK    6  A    between atoms: C_6  and  C_7
REMARK                            x       y       z     vdW  Elec       q    Type
REMARK                         _______ _______ _______ _____ _____    ______ ____
ROOT
ATOM      1  O   UNL     1       3.793  -1.821   0.000  0.00  0.00    +0.000 OA
ATOM      2  C   UNL     1       4.508  -0.584   0.000  0.00  0.00    +0.000 A 
ATOM      3  C   UNL     1       5.222  -0.171   0.000  0.00  0.00    +0.000 A 
ATOM      4  C   UNL     1       5.937  -0.584   0.000  0.00  0.00    +0.000 A 
ATOM      5  C   UNL     1       4.508  -1.409   0.000  0.00  0.00    +0.000 A 
ATOM      6  C   UNL     1       5.937  -1.409   0.000  0.00  0.00    +0.000 A 
ATOM      7  C   UNL     1       5.222  -1.821   0.000  0.00  0.00    +0.000 A 
ENDROOT
BRANCH   2   8
ATOM      8  C   UNL     1       3.793  -0.171   0.000  0.00  0.00    +0.000 C 
BRANCH   8   9
ATOM      9  N   UNL     1       3.079  -0.584   0.000  0.00  0.00    +0.000 NA
BRANCH   9  10
ATOM     10  C   UNL     1       2.365  -0.171   0.000  0.00  0.00    +0.000 C 
ATOM     11  C   UNL     1       1.650  -0.584   0.000  0.00  0.00    +0.000 C 
ENDBRANCH   9  10
BRANCH   9  12
ATOM     12  C   UNL     1       3.079  -1.409   0.000  0.00  0.00    +0.000 C 
ATOM     13  C   UNL     1       2.365  -1.821   0.000  0.00  0.00    +0.000 C 
ENDBRANCH   9  12
ENDBRANCH   8   9
ENDBRANCH   2   8
BRANCH   4  14
ATOM     14  N   UNL     1       6.651  -0.171   0.000  0.00  0.00    +0.000 NA
BRANCH  14  17
ATOM     15 CL   UNL     1       9.564   2.324   0.000  0.00  0.00    +0.000 Cl
ATOM     16  N   UNL     1       6.651   2.304   0.000  0.00  0.00    +0.000 NA
ATOM     17  C   UNL     1       6.651   0.654   0.000  0.00  0.00    +0.000 A 
ATOM     18  C   UNL     1       7.366   1.067   0.000  0.00  0.00    +0.000 A 
ATOM     19  C   UNL     1       7.366   1.891   0.000  0.00  0.00    +0.000 A 
ATOM     20  C   UNL     1       5.937   1.067   0.000  0.00  0.00    +0.000 A 
ATOM     21  C   UNL     1       8.103   0.625   0.000  0.00  0.00    +0.000 A 
ATOM     22  C   UNL     1       8.103   2.333   0.000  0.00  0.00    +0.000 A 
ATOM     23  C   UNL     1       5.937   1.891   0.000  0.00  0.00    +0.000 A 
ATOM     24  C   UNL     1       8.851   1.049   0.000  0.00  0.00    +0.000 A 
ATOM     25  C   UNL     1       8.851   1.909   0.000  0.00  0.00    +0.000 A 
ENDBRANCH  14  17
ENDBRANCH   4  14
TORSDOF 6
