REMARK  Name = 616
REMARK  8 active torsions:
REMARK  status: ('A' for Active; 'I' for Inactive)
REMARK    1  A    between atoms: C_2  and  C_3
REMARK    2  A    between atoms: C_3  and  C_4
REMARK    3  A    between atoms: C_3  and  C_7
REMARK    4  A    between atoms: C_8  and  N_9
REMARK    5  A    between atoms: N_9  and  S_10
REMARK    6  A    between atoms: C_17  and  C_19
REMARK    7  A    between atoms: C_20  and  C_21
REMARK    8  A    between atoms: C_21  and  N_22
REMARK                            x       y       z     vdW  Elec       q    Type
REMARK                         _______ _______ _______ _____ _____    ______ ____
ROOT
ATOM      1  C   UNL     1       1.369   0.180   0.000  0.00  0.00    +0.000 C 
ATOM      2  C   UNL     1       2.037  -0.304   0.000  0.00  0.00    +0.000 C 
ATOM      3  C   UNL     1       1.782  -1.089   0.000  0.00  0.00    +0.000 C 
ATOM      4  C   UNL     1       0.957  -1.089   0.000  0.00  0.00    +0.000 C 
ATOM      5  N   UNL     1       0.702  -0.304   0.000  0.00  0.00    +0.000 N 
ATOM      6  C   UNL     1      -0.083  -0.050   0.000  0.00  0.00    +0.000 C 
ATOM      7  O   UNL     1      -0.254   0.757   0.000  0.00  0.00    +0.000 OA
ENDROOT
BRANCH   6   8
ATOM      8  C   UNL     1      -0.696  -0.602   0.000  0.00  0.00    +0.000 C 
ATOM      9  C   UNL     1      -1.480  -0.347   0.000  0.00  0.00    +0.000 C 
BRANCH   9  10
ATOM     10  C   UNL     1      -2.094  -0.899   0.000  0.00  0.00    +0.000 C 
BRANCH  10  11
ATOM     11  N   UNL     1      -2.878  -0.644   0.000  0.00  0.00    +0.000 NA
ATOM     12  C   UNL     1      -3.491  -1.196   0.000  0.00  0.00    +0.000 C 
ATOM     13  C   UNL     1      -4.276  -0.941   0.000  0.00  0.00    +0.000 C 
ATOM     14  C   UNL     1      -4.447  -0.134   0.000  0.00  0.00    +0.000 C 
ATOM     15  C   UNL     1      -3.834   0.418   0.000  0.00  0.00    +0.000 C 
ATOM     16  C   UNL     1      -3.050   0.163   0.000  0.00  0.00    +0.000 C 
ENDBRANCH  10  11
ENDBRANCH   9  10
ENDBRANCH   6   8
BRANCH   1  17
ATOM     17  C   UNL     1       1.369   1.005   0.000  0.00  0.00    +0.000 C 
BRANCH  17  18
ATOM     18  C   UNL     1       2.084   1.418   0.000  0.00  0.00    +0.000 C 
ATOM     19  C   UNL     1       2.084   2.243   0.000  0.00  0.00    +0.000 C 
ATOM     20  C   UNL     1       2.798   1.005   0.000  0.00  0.00    +0.000 C 
ENDBRANCH  17  18
BRANCH  17  22
ATOM     21  O   UNL     1       0.655   2.243   0.000  0.00  0.00    +0.000 OA
ATOM     22  C   UNL     1       0.655   1.418   0.000  0.00  0.00    +0.000 C 
ENDBRANCH  17  22
ENDBRANCH   1  17
BRANCH   2  23
ATOM     23  N   UNL     1       2.821  -0.050   0.000  0.00  0.00    +0.000 NA
BRANCH  23  24
ATOM     24  S   UNL     1       3.434  -0.602   0.000  0.00  0.00    +0.000 S 
ATOM     25  O   UNL     1       4.048  -1.154   0.000  0.00  0.00    +0.000 OA
ATOM     26  O   UNL     1       3.986   0.011   0.000  0.00  0.00    +0.000 OA
ATOM     27  C   UNL     1       2.882  -1.215   0.000  0.00  0.00    +0.000 C 
ENDBRANCH  23  24
ENDBRANCH   2  23
TORSDOF 8
