REMARK  Name = 617
REMARK  5 active torsions:
REMARK  status: ('A' for Active; 'I' for Inactive)
REMARK    1  A    between atoms: C_1  and  C_11
REMARK    2  A    between atoms: C_3  and  C_13
REMARK    3  A    between atoms: N_7  and  C_10
REMARK    4  A    between atoms: C_13  and  O_14
REMARK    5  A    between atoms: O_14  and  C_15
REMARK                            x       y       z     vdW  Elec       q    Type
REMARK                         _______ _______ _______ _____ _____    ______ ____
ROOT
ATOM      1  C   UNL     1       0.180  -0.313   0.000  0.00  0.00    +0.000 C 
ATOM      2  N   UNL     1      -0.534   0.100   0.000  0.00  0.00    +0.000 NA
ATOM      3  O   UNL     1       0.180  -1.138   0.000  0.00  0.00    +0.000 OA
ENDROOT
BRANCH   2   7
ATOM      4  C   UNL     1      -2.677  -1.138   0.000  0.00  0.00    +0.000 A 
ATOM      5  C   UNL     1      -1.248  -1.138   0.000  0.00  0.00    +0.000 A 
ATOM      6  C   UNL     1      -1.963  -1.550   0.000  0.00  0.00    +0.000 A 
ATOM      7  C   UNL     1      -1.248  -0.313   0.000  0.00  0.00    +0.000 A 
ATOM      8  C   UNL     1      -1.963   0.100   0.000  0.00  0.00    +0.000 A 
ATOM      9  C   UNL     1      -2.677  -0.313   0.000  0.00  0.00    +0.000 A 
BRANCH   8  10
ATOM     10  C   UNL     1      -1.963   0.925   0.000  0.00  0.00    +0.000 C 
ATOM     11  O   UNL     1      -1.248   1.337   0.000  0.00  0.00    +0.000 OA
ATOM     12  O   UNL     1      -2.677   1.337   0.000  0.00  0.00    +0.000 OA
ENDBRANCH   8  10
ENDBRANCH   2   7
BRANCH   1  13
ATOM     13  C   UNL     1       0.895   0.100   0.000  0.00  0.00    +0.000 C 
BRANCH  13  14
ATOM     14  O   UNL     1       1.609  -0.313   0.000  0.00  0.00    +0.000 OA
BRANCH  14  15
ATOM     15  C   UNL     1       2.324   0.100   0.000  0.00  0.00    +0.000 A 
ATOM     16  C   UNL     1       3.038  -0.313   0.000  0.00  0.00    +0.000 A 
ATOM     17  C   UNL     1       3.753   0.100   0.000  0.00  0.00    +0.000 A 
ATOM     18  C   UNL     1       3.753   0.925   0.000  0.00  0.00    +0.000 A 
ATOM     19  C   UNL     1       3.038   1.337   0.000  0.00  0.00    +0.000 A 
ATOM     20  C   UNL     1       2.324   0.925   0.000  0.00  0.00    +0.000 A 
ATOM     21 CL   UNL     1       4.467   1.337   0.000  0.00  0.00    +0.000 Cl
ENDBRANCH  14  15
ENDBRANCH  13  14
ENDBRANCH   1  13
TORSDOF 5
