REMARK  Name = 617
REMARK  1 active torsions:
REMARK  status: ('A' for Active; 'I' for Inactive)
REMARK    1  A    between atoms: C_5  and  C_6
REMARK                            x       y       z     vdW  Elec       q    Type
REMARK                         _______ _______ _______ _____ _____    ______ ____
ROOT
ATOM      1  O   UNL     1       2.690   0.516   0.000  0.00  0.00    +0.000 OA
ATOM      2  O   UNL     1       4.554  -0.523   0.000  0.00  0.00    +0.000 OA
ATOM      3  O   UNL     1       1.650  -0.523   0.000  0.00  0.00    +0.000 OA
ATOM      4  N   UNL     1       3.102  -0.753   0.000  0.00  0.00    +0.000 N 
ATOM      5  C   UNL     1       3.515   0.516   0.000  0.00  0.00    +0.000 C 
ATOM      6  C   UNL     1       3.770  -0.268   0.000  0.00  0.00    +0.000 C 
ATOM      7  C   UNL     1       3.515   1.341   0.000  0.00  0.00    +0.000 C 
ATOM      8  C   UNL     1       2.435  -0.268   0.000  0.00  0.00    +0.000 C 
ATOM      9  C   UNL     1       3.102  -1.578   0.000  0.00  0.00    +0.000 C 
ENDROOT
BRANCH   5  10
ATOM     10  C   UNL     1       4.299   0.771   0.000  0.00  0.00    +0.000 C 
ATOM     11  C   UNL     1       4.471   1.578   0.000  0.00  0.00    +0.000 C 
ENDBRANCH   5  10
TORSDOF 1
