REMARK  Name = 619
REMARK  6 active torsions:
REMARK  status: ('A' for Active; 'I' for Inactive)
REMARK    1  A    between atoms: N_2  and  C_13
REMARK    2  A    between atoms: N_4  and  C_22
REMARK    3  A    between atoms: N_5  and  C_23
REMARK    4  A    between atoms: C_13  and  C_15
REMARK    5  A    between atoms: C_20  and  C_21
REMARK    6  A    between atoms: C_30  and  C_31
REMARK                            x       y       z     vdW  Elec       q    Type
REMARK                         _______ _______ _______ _____ _____    ______ ____
ROOT
ATOM      1  C   UNL     1       5.937   1.238   0.000  0.00  0.00    +0.000 A 
ATOM      2  C   UNL     1       6.652   2.475   0.000  0.00  0.00    +0.000 A 
ATOM      3  C   UNL     1       5.937   2.062   0.000  0.00  0.00    +0.000 A 
ATOM      4  C   UNL     1       7.366   2.062   0.000  0.00  0.00    +0.000 A 
ATOM      5  C   UNL     1       6.652   0.825   0.000  0.00  0.00    +0.000 A 
ATOM      6  C   UNL     1       7.366   1.238   0.000  0.00  0.00    +0.000 A 
ATOM      7  C   UNL     1       8.080   2.475   0.000  0.00  0.00    +0.000 C 
ENDROOT
BRANCH   2   8
ATOM      8  N   UNL     1       6.652   3.300   0.000  0.00  0.00    +0.000 NA
ATOM      9  N   UNL     1       5.222   3.300   0.000  0.00  0.00    +0.000 NA
ATOM     10  N   UNL     1       5.937   4.538   0.000  0.00  0.00    +0.000 NA
ATOM     11  C   UNL     1       5.937   3.713   0.000  0.00  0.00    +0.000 A 
ATOM     12  C   UNL     1       4.508   3.713   0.000  0.00  0.00    +0.000 A 
ATOM     13  C   UNL     1       4.508   4.538   0.000  0.00  0.00    +0.000 A 
ATOM     14  C   UNL     1       5.222   4.950   0.000  0.00  0.00    +0.000 A 
BRANCH  12  16
ATOM     15  N   UNL     1       3.079   2.062   0.000  0.00  0.00    +0.000 NA
ATOM     16  C   UNL     1       3.793   3.300   0.000  0.00  0.00    +0.000 A 
ATOM     17  C   UNL     1       3.079   3.713   0.000  0.00  0.00    +0.000 A 
ATOM     18  C   UNL     1       3.793   2.475   0.000  0.00  0.00    +0.000 A 
ATOM     19  C   UNL     1       2.365   3.300   0.000  0.00  0.00    +0.000 A 
ATOM     20  C   UNL     1       2.365   2.475   0.000  0.00  0.00    +0.000 A 
ENDBRANCH  12  16
ENDBRANCH   2   8
BRANCH   1  22
ATOM     21  O   UNL     1       5.937  -0.412   0.000  0.00  0.00    +0.000 OA
ATOM     22  N   UNL     1       5.222   0.825   0.000  0.00  0.00    +0.000 NA
ATOM     23  C   UNL     1       5.222   0.000   0.000  0.00  0.00    +0.000 C 
BRANCH  23  29
ATOM     24  C   UNL     1       3.079  -1.238   0.000  0.00  0.00    +0.000 A 
ATOM     25  C   UNL     1       3.793  -1.650   0.000  0.00  0.00    +0.000 A 
ATOM     26  C   UNL     1       3.079  -0.412   0.000  0.00  0.00    +0.000 A 
ATOM     27  C   UNL     1       4.508  -1.238   0.000  0.00  0.00    +0.000 A 
ATOM     28  C   UNL     1       3.793   0.000   0.000  0.00  0.00    +0.000 A 
ATOM     29  C   UNL     1       4.508  -0.412   0.000  0.00  0.00    +0.000 A 
BRANCH  24  30
ATOM     30  C   UNL     1       2.365  -1.650   0.000  0.00  0.00    +0.000 C 
BRANCH  30  31
ATOM     31  N   UNL     1       2.365  -2.475   0.000  0.00  0.00    +0.000 NA
ATOM     32  N   UNL     1       2.365  -4.125   0.000  0.00  0.00    +0.000 NA
ATOM     33  C   UNL     1       1.650  -2.888   0.000  0.00  0.00    +0.000 C 
ATOM     34  C   UNL     1       3.079  -2.888   0.000  0.00  0.00    +0.000 C 
ATOM     35  C   UNL     1       1.650  -3.713   0.000  0.00  0.00    +0.000 C 
ATOM     36  C   UNL     1       3.079  -3.713   0.000  0.00  0.00    +0.000 C 
ATOM     37  C   UNL     1       2.365  -4.950   0.000  0.00  0.00    +0.000 C 
ENDBRANCH  30  31
ENDBRANCH  24  30
ENDBRANCH  23  29
ENDBRANCH   1  22
TORSDOF 6
