REMARK  Name = 620
REMARK  2 active torsions:
REMARK  status: ('A' for Active; 'I' for Inactive)
REMARK    1  A    between atoms: C_12  and  C_22
REMARK    2  A    between atoms: C_22  and  C_26
REMARK                            x       y       z     vdW  Elec       q    Type
REMARK                         _______ _______ _______ _____ _____    ______ ____
ROOT
ATOM      1  F   UNL     1       4.140  -0.189   0.000  0.00  0.00    +0.000 F 
ATOM      2  O   UNL     1       6.626   1.040   0.000  0.00  0.00    +0.000 OA
ATOM      3  O   UNL     1       3.956   0.416   0.000  0.00  0.00    +0.000 OA
ATOM      4  O   UNL     1       8.186  -0.409   0.000  0.00  0.00    +0.000 OA
ATOM      5  O   UNL     1       1.650  -2.514   0.000  0.00  0.00    +0.000 OA
ATOM      6  C   UNL     1       6.099   0.004   0.000  0.00  0.00    +0.000 C 
ATOM      7  C   UNL     1       6.099  -0.821   0.000  0.00  0.00    +0.000 C 
ATOM      8  C   UNL     1       5.385  -1.234   0.000  0.00  0.00    +0.000 C 
ATOM      9  C   UNL     1       4.670  -0.821   0.000  0.00  0.00    +0.000 C 
ATOM     10  C   UNL     1       6.880   0.255   0.000  0.00  0.00    +0.000 C 
ATOM     11  C   UNL     1       5.385   0.416   0.000  0.00  0.00    +0.000 C 
ATOM     12  C   UNL     1       6.880  -1.073   0.000  0.00  0.00    +0.000 C 
ATOM     13  C   UNL     1       4.670   0.004   0.000  0.00  0.00    +0.000 C 
ATOM     14  C   UNL     1       7.361  -0.409   0.000  0.00  0.00    +0.000 C 
ATOM     15  C   UNL     1       3.920  -1.239   0.000  0.00  0.00    +0.000 C 
ATOM     16  C   UNL     1       5.398  -2.093   0.000  0.00  0.00    +0.000 C 
ATOM     17  C   UNL     1       6.099   0.829   0.000  0.00  0.00    +0.000 C 
ATOM     18  C   UNL     1       4.657  -2.528   0.000  0.00  0.00    +0.000 C 
ATOM     19  C   UNL     1       3.913  -2.099   0.000  0.00  0.00    +0.000 C 
ATOM     20  C   UNL     1       3.643  -0.462   0.000  0.00  0.00    +0.000 C 
ATOM     21  C   UNL     1       3.155  -0.774   0.000  0.00  0.00    +0.000 C 
ATOM     22  C   UNL     1       3.141  -2.552   0.000  0.00  0.00    +0.000 C 
ATOM     23  C   UNL     1       2.373  -1.210   0.000  0.00  0.00    +0.000 C 
ATOM     24  C   UNL     1       2.366  -2.105   0.000  0.00  0.00    +0.000 C 
ENDROOT
BRANCH  10  26
ATOM     25  O   UNL     1       8.301   0.402   0.000  0.00  0.00    +0.000 OA
ATOM     26  C   UNL     1       7.548   0.739   0.000  0.00  0.00    +0.000 C 
BRANCH  26  28
ATOM     27  O   UNL     1       8.132   2.043   0.000  0.00  0.00    +0.000 OA
ATOM     28  C   UNL     1       7.463   1.560   0.000  0.00  0.00    +0.000 C 
ENDBRANCH  26  28
ENDBRANCH  10  26
TORSDOF 2
