REMARK  Name = 622
REMARK  11 active torsions:
REMARK  status: ('A' for Active; 'I' for Inactive)
REMARK    1  A    between atoms: O_1  and  C_16
REMARK    2  A    between atoms: O_1  and  C_23
REMARK    3  A    between atoms: O_2  and  C_20
REMARK    4  A    between atoms: N_8  and  C_22
REMARK    5  A    between atoms: N_8  and  C_26
REMARK    6  A    between atoms: N_9  and  C_24
REMARK    7  A    between atoms: C_10  and  C_13
REMARK    8  A    between atoms: C_11  and  C_16
REMARK    9  A    between atoms: C_12  and  C_20
REMARK   10  A    between atoms: C_22  and  C_23
REMARK   11  A    between atoms: C_26  and  C_28
REMARK                            x       y       z     vdW  Elec       q    Type
REMARK                         _______ _______ _______ _____ _____    ______ ____
ROOT
ATOM      1  N   UNL     1       8.795  -2.219   0.000  0.00  0.00    +0.000 NA
ATOM      2  C   UNL     1       8.795  -0.569   0.000  0.00  0.00    +0.000 C 
ATOM      3  C   UNL     1       8.080  -0.982   0.000  0.00  0.00    +0.000 C 
ATOM      4  C   UNL     1       9.509  -0.982   0.000  0.00  0.00    +0.000 C 
ATOM      5  C   UNL     1       8.080  -1.807   0.000  0.00  0.00    +0.000 C 
ATOM      6  C   UNL     1       9.509  -1.807   0.000  0.00  0.00    +0.000 C 
ATOM      7  C   UNL     1       7.366  -2.219   0.000  0.00  0.00    +0.000 C 
ATOM      8  C   UNL     1      10.224  -2.219   0.000  0.00  0.00    +0.000 C 
ENDROOT
BRANCH   2   9
ATOM      9  C   UNL     1       8.795   0.256   0.000  0.00  0.00    +0.000 A 
ATOM     10  C   UNL     1       9.509   0.668   0.000  0.00  0.00    +0.000 A 
ATOM     11  C   UNL     1       8.080   0.668   0.000  0.00  0.00    +0.000 A 
ATOM     12  C   UNL     1       9.509   1.493   0.000  0.00  0.00    +0.000 A 
ATOM     13  C   UNL     1       8.080   1.493   0.000  0.00  0.00    +0.000 A 
ATOM     14  C   UNL     1       8.795   1.906   0.000  0.00  0.00    +0.000 A 
BRANCH  12  17
ATOM     15  O   UNL     1      10.224   2.731   0.000  0.00  0.00    +0.000 OA
ATOM     16  O   UNL     1      10.938   1.493   0.000  0.00  0.00    +0.000 OA
ATOM     17  N   UNL     1      10.224   1.906   0.000  0.00  0.00    +0.000 N 
ENDBRANCH  12  17
ENDBRANCH   2   9
BRANCH   4  19
ATOM     18  O   UNL     1      10.224   0.256   0.000  0.00  0.00    +0.000 OA
ATOM     19  C   UNL     1      10.224  -0.569   0.000  0.00  0.00    +0.000 C 
BRANCH  19  20
ATOM     20  O   UNL     1      10.938  -0.982   0.000  0.00  0.00    +0.000 OA
ATOM     21  C   UNL     1      11.653  -0.569   0.000  0.00  0.00    +0.000 C 
ENDBRANCH  19  20
ENDBRANCH   4  19
BRANCH   3  23
ATOM     22  O   UNL     1       7.366   0.256   0.000  0.00  0.00    +0.000 OA
ATOM     23  C   UNL     1       7.366  -0.569   0.000  0.00  0.00    +0.000 C 
BRANCH  23  24
ATOM     24  O   UNL     1       6.652  -0.982   0.000  0.00  0.00    +0.000 OA
BRANCH  24  25
ATOM     25  C   UNL     1       5.937  -0.569   0.000  0.00  0.00    +0.000 C 
BRANCH  25  26
ATOM     26  C   UNL     1       5.222  -0.982   0.000  0.00  0.00    +0.000 C 
BRANCH  26  27
ATOM     27  N   UNL     1       4.508  -0.569   0.000  0.00  0.00    +0.000 NA
ATOM     28  C   UNL     1       4.508   0.256   0.000  0.00  0.00    +0.000 C 
BRANCH  27  29
ATOM     29  C   UNL     1       3.793  -0.982   0.000  0.00  0.00    +0.000 C 
BRANCH  29  30
ATOM     30  C   UNL     1       3.079  -0.569   0.000  0.00  0.00    +0.000 A 
ATOM     31  C   UNL     1       2.365  -0.982   0.000  0.00  0.00    +0.000 A 
ATOM     32  C   UNL     1       3.079   0.256   0.000  0.00  0.00    +0.000 A 
ATOM     33  C   UNL     1       1.650  -0.569   0.000  0.00  0.00    +0.000 A 
ATOM     34  C   UNL     1       2.365   0.668   0.000  0.00  0.00    +0.000 A 
ATOM     35  C   UNL     1       1.650   0.256   0.000  0.00  0.00    +0.000 A 
ENDBRANCH  29  30
ENDBRANCH  27  29
ENDBRANCH  26  27
ENDBRANCH  25  26
ENDBRANCH  24  25
ENDBRANCH  23  24
ENDBRANCH   3  23
TORSDOF 11
