REMARK  Name = 623
REMARK  6 active torsions:
REMARK  status: ('A' for Active; 'I' for Inactive)
REMARK    1  A    between atoms: C_6  and  O_10
REMARK    2  A    between atoms: C_8  and  O_11
REMARK    3  A    between atoms: O_10  and  C_21
REMARK    4  A    between atoms: O_11  and  C_12
REMARK    5  A    between atoms: C_14  and  C_18
REMARK    6  A    between atoms: C_25  and  C_27
REMARK                            x       y       z     vdW  Elec       q    Type
REMARK                         _______ _______ _______ _____ _____    ______ ____
ROOT
ATOM      1  C   UNL     1       0.087   0.691   0.000  0.00  0.00    +0.000 A 
ATOM      2  F   UNL     1       0.087   1.516   0.000  0.00  0.00    +0.000 F 
ATOM      3  C   UNL     1       0.801   0.278   0.000  0.00  0.00    +0.000 A 
ATOM      4  C   UNL     1       0.801  -0.547   0.000  0.00  0.00    +0.000 A 
ATOM      5  F   UNL     1       1.516  -0.959   0.000  0.00  0.00    +0.000 F 
ATOM      6  C   UNL     1       0.087  -0.959   0.000  0.00  0.00    +0.000 A 
ATOM      7  N   UNL     1      -0.628  -0.547   0.000  0.00  0.00    +0.000 NA
ATOM      8  C   UNL     1      -0.628   0.278   0.000  0.00  0.00    +0.000 A 
ATOM      9  C   UNL     1       1.516   0.691   0.000  0.00  0.00    +0.000 C 
ENDROOT
BRANCH   8  10
ATOM     10  O   UNL     1      -1.342   0.691   0.000  0.00  0.00    +0.000 OA
BRANCH  10  11
ATOM     11  C   UNL     1      -1.342   1.516   0.000  0.00  0.00    +0.000 A 
ATOM     12  C   UNL     1      -2.057   1.928   0.000  0.00  0.00    +0.000 A 
ATOM     13  C   UNL     1      -2.057   2.753   0.000  0.00  0.00    +0.000 A 
ATOM     14  C   UNL     1      -1.342   3.166   0.000  0.00  0.00    +0.000 A 
ATOM     15  C   UNL     1      -0.628   2.753   0.000  0.00  0.00    +0.000 A 
ATOM     16  C   UNL     1      -0.628   1.928   0.000  0.00  0.00    +0.000 A 
BRANCH  13  17
ATOM     17  C   UNL     1      -2.771   3.166   0.000  0.00  0.00    +0.000 C 
ATOM     18  N   UNL     1      -2.771   3.991   0.000  0.00  0.00    +0.000 NA
ATOM     19  N   UNL     1      -3.486   2.753   0.000  0.00  0.00    +0.000 NA
ENDBRANCH  13  17
ENDBRANCH  10  11
ENDBRANCH   8  10
BRANCH   6  20
ATOM     20  O   UNL     1       0.087  -1.784   0.000  0.00  0.00    +0.000 OA
BRANCH  20  21
ATOM     21  C   UNL     1       0.801  -2.197   0.000  0.00  0.00    +0.000 A 
ATOM     22  C   UNL     1       1.516  -1.784   0.000  0.00  0.00    +0.000 A 
ATOM     23  C   UNL     1       2.230  -2.197   0.000  0.00  0.00    +0.000 A 
ATOM     24  C   UNL     1       2.230  -3.022   0.000  0.00  0.00    +0.000 A 
ATOM     25  C   UNL     1       1.516  -3.434   0.000  0.00  0.00    +0.000 A 
ATOM     26  C   UNL     1       0.801  -3.022   0.000  0.00  0.00    +0.000 A 
BRANCH  25  27
ATOM     27  C   UNL     1       1.516  -4.259   0.000  0.00  0.00    +0.000 C 
ATOM     28  N   UNL     1       2.230  -4.672   0.000  0.00  0.00    +0.000 NA
ATOM     29  N   UNL     1       0.801  -4.672   0.000  0.00  0.00    +0.000 NA
ENDBRANCH  25  27
ENDBRANCH  20  21
ENDBRANCH   6  20
TORSDOF 6
