REMARK  Name = 625
REMARK  3 active torsions:
REMARK  status: ('A' for Active; 'I' for Inactive)
REMARK    1  A    between atoms: C_8  and  C_12
REMARK    2  A    between atoms: C_11  and  C_14
REMARK    3  A    between atoms: C_11  and  C_16
REMARK                            x       y       z     vdW  Elec       q    Type
REMARK                         _______ _______ _______ _____ _____    ______ ____
ROOT
ATOM      1 CL   UNL     1       5.991   0.384   0.000  0.00  0.00    +0.000 Cl
ATOM      2  O   UNL     1       2.365   0.816   0.000  0.00  0.00    +0.000 OA
ATOM      3  O   UNL     1       1.650   2.054   0.000  0.00  0.00    +0.000 OA
ATOM      4  N   UNL     1       3.079   2.054   0.000  0.00  0.00    +0.000 NA
ATOM      5  C   UNL     1       3.079   0.403   0.000  0.00  0.00    +0.000 C 
ATOM      6  C   UNL     1       3.793   0.816   0.000  0.00  0.00    +0.000 A 
ATOM      7  C   UNL     1       3.793   1.641   0.000  0.00  0.00    +0.000 A 
ATOM      8  C   UNL     1       4.531   0.375   0.000  0.00  0.00    +0.000 A 
ATOM      9  C   UNL     1       4.531   2.082   0.000  0.00  0.00    +0.000 A 
ATOM     10  C   UNL     1       2.365   1.641   0.000  0.00  0.00    +0.000 C 
ATOM     11  C   UNL     1       5.279   0.799   0.000  0.00  0.00    +0.000 A 
ATOM     12  C   UNL     1       5.279   1.658   0.000  0.00  0.00    +0.000 A 
ENDROOT
BRANCH   5  16
ATOM     13  F   UNL     1       3.079  -1.026   0.000  0.00  0.00    +0.000 F 
ATOM     14  F   UNL     1       2.254  -1.026   0.000  0.00  0.00    +0.000 F 
ATOM     15  F   UNL     1       1.952   0.102   0.000  0.00  0.00    +0.000 F 
ATOM     16  C   UNL     1       2.667  -0.311   0.000  0.00  0.00    +0.000 C 
ENDBRANCH   5  16
BRANCH   5  18
ATOM     17  C   UNL     1       3.904  -1.026   0.000  0.00  0.00    +0.000 C 
ATOM     18  C   UNL     1       3.492  -0.311   0.000  0.00  0.00    +0.000 C 
BRANCH  17  19
ATOM     19  C   UNL     1       4.317  -1.740   0.000  0.00  0.00    +0.000 C 
ATOM     20  C   UNL     1       5.031  -2.152   0.000  0.00  0.00    +0.000 C 
ATOM     21  C   UNL     1       4.317  -2.565   0.000  0.00  0.00    +0.000 C 
ENDBRANCH  17  19
ENDBRANCH   5  18
TORSDOF 3
