REMARK  Name = 626
REMARK  4 active torsions:
REMARK  status: ('A' for Active; 'I' for Inactive)
REMARK    1  A    between atoms: C_1  and  C_32
REMARK    2  A    between atoms: C_8  and  C_9
REMARK    3  A    between atoms: N_19  and  C_26
REMARK    4  A    between atoms: C_31  and  C_32
REMARK                            x       y       z     vdW  Elec       q    Type
REMARK                         _______ _______ _______ _____ _____    ______ ____
ROOT
ATOM      1  C   UNL     1      -0.019   3.895   0.000  0.00  0.00    +0.000 C 
ATOM      2  O   UNL     1      -0.432   4.609   0.000  0.00  0.00    +0.000 OA
ATOM      3  N   UNL     1       0.806   3.895   0.000  0.00  0.00    +0.000 N 
ATOM      4  N   UNL     1       2.860   4.562   0.000  0.00  0.00    +0.000 NA
ATOM      5  C   UNL     1       2.860   3.227   0.000  0.00  0.00    +0.000 A 
ATOM      6  N   UNL     1       3.345   3.895   0.000  0.00  0.00    +0.000 NA
ATOM      7  N   UNL     1       3.115   2.443   0.000  0.00  0.00    +0.000 NA
ATOM      8  C   UNL     1       3.922   2.271   0.000  0.00  0.00    +0.000 C 
ATOM      9  O   UNL     1       4.474   2.884   0.000  0.00  0.00    +0.000 OA
ATOM     10  C   UNL     1       2.075   4.307   0.000  0.00  0.00    +0.000 A 
ATOM     11  C   UNL     1       2.075   3.482   0.000  0.00  0.00    +0.000 A 
ATOM     12  C   UNL     1       1.291   3.227   0.000  0.00  0.00    +0.000 A 
ATOM     13  C   UNL     1       1.291   4.562   0.000  0.00  0.00    +0.000 A 
ENDROOT
BRANCH   8  14
ATOM     14  C   UNL     1       4.177   1.486   0.000  0.00  0.00    +0.000 A 
ATOM     15  C   UNL     1       4.984   1.315   0.000  0.00  0.00    +0.000 A 
ATOM     16  C   UNL     1       5.239   0.530   0.000  0.00  0.00    +0.000 A 
ATOM     17  C   UNL     1       3.880   0.089   0.000  0.00  0.00    +0.000 A 
ATOM     18  C   UNL     1       3.625   0.873   0.000  0.00  0.00    +0.000 A 
ATOM     19  C   UNL     1       4.687  -0.083   0.000  0.00  0.00    +0.000 A 
BRANCH  19  20
ATOM     20  N   UNL     1       4.942  -0.868   0.000  0.00  0.00    +0.000 N 
ATOM     21  C   UNL     1       5.749  -1.039   0.000  0.00  0.00    +0.000 C 
ATOM     22  C   UNL     1       6.004  -1.824   0.000  0.00  0.00    +0.000 C 
ATOM     23  N   UNL     1       5.452  -2.437   0.000  0.00  0.00    +0.000 NA
ATOM     24  C   UNL     1       4.645  -2.265   0.000  0.00  0.00    +0.000 C 
ATOM     25  C   UNL     1       4.390  -1.481   0.000  0.00  0.00    +0.000 C 
ATOM     26  C   UNL     1       5.707  -3.221   0.000  0.00  0.00    +0.000 C 
ENDBRANCH  19  20
ENDBRANCH   8  14
BRANCH   1  27
ATOM     27  C   UNL     1      -0.432   3.180   0.000  0.00  0.00    +0.000 C 
BRANCH  27  32
ATOM     28  C   UNL     1      -2.526   2.768   0.000  0.00  0.00    +0.000 A 
ATOM     29  C   UNL     1      -2.526   3.593   0.000  0.00  0.00    +0.000 A 
ATOM     30  S   UNL     1      -1.742   2.513   0.000  0.00  0.00    +0.000 S 
ATOM     31  C   UNL     1      -1.742   3.848   0.000  0.00  0.00    +0.000 A 
ATOM     32  C   UNL     1      -1.257   3.180   0.000  0.00  0.00    +0.000 A 
ENDBRANCH  27  32
ENDBRANCH   1  27
TORSDOF 4
