REMARK  Name = 627
REMARK  1 active torsions:
REMARK  status: ('A' for Active; 'I' for Inactive)
REMARK    1  A    between atoms: C_4  and  C_9
REMARK                            x       y       z     vdW  Elec       q    Type
REMARK                         _______ _______ _______ _____ _____    ______ ____
ROOT
ATOM      1  N   UNL     1       1.650  -1.287   0.000  0.00  0.00    +0.000 NA
ATOM      2  C   UNL     1       2.364  -0.050   0.000  0.00  0.00    +0.000 A 
ATOM      3  C   UNL     1       3.079  -0.462   0.000  0.00  0.00    +0.000 A 
ATOM      4  C   UNL     1       1.650  -0.462   0.000  0.00  0.00    +0.000 A 
ATOM      5  C   UNL     1       3.079  -1.287   0.000  0.00  0.00    +0.000 A 
ATOM      6  C   UNL     1       2.364  -1.700   0.000  0.00  0.00    +0.000 A 
ENDROOT
BRANCH   2   9
ATOM      7  O   UNL     1       3.079   1.188   0.000  0.00  0.00    +0.000 OA
ATOM      8  O   UNL     1       1.650   1.188   0.000  0.00  0.00    +0.000 OA
ATOM      9  C   UNL     1       2.364   0.775   0.000  0.00  0.00    +0.000 C 
ENDBRANCH   2   9
TORSDOF 1
