REMARK  Name = 628
REMARK  5 active torsions:
REMARK  status: ('A' for Active; 'I' for Inactive)
REMARK    1  A    between atoms: C_1  and  C_17
REMARK    2  A    between atoms: C_8  and  N_26
REMARK    3  A    between atoms: S_10  and  C_11
REMARK    4  A    between atoms: C_14  and  N_26
REMARK    5  A    between atoms: C_17  and  C_18
REMARK                            x       y       z     vdW  Elec       q    Type
REMARK                         _______ _______ _______ _____ _____    ______ ____
ROOT
ATOM      1  C   UNL     1       1.831   0.345   0.000  0.00  0.00    +0.000 A 
ATOM      2  C   UNL     1       1.117  -0.067   0.000  0.00  0.00    +0.000 A 
ATOM      3  N   UNL     1       0.402   0.345   0.000  0.00  0.00    +0.000 N 
ATOM      4  C   UNL     1       0.402   1.170   0.000  0.00  0.00    +0.000 A 
ATOM      5  C   UNL     1       1.117   1.583   0.000  0.00  0.00    +0.000 A 
ATOM      6  C   UNL     1       1.831   1.170   0.000  0.00  0.00    +0.000 A 
ATOM      7  C   UNL     1      -0.382   0.090   0.000  0.00  0.00    +0.000 A 
ATOM      8  C   UNL     1      -0.867   0.758   0.000  0.00  0.00    +0.000 A 
ATOM      9  N   UNL     1      -0.382   1.425   0.000  0.00  0.00    +0.000 NA
ENDROOT
BRANCH   1  10
ATOM     10  C   UNL     1       2.546  -0.067   0.000  0.00  0.00    +0.000 C 
ATOM     11  O   UNL     1       2.546  -0.892   0.000  0.00  0.00    +0.000 OA
BRANCH  10  12
ATOM     12  C   UNL     1       3.260   0.345   0.000  0.00  0.00    +0.000 A 
ATOM     13  C   UNL     1       3.260   1.170   0.000  0.00  0.00    +0.000 A 
ATOM     14  C   UNL     1       3.975   1.583   0.000  0.00  0.00    +0.000 A 
ATOM     15  C   UNL     1       4.689   1.170   0.000  0.00  0.00    +0.000 A 
ATOM     16  C   UNL     1       4.689   0.345   0.000  0.00  0.00    +0.000 A 
ATOM     17  C   UNL     1       3.975  -0.067   0.000  0.00  0.00    +0.000 A 
ATOM     18 CL   UNL     1       2.546   1.583   0.000  0.00  0.00    +0.000 Cl
ATOM     19 CL   UNL     1       3.975  -0.892   0.000  0.00  0.00    +0.000 Cl
ENDBRANCH  10  12
ENDBRANCH   1  10
BRANCH   8  20
ATOM     20  N   UNL     1      -1.692   0.758   0.000  0.00  0.00    +0.000 NA
BRANCH  20  24
ATOM     21  C   UNL     1      -2.930  -1.386   0.000  0.00  0.00    +0.000 A 
ATOM     22  C   UNL     1      -3.342  -0.671   0.000  0.00  0.00    +0.000 A 
ATOM     23  C   UNL     1      -2.930   0.043   0.000  0.00  0.00    +0.000 A 
ATOM     24  C   UNL     1      -2.105   0.043   0.000  0.00  0.00    +0.000 A 
ATOM     25  C   UNL     1      -1.692  -0.671   0.000  0.00  0.00    +0.000 A 
ATOM     26  C   UNL     1      -2.105  -1.386   0.000  0.00  0.00    +0.000 A 
BRANCH  21  27
ATOM     27  S   UNL     1      -3.342  -2.100   0.000  0.00  0.00    +0.000 S 
ATOM     28  O   UNL     1      -3.755  -2.815   0.000  0.00  0.00    +0.000 OA
ATOM     29  N   UNL     1      -4.057  -1.688   0.000  0.00  0.00    +0.000 NA
ATOM     30  O   UNL     1      -2.628  -2.513   0.000  0.00  0.00    +0.000 OA
ENDBRANCH  21  27
ENDBRANCH  20  24
ENDBRANCH   8  20
TORSDOF 5
