REMARK  Name = 628
REMARK  2 active torsions:
REMARK  status: ('A' for Active; 'I' for Inactive)
REMARK    1  A    between atoms: C_8  and  C_11
REMARK    2  A    between atoms: CA_10  and  C_19
REMARK                            x       y       z     vdW  Elec       q    Type
REMARK                         _______ _______ _______ _____ _____    ______ ____
ROOT
ATOM      1 CL   UNL     1       2.547  -2.700   0.000  0.00  0.00    +0.000 Cl
ATOM      2  O   UNL     1       2.340   2.018   0.000  0.00  0.00    +0.000 OA
ATOM      3  N   UNL     1       2.184   0.630   0.000  0.00  0.00    +0.000 NA
ATOM      4  N   UNL     1       4.037   0.630   0.000  0.00  0.00    +0.000 NA
ATOM      5  C   UNL     1       3.111  -0.532   0.000  0.00  0.00    +0.000 A 
ATOM      6  C   UNL     1       3.854  -0.174   0.000  0.00  0.00    +0.000 C 
ATOM      7  C   UNL     1       2.367  -0.174   0.000  0.00  0.00    +0.000 A 
ATOM      8  CA  UNL     1       3.523   1.275   0.000  0.00  0.00    +0.000 C 
ATOM      9  C   UNL     1       2.698   1.275   0.000  0.00  0.00    +0.000 C 
ATOM     10  C   UNL     1       3.188  -1.388   0.000  0.00  0.00    +0.000 A 
ATOM     11  C   UNL     1       1.650  -0.647   0.000  0.00  0.00    +0.000 A 
ATOM     12  C   UNL     1       2.482  -1.878   0.000  0.00  0.00    +0.000 A 
ATOM     13  C   UNL     1       1.708  -1.505   0.000  0.00  0.00    +0.000 A 
ENDROOT
BRANCH   6  14
ATOM     14  C   UNL     1       4.499  -0.689   0.000  0.00  0.00    +0.000 A 
ATOM     15  C   UNL     1       5.267  -0.387   0.000  0.00  0.00    +0.000 A 
ATOM     16  C   UNL     1       4.376  -1.504   0.000  0.00  0.00    +0.000 A 
ATOM     17  C   UNL     1       5.912  -0.902   0.000  0.00  0.00    +0.000 A 
ATOM     18  C   UNL     1       5.021  -2.019   0.000  0.00  0.00    +0.000 A 
ATOM     19  C   UNL     1       5.789  -1.717   0.000  0.00  0.00    +0.000 A 
ENDBRANCH   6  14
BRANCH   8  22
ATOM     20  O   UNL     1       4.704   2.080   0.000  0.00  0.00    +0.000 OA
ATOM     21  OXT UNL     1       3.416   2.700   0.000  0.00  0.00    +0.000 OA
ATOM     22  C   UNL     1       3.881   2.018   0.000  0.00  0.00    +0.000 C 
ENDBRANCH   8  22
TORSDOF 2
