REMARK  Name = 629
REMARK  2 active torsions:
REMARK  status: ('A' for Active; 'I' for Inactive)
REMARK    1  A    between atoms: N_3  and  N_4
REMARK    2  A    between atoms: C_7  and  C_13
REMARK                            x       y       z     vdW  Elec       q    Type
REMARK                         _______ _______ _______ _____ _____    ______ ____
ROOT
ATOM      1 CL   UNL     1       4.508  -0.953   0.000  0.00  0.00    +0.000 Cl
ATOM      2 CL   UNL     1       1.650  -0.953   0.000  0.00  0.00    +0.000 Cl
ATOM      3  C   UNL     1       3.079  -0.953   0.000  0.00  0.00    +0.000 A 
ATOM      4  C   UNL     1       3.793  -1.365   0.000  0.00  0.00    +0.000 A 
ATOM      5  C   UNL     1       2.365  -1.365   0.000  0.00  0.00    +0.000 A 
ATOM      6  C   UNL     1       3.793  -2.190   0.000  0.00  0.00    +0.000 A 
ATOM      7  C   UNL     1       2.365  -2.190   0.000  0.00  0.00    +0.000 A 
ATOM      8  C   UNL     1       3.079  -2.603   0.000  0.00  0.00    +0.000 A 
ENDROOT
BRANCH   3  10
ATOM      9  N   UNL     1       3.793   0.285   0.000  0.00  0.00    +0.000 NA
ATOM     10  C   UNL     1       3.079  -0.128   0.000  0.00  0.00    +0.000 C 
BRANCH   9  11
ATOM     11  N   UNL     1       3.793   1.110   0.000  0.00  0.00    +0.000 NA
ATOM     12  N   UNL     1       4.508   2.347   0.000  0.00  0.00    +0.000 NA
ATOM     13  N   UNL     1       5.222   1.110   0.000  0.00  0.00    +0.000 NA
ATOM     14  C   UNL     1       4.508   1.522   0.000  0.00  0.00    +0.000 C 
ENDBRANCH   9  11
ENDBRANCH   3  10
TORSDOF 2
