REMARK  Name = 630
REMARK  5 active torsions:
REMARK  status: ('A' for Active; 'I' for Inactive)
REMARK    1  A    between atoms: P_1  and  C_11
REMARK    2  A    between atoms: P_2  and  C_11
REMARK    3  A    between atoms: C_11  and  C_12
REMARK    4  A    between atoms: C_12  and  C_13
REMARK    5  A    between atoms: C_13  and  C_14
REMARK                            x       y       z     vdW  Elec       q    Type
REMARK                         _______ _______ _______ _____ _____    ______ ____
ROOT
ATOM      1  O   UNL     1       3.934  -1.612   0.000  0.00  0.00    +0.000 OA
ATOM      2  C   UNL     1       3.522  -0.898   0.000  0.00  0.00    +0.000 C 
ENDROOT
BRANCH   2   3
ATOM      3  P   UNL     1       4.237  -0.485   0.000  0.00  0.00    +0.000 P 
ATOM      4  O   UNL     1       4.951  -0.073   0.000  0.00  0.00    +0.000 OA
ATOM      5  O   UNL     1       4.649  -1.200   0.000  0.00  0.00    +0.000 OA
ATOM      6  O   UNL     1       4.237   0.340   0.000  0.00  0.00    +0.000 OA
ENDBRANCH   2   3
BRANCH   2   7
ATOM      7  P   UNL     1       2.808  -1.310   0.000  0.00  0.00    +0.000 P 
ATOM      8  O   UNL     1       2.093  -1.723   0.000  0.00  0.00    +0.000 OA
ATOM      9  O   UNL     1       2.395  -0.596   0.000  0.00  0.00    +0.000 OA
ATOM     10  O   UNL     1       2.808  -2.135   0.000  0.00  0.00    +0.000 OA
ENDBRANCH   2   7
BRANCH   2  11
ATOM     11  C   UNL     1       3.110  -0.183   0.000  0.00  0.00    +0.000 C 
BRANCH  11  12
ATOM     12  C   UNL     1       3.110   0.642   0.000  0.00  0.00    +0.000 C 
BRANCH  12  14
ATOM     13  N   UNL     1       2.395   1.879   0.000  0.00  0.00    +0.000 NA
ATOM     14  C   UNL     1       2.395   1.054   0.000  0.00  0.00    +0.000 C 
ENDBRANCH  12  14
ENDBRANCH  11  12
ENDBRANCH   2  11
TORSDOF 5
