REMARK  Name = 634
REMARK  2 active torsions:
REMARK  status: ('A' for Active; 'I' for Inactive)
REMARK    1  A    between atoms: S_1  and  N_5
REMARK    2  A    between atoms: S_1  and  C_7
REMARK                            x       y       z     vdW  Elec       q    Type
REMARK                         _______ _______ _______ _____ _____    ______ ____
ROOT
ATOM      1  S   UNL     1       2.475   0.747   0.000  0.00  0.00    +0.000 S 
ATOM      2  O   UNL     1       1.650   0.747   0.000  0.00  0.00    +0.000 OA
ATOM      3  O   UNL     1       3.300   0.747   0.000  0.00  0.00    +0.000 OA
ENDROOT
BRANCH   1   5
ATOM      4  N   UNL     1       2.475  -2.553   0.000  0.00  0.00    +0.000 NA
ATOM      5  C   UNL     1       2.475  -0.078   0.000  0.00  0.00    +0.000 A 
ATOM      6  C   UNL     1       1.761  -0.491   0.000  0.00  0.00    +0.000 A 
ATOM      7  C   UNL     1       3.189  -0.491   0.000  0.00  0.00    +0.000 A 
ATOM      8  C   UNL     1       2.475  -1.728   0.000  0.00  0.00    +0.000 A 
ATOM      9  C   UNL     1       1.761  -1.316   0.000  0.00  0.00    +0.000 A 
ATOM     10  C   UNL     1       3.189  -1.316   0.000  0.00  0.00    +0.000 A 
ENDBRANCH   1   5
BRANCH   1  12
ATOM     11  O   UNL     1       3.904   1.572   0.000  0.00  0.00    +0.000 OA
ATOM     12  N   UNL     1       2.475   1.572   0.000  0.00  0.00    +0.000 NA
ATOM     13  C   UNL     1       3.189   1.984   0.000  0.00  0.00    +0.000 C 
ATOM     14  C   UNL     1       3.189   2.809   0.000  0.00  0.00    +0.000 C 
ENDBRANCH   1  12
TORSDOF 2
