REMARK  Name = 636
REMARK  5 active torsions:
REMARK  status: ('A' for Active; 'I' for Inactive)
REMARK    1  A    between atoms: O_2  and  C_5
REMARK    2  A    between atoms: O_2  and  C_9
REMARK    3  A    between atoms: O_3  and  C_8
REMARK    4  A    between atoms: O_3  and  C_10
REMARK    5  A    between atoms: C_5  and  C_8
REMARK                            x       y       z     vdW  Elec       q    Type
REMARK                         _______ _______ _______ _____ _____    ______ ____
ROOT
ATOM      1  O   UNL     1       2.365   0.206   0.000  0.00  0.00    +0.000 OA
ENDROOT
BRANCH   1   3
ATOM      2 CL   UNL     1       2.365  -3.094   0.000  0.00  0.00    +0.000 Cl
ATOM      3  C   UNL     1       2.365  -0.619   0.000  0.00  0.00    +0.000 A 
ATOM      4  C   UNL     1       3.079  -1.031   0.000  0.00  0.00    +0.000 A 
ATOM      5  C   UNL     1       1.650  -1.031   0.000  0.00  0.00    +0.000 A 
ATOM      6  C   UNL     1       3.079  -1.856   0.000  0.00  0.00    +0.000 A 
ATOM      7  C   UNL     1       1.650  -1.856   0.000  0.00  0.00    +0.000 A 
ATOM      8  C   UNL     1       2.365  -2.269   0.000  0.00  0.00    +0.000 A 
ENDBRANCH   1   3
BRANCH   1   9
ATOM      9  C   UNL     1       3.079   0.619   0.000  0.00  0.00    +0.000 C 
ATOM     10  C   UNL     1       2.667   1.333   0.000  0.00  0.00    +0.000 C 
ATOM     11  C   UNL     1       3.492  -0.096   0.000  0.00  0.00    +0.000 C 
BRANCH   9  13
ATOM     12  O   UNL     1       4.508   0.619   0.000  0.00  0.00    +0.000 OA
ATOM     13  C   UNL     1       3.793   1.031   0.000  0.00  0.00    +0.000 C 
BRANCH  13  14
ATOM     14  O   UNL     1       3.793   1.856   0.000  0.00  0.00    +0.000 OA
BRANCH  14  15
ATOM     15  C   UNL     1       4.508   2.269   0.000  0.00  0.00    +0.000 C 
ATOM     16  C   UNL     1       4.508   3.094   0.000  0.00  0.00    +0.000 C 
ENDBRANCH  14  15
ENDBRANCH  13  14
ENDBRANCH   9  13
ENDBRANCH   1   9
TORSDOF 5
