REMARK  Name = 637
REMARK  7 active torsions:
REMARK  status: ('A' for Active; 'I' for Inactive)
REMARK    1  A    between atoms: O_2  and  C_30
REMARK    2  A    between atoms: N_3  and  C_12
REMARK    3  A    between atoms: N_4  and  C_7
REMARK    4  A    between atoms: N_5  and  C_17
REMARK    5  A    between atoms: C_12  and  C_13
REMARK    6  A    between atoms: C_13  and  C_15
REMARK    7  A    between atoms: C_17  and  C_20
REMARK                            x       y       z     vdW  Elec       q    Type
REMARK                         _______ _______ _______ _____ _____    ______ ____
ROOT
ATOM      1  N   UNL     1       5.166   0.906   0.000  0.00  0.00    +0.000 NA
ATOM      2  N   UNL     1       3.860   1.570   0.000  0.00  0.00    +0.000 N 
ATOM      3  N   UNL     1       3.860   0.242   0.000  0.00  0.00    +0.000 NA
ATOM      4  C   UNL     1       4.341   0.906   0.000  0.00  0.00    +0.000 A 
ATOM      5  C   UNL     1       3.079   1.318   0.000  0.00  0.00    +0.000 A 
ATOM      6  C   UNL     1       3.079   0.493   0.000  0.00  0.00    +0.000 A 
ATOM      7  C   UNL     1       2.365   1.731   0.000  0.00  0.00    +0.000 A 
ATOM      8  C   UNL     1       2.365   0.081   0.000  0.00  0.00    +0.000 A 
ATOM      9  C   UNL     1       1.650   1.318   0.000  0.00  0.00    +0.000 A 
ATOM     10  C   UNL     1       1.650   0.493   0.000  0.00  0.00    +0.000 A 
ENDROOT
BRANCH   1  12
ATOM     11  N   UNL     1       6.404  -1.238   0.000  0.00  0.00    +0.000 NA
ATOM     12  C   UNL     1       5.579   0.191   0.000  0.00  0.00    +0.000 C 
ATOM     13  C   UNL     1       5.166  -0.523   0.000  0.00  0.00    +0.000 C 
ATOM     14  C   UNL     1       6.404   0.191   0.000  0.00  0.00    +0.000 C 
ATOM     15  C   UNL     1       5.579  -1.238   0.000  0.00  0.00    +0.000 C 
ATOM     16  C   UNL     1       6.816  -0.523   0.000  0.00  0.00    +0.000 C 
BRANCH  11  17
ATOM     17  C   UNL     1       6.816  -1.952   0.000  0.00  0.00    +0.000 C 
BRANCH  17  18
ATOM     18  C   UNL     1       7.641  -1.952   0.000  0.00  0.00    +0.000 C 
BRANCH  18  19
ATOM     19  C   UNL     1       8.054  -2.667   0.000  0.00  0.00    +0.000 A 
ATOM     20  C   UNL     1       8.879  -2.667   0.000  0.00  0.00    +0.000 A 
ATOM     21  C   UNL     1       7.641  -3.381   0.000  0.00  0.00    +0.000 A 
ATOM     22  C   UNL     1       9.291  -3.381   0.000  0.00  0.00    +0.000 A 
ATOM     23  C   UNL     1       8.054  -4.096   0.000  0.00  0.00    +0.000 A 
ATOM     24  C   UNL     1       8.879  -4.096   0.000  0.00  0.00    +0.000 A 
BRANCH  24  25
ATOM     25  O   UNL     1       9.291  -4.810   0.000  0.00  0.00    +0.000 OA
ATOM     26  C   UNL     1      10.116  -4.810   0.000  0.00  0.00    +0.000 C 
ENDBRANCH  24  25
ENDBRANCH  18  19
ENDBRANCH  17  18
ENDBRANCH  11  17
ENDBRANCH   1  12
BRANCH   2  27
ATOM     27  C   UNL     1       4.116   2.354   0.000  0.00  0.00    +0.000 C 
BRANCH  27  29
ATOM     28  F   UNL     1       1.912   4.810   0.000  0.00  0.00    +0.000 F 
ATOM     29  C   UNL     1       3.565   2.968   0.000  0.00  0.00    +0.000 A 
ATOM     30  C   UNL     1       2.758   2.798   0.000  0.00  0.00    +0.000 A 
ATOM     31  C   UNL     1       3.821   3.752   0.000  0.00  0.00    +0.000 A 
ATOM     32  C   UNL     1       2.207   3.412   0.000  0.00  0.00    +0.000 A 
ATOM     33  C   UNL     1       3.270   4.366   0.000  0.00  0.00    +0.000 A 
ATOM     34  C   UNL     1       2.463   4.196   0.000  0.00  0.00    +0.000 A 
ENDBRANCH  27  29
ENDBRANCH   2  27
TORSDOF 7
