REMARK  Name = 639
REMARK  7 active torsions:
REMARK  status: ('A' for Active; 'I' for Inactive)
REMARK    1  A    between atoms: S_4  and  C_7
REMARK    2  A    between atoms: S_4  and  C_12
REMARK    3  A    between atoms: N_5  and  C_9
REMARK    4  A    between atoms: C_7  and  C_8
REMARK    5  A    between atoms: C_7  and  C_9
REMARK    6  A    between atoms: C_8  and  C_10
REMARK    7  A    between atoms: C_10  and  C_11
REMARK                            x       y       z     vdW  Elec       q    Type
REMARK                         _______ _______ _______ _____ _____    ______ ____
ROOT
ATOM      1  C   UNL     1       3.793   0.329   0.000  0.00  0.00    +0.000 C 
ENDROOT
BRANCH   1   2
ATOM      2  S   UNL     1       3.079  -0.084   0.000  0.00  0.00    +0.000 S 
BRANCH   2   5
ATOM      3 CL   UNL     1       4.508  -0.908   0.000  0.00  0.00    +0.000 Cl
ATOM      4 CL   UNL     1       1.650  -0.908   0.000  0.00  0.00    +0.000 Cl
ATOM      5  C   UNL     1       3.079  -0.908   0.000  0.00  0.00    +0.000 A 
ATOM      6  C   UNL     1       3.793  -1.321   0.000  0.00  0.00    +0.000 A 
ATOM      7  C   UNL     1       2.365  -1.321   0.000  0.00  0.00    +0.000 A 
ATOM      8  C   UNL     1       3.793  -2.146   0.000  0.00  0.00    +0.000 A 
ATOM      9  C   UNL     1       2.365  -2.146   0.000  0.00  0.00    +0.000 A 
ATOM     10  C   UNL     1       3.079  -2.558   0.000  0.00  0.00    +0.000 A 
ENDBRANCH   2   5
ENDBRANCH   1   2
BRANCH   1  11
ATOM     11  C   UNL     1       4.508  -0.084   0.000  0.00  0.00    +0.000 C 
BRANCH  11  12
ATOM     12  C   UNL     1       5.222   0.329   0.000  0.00  0.00    +0.000 C 
BRANCH  12  14
ATOM     13 CL   UNL     1       8.080  -1.321   0.000  0.00  0.00    +0.000 Cl
ATOM     14  C   UNL     1       5.937  -0.084   0.000  0.00  0.00    +0.000 A 
ATOM     15  C   UNL     1       6.652   0.329   0.000  0.00  0.00    +0.000 A 
ATOM     16  C   UNL     1       5.937  -0.908   0.000  0.00  0.00    +0.000 A 
ATOM     17  C   UNL     1       7.366  -0.084   0.000  0.00  0.00    +0.000 A 
ATOM     18  C   UNL     1       6.652  -1.321   0.000  0.00  0.00    +0.000 A 
ATOM     19  C   UNL     1       7.366  -0.908   0.000  0.00  0.00    +0.000 A 
ENDBRANCH  12  14
ENDBRANCH  11  12
ENDBRANCH   1  11
BRANCH   1  20
ATOM     20  C   UNL     1       3.793   1.154   0.000  0.00  0.00    +0.000 C 
BRANCH  20  21
ATOM     21  N   UNL     1       4.508   1.567   0.000  0.00  0.00    +0.000 N 
ATOM     22  N   UNL     1       5.401   2.558   0.000  0.00  0.00    +0.000 NA
ATOM     23  C   UNL     1       5.262   1.231   0.000  0.00  0.00    +0.000 A 
ATOM     24  C   UNL     1       4.594   2.387   0.000  0.00  0.00    +0.000 A 
ATOM     25  C   UNL     1       5.814   1.844   0.000  0.00  0.00    +0.000 A 
ENDBRANCH  20  21
ENDBRANCH   1  20
TORSDOF 7
