REMARK  Name = 640
REMARK  2 active torsions:
REMARK  status: ('A' for Active; 'I' for Inactive)
REMARK    1  A    between atoms: N9_5  and  C1*_11
REMARK    2  A    between atoms: C4*_13  and  C5*_14
REMARK                            x       y       z     vdW  Elec       q    Type
REMARK                         _______ _______ _______ _____ _____    ______ ____
ROOT
ATOM      1  N9    A A   1       3.860  -0.357   0.000  0.00  0.00    +0.000 N 
ATOM      2  N7    A A   1       3.860  -1.685   0.000  0.00  0.00    +0.000 NA
ATOM      3  N3    A A   1       2.365  -0.196   0.000  0.00  0.00    +0.000 NA
ATOM      4  N1    A A   1       1.650  -1.433   0.000  0.00  0.00    +0.000 NA
ATOM      5  N6    A A   1       2.365  -2.671   0.000  0.00  0.00    +0.000 NA
ATOM      6  C4    A A   1       3.079  -0.608   0.000  0.00  0.00    +0.000 A 
ATOM      7  C8    A A   1       4.341  -1.021   0.000  0.00  0.00    +0.000 A 
ATOM      8  C5    A A   1       3.079  -1.433   0.000  0.00  0.00    +0.000 A 
ATOM      9  C6    A A   1       2.365  -1.846   0.000  0.00  0.00    +0.000 A 
ATOM     10  C2    A A   1       1.650  -0.608   0.000  0.00  0.00    +0.000 A 
ENDROOT
BRANCH   1  15
ATOM     11  O4*   A A   1       4.901   0.681   0.000  0.00  0.00    +0.000 OA
ATOM     12  O2*   A A   1       2.807   1.097   0.000  0.00  0.00    +0.000 OA
ATOM     13  O3*   A A   1       3.865   2.547   0.000  0.00  0.00    +0.000 OA
ATOM     14  C2*   A A   1       3.632   1.095   0.000  0.00  0.00    +0.000 C 
ATOM     15  C1*   A A   1       4.116   0.427   0.000  0.00  0.00    +0.000 C 
ATOM     16  C3*   A A   1       4.118   1.762   0.000  0.00  0.00    +0.000 C 
ATOM     17  C4*   A A   1       4.902   1.506   0.000  0.00  0.00    +0.000 C 
BRANCH  17  19
ATOM     18  O5*   A A   1       6.324   1.653   0.000  0.00  0.00    +0.000 OA
ATOM     19  C5*   A A   1       5.571   1.990   0.000  0.00  0.00    +0.000 C 
ENDBRANCH  17  19
ENDBRANCH   1  15
TORSDOF 2
