REMARK  Name = 641
REMARK  3 active torsions:
REMARK  status: ('A' for Active; 'I' for Inactive)
REMARK    1  A    between atoms: C_3  and  N_11
REMARK    2  A    between atoms: C_9  and  C_12
REMARK    3  A    between atoms: N_13  and  C_16
REMARK                            x       y       z     vdW  Elec       q    Type
REMARK                         _______ _______ _______ _____ _____    ______ ____
ROOT
ATOM      1  C   UNL     1       2.357   2.676   0.000  0.00  0.00    +0.000 C 
ATOM      2  C   UNL     1       1.690   3.161   0.000  0.00  0.00    +0.000 C 
ATOM      3  C   UNL     1       1.022   2.676   0.000  0.00  0.00    +0.000 C 
ATOM      4  C   UNL     1       1.277   1.892   0.000  0.00  0.00    +0.000 C 
ATOM      5  N   UNL     1       2.102   1.892   0.000  0.00  0.00    +0.000 N 
ATOM      6  O   UNL     1       3.142   2.931   0.000  0.00  0.00    +0.000 OA
ENDROOT
BRANCH   5   9
ATOM      7  C   UNL     1       3.892   0.643   0.000  0.00  0.00    +0.000 C 
ATOM      8  C   UNL     1       3.408   1.310   0.000  0.00  0.00    +0.000 C 
ATOM      9  C   UNL     1       2.587   1.224   0.000  0.00  0.00    +0.000 C 
ATOM     10  C   UNL     1       2.252   0.470   0.000  0.00  0.00    +0.000 C 
ATOM     11  C   UNL     1       2.736  -0.197   0.000  0.00  0.00    +0.000 C 
ATOM     12  C   UNL     1       3.557  -0.111   0.000  0.00  0.00    +0.000 C 
ENDBRANCH   5   9
BRANCH   3  13
ATOM     13  C   UNL     1       0.237   2.931   0.000  0.00  0.00    +0.000 C 
ATOM     14  N   UNL     1       0.066   3.738   0.000  0.00  0.00    +0.000 NA
ATOM     15  O   UNL     1      -0.376   2.379   0.000  0.00  0.00    +0.000 OA
BRANCH  14  16
ATOM     16  C   UNL     1      -0.719   3.993   0.000  0.00  0.00    +0.000 A 
ATOM     17  C   UNL     1      -0.890   4.800   0.000  0.00  0.00    +0.000 A 
ATOM     18  C   UNL     1      -1.675   5.055   0.000  0.00  0.00    +0.000 A 
ATOM     19 CL   UNL     1      -1.846   5.862   0.000  0.00  0.00    +0.000 Cl
ATOM     20  C   UNL     1      -2.288   4.503   0.000  0.00  0.00    +0.000 A 
ATOM     21  C   UNL     1      -2.116   3.696   0.000  0.00  0.00    +0.000 A 
ATOM     22  C   UNL     1      -1.332   3.441   0.000  0.00  0.00    +0.000 A 
ATOM     23 CL   UNL     1      -2.729   3.144   0.000  0.00  0.00    +0.000 Cl
ENDBRANCH  14  16
ENDBRANCH   3  13
TORSDOF 3
