REMARK  Name = 642
REMARK  6 active torsions:
REMARK  status: ('A' for Active; 'I' for Inactive)
REMARK    1  A    between atoms: C_1  and  C_4
REMARK    2  A    between atoms: C_10  and  C_12
REMARK    3  A    between atoms: C_15  and  O_18
REMARK    4  A    between atoms: O_18  and  C_19
REMARK    5  A    between atoms: C_19  and  C_20
REMARK    6  A    between atoms: C_22  and  C_30
REMARK                            x       y       z     vdW  Elec       q    Type
REMARK                         _______ _______ _______ _____ _____    ______ ____
ROOT
ATOM      1  O   UNL     1       0.388   0.504   0.000  0.00  0.00    +0.000 OA
ENDROOT
BRANCH   1   5
ATOM      2  C   UNL     1       0.388  -1.970   0.000  0.00  0.00    +0.000 A 
ATOM      3  C   UNL     1       1.102  -1.558   0.000  0.00  0.00    +0.000 A 
ATOM      4  C   UNL     1       1.102  -0.733   0.000  0.00  0.00    +0.000 A 
ATOM      5  C   UNL     1       0.388  -0.321   0.000  0.00  0.00    +0.000 A 
ATOM      6  C   UNL     1      -0.327  -0.733   0.000  0.00  0.00    +0.000 A 
ATOM      7  C   UNL     1      -0.327  -1.558   0.000  0.00  0.00    +0.000 A 
BRANCH   2  14
ATOM      8  C   UNL     1       1.554  -4.401   0.000  0.00  0.00    +0.000 C 
ATOM      9  C   UNL     1       0.800  -4.065   0.000  0.00  0.00    +0.000 C 
ATOM     10  C   UNL     1       0.886  -4.886   0.000  0.00  0.00    +0.000 C 
ATOM     11  C   UNL     1      -0.025  -4.065   0.000  0.00  0.00    +0.000 C 
ATOM     12  N   UNL     1      -0.280  -3.280   0.000  0.00  0.00    +0.000 NA
ATOM     13  O   UNL     1      -0.510  -4.732   0.000  0.00  0.00    +0.000 OA
ATOM     14  C   UNL     1       0.388  -2.796   0.000  0.00  0.00    +0.000 C 
ATOM     15  C   UNL     1       1.055  -3.280   0.000  0.00  0.00    +0.000 C 
BRANCH   8  16
ATOM     16  C   UNL     1       2.374  -4.314   0.000  0.00  0.00    +0.000 C 
ATOM     17  O   UNL     1       2.859  -4.982   0.000  0.00  0.00    +0.000 OA
ATOM     18  O   UNL     1       2.710  -3.561   0.000  0.00  0.00    +0.000 OA
ENDBRANCH   8  16
ENDBRANCH   2  14
ENDBRANCH   1   5
BRANCH   1  19
ATOM     19  C   UNL     1      -0.327   0.917   0.000  0.00  0.00    +0.000 C 
BRANCH  19  20
ATOM     20  C   UNL     1      -0.327   1.742   0.000  0.00  0.00    +0.000 A 
ATOM     21  N   UNL     1      -0.327   3.392   0.000  0.00  0.00    +0.000 NA
ATOM     22  C   UNL     1      -1.041   2.979   0.000  0.00  0.00    +0.000 A 
ATOM     23  C   UNL     1      -1.041   2.155   0.000  0.00  0.00    +0.000 A 
ATOM     24  C   UNL     1       0.388   2.979   0.000  0.00  0.00    +0.000 A 
ATOM     25  C   UNL     1       0.388   2.155   0.000  0.00  0.00    +0.000 A 
ATOM     26  C   UNL     1       1.102   1.742   0.000  0.00  0.00    +0.000 A 
ATOM     27  C   UNL     1       1.817   2.155   0.000  0.00  0.00    +0.000 A 
ATOM     28  C   UNL     1       1.817   2.979   0.000  0.00  0.00    +0.000 A 
ATOM     29  C   UNL     1       1.102   3.392   0.000  0.00  0.00    +0.000 A 
BRANCH  22  30
ATOM     30  C   UNL     1      -1.756   3.392   0.000  0.00  0.00    +0.000 A 
ATOM     31  C   UNL     1      -1.756   4.217   0.000  0.00  0.00    +0.000 A 
ATOM     32  C   UNL     1      -2.470   4.630   0.000  0.00  0.00    +0.000 A 
ATOM     33  C   UNL     1      -3.185   4.217   0.000  0.00  0.00    +0.000 A 
ATOM     34  C   UNL     1      -3.185   3.392   0.000  0.00  0.00    +0.000 A 
ATOM     35  C   UNL     1      -2.470   2.979   0.000  0.00  0.00    +0.000 A 
ENDBRANCH  22  30
ENDBRANCH  19  20
ENDBRANCH   1  19
TORSDOF 6
