REMARK  Name = 643
REMARK  3 active torsions:
REMARK  status: ('A' for Active; 'I' for Inactive)
REMARK    1  A    between atoms: O_2  and  C_21
REMARK    2  A    between atoms: C_9  and  C_14
REMARK    3  A    between atoms: C_14  and  C_15
REMARK                            x       y       z     vdW  Elec       q    Type
REMARK                         _______ _______ _______ _____ _____    ______ ____
ROOT
ATOM      1  O   UNL     1       8.024  -1.539   0.000  0.00  0.00    +0.000 OA
ATOM      2  N   UNL     1       6.717   0.553   0.000  0.00  0.00    +0.000 NA
ATOM      3  N   UNL     1       6.717  -0.774   0.000  0.00  0.00    +0.000 NA
ATOM      4  N   UNL     1       8.024  -0.111   0.000  0.00  0.00    +0.000 NA
ATOM      5  C   UNL     1       5.936   0.302   0.000  0.00  0.00    +0.000 A 
ATOM      6  C   UNL     1       5.936  -0.523   0.000  0.00  0.00    +0.000 A 
ATOM      7  C   UNL     1       4.508   0.302   0.000  0.00  0.00    +0.000 A 
ATOM      8  C   UNL     1       5.222   0.714   0.000  0.00  0.00    +0.000 A 
ATOM      9  C   UNL     1       5.222  -0.935   0.000  0.00  0.00    +0.000 A 
ATOM     10  C   UNL     1       4.508  -0.523   0.000  0.00  0.00    +0.000 A 
ATOM     11  C   UNL     1       7.199  -0.111   0.000  0.00  0.00    +0.000 A 
ATOM     12  C   UNL     1       8.436  -0.825   0.000  0.00  0.00    +0.000 C 
ENDROOT
BRANCH   7  14
ATOM     13  O   UNL     1       3.793   1.539   0.000  0.00  0.00    +0.000 OA
ATOM     14  C   UNL     1       3.793   0.714   0.000  0.00  0.00    +0.000 C 
BRANCH  14  15
ATOM     15  C   UNL     1       3.079   0.302   0.000  0.00  0.00    +0.000 A 
ATOM     16  C   UNL     1       3.079  -0.523   0.000  0.00  0.00    +0.000 A 
ATOM     17  C   UNL     1       2.364   0.714   0.000  0.00  0.00    +0.000 A 
ATOM     18  C   UNL     1       2.364  -0.935   0.000  0.00  0.00    +0.000 A 
ATOM     19  C   UNL     1       1.650   0.302   0.000  0.00  0.00    +0.000 A 
ATOM     20  C   UNL     1       1.650  -0.523   0.000  0.00  0.00    +0.000 A 
ENDBRANCH  14  15
ENDBRANCH   7  14
BRANCH  12  21
ATOM     21  O   UNL     1       9.261  -0.825   0.000  0.00  0.00    +0.000 OA
ATOM     22  C   UNL     1       9.674  -1.539   0.000  0.00  0.00    +0.000 C 
ENDBRANCH  12  21
TORSDOF 3
