REMARK  Name = 645
REMARK  8 active torsions:
REMARK  status: ('A' for Active; 'I' for Inactive)
REMARK    1  A    between atoms: O_2  and  C_16
REMARK    2  A    between atoms: O_2  and  C_19
REMARK    3  A    between atoms: N_3  and  C_9
REMARK    4  A    between atoms: C_9  and  C_10
REMARK    5  A    between atoms: C_10  and  C_11
REMARK    6  A    between atoms: C_11  and  C_12
REMARK    7  A    between atoms: C_15  and  C_19
REMARK    8  A    between atoms: C_15  and  C_20
REMARK                            x       y       z     vdW  Elec       q    Type
REMARK                         _______ _______ _______ _____ _____    ______ ____
ROOT
ATOM      1  C   UNL     1       3.079   0.619   0.000  0.00  0.00    +0.000 A 
ATOM      2  C   UNL     1       3.793   0.206   0.000  0.00  0.00    +0.000 A 
ATOM      3  C   UNL     1       2.365   0.206   0.000  0.00  0.00    +0.000 A 
ATOM      4  C   UNL     1       3.079  -1.031   0.000  0.00  0.00    +0.000 A 
ATOM      5  C   UNL     1       3.793  -0.619   0.000  0.00  0.00    +0.000 A 
ATOM      6  C   UNL     1       2.365  -0.619   0.000  0.00  0.00    +0.000 A 
ENDROOT
BRANCH   1   8
ATOM      7  O   UNL     1       2.365   1.856   0.000  0.00  0.00    +0.000 OA
ATOM      8  C   UNL     1       3.079   1.444   0.000  0.00  0.00    +0.000 C 
BRANCH   8   9
ATOM      9  C   UNL     1       3.793   1.856   0.000  0.00  0.00    +0.000 C 
BRANCH   9  10
ATOM     10  C   UNL     1       3.793   2.681   0.000  0.00  0.00    +0.000 C 
BRANCH  10  11
ATOM     11  N   UNL     1       4.508   3.094   0.000  0.00  0.00    +0.000 NA
ATOM     12  C   UNL     1       4.508   3.919   0.000  0.00  0.00    +0.000 C 
ATOM     13  C   UNL     1       5.222   2.681   0.000  0.00  0.00    +0.000 C 
ATOM     14  C   UNL     1       5.222   4.331   0.000  0.00  0.00    +0.000 C 
ATOM     15  C   UNL     1       5.937   3.094   0.000  0.00  0.00    +0.000 C 
ATOM     16  C   UNL     1       5.937   3.919   0.000  0.00  0.00    +0.000 C 
ENDBRANCH  10  11
ENDBRANCH   9  10
ENDBRANCH   8   9
ENDBRANCH   1   8
BRANCH   4  17
ATOM     17  O   UNL     1       3.079  -1.856   0.000  0.00  0.00    +0.000 OA
BRANCH  17  18
ATOM     18  C   UNL     1       2.365  -2.269   0.000  0.00  0.00    +0.000 C 
BRANCH  18  19
ATOM     19  C   UNL     1       2.365  -3.094   0.000  0.00  0.00    +0.000 C 
BRANCH  19  20
ATOM     20  C   UNL     1       1.650  -3.506   0.000  0.00  0.00    +0.000 C 
ATOM     21  C   UNL     1       1.650  -4.331   0.000  0.00  0.00    +0.000 C 
ENDBRANCH  19  20
ENDBRANCH  18  19
ENDBRANCH  17  18
ENDBRANCH   4  17
TORSDOF 8
