REMARK  Name = 648
REMARK  3 active torsions:
REMARK  status: ('A' for Active; 'I' for Inactive)
REMARK    1  A    between atoms: C_5  and  C_6
REMARK    2  A    between atoms: C_5  and  C_7
REMARK    3  A    between atoms: C_5  and  C_8
REMARK                            x       y       z     vdW  Elec       q    Type
REMARK                         _______ _______ _______ _____ _____    ______ ____
ROOT
ATOM      1  C   UNL     1       3.079   0.412   0.000  0.00  0.00    +0.000 C 
ENDROOT
BRANCH   1   3
ATOM      2 CL   UNL     1       1.650  -0.412   0.000  0.00  0.00    +0.000 Cl
ATOM      3  C   UNL     1       3.079  -0.412   0.000  0.00  0.00    +0.000 A 
ATOM      4  C   UNL     1       2.365  -0.825   0.000  0.00  0.00    +0.000 A 
ATOM      5  C   UNL     1       3.793  -0.825   0.000  0.00  0.00    +0.000 A 
ATOM      6  C   UNL     1       2.365  -1.650   0.000  0.00  0.00    +0.000 A 
ATOM      7  C   UNL     1       3.793  -1.650   0.000  0.00  0.00    +0.000 A 
ATOM      8  C   UNL     1       3.079  -2.062   0.000  0.00  0.00    +0.000 A 
ENDBRANCH   1   3
BRANCH   1  10
ATOM      9 CL   UNL     1       5.937   2.062   0.000  0.00  0.00    +0.000 Cl
ATOM     10  C   UNL     1       3.793   0.825   0.000  0.00  0.00    +0.000 A 
ATOM     11  C   UNL     1       4.508   0.412   0.000  0.00  0.00    +0.000 A 
ATOM     12  C   UNL     1       3.793   1.650   0.000  0.00  0.00    +0.000 A 
ATOM     13  C   UNL     1       5.222   0.825   0.000  0.00  0.00    +0.000 A 
ATOM     14  C   UNL     1       4.508   2.062   0.000  0.00  0.00    +0.000 A 
ATOM     15  C   UNL     1       5.222   1.650   0.000  0.00  0.00    +0.000 A 
ENDBRANCH   1  10
BRANCH   1  18
ATOM     16 CL   UNL     1       2.365   1.650   0.000  0.00  0.00    +0.000 Cl
ATOM     17 CL   UNL     1       1.650   0.412   0.000  0.00  0.00    +0.000 Cl
ATOM     18  C   UNL     1       2.365   0.825   0.000  0.00  0.00    +0.000 C 
ENDBRANCH   1  18
TORSDOF 3
