REMARK  Name = 649
REMARK  2 active torsions:
REMARK  status: ('A' for Active; 'I' for Inactive)
REMARK    1  A    between atoms: N_5  and  C_7
REMARK    2  A    between atoms: C_8  and  C_11
REMARK                            x       y       z     vdW  Elec       q    Type
REMARK                         _______ _______ _______ _____ _____    ______ ____
ROOT
ATOM      1  O   UNL     1       1.650   0.727   0.000  0.00  0.00    +0.000 OA
ATOM      2  O   UNL     1       3.079   3.202   0.000  0.00  0.00    +0.000 OA
ATOM      3  N   UNL     1       3.079   0.727   0.000  0.00  0.00    +0.000 N 
ATOM      4  N   UNL     1       2.365   1.965   0.000  0.00  0.00    +0.000 NA
ATOM      5  C   UNL     1       3.793   1.140   0.000  0.00  0.00    +0.000 A 
ATOM      6  C   UNL     1       2.365   1.140   0.000  0.00  0.00    +0.000 A 
ATOM      7  C   UNL     1       3.793   1.965   0.000  0.00  0.00    +0.000 A 
ATOM      8  C   UNL     1       3.079   2.377   0.000  0.00  0.00    +0.000 A 
ATOM      9  C   UNL     1       4.508   2.377   0.000  0.00  0.00    +0.000 C 
ENDROOT
BRANCH   3  11
ATOM     10  O   UNL     1       3.747  -0.583   0.000  0.00  0.00    +0.000 OA
ATOM     11  C   UNL     1       3.079  -0.098   0.000  0.00  0.00    +0.000 C 
ATOM     12  C   UNL     1       3.492  -1.367   0.000  0.00  0.00    +0.000 C 
ATOM     13  C   UNL     1       2.412  -0.583   0.000  0.00  0.00    +0.000 C 
ATOM     14  C   UNL     1       2.667  -1.367   0.000  0.00  0.00    +0.000 C 
BRANCH  12  16
ATOM     15  O   UNL     1       3.641  -2.788   0.000  0.00  0.00    +0.000 OA
ATOM     16  C   UNL     1       3.976  -2.035   0.000  0.00  0.00    +0.000 C 
ENDBRANCH  12  16
ENDBRANCH   3  11
TORSDOF 2
