REMARK  Name = 64U
REMARK  6 active torsions:
REMARK  status: ('A' for Active; 'I' for Inactive)
REMARK    1  A    between atoms: C_1  and  C_3
REMARK    2  A    between atoms: C_1  and  C_21
REMARK    3  A    between atoms: C_3  and  C_4
REMARK    4  A    between atoms: C_10  and  C_11
REMARK    5  A    between atoms: N_12  and  C_13
REMARK    6  A    between atoms: C_13  and  C_14
REMARK                            x       y       z     vdW  Elec       q    Type
REMARK                         _______ _______ _______ _____ _____    ______ ____
ROOT
ATOM      1  C   UNL     1       1.059  -0.204   0.000  0.00  0.00    +0.000 C 
ATOM      2  O   UNL     1       1.230   0.603   0.000  0.00  0.00    +0.000 OA
ATOM      3  N   UNL     1       0.274  -0.459   0.000  0.00  0.00    +0.000 N 
ATOM      4  C   UNL     1       0.019  -1.243   0.000  0.00  0.00    +0.000 C 
ATOM      5  C   UNL     1      -0.806  -1.243   0.000  0.00  0.00    +0.000 C 
ATOM      6  C   UNL     1      -1.060  -0.459   0.000  0.00  0.00    +0.000 C 
ATOM      7  C   UNL     1      -0.393   0.026   0.000  0.00  0.00    +0.000 C 
ENDROOT
BRANCH   7   8
ATOM      8  C   UNL     1      -0.393   0.851   0.000  0.00  0.00    +0.000 C 
ATOM      9  N   UNL     1      -1.107   1.264   0.000  0.00  0.00    +0.000 NA
ATOM     10  O   UNL     1       0.321   1.264   0.000  0.00  0.00    +0.000 OA
BRANCH   9  11
ATOM     11  C   UNL     1      -1.107   2.089   0.000  0.00  0.00    +0.000 C 
BRANCH  11  12
ATOM     12  C   UNL     1      -1.822   2.501   0.000  0.00  0.00    +0.000 A 
ATOM     13  C   UNL     1      -2.537   2.089   0.000  0.00  0.00    +0.000 A 
ATOM     14  C   UNL     1      -3.251   2.501   0.000  0.00  0.00    +0.000 A 
ATOM     15  C   UNL     1      -3.251   3.326   0.000  0.00  0.00    +0.000 A 
ATOM     16  C   UNL     1      -2.537   3.739   0.000  0.00  0.00    +0.000 A 
ATOM     17  C   UNL     1      -1.822   3.326   0.000  0.00  0.00    +0.000 A 
ATOM     18 CL   UNL     1      -3.965   2.089   0.000  0.00  0.00    +0.000 Cl
ENDBRANCH  11  12
ENDBRANCH   9  11
ENDBRANCH   7   8
BRANCH   1  20
ATOM     19  N   UNL     1       1.501  -1.563   0.000  0.00  0.00    +0.000 NA
ATOM     20  C   UNL     1       1.672  -0.756   0.000  0.00  0.00    +0.000 C 
BRANCH  20  21
ATOM     21  C   UNL     1       2.457  -0.501   0.000  0.00  0.00    +0.000 C 
BRANCH  21  22
ATOM     22  C   UNL     1       3.070  -1.053   0.000  0.00  0.00    +0.000 C 
ATOM     23  C   UNL     1       3.854  -0.798   0.000  0.00  0.00    +0.000 C 
ATOM     24  C   UNL     1       4.468  -1.350   0.000  0.00  0.00    +0.000 C 
ATOM     25  C   UNL     1       4.296  -2.157   0.000  0.00  0.00    +0.000 C 
ATOM     26  C   UNL     1       3.511  -2.412   0.000  0.00  0.00    +0.000 C 
ATOM     27  C   UNL     1       2.898  -1.860   0.000  0.00  0.00    +0.000 C 
ENDBRANCH  21  22
ENDBRANCH  20  21
ENDBRANCH   1  20
TORSDOF 6
