REMARK  Name = 65028
REMARK  8 active torsions:
REMARK  status: ('A' for Active; 'I' for Inactive)
REMARK    1  A    between atoms: O_1  and  C_9
REMARK    2  A    between atoms: O_1  and  C_13
REMARK    3  A    between atoms: O_2  and  C_16
REMARK    4  A    between atoms: O_2  and  C_21
REMARK    5  A    between atoms: N_5  and  C_7
REMARK    6  A    between atoms: C_12  and  C_16
REMARK    7  A    between atoms: C_13  and  C_14
REMARK    8  A    between atoms: C_13  and  C_15
REMARK                            x       y       z     vdW  Elec       q    Type
REMARK                         _______ _______ _______ _____ _____    ______ ____
ROOT
ATOM      1  N   UNL     1       6.652   1.031   0.000  0.00  0.00    +0.000 NA
ATOM      2  C   UNL     1       5.222   1.031   0.000  0.00  0.00    +0.000 C 
ATOM      3  C   UNL     1       5.937   0.619   0.000  0.00  0.00    +0.000 C 
ATOM      4  C   UNL     1       4.508   0.619   0.000  0.00  0.00    +0.000 C 
ATOM      5  C   UNL     1       5.937  -0.206   0.000  0.00  0.00    +0.000 C 
ATOM      6  C   UNL     1       4.508  -0.206   0.000  0.00  0.00    +0.000 C 
ATOM      7  C   UNL     1       5.222  -0.619   0.000  0.00  0.00    +0.000 C 
ENDROOT
BRANCH   2   9
ATOM      8  O   UNL     1       3.793   1.856   0.000  0.00  0.00    +0.000 OA
ATOM      9  N   UNL     1       5.222   1.856   0.000  0.00  0.00    +0.000 NA
ATOM     10  C   UNL     1       4.508   2.269   0.000  0.00  0.00    +0.000 C 
ATOM     11  C   UNL     1       4.508   3.094   0.000  0.00  0.00    +0.000 C 
ENDBRANCH   2   9
BRANCH   7  13
ATOM     12  O   UNL     1       5.937  -1.856   0.000  0.00  0.00    +0.000 OA
ATOM     13  C   UNL     1       5.222  -1.444   0.000  0.00  0.00    +0.000 C 
BRANCH  13  14
ATOM     14  O   UNL     1       4.508  -1.856   0.000  0.00  0.00    +0.000 OA
BRANCH  14  15
ATOM     15  C   UNL     1       4.508  -2.681   0.000  0.00  0.00    +0.000 C 
ATOM     16  C   UNL     1       3.793  -3.094   0.000  0.00  0.00    +0.000 C 
ENDBRANCH  14  15
ENDBRANCH  13  14
ENDBRANCH   7  13
BRANCH   4  17
ATOM     17  O   UNL     1       3.793   1.031   0.000  0.00  0.00    +0.000 OA
BRANCH  17  18
ATOM     18  C   UNL     1       3.079   0.619   0.000  0.00  0.00    +0.000 C 
BRANCH  18  19
ATOM     19  C   UNL     1       2.365   1.031   0.000  0.00  0.00    +0.000 C 
ATOM     20  C   UNL     1       1.650   0.619   0.000  0.00  0.00    +0.000 C 
ENDBRANCH  18  19
BRANCH  18  21
ATOM     21  C   UNL     1       3.079  -0.206   0.000  0.00  0.00    +0.000 C 
ATOM     22  C   UNL     1       2.365  -0.619   0.000  0.00  0.00    +0.000 C 
ENDBRANCH  18  21
ENDBRANCH  17  18
ENDBRANCH   4  17
TORSDOF 8
