REMARK  Name = 651
REMARK  3 active torsions:
REMARK  status: ('A' for Active; 'I' for Inactive)
REMARK    1  A    between atoms: N_5  and  C_10
REMARK    2  A    between atoms: C_10  and  C_12
REMARK    3  A    between atoms: C_12  and  C_16
REMARK                            x       y       z     vdW  Elec       q    Type
REMARK                         _______ _______ _______ _____ _____    ______ ____
ROOT
ATOM      1  O   UNL     1       3.079   0.946   0.000  0.00  0.00    +0.000 OA
ATOM      2  O   UNL     1       1.650  -1.529   0.000  0.00  0.00    +0.000 OA
ATOM      3  N   UNL     1       4.574  -0.040   0.000  0.00  0.00    +0.000 N 
ATOM      4  N   UNL     1       3.079  -1.529   0.000  0.00  0.00    +0.000 N 
ATOM      5  N   UNL     1       2.365  -0.292   0.000  0.00  0.00    +0.000 N 
ATOM      6  N   UNL     1       4.574  -1.368   0.000  0.00  0.00    +0.000 NA
ATOM      7  C   UNL     1       3.793  -0.292   0.000  0.00  0.00    +0.000 A 
ATOM      8  C   UNL     1       3.793  -1.117   0.000  0.00  0.00    +0.000 A 
ATOM      9  C   UNL     1       3.079   0.121   0.000  0.00  0.00    +0.000 A 
ATOM     10  C   UNL     1       5.056  -0.704   0.000  0.00  0.00    +0.000 A 
ATOM     11  C   UNL     1       2.365  -1.117   0.000  0.00  0.00    +0.000 A 
ATOM     12  C   UNL     1       3.079  -2.354   0.000  0.00  0.00    +0.000 C 
ATOM     13  C   UNL     1       1.650   0.121   0.000  0.00  0.00    +0.000 C 
ENDROOT
BRANCH   3  14
ATOM     14  C   UNL     1       4.830   0.744   0.000  0.00  0.00    +0.000 C 
BRANCH  14  16
ATOM     15  O   UNL     1       6.189   0.300   0.000  0.00  0.00    +0.000 OA
ATOM     16  C   UNL     1       5.638   0.914   0.000  0.00  0.00    +0.000 C 
BRANCH  16  18
ATOM     17  O   UNL     1       6.701   1.868   0.000  0.00  0.00    +0.000 OA
ATOM     18  C   UNL     1       5.894   1.698   0.000  0.00  0.00    +0.000 C 
ENDBRANCH  16  18
ENDBRANCH  14  16
ENDBRANCH   3  14
TORSDOF 3
