REMARK  Name = 654
REMARK  3 active torsions:
REMARK  status: ('A' for Active; 'I' for Inactive)
REMARK    1  A    between atoms: C_2  and  C_6
REMARK    2  A    between atoms: N_9  and  C_11
REMARK    3  A    between atoms: C_11  and  C_12
REMARK                            x       y       z     vdW  Elec       q    Type
REMARK                         _______ _______ _______ _____ _____    ______ ____
ROOT
ATOM      1  C   UNL     1       0.781   1.362   0.000  0.00  0.00    +0.000 A 
ATOM      2  N   UNL     1       1.606   1.362   0.000  0.00  0.00    +0.000 NA
ATOM      3  C   UNL     1       0.526   0.578   0.000  0.00  0.00    +0.000 A 
ATOM      4  N   UNL     1       1.194   0.093   0.000  0.00  0.00    +0.000 N 
ATOM      5  C   UNL     1       1.861   0.578   0.000  0.00  0.00    +0.000 A 
ENDROOT
BRANCH   1   7
ATOM      6  S   UNL     1       0.551   2.814   0.000  0.00  0.00    +0.000 S 
ATOM      7  C   UNL     1       0.296   2.030   0.000  0.00  0.00    +0.000 A 
ATOM      8  C   UNL     1      -0.529   2.030   0.000  0.00  0.00    +0.000 A 
ATOM      9  C   UNL     1      -0.783   2.814   0.000  0.00  0.00    +0.000 A 
ATOM     10  C   UNL     1      -0.116   3.299   0.000  0.00  0.00    +0.000 A 
ENDBRANCH   1   7
BRANCH   4  11
ATOM     11  C   UNL     1       1.194  -0.732   0.000  0.00  0.00    +0.000 C 
BRANCH  11  12
ATOM     12  C   UNL     1       0.479  -1.145   0.000  0.00  0.00    +0.000 A 
ATOM     13  C   UNL     1       0.479  -1.970   0.000  0.00  0.00    +0.000 A 
ATOM     14  C   UNL     1      -0.235  -2.382   0.000  0.00  0.00    +0.000 A 
ATOM     15  C   UNL     1      -0.235  -0.732   0.000  0.00  0.00    +0.000 A 
ATOM     16  C   UNL     1      -0.950  -1.145   0.000  0.00  0.00    +0.000 A 
ATOM     17  C   UNL     1      -0.950  -1.970   0.000  0.00  0.00    +0.000 A 
ATOM     18  C   UNL     1      -1.664  -2.382   0.000  0.00  0.00    +0.000 C 
ENDBRANCH  11  12
ENDBRANCH   4  11
TORSDOF 3
