REMARK  Name = 655
REMARK  4 active torsions:
REMARK  status: ('A' for Active; 'I' for Inactive)
REMARK    1  A    between atoms: C_1  and  C_7
REMARK    2  A    between atoms: C_12  and  C_13
REMARK    3  A    between atoms: C_17  and  O_18
REMARK    4  A    between atoms: O_18  and  C_22
REMARK                            x       y       z     vdW  Elec       q    Type
REMARK                         _______ _______ _______ _____ _____    ______ ____
ROOT
ATOM      1  C   UNL     1      -1.175  -1.005   0.000  0.00  0.00    +0.000 A 
ATOM      2  C   UNL     1      -1.587  -1.719   0.000  0.00  0.00    +0.000 A 
ATOM      3  C   UNL     1      -2.413  -1.719   0.000  0.00  0.00    +0.000 A 
ATOM      4  C   UNL     1      -2.825  -1.005   0.000  0.00  0.00    +0.000 A 
ATOM      5  C   UNL     1      -2.413  -0.290   0.000  0.00  0.00    +0.000 A 
ATOM      6  C   UNL     1      -1.587  -0.290   0.000  0.00  0.00    +0.000 A 
ATOM      7  O   UNL     1      -1.175   0.424   0.000  0.00  0.00    +0.000 OA
ENDROOT
BRANCH   1  16
ATOM      8  C   UNL     1       2.348  -0.592   0.000  0.00  0.00    +0.000 A 
ATOM      9  C   UNL     1       2.348  -1.417   0.000  0.00  0.00    +0.000 A 
ATOM     10  C   UNL     1       1.634  -1.830   0.000  0.00  0.00    +0.000 A 
ATOM     11  C   UNL     1       0.919  -1.417   0.000  0.00  0.00    +0.000 A 
ATOM     12  C   UNL     1       0.919  -0.592   0.000  0.00  0.00    +0.000 A 
ATOM     13  C   UNL     1       1.634  -0.180   0.000  0.00  0.00    +0.000 A 
ATOM     14  N   UNL     1       0.135  -1.672   0.000  0.00  0.00    +0.000 NA
ATOM     15  N   UNL     1       0.135  -0.338   0.000  0.00  0.00    +0.000 NA
ATOM     16  C   UNL     1      -0.350  -1.005   0.000  0.00  0.00    +0.000 A 
BRANCH   8  17
ATOM     17  C   UNL     1       3.063  -0.180   0.000  0.00  0.00    +0.000 C 
ATOM     18  N   UNL     1       3.777  -0.592   0.000  0.00  0.00    +0.000 NA
ATOM     19  N   UNL     1       3.063   0.645   0.000  0.00  0.00    +0.000 NA
ENDBRANCH   8  17
ENDBRANCH   1  16
BRANCH   5  20
ATOM     20  O   UNL     1      -2.825   0.424   0.000  0.00  0.00    +0.000 OA
BRANCH  20  22
ATOM     21  C   UNL     1      -1.592   1.225   0.000  0.00  0.00    +0.000 C 
ATOM     22  C   UNL     1      -2.413   1.139   0.000  0.00  0.00    +0.000 C 
ATOM     23  C   UNL     1      -2.748   1.892   0.000  0.00  0.00    +0.000 C 
ATOM     24  C   UNL     1      -2.135   2.444   0.000  0.00  0.00    +0.000 C 
ATOM     25  C   UNL     1      -1.421   2.032   0.000  0.00  0.00    +0.000 C 
ENDBRANCH  20  22
ENDBRANCH   5  20
TORSDOF 4
