REMARK  Name = 655
REMARK  0 active torsions:
REMARK  status: ('A' for Active; 'I' for Inactive)
REMARK                            x       y       z     vdW  Elec       q    Type
REMARK                         _______ _______ _______ _____ _____    ______ ____
ROOT
ATOM      1  O   UNL     1       7.577   1.795   0.000  0.00  0.00    +0.000 OA
ATOM      2  O   UNL     1       2.092  -1.758   0.000  0.00  0.00    +0.000 OA
ATOM      3  C   UNL     1       6.540  -0.065   0.000  0.00  0.00    +0.000 C 
ATOM      4  C   UNL     1       6.540   0.760   0.000  0.00  0.00    +0.000 C 
ATOM      5  C   UNL     1       5.826  -0.477   0.000  0.00  0.00    +0.000 C 
ATOM      6  C   UNL     1       5.111  -0.065   0.000  0.00  0.00    +0.000 C 
ATOM      7  C   UNL     1       5.826   1.173   0.000  0.00  0.00    +0.000 C 
ATOM      8  C   UNL     1       7.321  -0.316   0.000  0.00  0.00    +0.000 C 
ATOM      9  C   UNL     1       5.111   0.760   0.000  0.00  0.00    +0.000 C 
ATOM     10  C   UNL     1       5.839  -1.336   0.000  0.00  0.00    +0.000 C 
ATOM     11  C   UNL     1       7.321   1.011   0.000  0.00  0.00    +0.000 C 
ATOM     12  C   UNL     1       7.802   0.348   0.000  0.00  0.00    +0.000 C 
ATOM     13  C   UNL     1       6.540   1.585   0.000  0.00  0.00    +0.000 C 
ATOM     14  C   UNL     1       4.361  -0.483   0.000  0.00  0.00    +0.000 A 
ATOM     15  C   UNL     1       5.098  -1.772   0.000  0.00  0.00    +0.000 C 
ATOM     16  C   UNL     1       4.354  -1.342   0.000  0.00  0.00    +0.000 A 
ATOM     17  C   UNL     1       3.596  -0.018   0.000  0.00  0.00    +0.000 A 
ATOM     18  C   UNL     1       3.583  -1.795   0.000  0.00  0.00    +0.000 A 
ATOM     19  C   UNL     1       2.814  -0.453   0.000  0.00  0.00    +0.000 A 
ATOM     20  C   UNL     1       2.808  -1.348   0.000  0.00  0.00    +0.000 A 
ENDROOT
TORSDOF 0
