REMARK  Name = 656
REMARK  5 active torsions:
REMARK  status: ('A' for Active; 'I' for Inactive)
REMARK    1  A    between atoms: N_3  and  C_12
REMARK    2  A    between atoms: N_4  and  C_15
REMARK    3  A    between atoms: N_5  and  C_14
REMARK    4  A    between atoms: C_12  and  C_13
REMARK    5  A    between atoms: C_13  and  C_14
REMARK                            x       y       z     vdW  Elec       q    Type
REMARK                         _______ _______ _______ _____ _____    ______ ____
ROOT
ATOM      1  N   UNL     1       6.816   0.705   0.000  0.00  0.00    +0.000 NA
ATOM      2  N   UNL     1       7.641  -0.724   0.000  0.00  0.00    +0.000 N 
ATOM      3  C   UNL     1       6.404  -0.010   0.000  0.00  0.00    +0.000 C 
ATOM      4  C   UNL     1       7.641   0.705   0.000  0.00  0.00    +0.000 C 
ATOM      5  C   UNL     1       6.816  -0.724   0.000  0.00  0.00    +0.000 C 
ATOM      6  C   UNL     1       8.054  -0.010   0.000  0.00  0.00    +0.000 C 
ENDROOT
BRANCH   2   8
ATOM      7 CL   UNL     1       7.641  -3.582   0.000  0.00  0.00    +0.000 Cl
ATOM      8  C   UNL     1       8.054  -1.439   0.000  0.00  0.00    +0.000 A 
ATOM      9  C   UNL     1       7.641  -2.153   0.000  0.00  0.00    +0.000 A 
ATOM     10  C   UNL     1       8.879  -1.439   0.000  0.00  0.00    +0.000 A 
ATOM     11  C   UNL     1       8.054  -2.868   0.000  0.00  0.00    +0.000 A 
ATOM     12  C   UNL     1       9.291  -2.153   0.000  0.00  0.00    +0.000 A 
ATOM     13  C   UNL     1       8.879  -2.868   0.000  0.00  0.00    +0.000 A 
ENDBRANCH   2   8
BRANCH   1  14
ATOM     14  C   UNL     1       6.404   1.419   0.000  0.00  0.00    +0.000 C 
BRANCH  14  15
ATOM     15  C   UNL     1       5.579   1.419   0.000  0.00  0.00    +0.000 C 
BRANCH  15  16
ATOM     16  C   UNL     1       5.166   2.134   0.000  0.00  0.00    +0.000 C 
BRANCH  16  18
ATOM     17  O   UNL     1       4.116   3.582   0.000  0.00  0.00    +0.000 OA
ATOM     18  N   UNL     1       4.341   2.134   0.000  0.00  0.00    +0.000 N 
ATOM     19  N   UNL     1       3.079   2.546   0.000  0.00  0.00    +0.000 N 
ATOM     20  N   UNL     1       3.860   1.470   0.000  0.00  0.00    +0.000 NA
ATOM     21  C   UNL     1       3.860   2.798   0.000  0.00  0.00    +0.000 A 
ATOM     22  C   UNL     1       3.079   1.721   0.000  0.00  0.00    +0.000 A 
ATOM     23  C   UNL     1       2.365   2.959   0.000  0.00  0.00    +0.000 A 
ATOM     24  C   UNL     1       2.365   1.309   0.000  0.00  0.00    +0.000 A 
ATOM     25  C   UNL     1       1.650   2.546   0.000  0.00  0.00    +0.000 A 
ATOM     26  C   UNL     1       1.650   1.721   0.000  0.00  0.00    +0.000 A 
ENDBRANCH  16  18
ENDBRANCH  15  16
ENDBRANCH  14  15
ENDBRANCH   1  14
TORSDOF 5
