REMARK  Name = 657
REMARK  1 active torsions:
REMARK  status: ('A' for Active; 'I' for Inactive)
REMARK    1  A    between atoms: N_1  and  C_3
REMARK                            x       y       z     vdW  Elec       q    Type
REMARK                         _______ _______ _______ _____ _____    ______ ____
ROOT
ATOM      1  C   UNL     1       1.971   0.067   0.000  0.00  0.00    +0.000 C 
ATOM      2  C   UNL     1       2.307  -0.515   0.000  0.00  0.00    +0.000 C 
ATOM      3  C   UNL     1       3.644   0.806   0.000  0.00  0.00    +0.000 C 
ATOM      4  C   UNL     1       3.470   0.157   0.000  0.00  0.00    +0.000 C 
ATOM      5  C   UNL     1       3.149   1.466   0.000  0.00  0.00    +0.000 C 
ATOM      6  C   UNL     1       4.875   0.296   0.000  0.00  0.00    +0.000 C 
ATOM      7  C   UNL     1       4.701  -0.353   0.000  0.00  0.00    +0.000 C 
ATOM      8  C   UNL     1       1.548   0.589   0.000  0.00  0.00    +0.000 C 
ATOM      9  C   UNL     1       1.344  -0.174   0.000  0.00  0.00    +0.000 C 
ATOM     10  C   UNL     1       1.784  -0.938   0.000  0.00  0.00    +0.000 C 
ENDROOT
BRANCH   2  11
ATOM     11  N   UNL     1       2.547  -1.142   0.000  0.00  0.00    +0.000 NA
ATOM     12  C   UNL     1       3.211  -1.247   0.000  0.00  0.00    +0.000 C 
ENDBRANCH   2  11
TORSDOF 1
