REMARK  Name = 65781
REMARK  3 active torsions:
REMARK  status: ('A' for Active; 'I' for Inactive)
REMARK    1  A    between atoms: S_1  and  C_22
REMARK    2  A    between atoms: C_9  and  C_19
REMARK    3  A    between atoms: C_23  and  C_24
REMARK                            x       y       z     vdW  Elec       q    Type
REMARK                         _______ _______ _______ _____ _____    ______ ____
ROOT
ATOM      1  C   UNL     1       3.867  -1.283   0.000  0.00  0.00    +0.000 C 
ATOM      2  C   UNL     1       3.867  -0.458   0.000  0.00  0.00    +0.000 C 
ATOM      3  C   UNL     1       3.130  -1.724   0.000  0.00  0.00    +0.000 C 
ATOM      4  C   UNL     1       3.130  -0.017   0.000  0.00  0.00    +0.000 C 
ATOM      5  C   UNL     1       4.582  -1.696   0.000  0.00  0.00    +0.000 C 
ATOM      6  C   UNL     1       2.382  -1.300   0.000  0.00  0.00    +0.000 C 
ATOM      7  C   UNL     1       2.382  -0.441   0.000  0.00  0.00    +0.000 C 
ATOM      8  C   UNL     1       4.582  -0.046   0.000  0.00  0.00    +0.000 A 
ATOM      9  C   UNL     1       5.296  -1.283   0.000  0.00  0.00    +0.000 C 
ATOM     10  C   UNL     1       3.867   0.367   0.000  0.00  0.00    +0.000 C 
ATOM     11  C   UNL     1       5.296  -0.458   0.000  0.00  0.00    +0.000 A 
ATOM     12  C   UNL     1       3.550  -2.434   0.000  0.00  0.00    +0.000 C 
ATOM     13  C   UNL     1       4.569   0.814   0.000  0.00  0.00    +0.000 A 
ATOM     14  C   UNL     1       6.047  -0.040   0.000  0.00  0.00    +0.000 A 
ATOM     15  C   UNL     1       5.309   1.249   0.000  0.00  0.00    +0.000 A 
ATOM     16  C   UNL     1       6.054   0.819   0.000  0.00  0.00    +0.000 A 
ENDROOT
BRANCH  15  17
ATOM     17  S   UNL     1       5.306   2.074   0.000  0.00  0.00    +0.000 S 
ATOM     18  O   UNL     1       5.303   2.899   0.000  0.00  0.00    +0.000 OA
ATOM     19  O   UNL     1       4.481   2.071   0.000  0.00  0.00    +0.000 OA
ATOM     20  O   UNL     1       6.131   2.077   0.000  0.00  0.00    +0.000 OA
ENDBRANCH  15  17
BRANCH   3  23
ATOM     21  O   UNL     1       1.901  -2.453   0.000  0.00  0.00    +0.000 OA
ATOM     22  O   UNL     1       3.146  -3.153   0.000  0.00  0.00    +0.000 OA
ATOM     23  C   UNL     1       2.726  -2.443   0.000  0.00  0.00    +0.000 C 
ENDBRANCH   3  23
BRANCH  16  24
ATOM     24  C   UNL     1       6.770   1.229   0.000  0.00  0.00    +0.000 C 
ATOM     25  C   UNL     1       7.483   0.814   0.000  0.00  0.00    +0.000 C 
ATOM     26  C   UNL     1       6.773   2.054   0.000  0.00  0.00    +0.000 C 
ENDBRANCH  16  24
TORSDOF 3
