REMARK  Name = 658
REMARK  2 active torsions:
REMARK  status: ('A' for Active; 'I' for Inactive)
REMARK    1  A    between atoms: C_4  and  C_6
REMARK    2  A    between atoms: C_7  and  C_8
REMARK                            x       y       z     vdW  Elec       q    Type
REMARK                         _______ _______ _______ _____ _____    ______ ____
ROOT
ATOM      1  O   UNL     1       1.989   1.519   0.000  0.00  0.00    +0.000 OA
ATOM      2  C   UNL     1       1.576   0.804   0.000  0.00  0.00    +0.000 C 
ATOM      3  C   UNL     1       2.401   0.804   0.000  0.00  0.00    +0.000 C 
ENDROOT
BRANCH   2   5
ATOM      4 CL   UNL     1       0.147   0.804   0.000  0.00  0.00    +0.000 Cl
ATOM      5  C   UNL     1       0.862   0.392   0.000  0.00  0.00    +0.000 C 
ENDBRANCH   2   5
TORSDOF 1
REMARK  Name = 658
REMARK  2 active torsions:
REMARK  status: ('A' for Active; 'I' for Inactive)
REMARK    1  A    between atoms: C_4  and  C_6
REMARK    2  A    between atoms: C_7  and  C_8
REMARK                            x       y       z     vdW  Elec       q    Type
REMARK                         _______ _______ _______ _____ _____    ______ ____
ROOT
ATOM      1  N   UNL     1       0.443   3.680   0.000  0.00  0.00    +0.000 NA
ATOM      2  C   UNL     1       1.157   4.093   0.000  0.00  0.00    +0.000 C 
ENDROOT
BRANCH   2   3
ATOM      3  C   UNL     1       1.872   3.680   0.000  0.00  0.00    +0.000 C 
ATOM      4  C   UNL     1       2.586   4.093   0.000  0.00  0.00    +0.000 C 
ENDBRANCH   2   3
TORSDOF 1
