REMARK  Name = 659
REMARK  4 active torsions:
REMARK  status: ('A' for Active; 'I' for Inactive)
REMARK    1  A    between atoms: S_1  and  C_8
REMARK    2  A    between atoms: N_6  and  C_9
REMARK    3  A    between atoms: C_7  and  C_8
REMARK    4  A    between atoms: C_7  and  C_9
REMARK                            x       y       z     vdW  Elec       q    Type
REMARK                         _______ _______ _______ _____ _____    ______ ____
ROOT
ATOM      1  C   UNL     1       4.237  -0.262   0.000  0.00  0.00    +0.000 C 
ENDROOT
BRANCH   1   2
ATOM      2  C   UNL     1       3.522   0.151   0.000  0.00  0.00    +0.000 C 
BRANCH   2   3
ATOM      3  S   UNL     1       2.808  -0.262   0.000  0.00  0.00    +0.000 S 
ATOM      4  O   UNL     1       2.093  -0.674   0.000  0.00  0.00    +0.000 OA
ATOM      5  O   UNL     1       2.395   0.453   0.000  0.00  0.00    +0.000 OA
ATOM      6  O   UNL     1       3.220  -0.976   0.000  0.00  0.00    +0.000 OA
ENDBRANCH   2   3
ENDBRANCH   1   2
BRANCH   1   7
ATOM      7  C   UNL     1       4.951   0.151   0.000  0.00  0.00    +0.000 C 
BRANCH   7   9
ATOM      8  O   UNL     1       6.380   0.976   0.000  0.00  0.00    +0.000 OA
ATOM      9  N   UNL     1       5.665  -0.262   0.000  0.00  0.00    +0.000 NA
ATOM     10  C   UNL     1       6.380   0.151   0.000  0.00  0.00    +0.000 C 
ATOM     11  C   UNL     1       7.094  -0.262   0.000  0.00  0.00    +0.000 C 
ENDBRANCH   7   9
ENDBRANCH   1   7
TORSDOF 4
