REMARK  Name = 65B
REMARK  5 active torsions:
REMARK  status: ('A' for Active; 'I' for Inactive)
REMARK    1  A    between atoms: C_1  and  O_2
REMARK    2  A    between atoms: O_2  and  C_10
REMARK    3  A    between atoms: C_6  and  C_26
REMARK    4  A    between atoms: N_13  and  C_18
REMARK    5  A    between atoms: C_21  and  C_24
REMARK                            x       y       z     vdW  Elec       q    Type
REMARK                         _______ _______ _______ _____ _____    ______ ____
ROOT
ATOM      1  C   UNL     1       1.337   0.460   0.000  0.00  0.00    +0.000 A 
ATOM      2  N   UNL     1       0.623   0.048   0.000  0.00  0.00    +0.000 NA
ATOM      3  C   UNL     1      -0.092   0.460   0.000  0.00  0.00    +0.000 A 
ATOM      4  N   UNL     1      -0.806   0.048   0.000  0.00  0.00    +0.000 NA
ATOM      5  N   UNL     1      -0.092   1.285   0.000  0.00  0.00    +0.000 NA
ATOM      6  C   UNL     1       0.623   1.698   0.000  0.00  0.00    +0.000 A 
ATOM      7  N   UNL     1       0.623   2.523   0.000  0.00  0.00    +0.000 NA
ATOM      8  C   UNL     1       1.337   1.285   0.000  0.00  0.00    +0.000 A 
ATOM      9 BR   UNL     1       2.052   1.698   0.000  0.00  0.00    +0.000 Br
ENDROOT
BRANCH   4  10
ATOM     10  C   UNL     1      -1.521   0.460   0.000  0.00  0.00    +0.000 A 
ATOM     11  C   UNL     1      -2.235   0.048   0.000  0.00  0.00    +0.000 A 
ATOM     12  C   UNL     1      -2.950   0.460   0.000  0.00  0.00    +0.000 A 
ATOM     13  C   UNL     1      -2.950   1.285   0.000  0.00  0.00    +0.000 A 
ATOM     14  C   UNL     1      -2.235   1.698   0.000  0.00  0.00    +0.000 A 
ATOM     15  C   UNL     1      -1.521   1.285   0.000  0.00  0.00    +0.000 A 
BRANCH  13  16
ATOM     16  C   UNL     1      -3.664   1.698   0.000  0.00  0.00    +0.000 C 
ATOM     17  N   UNL     1      -4.379   2.110   0.000  0.00  0.00    +0.000 NA
ENDBRANCH  13  16
ENDBRANCH   4  10
BRANCH   1  18
ATOM     18  O   UNL     1       2.052   0.048   0.000  0.00  0.00    +0.000 OA
BRANCH  18  19
ATOM     19  C   UNL     1       2.052  -0.777   0.000  0.00  0.00    +0.000 A 
ATOM     20  C   UNL     1       2.766  -1.190   0.000  0.00  0.00    +0.000 A 
ATOM     21  C   UNL     1       3.481  -0.777   0.000  0.00  0.00    +0.000 C 
ATOM     22  C   UNL     1       2.766  -2.015   0.000  0.00  0.00    +0.000 A 
ATOM     23  C   UNL     1       2.052  -2.427   0.000  0.00  0.00    +0.000 A 
ATOM     24  C   UNL     1       1.337  -2.015   0.000  0.00  0.00    +0.000 A 
ATOM     25  C   UNL     1       1.337  -1.190   0.000  0.00  0.00    +0.000 A 
ATOM     26  C   UNL     1       0.623  -0.777   0.000  0.00  0.00    +0.000 C 
BRANCH  23  27
ATOM     27  C   UNL     1       2.052  -3.252   0.000  0.00  0.00    +0.000 C 
ATOM     28  N   UNL     1       2.052  -4.077   0.000  0.00  0.00    +0.000 NA
ENDBRANCH  23  27
ENDBRANCH  18  19
ENDBRANCH   1  18
TORSDOF 5
