REMARK  Name = 660
REMARK  3 active torsions:
REMARK  status: ('A' for Active; 'I' for Inactive)
REMARK    1  A    between atoms: O_2  and  C_7
REMARK    2  A    between atoms: O_2  and  C_9
REMARK    3  A    between atoms: C_5  and  C_7
REMARK                            x       y       z     vdW  Elec       q    Type
REMARK                         _______ _______ _______ _____ _____    ______ ____
ROOT
ATOM      1  O   UNL     1       3.079  -0.350   0.000  0.00  0.00    +0.000 OA
ENDROOT
BRANCH   1   2
ATOM      2  C   UNL     1       3.079  -1.175   0.000  0.00  0.00    +0.000 A 
ATOM      3  C   UNL     1       3.793  -1.587   0.000  0.00  0.00    +0.000 A 
ATOM      4  C   UNL     1       2.365  -1.587   0.000  0.00  0.00    +0.000 A 
ATOM      5  C   UNL     1       3.793  -2.412   0.000  0.00  0.00    +0.000 A 
ATOM      6  C   UNL     1       2.365  -2.412   0.000  0.00  0.00    +0.000 A 
ATOM      7  C   UNL     1       3.079  -2.825   0.000  0.00  0.00    +0.000 A 
ATOM      8  C   UNL     1       4.508  -2.825   0.000  0.00  0.00    +0.000 C 
ATOM      9  C   UNL     1       1.650  -2.825   0.000  0.00  0.00    +0.000 C 
ENDBRANCH   1   2
BRANCH   1  10
ATOM     10  C   UNL     1       3.793   0.063   0.000  0.00  0.00    +0.000 C 
BRANCH  10  14
ATOM     11  O   UNL     1       4.461   1.373   0.000  0.00  0.00    +0.000 OA
ATOM     12  O   UNL     1       4.691   2.825   0.000  0.00  0.00    +0.000 OA
ATOM     13  N   UNL     1       3.381   2.157   0.000  0.00  0.00    +0.000 NA
ATOM     14  C   UNL     1       3.793   0.888   0.000  0.00  0.00    +0.000 C 
ATOM     15  C   UNL     1       3.126   1.373   0.000  0.00  0.00    +0.000 C 
ATOM     16  C   UNL     1       4.206   2.157   0.000  0.00  0.00    +0.000 C 
ENDBRANCH  10  14
ENDBRANCH   1  10
TORSDOF 3
