REMARK  Name = 661
REMARK  14 active torsions:
REMARK  status: ('A' for Active; 'I' for Inactive)
REMARK    1  A    between atoms: O_1  and  C_19
REMARK    2  A    between atoms: O_2  and  C_23
REMARK    3  A    between atoms: O_3  and  C_27
REMARK    4  A    between atoms: O_4  and  C_30
REMARK    5  A    between atoms: N_5  and  C_12
REMARK    6  A    between atoms: N_5  and  C_18
REMARK    7  A    between atoms: C_7  and  C_8
REMARK    8  A    between atoms: C_7  and  C_9
REMARK    9  A    between atoms: C_7  and  C_11
REMARK   10  A    between atoms: C_7  and  C_15
REMARK   11  A    between atoms: C_9  and  C_10
REMARK   12  A    between atoms: C_10  and  C_12
REMARK   13  A    between atoms: C_18  and  C_22
REMARK   14  A    between atoms: C_22  and  C_24
REMARK                            x       y       z     vdW  Elec       q    Type
REMARK                         _______ _______ _______ _____ _____    ______ ____
ROOT
ATOM      1  C   UNL     1       4.619   0.427   0.000  0.00  0.00    +0.000 C 
ENDROOT
BRANCH   1   2
ATOM      2  C   UNL     1       3.793   0.427   0.000  0.00  0.00    +0.000 C 
BRANCH   2   3
ATOM      3  C   UNL     1       3.793  -0.398   0.000  0.00  0.00    +0.000 A 
ATOM      4  C   UNL     1       3.079  -0.810   0.000  0.00  0.00    +0.000 A 
ATOM      5  C   UNL     1       4.508  -0.810   0.000  0.00  0.00    +0.000 A 
ATOM      6  C   UNL     1       3.079  -1.635   0.000  0.00  0.00    +0.000 A 
ATOM      7  C   UNL     1       4.508  -1.635   0.000  0.00  0.00    +0.000 A 
ATOM      8  C   UNL     1       3.793  -2.048   0.000  0.00  0.00    +0.000 A 
BRANCH   8   9
ATOM      9  O   UNL     1       3.793  -2.873   0.000  0.00  0.00    +0.000 OA
ATOM     10  C   UNL     1       4.508  -3.285   0.000  0.00  0.00    +0.000 C 
ENDBRANCH   8   9
BRANCH   6  11
ATOM     11  O   UNL     1       2.365  -2.048   0.000  0.00  0.00    +0.000 OA
ATOM     12  C   UNL     1       1.650  -1.635   0.000  0.00  0.00    +0.000 C 
ENDBRANCH   6  11
ENDBRANCH   2   3
BRANCH   2  13
ATOM     13  C   UNL     1       3.793   1.252   0.000  0.00  0.00    +0.000 C 
ATOM     14  C   UNL     1       3.079   1.665   0.000  0.00  0.00    +0.000 C 
ATOM     15  C   UNL     1       4.508   1.665   0.000  0.00  0.00    +0.000 C 
ENDBRANCH   2  13
BRANCH   2  17
ATOM     16  N   UNL     1       2.143   0.427   0.000  0.00  0.00    +0.000 NA
ATOM     17  C   UNL     1       2.969   0.427   0.000  0.00  0.00    +0.000 C 
ENDBRANCH   2  17
ENDBRANCH   1   2
BRANCH   1  18
ATOM     18  C   UNL     1       5.031   1.142   0.000  0.00  0.00    +0.000 C 
BRANCH  18  19
ATOM     19  C   UNL     1       5.856   1.142   0.000  0.00  0.00    +0.000 C 
BRANCH  19  20
ATOM     20  N   UNL     1       6.269   1.856   0.000  0.00  0.00    +0.000 NA
ATOM     21  C   UNL     1       5.856   2.571   0.000  0.00  0.00    +0.000 C 
BRANCH  20  22
ATOM     22  C   UNL     1       7.094   1.856   0.000  0.00  0.00    +0.000 C 
BRANCH  22  23
ATOM     23  C   UNL     1       7.506   2.571   0.000  0.00  0.00    +0.000 C 
BRANCH  23  24
ATOM     24  C   UNL     1       8.331   2.571   0.000  0.00  0.00    +0.000 A 
ATOM     25  C   UNL     1       8.744   1.856   0.000  0.00  0.00    +0.000 A 
ATOM     26  C   UNL     1       8.744   3.285   0.000  0.00  0.00    +0.000 A 
ATOM     27  C   UNL     1       9.569   1.856   0.000  0.00  0.00    +0.000 A 
ATOM     28  C   UNL     1       9.569   3.285   0.000  0.00  0.00    +0.000 A 
ATOM     29  C   UNL     1       9.981   2.571   0.000  0.00  0.00    +0.000 A 
BRANCH  29  30
ATOM     30  O   UNL     1      10.806   2.571   0.000  0.00  0.00    +0.000 OA
ATOM     31  C   UNL     1      11.219   3.285   0.000  0.00  0.00    +0.000 C 
ENDBRANCH  29  30
BRANCH  27  32
ATOM     32  O   UNL     1       9.981   1.142   0.000  0.00  0.00    +0.000 OA
ATOM     33  C   UNL     1      10.806   1.142   0.000  0.00  0.00    +0.000 C 
ENDBRANCH  27  32
ENDBRANCH  23  24
ENDBRANCH  22  23
ENDBRANCH  20  22
ENDBRANCH  19  20
ENDBRANCH  18  19
ENDBRANCH   1  18
TORSDOF 14
