REMARK  Name = 662
REMARK  10 active torsions:
REMARK  status: ('A' for Active; 'I' for Inactive)
REMARK    1  A    between atoms: O_1  and  C_11
REMARK    2  A    between atoms: O_1  and  C_12
REMARK    3  A    between atoms: O_2  and  C_21
REMARK    4  A    between atoms: O_3  and  C_22
REMARK    5  A    between atoms: O_4  and  C_23
REMARK    6  A    between atoms: N_6  and  C_8
REMARK    7  A    between atoms: N_7  and  C_10
REMARK    8  A    between atoms: C_8  and  C_11
REMARK    9  A    between atoms: C_9  and  C_10
REMARK   10  A    between atoms: C_13  and  C_18
REMARK                            x       y       z     vdW  Elec       q    Type
REMARK                         _______ _______ _______ _____ _____    ______ ____
ROOT
ATOM      1  O   UNL     1       3.079  -0.412   0.000  0.00  0.00    +0.000 OA
ATOM      2  N   UNL     1       4.508  -0.412   0.000  0.00  0.00    +0.000 NA
ATOM      3  C   UNL     1       3.793  -0.825   0.000  0.00  0.00    +0.000 C 
ENDROOT
BRANCH   3   4
ATOM      4  C   UNL     1       3.793  -1.650   0.000  0.00  0.00    +0.000 A 
ATOM      5  C   UNL     1       4.508  -2.062   0.000  0.00  0.00    +0.000 A 
ATOM      6  C   UNL     1       3.079  -2.062   0.000  0.00  0.00    +0.000 A 
ATOM      7  C   UNL     1       3.079  -2.888   0.000  0.00  0.00    +0.000 A 
ATOM      8  C   UNL     1       4.508  -2.888   0.000  0.00  0.00    +0.000 A 
ATOM      9  C   UNL     1       3.793  -3.300   0.000  0.00  0.00    +0.000 A 
BRANCH   9  10
ATOM     10  O   UNL     1       3.793  -4.125   0.000  0.00  0.00    +0.000 OA
ATOM     11  C   UNL     1       3.079  -4.538   0.000  0.00  0.00    +0.000 C 
ENDBRANCH   9  10
BRANCH   8  12
ATOM     12  O   UNL     1       5.222  -3.300   0.000  0.00  0.00    +0.000 OA
ATOM     13  C   UNL     1       5.937  -2.888   0.000  0.00  0.00    +0.000 C 
ENDBRANCH   8  12
BRANCH   7  14
ATOM     14  O   UNL     1       2.365  -3.300   0.000  0.00  0.00    +0.000 OA
ATOM     15  C   UNL     1       1.650  -2.888   0.000  0.00  0.00    +0.000 C 
ENDBRANCH   7  14
ENDBRANCH   3   4
BRANCH   2  16
ATOM     16  C   UNL     1       4.508   0.412   0.000  0.00  0.00    +0.000 C 
BRANCH  16  17
ATOM     17  C   UNL     1       5.222   0.825   0.000  0.00  0.00    +0.000 A 
ATOM     18  C   UNL     1       6.652   1.650   0.000  0.00  0.00    +0.000 A 
ATOM     19  C   UNL     1       5.222   1.650   0.000  0.00  0.00    +0.000 A 
ATOM     20  C   UNL     1       5.937   0.412   0.000  0.00  0.00    +0.000 A 
ATOM     21  C   UNL     1       5.937   2.062   0.000  0.00  0.00    +0.000 A 
ATOM     22  C   UNL     1       6.652   0.825   0.000  0.00  0.00    +0.000 A 
BRANCH  18  23
ATOM     23  O   UNL     1       7.366   2.062   0.000  0.00  0.00    +0.000 OA
BRANCH  23  24
ATOM     24  C   UNL     1       7.366   2.888   0.000  0.00  0.00    +0.000 C 
BRANCH  24  25
ATOM     25  C   UNL     1       8.080   3.300   0.000  0.00  0.00    +0.000 C 
BRANCH  25  26
ATOM     26  N   UNL     1       8.080   4.125   0.000  0.00  0.00    +0.000 NA
ATOM     27  C   UNL     1       7.366   4.538   0.000  0.00  0.00    +0.000 C 
ATOM     28  C   UNL     1       8.795   4.538   0.000  0.00  0.00    +0.000 C 
ENDBRANCH  25  26
ENDBRANCH  24  25
ENDBRANCH  23  24
ENDBRANCH  18  23
ENDBRANCH  16  17
ENDBRANCH   2  16
TORSDOF 10
