REMARK  Name = 665
REMARK  3 active torsions:
REMARK  status: ('A' for Active; 'I' for Inactive)
REMARK    1  A    between atoms: C_3  and  N_11
REMARK    2  A    between atoms: C_9  and  C_12
REMARK    3  A    between atoms: N_13  and  C_22
REMARK                            x       y       z     vdW  Elec       q    Type
REMARK                         _______ _______ _______ _____ _____    ______ ____
ROOT
ATOM      1  C   UNL     1      -0.456  -1.033   0.000  0.00  0.00    +0.000 C 
ATOM      2  C   UNL     1      -1.281  -1.033   0.000  0.00  0.00    +0.000 C 
ATOM      3  C   UNL     1      -1.536  -0.248   0.000  0.00  0.00    +0.000 C 
ATOM      4  C   UNL     1      -0.868   0.237   0.000  0.00  0.00    +0.000 C 
ATOM      5  N   UNL     1      -0.201  -0.248   0.000  0.00  0.00    +0.000 N 
ATOM      6  O   UNL     1       0.029  -1.700   0.000  0.00  0.00    +0.000 OA
ENDROOT
BRANCH   5   9
ATOM      7  C   UNL     1       1.982  -0.290   0.000  0.00  0.00    +0.000 C 
ATOM      8  C   UNL     1       1.197  -0.545   0.000  0.00  0.00    +0.000 C 
ATOM      9  C   UNL     1       0.584   0.007   0.000  0.00  0.00    +0.000 C 
ATOM     10  C   UNL     1       0.755   0.814   0.000  0.00  0.00    +0.000 C 
ATOM     11  C   UNL     1       1.540   1.069   0.000  0.00  0.00    +0.000 C 
ATOM     12  C   UNL     1       2.153   0.517   0.000  0.00  0.00    +0.000 C 
ENDBRANCH   5   9
BRANCH   3  13
ATOM     13  C   UNL     1      -2.320   0.007   0.000  0.00  0.00    +0.000 C 
ATOM     14  N   UNL     1      -2.933  -0.545   0.000  0.00  0.00    +0.000 NA
ATOM     15  O   UNL     1      -2.492   0.814   0.000  0.00  0.00    +0.000 OA
BRANCH  14  22
ATOM     16 BR   UNL     1      -5.729  -1.139   0.000  0.00  0.00    +0.000 Br
ATOM     17  C   UNL     1      -4.331  -0.842   0.000  0.00  0.00    +0.000 A 
ATOM     18  C   UNL     1      -5.116  -0.588   0.000  0.00  0.00    +0.000 A 
ATOM     19  C   UNL     1      -5.287   0.220   0.000  0.00  0.00    +0.000 A 
ATOM     20  C   UNL     1      -4.674   0.771   0.000  0.00  0.00    +0.000 A 
ATOM     21  C   UNL     1      -3.889   0.517   0.000  0.00  0.00    +0.000 A 
ATOM     22  C   UNL     1      -3.718  -0.290   0.000  0.00  0.00    +0.000 A 
ENDBRANCH  14  22
ENDBRANCH   3  13
TORSDOF 3
