REMARK  Name = 665
REMARK  3 active torsions:
REMARK  status: ('A' for Active; 'I' for Inactive)
REMARK    1  A    between atoms: N_8  and  C_16
REMARK    2  A    between atoms: N_10  and  C_20
REMARK    3  A    between atoms: C_19  and  C_22
REMARK                            x       y       z     vdW  Elec       q    Type
REMARK                         _______ _______ _______ _____ _____    ______ ____
ROOT
ATOM      1  C   UNL     1       4.508  -0.338   0.000  0.00  0.00    +0.000 A 
ATOM      2  C   UNL     1       4.508   0.487   0.000  0.00  0.00    +0.000 A 
ATOM      3  C   UNL     1       3.793  -0.750   0.000  0.00  0.00    +0.000 A 
ATOM      4  C   UNL     1       3.793   0.899   0.000  0.00  0.00    +0.000 A 
ATOM      5  C   UNL     1       3.079   0.487   0.000  0.00  0.00    +0.000 A 
ATOM      6  C   UNL     1       3.079  -0.338   0.000  0.00  0.00    +0.000 A 
ENDROOT
BRANCH   1   9
ATOM      7  O   UNL     1       4.696  -2.123   0.000  0.00  0.00    +0.000 OA
ATOM      8  O   UNL     1       6.148   0.392   0.000  0.00  0.00    +0.000 OA
ATOM      9  N   UNL     1       5.222  -0.750   0.000  0.00  0.00    +0.000 N 
ATOM     10  N   UNL     1       6.528  -1.028   0.000  0.00  0.00    +0.000 NA
ATOM     11  C   UNL     1       6.116  -1.742   0.000  0.00  0.00    +0.000 C 
ATOM     12  C   UNL     1       5.309  -1.571   0.000  0.00  0.00    +0.000 C 
ATOM     13  C   UNL     1       6.830  -2.155   0.000  0.00  0.00    +0.000 C 
ATOM     14  C   UNL     1       5.944  -2.550   0.000  0.00  0.00    +0.000 C 
ATOM     15  C   UNL     1       5.976  -0.415   0.000  0.00  0.00    +0.000 C 
ENDBRANCH   1   9
BRANCH   4  19
ATOM     16  F   UNL     1       2.969   1.724   0.000  0.00  0.00    +0.000 F 
ATOM     17  F   UNL     1       4.619   1.724   0.000  0.00  0.00    +0.000 F 
ATOM     18  F   UNL     1       3.793   2.550   0.000  0.00  0.00    +0.000 F 
ATOM     19  C   UNL     1       3.793   1.724   0.000  0.00  0.00    +0.000 C 
ENDBRANCH   4  19
BRANCH   5  22
ATOM     20  O   UNL     1       1.650   0.487   0.000  0.00  0.00    +0.000 OA
ATOM     21  O   UNL     1       2.365   1.724   0.000  0.00  0.00    +0.000 OA
ATOM     22  N   UNL     1       2.365   0.899   0.000  0.00  0.00    +0.000 N 
ENDBRANCH   5  22
TORSDOF 3
