REMARK  Name = 667
REMARK  2 active torsions:
REMARK  status: ('A' for Active; 'I' for Inactive)
REMARK    1  A    between atoms: S_1  and  O_4
REMARK    2  A    between atoms: O_4  and  C_6
REMARK                            x       y       z     vdW  Elec       q    Type
REMARK                         _______ _______ _______ _____ _____    ______ ____
ROOT
ATOM      1  C   UNL     1       1.784   0.200   0.000  0.00  0.00    +0.000 A 
ATOM      2  C   UNL     1       1.353   0.903   0.000  0.00  0.00    +0.000 A 
ATOM      3  C   UNL     1       0.528   0.881   0.000  0.00  0.00    +0.000 A 
ATOM      4  C   UNL     1       0.135   0.155   0.000  0.00  0.00    +0.000 A 
ATOM      5  C   UNL     1       0.567  -0.548   0.000  0.00  0.00    +0.000 A 
ATOM      6  C   UNL     1       1.391  -0.525   0.000  0.00  0.00    +0.000 A 
ATOM      7  C   UNL     1      -0.690   0.133   0.000  0.00  0.00    +0.000 A 
ATOM      8  C   UNL     1      -1.083  -0.593   0.000  0.00  0.00    +0.000 A 
ATOM      9  C   UNL     1      -0.651  -1.296   0.000  0.00  0.00    +0.000 A 
ATOM     10  C   UNL     1      -1.012   0.892   0.000  0.00  0.00    +0.000 C 
ATOM     11  C   UNL     1      -1.895  -0.738   0.000  0.00  0.00    +0.000 C 
ATOM     12  O   UNL     1      -1.044  -2.021   0.000  0.00  0.00    +0.000 OA
ATOM     13  O   UNL     1       0.174  -1.273   0.000  0.00  0.00    +0.000 OA
ATOM     14  C   UNL     1      -2.515  -0.194   0.000  0.00  0.00    +0.000 C 
ATOM     15  C   UNL     1      -2.475   0.630   0.000  0.00  0.00    +0.000 C 
ATOM     16  C   UNL     1      -1.807   1.114   0.000  0.00  0.00    +0.000 C 
ENDROOT
BRANCH   1  17
ATOM     17  O   UNL     1       2.609   0.223   0.000  0.00  0.00    +0.000 OA
BRANCH  17  18
ATOM     18  S   UNL     1       3.041  -0.480   0.000  0.00  0.00    +0.000 S 
ATOM     19  O   UNL     1       3.473  -1.183   0.000  0.00  0.00    +0.000 OA
ATOM     20  O   UNL     1       3.744  -0.048   0.000  0.00  0.00    +0.000 OA
ATOM     21  N   UNL     1       2.338  -0.912   0.000  0.00  0.00    +0.000 NA
ENDBRANCH  17  18
ENDBRANCH   1  17
TORSDOF 2
