REMARK  Name = 668
REMARK  3 active torsions:
REMARK  status: ('A' for Active; 'I' for Inactive)
REMARK    1  A    between atoms: N_4  and  C_7
REMARK    2  A    between atoms: C_5  and  C_6
REMARK    3  A    between atoms: C_5  and  C_7
REMARK                            x       y       z     vdW  Elec       q    Type
REMARK                         _______ _______ _______ _____ _____    ______ ____
ROOT
ATOM      1  O   UNL     1       2.093  -1.522   0.000  0.00  0.00    +0.000 OA
ATOM      2  O   UNL     1       3.522  -2.347   0.000  0.00  0.00    +0.000 OA
ATOM      3  C   UNL     1       3.522   0.128   0.000  0.00  0.00    +0.000 A 
ATOM      4  C   UNL     1       2.808  -0.285   0.000  0.00  0.00    +0.000 A 
ATOM      5  C   UNL     1       4.237  -0.285   0.000  0.00  0.00    +0.000 A 
ATOM      6  C   UNL     1       2.808  -1.110   0.000  0.00  0.00    +0.000 A 
ATOM      7  C   UNL     1       4.237  -1.110   0.000  0.00  0.00    +0.000 A 
ATOM      8  C   UNL     1       3.522  -1.522   0.000  0.00  0.00    +0.000 A 
ENDROOT
BRANCH   3  10
ATOM      9  O   UNL     1       2.808   1.365   0.000  0.00  0.00    +0.000 OA
ATOM     10  C   UNL     1       3.522   0.953   0.000  0.00  0.00    +0.000 C 
BRANCH  10  11
ATOM     11  C   UNL     1       4.237   1.365   0.000  0.00  0.00    +0.000 C 
BRANCH  11  12
ATOM     12  N   UNL     1       4.237   2.190   0.000  0.00  0.00    +0.000 NA
ATOM     13  C   UNL     1       4.951   2.603   0.000  0.00  0.00    +0.000 C 
ENDBRANCH  11  12
ENDBRANCH  10  11
ENDBRANCH   3  10
TORSDOF 3
