REMARK  Name = 669
REMARK  10 active torsions:
REMARK  status: ('A' for Active; 'I' for Inactive)
REMARK    1  A    between atoms: C_2  and  C_4
REMARK    2  A    between atoms: C_4  and  C_5
REMARK    3  A    between atoms: C_5  and  C_6
REMARK    4  A    between atoms: C_6  and  C_7
REMARK    5  A    between atoms: C_7  and  C_8
REMARK    6  A    between atoms: C_8  and  N_9
REMARK    7  A    between atoms: C_10  and  C_28
REMARK    8  A    between atoms: C_14  and  O_15
REMARK    9  A    between atoms: O_15  and  C_16
REMARK   10  A    between atoms: C_16  and  C_17
REMARK                            x       y       z     vdW  Elec       q    Type
REMARK                         _______ _______ _______ _____ _____    ______ ____
ROOT
ATOM      1  N   UNL     1      -0.290   0.096   0.000  0.00  0.00    +0.000 N 
ATOM      2  C   UNL     1      -0.204   0.917   0.000  0.00  0.00    +0.000 A 
ATOM      3  C   UNL     1       0.603   1.088   0.000  0.00  0.00    +0.000 A 
ATOM      4  C   UNL     1       1.016   0.374   0.000  0.00  0.00    +0.000 A 
ATOM      5  C   UNL     1       1.823   0.202   0.000  0.00  0.00    +0.000 A 
ATOM      6  C   UNL     1       2.078  -0.582   0.000  0.00  0.00    +0.000 A 
ATOM      7  C   UNL     1       1.525  -1.196   0.000  0.00  0.00    +0.000 A 
ATOM      8  C   UNL     1       0.719  -1.024   0.000  0.00  0.00    +0.000 A 
ATOM      9  C   UNL     1       0.464  -0.239   0.000  0.00  0.00    +0.000 A 
ENDROOT
BRANCH   2  10
ATOM     10  C   UNL     1      -0.817   1.469   0.000  0.00  0.00    +0.000 C 
ATOM     11  O   UNL     1      -0.645   2.276   0.000  0.00  0.00    +0.000 OA
ATOM     12  O   UNL     1      -1.602   1.214   0.000  0.00  0.00    +0.000 OA
ENDBRANCH   2  10
BRANCH   6  13
ATOM     13  O   UNL     1       2.885  -0.754   0.000  0.00  0.00    +0.000 OA
BRANCH  13  14
ATOM     14  C   UNL     1       3.437  -0.141   0.000  0.00  0.00    +0.000 C 
BRANCH  14  15
ATOM     15  C   UNL     1       4.244  -0.312   0.000  0.00  0.00    +0.000 A 
ATOM     16  C   UNL     1       4.795   0.301   0.000  0.00  0.00    +0.000 A 
ATOM     17 CL   UNL     1       4.541   1.085   0.000  0.00  0.00    +0.000 Cl
ATOM     18  C   UNL     1       5.603   0.129   0.000  0.00  0.00    +0.000 A 
ATOM     19  C   UNL     1       5.857  -0.655   0.000  0.00  0.00    +0.000 A 
ATOM     20  C   UNL     1       5.305  -1.268   0.000  0.00  0.00    +0.000 A 
ATOM     21  C   UNL     1       4.498  -1.097   0.000  0.00  0.00    +0.000 A 
ATOM     22 CL   UNL     1       3.946  -1.710   0.000  0.00  0.00    +0.000 Cl
ENDBRANCH  14  15
ENDBRANCH  13  14
ENDBRANCH   6  13
BRANCH   1  23
ATOM     23  C   UNL     1      -1.005  -0.316   0.000  0.00  0.00    +0.000 C 
BRANCH  23  24
ATOM     24  C   UNL     1      -1.719   0.096   0.000  0.00  0.00    +0.000 C 
BRANCH  24  25
ATOM     25  C   UNL     1      -2.433  -0.316   0.000  0.00  0.00    +0.000 C 
BRANCH  25  26
ATOM     26  C   UNL     1      -3.148   0.096   0.000  0.00  0.00    +0.000 C 
BRANCH  26  27
ATOM     27  C   UNL     1      -3.862  -0.316   0.000  0.00  0.00    +0.000 C 
BRANCH  27  29
ATOM     28  O   UNL     1      -5.291  -0.316   0.000  0.00  0.00    +0.000 OA
ATOM     29  C   UNL     1      -4.577   0.096   0.000  0.00  0.00    +0.000 C 
ATOM     30  O   UNL     1      -4.577   0.921   0.000  0.00  0.00    +0.000 OA
ENDBRANCH  27  29
ENDBRANCH  26  27
ENDBRANCH  25  26
ENDBRANCH  24  25
ENDBRANCH  23  24
ENDBRANCH   1  23
TORSDOF 10
