REMARK  Name = 670
REMARK  2 active torsions:
REMARK  status: ('A' for Active; 'I' for Inactive)
REMARK    1  A    between atoms: N_3  and  C_12
REMARK    2  A    between atoms: C_12  and  C_14
REMARK                            x       y       z     vdW  Elec       q    Type
REMARK                         _______ _______ _______ _____ _____    ______ ____
ROOT
ATOM      1  O   UNL     1       4.742  -0.244   0.000  0.00  0.00    +0.000 OA
ATOM      2  O   UNL     1       3.258   3.543   0.000  0.00  0.00    +0.000 OA
ATOM      3  N   UNL     1       4.028   0.993   0.000  0.00  0.00    +0.000 N 
ATOM      4  N   UNL     1       4.440   2.800   0.000  0.00  0.00    +0.000 NA
ATOM      5  N   UNL     1       5.392   0.757   0.000  0.00  0.00    +0.000 NA
ATOM      6  C   UNL     1       4.028   0.169   0.000  0.00  0.00    +0.000 C 
ATOM      7  C   UNL     1       3.285   1.351   0.000  0.00  0.00    +0.000 A 
ATOM      8  C   UNL     1       4.771   1.351   0.000  0.00  0.00    +0.000 A 
ATOM      9  C   UNL     1       3.101   2.155   0.000  0.00  0.00    +0.000 A 
ATOM     10  C   UNL     1       4.955   2.155   0.000  0.00  0.00    +0.000 A 
ATOM     11  C   UNL     1       2.664   0.757   0.000  0.00  0.00    +0.000 A 
ATOM     12  C   UNL     1       3.615   2.800   0.000  0.00  0.00    +0.000 C 
ATOM     13  C   UNL     1       2.284   2.421   0.000  0.00  0.00    +0.000 A 
ATOM     14  C   UNL     1       5.772   2.421   0.000  0.00  0.00    +0.000 A 
ATOM     15  C   UNL     1       1.841   1.004   0.000  0.00  0.00    +0.000 A 
ATOM     16  C   UNL     1       1.650   1.842   0.000  0.00  0.00    +0.000 A 
ATOM     17  C   UNL     1       6.406   1.842   0.000  0.00  0.00    +0.000 A 
ATOM     18  C   UNL     1       6.215   1.004   0.000  0.00  0.00    +0.000 A 
ENDROOT
BRANCH   6  19
ATOM     19  C   UNL     1       3.314  -0.244   0.000  0.00  0.00    +0.000 C 
BRANCH  19  20
ATOM     20  N   UNL     1       3.313  -1.069   0.000  0.00  0.00    +0.000 NA
ATOM     21  N   UNL     1       3.313  -2.719   0.000  0.00  0.00    +0.000 NA
ATOM     22  C   UNL     1       2.599  -1.481   0.000  0.00  0.00    +0.000 C 
ATOM     23  C   UNL     1       4.028  -1.481   0.000  0.00  0.00    +0.000 C 
ATOM     24  C   UNL     1       2.599  -2.306   0.000  0.00  0.00    +0.000 C 
ATOM     25  C   UNL     1       4.028  -2.306   0.000  0.00  0.00    +0.000 C 
ATOM     26  C   UNL     1       3.313  -3.543   0.000  0.00  0.00    +0.000 C 
ENDBRANCH  19  20
ENDBRANCH   6  19
TORSDOF 2
