REMARK  Name = 675
REMARK  3 active torsions:
REMARK  status: ('A' for Active; 'I' for Inactive)
REMARK    1  A    between atoms: C_2  and  C_4
REMARK    2  A    between atoms: C_9  and  C_14
REMARK    3  A    between atoms: N_16  and  C_17
REMARK                            x       y       z     vdW  Elec       q    Type
REMARK                         _______ _______ _______ _____ _____    ______ ____
ROOT
ATOM      1  C   UNL     1      -2.352  -1.161   0.000  0.00  0.00    +0.000 A 
ATOM      2  C   UNL     1      -2.352  -0.336   0.000  0.00  0.00    +0.000 A 
ATOM      3  C   UNL     1      -1.637   0.077   0.000  0.00  0.00    +0.000 A 
ATOM      4  C   UNL     1      -0.923  -0.336   0.000  0.00  0.00    +0.000 A 
ATOM      5  C   UNL     1      -0.208   0.077   0.000  0.00  0.00    +0.000 A 
ATOM      6  C   UNL     1       0.506  -0.336   0.000  0.00  0.00    +0.000 A 
ATOM      7  C   UNL     1       0.506  -1.161   0.000  0.00  0.00    +0.000 A 
ATOM      8  C   UNL     1      -0.208  -1.573   0.000  0.00  0.00    +0.000 A 
ATOM      9  C   UNL     1      -0.923  -1.161   0.000  0.00  0.00    +0.000 A 
ATOM     10  C   UNL     1      -1.637  -1.573   0.000  0.00  0.00    +0.000 A 
ENDROOT
BRANCH   1  12
ATOM     11  N   UNL     1      -3.066  -2.398   0.000  0.00  0.00    +0.000 NA
ATOM     12  C   UNL     1      -3.066  -1.573   0.000  0.00  0.00    +0.000 C 
ATOM     13  N   UNL     1      -3.781  -1.161   0.000  0.00  0.00    +0.000 NA
ENDBRANCH   1  12
BRANCH   6  14
ATOM     14  C   UNL     1       1.221   0.077   0.000  0.00  0.00    +0.000 C 
ATOM     15  O   UNL     1       1.935  -0.336   0.000  0.00  0.00    +0.000 OA
ATOM     16  N   UNL     1       1.221   0.902   0.000  0.00  0.00    +0.000 NA
BRANCH  16  17
ATOM     17  C   UNL     1       1.935   1.315   0.000  0.00  0.00    +0.000 A 
ATOM     18  C   UNL     1       1.935   2.139   0.000  0.00  0.00    +0.000 A 
ATOM     19  C   UNL     1       2.650   2.552   0.000  0.00  0.00    +0.000 A 
ATOM     20  C   UNL     1       3.364   2.139   0.000  0.00  0.00    +0.000 A 
ATOM     21  C   UNL     1       3.364   1.315   0.000  0.00  0.00    +0.000 A 
ATOM     22  C   UNL     1       2.650   0.902   0.000  0.00  0.00    +0.000 A 
ENDBRANCH  16  17
ENDBRANCH   6  14
TORSDOF 3
