REMARK  Name = 675
REMARK  8 active torsions:
REMARK  status: ('A' for Active; 'I' for Inactive)
REMARK    1  A    between atoms: O_1  and  C_12
REMARK    2  A    between atoms: O_1  and  C_20
REMARK    3  A    between atoms: N_2  and  C_19
REMARK    4  A    between atoms: C_3  and  C_5
REMARK    5  A    between atoms: C_3  and  C_7
REMARK    6  A    between atoms: C_4  and  C_6
REMARK    7  A    between atoms: C_4  and  C_8
REMARK    8  A    between atoms: C_19  and  C_20
REMARK                            x       y       z     vdW  Elec       q    Type
REMARK                         _______ _______ _______ _____ _____    ______ ____
ROOT
ATOM      1  C   UNL     1       4.508   2.062   0.000  0.00  0.00    +0.000 C 
ATOM      2  C   UNL     1       3.793   2.475   0.000  0.00  0.00    +0.000 C 
ENDROOT
BRANCH   1   3
ATOM      3  C   UNL     1       4.508   1.238   0.000  0.00  0.00    +0.000 A 
ATOM      4  C   UNL     1       5.222   0.825   0.000  0.00  0.00    +0.000 A 
ATOM      5  C   UNL     1       3.793   0.825   0.000  0.00  0.00    +0.000 A 
ATOM      6  C   UNL     1       4.508  -0.412   0.000  0.00  0.00    +0.000 A 
ATOM      7  C   UNL     1       5.222   0.000   0.000  0.00  0.00    +0.000 A 
ATOM      8  C   UNL     1       3.793   0.000   0.000  0.00  0.00    +0.000 A 
BRANCH   6   9
ATOM      9  O   UNL     1       4.508  -1.238   0.000  0.00  0.00    +0.000 OA
BRANCH   9  10
ATOM     10  C   UNL     1       3.793  -1.650   0.000  0.00  0.00    +0.000 C 
BRANCH  10  11
ATOM     11  C   UNL     1       3.793  -2.475   0.000  0.00  0.00    +0.000 C 
BRANCH  11  12
ATOM     12  N   UNL     1       3.079  -2.888   0.000  0.00  0.00    +0.000 NA
ATOM     13  C   UNL     1       3.079  -3.713   0.000  0.00  0.00    +0.000 C 
ATOM     14  C   UNL     1       2.365  -2.475   0.000  0.00  0.00    +0.000 C 
ENDBRANCH  11  12
ENDBRANCH  10  11
ENDBRANCH   9  10
ENDBRANCH   6   9
ENDBRANCH   1   3
BRANCH   2  15
ATOM     15  C   UNL     1       3.079   2.062   0.000  0.00  0.00    +0.000 A 
ATOM     16  C   UNL     1       3.079   1.238   0.000  0.00  0.00    +0.000 A 
ATOM     17  C   UNL     1       2.365   2.475   0.000  0.00  0.00    +0.000 A 
ATOM     18  C   UNL     1       2.365   0.825   0.000  0.00  0.00    +0.000 A 
ATOM     19  C   UNL     1       1.650   2.062   0.000  0.00  0.00    +0.000 A 
ATOM     20  C   UNL     1       1.650   1.238   0.000  0.00  0.00    +0.000 A 
ENDBRANCH   2  15
BRANCH   1  21
ATOM     21  C   UNL     1       5.222   2.475   0.000  0.00  0.00    +0.000 A 
ATOM     22  C   UNL     1       5.222   3.300   0.000  0.00  0.00    +0.000 A 
ATOM     23  C   UNL     1       5.937   2.062   0.000  0.00  0.00    +0.000 A 
ATOM     24  C   UNL     1       5.937   3.713   0.000  0.00  0.00    +0.000 A 
ATOM     25  C   UNL     1       6.652   2.475   0.000  0.00  0.00    +0.000 A 
ATOM     26  C   UNL     1       6.652   3.300   0.000  0.00  0.00    +0.000 A 
ENDBRANCH   1  21
BRANCH   2  27
ATOM     27  C   UNL     1       3.793   3.300   0.000  0.00  0.00    +0.000 C 
ATOM     28  C   UNL     1       3.079   3.713   0.000  0.00  0.00    +0.000 C 
ENDBRANCH   2  27
TORSDOF 8
