REMARK  Name = 676
REMARK  4 active torsions:
REMARK  status: ('A' for Active; 'I' for Inactive)
REMARK    1  A    between atoms: O_1  and  C_4
REMARK    2  A    between atoms: O_1  and  C_8
REMARK    3  A    between atoms: C_3  and  C_4
REMARK    4  A    between atoms: C_5  and  C_8
REMARK                            x       y       z     vdW  Elec       q    Type
REMARK                         _______ _______ _______ _____ _____    ______ ____
ROOT
ATOM      1  O   UNL     1       3.079   0.206   0.000  0.00  0.00    +0.000 OA
ENDROOT
BRANCH   1   3
ATOM      2  O   UNL     1       1.650   0.206   0.000  0.00  0.00    +0.000 OA
ATOM      3  C   UNL     1       2.365  -0.206   0.000  0.00  0.00    +0.000 C 
BRANCH   3   4
ATOM      4  C   UNL     1       2.365  -1.031   0.000  0.00  0.00    +0.000 A 
ATOM      5  C   UNL     1       3.079  -1.444   0.000  0.00  0.00    +0.000 A 
ATOM      6  C   UNL     1       1.650  -1.444   0.000  0.00  0.00    +0.000 A 
ATOM      7  C   UNL     1       3.079  -2.269   0.000  0.00  0.00    +0.000 A 
ATOM      8  C   UNL     1       1.650  -2.269   0.000  0.00  0.00    +0.000 A 
ATOM      9  C   UNL     1       2.365  -2.681   0.000  0.00  0.00    +0.000 A 
ENDBRANCH   3   4
ENDBRANCH   1   3
BRANCH   1  10
ATOM     10  C   UNL     1       3.079   1.031   0.000  0.00  0.00    +0.000 C 
BRANCH  10  11
ATOM     11  C   UNL     1       3.793   1.444   0.000  0.00  0.00    +0.000 A 
ATOM     12  C   UNL     1       3.793   2.269   0.000  0.00  0.00    +0.000 A 
ATOM     13  C   UNL     1       4.508   1.031   0.000  0.00  0.00    +0.000 A 
ATOM     14  C   UNL     1       4.508   2.681   0.000  0.00  0.00    +0.000 A 
ATOM     15  C   UNL     1       5.222   1.444   0.000  0.00  0.00    +0.000 A 
ATOM     16  C   UNL     1       5.222   2.269   0.000  0.00  0.00    +0.000 A 
ENDBRANCH  10  11
ENDBRANCH   1  10
TORSDOF 4
