REMARK  Name = 677
REMARK  2 active torsions:
REMARK  status: ('A' for Active; 'I' for Inactive)
REMARK    1  A    between atoms: C_9  and  C_10
REMARK    2  A    between atoms: C_23  and  S_24
REMARK                            x       y       z     vdW  Elec       q    Type
REMARK                         _______ _______ _______ _____ _____    ______ ____
ROOT
ATOM      1  C   UNL     1       1.327  -0.277   0.000  0.00  0.00    +0.000 C 
ATOM      2  C   UNL     1       0.775  -0.890   0.000  0.00  0.00    +0.000 C 
ATOM      3  C   UNL     1       1.072   0.507   0.000  0.00  0.00    +0.000 C 
ATOM      4  N   UNL     1       1.624   1.120   0.000  0.00  0.00    +0.000 NA
ATOM      5  C   UNL     1       0.265   0.679   0.000  0.00  0.00    +0.000 C 
ATOM      6  N   UNL     1      -0.287   0.066   0.000  0.00  0.00    +0.000 N 
ATOM      7  C   UNL     1      -0.032  -0.719   0.000  0.00  0.00    +0.000 A 
ATOM      8  N   UNL     1      -0.700  -1.204   0.000  0.00  0.00    +0.000 NA
ATOM      9  C   UNL     1      -1.112   0.066   0.000  0.00  0.00    +0.000 A 
ATOM     10  C   UNL     1      -1.664   0.679   0.000  0.00  0.00    +0.000 A 
ATOM     11  C   UNL     1      -2.471   0.507   0.000  0.00  0.00    +0.000 A 
ATOM     12  C   UNL     1      -1.367  -0.719   0.000  0.00  0.00    +0.000 A 
ATOM     13  C   UNL     1      -2.174  -0.890   0.000  0.00  0.00    +0.000 A 
ATOM     14  C   UNL     1      -2.726  -0.277   0.000  0.00  0.00    +0.000 A 
ENDROOT
BRANCH   1  23
ATOM     15  F   UNL     1       4.555  -0.963   0.000  0.00  0.00    +0.000 F 
ATOM     16  C   UNL     1       3.748  -0.792   0.000  0.00  0.00    +0.000 A 
ATOM     17  C   UNL     1       3.493  -0.007   0.000  0.00  0.00    +0.000 A 
ATOM     18  C   UNL     1       2.686   0.164   0.000  0.00  0.00    +0.000 A 
ATOM     19  F   UNL     1       2.431   0.949   0.000  0.00  0.00    +0.000 F 
ATOM     20  C   UNL     1       3.196  -1.405   0.000  0.00  0.00    +0.000 A 
ATOM     21  F   UNL     1       3.451  -2.190   0.000  0.00  0.00    +0.000 F 
ATOM     22  C   UNL     1       2.389  -1.234   0.000  0.00  0.00    +0.000 A 
ATOM     23  C   UNL     1       2.134  -0.449   0.000  0.00  0.00    +0.000 A 
ENDBRANCH   1  23
BRANCH  14  24
ATOM     24  S   UNL     1      -3.533  -0.449   0.000  0.00  0.00    +0.000 S 
ATOM     25  O   UNL     1      -4.340  -0.620   0.000  0.00  0.00    +0.000 OA
ATOM     26  O   UNL     1      -3.362  -1.256   0.000  0.00  0.00    +0.000 OA
ATOM     27  C   UNL     1      -3.705   0.358   0.000  0.00  0.00    +0.000 C 
ENDBRANCH  14  24
TORSDOF 2
