REMARK  Name = 678
REMARK  8 active torsions:
REMARK  status: ('A' for Active; 'I' for Inactive)
REMARK    1  A    between atoms: N_3  and  C_11
REMARK    2  A    between atoms: C_9  and  C_10
REMARK    3  A    between atoms: C_10  and  C_12
REMARK    4  A    between atoms: C_11  and  C_14
REMARK    5  A    between atoms: C_12  and  C_15
REMARK    6  A    between atoms: C_13  and  C_17
REMARK    7  A    between atoms: C_20  and  C_24
REMARK    8  A    between atoms: C_25  and  C_29
REMARK                            x       y       z     vdW  Elec       q    Type
REMARK                         _______ _______ _______ _____ _____    ______ ____
ROOT
ATOM      1  C   UNL     1       5.745   0.031   0.000  0.00  0.00    +0.000 A 
ATOM      2  C   UNL     1       5.745  -0.794   0.000  0.00  0.00    +0.000 A 
ATOM      3  C   UNL     1       6.460   0.444   0.000  0.00  0.00    +0.000 A 
ATOM      4  C   UNL     1       7.174  -0.794   0.000  0.00  0.00    +0.000 A 
ATOM      5  C   UNL     1       6.460  -1.206   0.000  0.00  0.00    +0.000 A 
ATOM      6  C   UNL     1       7.174   0.031   0.000  0.00  0.00    +0.000 A 
ENDROOT
BRANCH   4   7
ATOM      7  C   UNL     1       7.888  -1.206   0.000  0.00  0.00    +0.000 A 
ATOM      8  C   UNL     1       8.603  -0.794   0.000  0.00  0.00    +0.000 A 
ATOM      9  C   UNL     1       7.888  -2.031   0.000  0.00  0.00    +0.000 A 
ATOM     10  C   UNL     1       9.318  -1.206   0.000  0.00  0.00    +0.000 A 
ATOM     11  C   UNL     1       8.603  -2.444   0.000  0.00  0.00    +0.000 A 
ATOM     12  C   UNL     1       9.318  -2.031   0.000  0.00  0.00    +0.000 A 
BRANCH   8  17
ATOM     13  N   UNL     1       7.936   0.516   0.000  0.00  0.00    +0.000 NA
ATOM     14  N   UNL     1       9.271   0.516   0.000  0.00  0.00    +0.000 NA
ATOM     15  N   UNL     1       8.191   1.301   0.000  0.00  0.00    +0.000 NA
ATOM     16  N   UNL     1       9.015   1.301   0.000  0.00  0.00    +0.000 NA
ATOM     17  C   UNL     1       8.603   0.031   0.000  0.00  0.00    +0.000 A 
ENDBRANCH   8  17
ENDBRANCH   4   7
BRANCH   1  18
ATOM     18  C   UNL     1       5.030   0.444   0.000  0.00  0.00    +0.000 C 
BRANCH  18  20
ATOM     19 CL   UNL     1       3.087  -1.715   0.000  0.00  0.00    +0.000 Cl
ATOM     20  N   UNL     1       4.316   0.031   0.000  0.00  0.00    +0.000 N 
ATOM     21  N   UNL     1       3.010  -0.246   0.000  0.00  0.00    +0.000 NA
ATOM     22  C   UNL     1       3.562   0.367   0.000  0.00  0.00    +0.000 A 
ATOM     23  C   UNL     1       4.230  -0.789   0.000  0.00  0.00    +0.000 A 
ATOM     24  C   UNL     1       3.423  -0.961   0.000  0.00  0.00    +0.000 A 
BRANCH  23  26
ATOM     25  O   UNL     1       4.671  -2.148   0.000  0.00  0.00    +0.000 OA
ATOM     26  C   UNL     1       4.843  -1.341   0.000  0.00  0.00    +0.000 C 
ENDBRANCH  23  26
BRANCH  22  27
ATOM     27  C   UNL     1       3.391   1.174   0.000  0.00  0.00    +0.000 C 
BRANCH  27  28
ATOM     28  C   UNL     1       2.606   1.429   0.000  0.00  0.00    +0.000 C 
BRANCH  28  29
ATOM     29  C   UNL     1       2.435   2.236   0.000  0.00  0.00    +0.000 C 
ATOM     30  C   UNL     1       1.650   2.491   0.000  0.00  0.00    +0.000 C 
ENDBRANCH  28  29
ENDBRANCH  27  28
ENDBRANCH  22  27
ENDBRANCH  18  20
ENDBRANCH   1  18
TORSDOF 8
