REMARK  Name = 679
REMARK  4 active torsions:
REMARK  status: ('A' for Active; 'I' for Inactive)
REMARK    1  A    between atoms: C_6  and  C_8
REMARK    2  A    between atoms: C_9  and  N_15
REMARK    3  A    between atoms: N_15  and  C_16
REMARK    4  A    between atoms: C_20  and  C_23
REMARK                            x       y       z     vdW  Elec       q    Type
REMARK                         _______ _______ _______ _____ _____    ______ ____
ROOT
ATOM      1  C   UNL     1      -1.216   0.270   0.000  0.00  0.00    +0.000 C 
ATOM      2  C   UNL     1      -0.548  -0.214   0.000  0.00  0.00    +0.000 C 
ATOM      3  C   UNL     1      -0.803  -0.999   0.000  0.00  0.00    +0.000 C 
ATOM      4  C   UNL     1      -1.883  -0.214   0.000  0.00  0.00    +0.000 C 
ATOM      5  O   UNL     1      -2.668   0.040   0.000  0.00  0.00    +0.000 OA
ATOM      6  O   UNL     1      -0.318  -1.667   0.000  0.00  0.00    +0.000 OA
ATOM      7  N   UNL     1      -1.628  -0.999   0.000  0.00  0.00    +0.000 NA
ENDROOT
BRANCH   1  13
ATOM      8  C   UNL     1      -1.930   1.508   0.000  0.00  0.00    +0.000 A 
ATOM      9  C   UNL     1      -1.930   2.333   0.000  0.00  0.00    +0.000 A 
ATOM     10  C   UNL     1      -1.216   2.745   0.000  0.00  0.00    +0.000 A 
ATOM     11  C   UNL     1      -0.501   2.333   0.000  0.00  0.00    +0.000 A 
ATOM     12  C   UNL     1      -0.501   1.508   0.000  0.00  0.00    +0.000 A 
ATOM     13  C   UNL     1      -1.216   1.095   0.000  0.00  0.00    +0.000 A 
ATOM     14 CL   UNL     1       0.213   2.745   0.000  0.00  0.00    +0.000 Cl
ENDBRANCH   1  13
BRANCH   2  15
ATOM     15  N   UNL     1       0.236   0.040   0.000  0.00  0.00    +0.000 NA
BRANCH  15  16
ATOM     16  C   UNL     1       0.850  -0.512   0.000  0.00  0.00    +0.000 A 
ATOM     17  C   UNL     1       1.634  -0.257   0.000  0.00  0.00    +0.000 A 
ATOM     18  C   UNL     1       2.247  -0.809   0.000  0.00  0.00    +0.000 A 
ATOM     19  C   UNL     1       2.076  -1.616   0.000  0.00  0.00    +0.000 A 
ATOM     20  C   UNL     1       1.291  -1.871   0.000  0.00  0.00    +0.000 A 
ATOM     21  C   UNL     1       0.678  -1.319   0.000  0.00  0.00    +0.000 A 
ATOM     22 CL   UNL     1       2.689  -2.168   0.000  0.00  0.00    +0.000 Cl
BRANCH  20  23
ATOM     23  C   UNL     1       1.119  -2.678   0.000  0.00  0.00    +0.000 C 
ATOM     24  O   UNL     1       0.335  -2.933   0.000  0.00  0.00    +0.000 OA
ATOM     25  O   UNL     1       1.733  -3.230   0.000  0.00  0.00    +0.000 OA
ENDBRANCH  20  23
ENDBRANCH  15  16
ENDBRANCH   2  15
TORSDOF 4
