REMARK  Name = 679
REMARK  4 active torsions:
REMARK  status: ('A' for Active; 'I' for Inactive)
REMARK    1  A    between atoms: S_2  and  C_21
REMARK    2  A    between atoms: N_4  and  C_11
REMARK    3  A    between atoms: C_5  and  C_7
REMARK    4  A    between atoms: C_7  and  C_11
REMARK                            x       y       z     vdW  Elec       q    Type
REMARK                         _______ _______ _______ _____ _____    ______ ____
ROOT
ATOM      1  S   UNL     1       3.849  -2.667   0.000  0.00  0.00    +0.000 S 
ATOM      2  N   UNL     1       3.849  -1.017   0.000  0.00  0.00    +0.000 N 
ATOM      3  C   UNL     1       4.564  -1.429   0.000  0.00  0.00    +0.000 A 
ATOM      4  C   UNL     1       3.135  -1.429   0.000  0.00  0.00    +0.000 A 
ATOM      5  C   UNL     1       4.564  -2.255   0.000  0.00  0.00    +0.000 A 
ATOM      6  C   UNL     1       3.135  -2.255   0.000  0.00  0.00    +0.000 A 
ATOM      7  C   UNL     1       5.301  -0.988   0.000  0.00  0.00    +0.000 A 
ATOM      8  C   UNL     1       2.397  -0.988   0.000  0.00  0.00    +0.000 A 
ATOM      9  C   UNL     1       5.301  -2.696   0.000  0.00  0.00    +0.000 A 
ATOM     10  C   UNL     1       2.397  -2.696   0.000  0.00  0.00    +0.000 A 
ATOM     11  C   UNL     1       6.049  -1.412   0.000  0.00  0.00    +0.000 A 
ATOM     12  C   UNL     1       1.650  -1.412   0.000  0.00  0.00    +0.000 A 
ATOM     13  C   UNL     1       6.049  -2.272   0.000  0.00  0.00    +0.000 A 
ATOM     14  C   UNL     1       1.650  -2.272   0.000  0.00  0.00    +0.000 A 
ENDROOT
BRANCH  11  15
ATOM     15  S   UNL     1       6.762  -0.997   0.000  0.00  0.00    +0.000 S 
ATOM     16  C   UNL     1       7.478  -1.407   0.000  0.00  0.00    +0.000 C 
ENDBRANCH  11  15
BRANCH   2  17
ATOM     17  C   UNL     1       3.849  -0.192   0.000  0.00  0.00    +0.000 C 
BRANCH  17  18
ATOM     18  C   UNL     1       3.135   0.221   0.000  0.00  0.00    +0.000 C 
BRANCH  18  20
ATOM     19  N   UNL     1       2.421   1.458   0.000  0.00  0.00    +0.000 NA
ATOM     20  C   UNL     1       3.135   1.046   0.000  0.00  0.00    +0.000 C 
ATOM     21  C   UNL     1       3.849   1.458   0.000  0.00  0.00    +0.000 C 
ATOM     22  C   UNL     1       3.849   2.283   0.000  0.00  0.00    +0.000 C 
ATOM     23  C   UNL     1       2.421   2.283   0.000  0.00  0.00    +0.000 C 
ATOM     24  C   UNL     1       3.135   2.696   0.000  0.00  0.00    +0.000 C 
ATOM     25  C   UNL     1       1.706   1.046   0.000  0.00  0.00    +0.000 C 
ENDBRANCH  18  20
ENDBRANCH  17  18
ENDBRANCH   2  17
TORSDOF 4
