REMARK  Name = 680
REMARK  6 active torsions:
REMARK  status: ('A' for Active; 'I' for Inactive)
REMARK    1  A    between atoms: O_4  and  C_28
REMARK    2  A    between atoms: O_4  and  C_29
REMARK    3  A    between atoms: N_6  and  C_9
REMARK    4  A    between atoms: N_8  and  C_23
REMARK    5  A    between atoms: C_9  and  C_12
REMARK    6  A    between atoms: C_12  and  C_15
REMARK                            x       y       z     vdW  Elec       q    Type
REMARK                         _______ _______ _______ _____ _____    ______ ____
ROOT
ATOM      1  S   UNL     1       4.507  -2.667   0.000  0.00  0.00    +0.000 S 
ATOM      2  O   UNL     1       5.222   0.221   0.000  0.00  0.00    +0.000 OA
ATOM      3  N   UNL     1       4.507  -1.017   0.000  0.00  0.00    +0.000 N 
ATOM      4  C   UNL     1       4.507  -0.192   0.000  0.00  0.00    +0.000 C 
ATOM      5  C   UNL     1       5.222  -1.429   0.000  0.00  0.00    +0.000 A 
ATOM      6  C   UNL     1       3.793  -1.429   0.000  0.00  0.00    +0.000 A 
ATOM      7  C   UNL     1       5.222  -2.254   0.000  0.00  0.00    +0.000 A 
ATOM      8  C   UNL     1       3.793  -2.254   0.000  0.00  0.00    +0.000 A 
ATOM      9  C   UNL     1       5.959  -0.988   0.000  0.00  0.00    +0.000 A 
ATOM     10  C   UNL     1       3.055  -0.988   0.000  0.00  0.00    +0.000 A 
ATOM     11  C   UNL     1       5.959  -2.695   0.000  0.00  0.00    +0.000 A 
ATOM     12  C   UNL     1       6.706  -1.412   0.000  0.00  0.00    +0.000 A 
ATOM     13  C   UNL     1       3.055  -2.695   0.000  0.00  0.00    +0.000 A 
ATOM     14  C   UNL     1       6.706  -2.271   0.000  0.00  0.00    +0.000 A 
ATOM     15  C   UNL     1       2.308  -1.412   0.000  0.00  0.00    +0.000 A 
ATOM     16  C   UNL     1       2.308  -2.271   0.000  0.00  0.00    +0.000 A 
ENDROOT
BRANCH  12  18
ATOM     17  O   UNL     1       8.138  -2.232   0.000  0.00  0.00    +0.000 OA
ATOM     18  N   UNL     1       7.419  -0.997   0.000  0.00  0.00    +0.000 NA
ATOM     19  C   UNL     1       8.135  -1.407   0.000  0.00  0.00    +0.000 C 
BRANCH  19  20
ATOM     20  O   UNL     1       8.848  -0.991   0.000  0.00  0.00    +0.000 OA
BRANCH  20  21
ATOM     21  C   UNL     1       9.564  -1.401   0.000  0.00  0.00    +0.000 C 
ATOM     22  C   UNL     1      10.277  -0.986   0.000  0.00  0.00    +0.000 C 
ENDBRANCH  20  21
ENDBRANCH  19  20
ENDBRANCH  12  18
BRANCH   4  23
ATOM     23  C   UNL     1       3.793   0.221   0.000  0.00  0.00    +0.000 C 
BRANCH  23  24
ATOM     24  C   UNL     1       3.793   1.045   0.000  0.00  0.00    +0.000 C 
BRANCH  24  26
ATOM     25  O   UNL     1       1.650   2.283   0.000  0.00  0.00    +0.000 OA
ATOM     26  N   UNL     1       3.079   1.458   0.000  0.00  0.00    +0.000 NA
ATOM     27  C   UNL     1       3.079   2.283   0.000  0.00  0.00    +0.000 C 
ATOM     28  C   UNL     1       2.364   1.045   0.000  0.00  0.00    +0.000 C 
ATOM     29  C   UNL     1       2.364   2.695   0.000  0.00  0.00    +0.000 C 
ATOM     30  C   UNL     1       1.650   1.458   0.000  0.00  0.00    +0.000 C 
ENDBRANCH  24  26
ENDBRANCH  23  24
ENDBRANCH   4  23
TORSDOF 6
