REMARK  Name = 685
REMARK  5 active torsions:
REMARK  status: ('A' for Active; 'I' for Inactive)
REMARK    1  A    between atoms: CA_2  and  C_3
REMARK    2  A    between atoms: CA_2  and  N_5
REMARK    3  A    between atoms: C_6  and  C_8
REMARK    4  A    between atoms: C_10  and  C_14
REMARK    5  A    between atoms: N_19  and  C_20
REMARK                            x       y       z     vdW  Elec       q    Type
REMARK                         _______ _______ _______ _____ _____    ______ ____
ROOT
ATOM      1  C   UNK A   0       1.248  -1.039   0.000  0.00  0.00    +0.000 A 
ATOM      2  C   UNK A   0       1.583  -1.792   0.000  0.00  0.00    +0.000 A 
ATOM      3  C   UNK A   0       2.404  -1.879   0.000  0.00  0.00    +0.000 A 
ATOM      4  N   UNK A   0       2.889  -1.211   0.000  0.00  0.00    +0.000 NA
ATOM      5  C   UNK A   0       2.553  -0.457   0.000  0.00  0.00    +0.000 A 
ATOM      6  N   UNK A   0       3.038   0.210   0.000  0.00  0.00    +0.000 NA
ATOM      7  N   UNK A   0       1.733  -0.371   0.000  0.00  0.00    +0.000 NA
ENDROOT
BRANCH   6   8
ATOM      8  C   UNK A   0       2.702   0.964   0.000  0.00  0.00    +0.000 A 
ATOM      9  C   UNK A   0       3.187   1.631   0.000  0.00  0.00    +0.000 A 
ATOM     10  C   UNK A   0       2.852   2.385   0.000  0.00  0.00    +0.000 A 
ATOM     11  C   UNK A   0       3.337   3.052   0.000  0.00  0.00    +0.000 C 
ATOM     12  C   UNK A   0       2.031   2.471   0.000  0.00  0.00    +0.000 A 
ATOM     13  C   UNK A   0       1.546   1.804   0.000  0.00  0.00    +0.000 A 
ATOM     14  C   UNK A   0       0.726   1.890   0.000  0.00  0.00    +0.000 C 
ATOM     15  C   UNK A   0       1.882   1.050   0.000  0.00  0.00    +0.000 A 
ENDBRANCH   6   8
BRANCH   1  18
ATOM     16  C   UNK A   0      -0.878  -1.230   0.000  0.00  0.00    +0.000 A 
ATOM     17  S   UNK A   0      -0.125  -1.565   0.000  0.00  0.00    +0.000 S 
ATOM     18  C   UNK A   0       0.427  -0.952   0.000  0.00  0.00    +0.000 A 
ATOM     19  N   UNK A   0       0.015  -0.238   0.000  0.00  0.00    +0.000 NA
ATOM     20  C   UNK A   0      -0.792  -0.409   0.000  0.00  0.00    +0.000 A 
ATOM     21  C   UNK A   0      -1.405   0.143   0.000  0.00  0.00    +0.000 C 
BRANCH  16  23
ATOM     22  N   ALA A   1      -2.308  -1.230   0.000  0.00  0.00    +0.000 NA
ATOM     23  C   UNK A   0      -1.593  -1.642   0.000  0.00  0.00    +0.000 C 
ATOM     24  O   UNK A   0      -1.593  -2.467   0.000  0.00  0.00    +0.000 OA
BRANCH  22  26
ATOM     25  CB  ALA A   1      -3.022  -2.467   0.000  0.00  0.00    +0.000 C 
ATOM     26  CA  ALA A   1      -3.022  -1.642   0.000  0.00  0.00    +0.000 C 
BRANCH  26  27
ATOM     27  C   ALA A   1      -3.736  -1.230   0.000  0.00  0.00    +0.000 C 
ATOM     28  O   ALA A   1      -4.451  -1.642   0.000  0.00  0.00    +0.000 OA
ENDBRANCH  26  27
ENDBRANCH  22  26
ENDBRANCH  16  23
ENDBRANCH   1  18
TORSDOF 5
