REMARK  Name = 686
REMARK  10 active torsions:
REMARK  status: ('A' for Active; 'I' for Inactive)
REMARK    1  A    between atoms: S_1  and  O_8
REMARK    2  A    between atoms: S_2  and  O_9
REMARK    3  A    between atoms: S_3  and  O_10
REMARK    4  A    between atoms: S_4  and  O_11
REMARK    5  A    between atoms: O_5  and  C_26
REMARK    6  A    between atoms: O_5  and  C_29
REMARK    7  A    between atoms: O_8  and  C_27
REMARK    8  A    between atoms: O_9  and  C_28
REMARK    9  A    between atoms: O_10  and  C_30
REMARK   10  A    between atoms: O_11  and  C_31
REMARK                            x       y       z     vdW  Elec       q    Type
REMARK                         _______ _______ _______ _____ _____    ______ ____
ROOT
ATOM      1  O   UNL     1       6.380   0.000   0.000  0.00  0.00    +0.000 OA
ENDROOT
BRANCH   1   5
ATOM      2  O   UNL     1       7.094  -1.238   0.000  0.00  0.00    +0.000 OA
ATOM      3  O   UNL     1       9.238  -1.650   0.000  0.00  0.00    +0.000 OA
ATOM      4  C   UNL     1       7.809   0.000   0.000  0.00  0.00    +0.000 C 
ATOM      5  C   UNL     1       7.094  -0.412   0.000  0.00  0.00    +0.000 C 
ATOM      6  C   UNL     1       8.523  -0.412   0.000  0.00  0.00    +0.000 C 
ATOM      7  C   UNL     1       8.523  -1.238   0.000  0.00  0.00    +0.000 C 
ATOM      8  C   UNL     1       7.809  -1.650   0.000  0.00  0.00    +0.000 C 
BRANCH   4   9
ATOM      9  O   UNL     1       7.809   0.825   0.000  0.00  0.00    +0.000 OA
BRANCH   9  10
ATOM     10  S   UNL     1       8.523   1.238   0.000  0.00  0.00    +0.000 S 
ATOM     11  O   UNL     1       9.238   1.650   0.000  0.00  0.00    +0.000 OA
ATOM     12  O   UNL     1       8.936   0.523   0.000  0.00  0.00    +0.000 OA
ATOM     13  O   UNL     1       8.111   1.952   0.000  0.00  0.00    +0.000 OA
ENDBRANCH   9  10
ENDBRANCH   4   9
BRANCH   6  14
ATOM     14  O   UNL     1       9.238   0.000   0.000  0.00  0.00    +0.000 OA
BRANCH  14  15
ATOM     15  S   UNL     1       9.952  -0.412   0.000  0.00  0.00    +0.000 S 
ATOM     16  O   UNL     1      10.667  -0.825   0.000  0.00  0.00    +0.000 OA
ATOM     17  O   UNL     1      10.365   0.302   0.000  0.00  0.00    +0.000 OA
ATOM     18  O   UNL     1       9.540  -1.127   0.000  0.00  0.00    +0.000 OA
ENDBRANCH  14  15
ENDBRANCH   6  14
ENDBRANCH   1   5
BRANCH   1  21
ATOM     19  O   UNL     1       4.951  -1.650   0.000  0.00  0.00    +0.000 OA
ATOM     20  O   UNL     1       3.522  -1.650   0.000  0.00  0.00    +0.000 OA
ATOM     21  C   UNL     1       5.665  -0.412   0.000  0.00  0.00    +0.000 C 
ATOM     22  C   UNL     1       4.951   0.000   0.000  0.00  0.00    +0.000 C 
ATOM     23  C   UNL     1       4.237  -0.412   0.000  0.00  0.00    +0.000 C 
ATOM     24  C   UNL     1       5.665  -1.238   0.000  0.00  0.00    +0.000 C 
ATOM     25  C   UNL     1       4.237  -1.238   0.000  0.00  0.00    +0.000 C 
BRANCH  22  26
ATOM     26  O   UNL     1       4.951   0.825   0.000  0.00  0.00    +0.000 OA
BRANCH  26  27
ATOM     27  S   UNL     1       4.237   1.238   0.000  0.00  0.00    +0.000 S 
ATOM     28  O   UNL     1       3.522   1.650   0.000  0.00  0.00    +0.000 OA
ATOM     29  O   UNL     1       3.824   0.523   0.000  0.00  0.00    +0.000 OA
ATOM     30  O   UNL     1       4.649   1.952   0.000  0.00  0.00    +0.000 OA
ENDBRANCH  26  27
ENDBRANCH  22  26
BRANCH  23  31
ATOM     31  O   UNL     1       3.522   0.000   0.000  0.00  0.00    +0.000 OA
BRANCH  31  32
ATOM     32  S   UNL     1       2.808  -0.412   0.000  0.00  0.00    +0.000 S 
ATOM     33  O   UNL     1       2.093  -0.825   0.000  0.00  0.00    +0.000 OA
ATOM     34  O   UNL     1       2.395   0.302   0.000  0.00  0.00    +0.000 OA
ATOM     35  O   UNL     1       3.220  -1.127   0.000  0.00  0.00    +0.000 OA
ENDBRANCH  31  32
ENDBRANCH  23  31
ENDBRANCH   1  21
TORSDOF 10
