REMARK  Name = 68740
REMARK  4 active torsions:
REMARK  status: ('A' for Active; 'I' for Inactive)
REMARK    1  A    between atoms: P_1  and  C_12
REMARK    2  A    between atoms: P_2  and  C_12
REMARK    3  A    between atoms: N_10  and  C_13
REMARK    4  A    between atoms: C_12  and  C_13
REMARK                            x       y       z     vdW  Elec       q    Type
REMARK                         _______ _______ _______ _____ _____    ______ ____
ROOT
ATOM      1  O   UNL     1       2.876   0.206   0.000  0.00  0.00    +0.000 OA
ATOM      2  C   UNL     1       3.288  -0.509   0.000  0.00  0.00    +0.000 C 
ENDROOT
BRANCH   2   3
ATOM      3  P   UNL     1       2.574  -0.921   0.000  0.00  0.00    +0.000 P 
ATOM      4  O   UNL     1       1.860  -1.334   0.000  0.00  0.00    +0.000 OA
ATOM      5  O   UNL     1       2.162  -0.207   0.000  0.00  0.00    +0.000 OA
ATOM      6  O   UNL     1       2.431  -1.734   0.000  0.00  0.00    +0.000 OA
ENDBRANCH   2   3
BRANCH   2   7
ATOM      7  P   UNL     1       3.701  -1.223   0.000  0.00  0.00    +0.000 P 
ATOM      8  O   UNL     1       4.114  -1.938   0.000  0.00  0.00    +0.000 OA
ATOM      9  O   UNL     1       4.415  -0.811   0.000  0.00  0.00    +0.000 OA
ATOM     10  O   UNL     1       3.419  -1.998   0.000  0.00  0.00    +0.000 OA
ENDBRANCH   2   7
BRANCH   2  11
ATOM     11  C   UNL     1       4.003  -0.096   0.000  0.00  0.00    +0.000 C 
BRANCH  11  12
ATOM     12  N   UNL     1       4.003   0.729   0.000  0.00  0.00    +0.000 N 
ATOM     13  N   UNL     1       4.415   1.998   0.000  0.00  0.00    +0.000 NA
ATOM     14  C   UNL     1       3.336   1.214   0.000  0.00  0.00    +0.000 A 
ATOM     15  C   UNL     1       4.670   1.214   0.000  0.00  0.00    +0.000 A 
ATOM     16  C   UNL     1       3.591   1.998   0.000  0.00  0.00    +0.000 A 
ENDBRANCH  11  12
ENDBRANCH   2  11
TORSDOF 4
