REMARK  Name = 688
REMARK  10 active torsions:
REMARK  status: ('A' for Active; 'I' for Inactive)
REMARK    1  A    between atoms: O_3  and  C_18
REMARK    2  A    between atoms: O_3  and  C_29
REMARK    3  A    between atoms: O_4  and  C_19
REMARK    4  A    between atoms: N_8  and  C_11
REMARK    5  A    between atoms: C_11  and  C_18
REMARK    6  A    between atoms: C_15  and  C_21
REMARK    7  A    between atoms: C_21  and  C_23
REMARK    8  A    between atoms: C_25  and  C_26
REMARK    9  A    between atoms: C_25  and  C_28
REMARK   10  A    between atoms: C_28  and  C_29
REMARK                            x       y       z     vdW  Elec       q    Type
REMARK                         _______ _______ _______ _____ _____    ______ ____
ROOT
ATOM      1  C   UNL     1       8.795   0.285   0.000  0.00  0.00    +0.000 C 
ATOM      2  C   UNL     1       8.080   0.697   0.000  0.00  0.00    +0.000 C 
ATOM      3  C   UNL     1       8.080   1.522   0.000  0.00  0.00    +0.000 C 
ENDROOT
BRANCH   1   4
ATOM      4  C   UNL     1       9.509   0.697   0.000  0.00  0.00    +0.000 C 
BRANCH   4   9
ATOM      5  O   UNL     1      12.915  -0.128   0.000  0.00  0.00    +0.000 OA
ATOM      6  O   UNL     1      10.938   1.522   0.000  0.00  0.00    +0.000 OA
ATOM      7  O   UNL     1      12.690   1.320   0.000  0.00  0.00    +0.000 OA
ATOM      8  C   UNL     1      11.653  -0.540   0.000  0.00  0.00    +0.000 A 
ATOM      9  C   UNL     1      10.224   0.285   0.000  0.00  0.00    +0.000 A 
ATOM     10  C   UNL     1      11.653   0.285   0.000  0.00  0.00    +0.000 A 
ATOM     11  C   UNL     1      10.938  -0.953   0.000  0.00  0.00    +0.000 A 
ATOM     12  C   UNL     1      10.224  -0.540   0.000  0.00  0.00    +0.000 A 
ATOM     13  C   UNL     1      10.938   0.697   0.000  0.00  0.00    +0.000 A 
ATOM     14  C   UNL     1      12.434  -0.792   0.000  0.00  0.00    +0.000 C 
ATOM     15  C   UNL     1      12.434   0.536   0.000  0.00  0.00    +0.000 C 
ATOM     16  C   UNL     1      10.938  -1.778   0.000  0.00  0.00    +0.000 C 
BRANCH  12  17
ATOM     17  O   UNL     1       9.509  -0.953   0.000  0.00  0.00    +0.000 OA
ATOM     18  C   UNL     1       9.509  -1.778   0.000  0.00  0.00    +0.000 C 
ENDBRANCH  12  17
ENDBRANCH   4   9
ENDBRANCH   1   4
BRANCH   2  19
ATOM     19  C   UNL     1       7.366   0.285   0.000  0.00  0.00    +0.000 C 
BRANCH  19  20
ATOM     20  C   UNL     1       6.652   0.697   0.000  0.00  0.00    +0.000 C 
BRANCH  20  22
ATOM     21  O   UNL     1       5.937  -0.540   0.000  0.00  0.00    +0.000 OA
ATOM     22  C   UNL     1       5.937   0.285   0.000  0.00  0.00    +0.000 C 
BRANCH  22  23
ATOM     23  O   UNL     1       5.222   0.697   0.000  0.00  0.00    +0.000 OA
BRANCH  23  24
ATOM     24  C   UNL     1       4.508   0.285   0.000  0.00  0.00    +0.000 C 
BRANCH  24  25
ATOM     25  C   UNL     1       3.793   0.697   0.000  0.00  0.00    +0.000 C 
BRANCH  25  27
ATOM     26  O   UNL     1       1.650  -0.540   0.000  0.00  0.00    +0.000 OA
ATOM     27  N   UNL     1       3.079   0.285   0.000  0.00  0.00    +0.000 NA
ATOM     28  C   UNL     1       3.079  -0.540   0.000  0.00  0.00    +0.000 C 
ATOM     29  C   UNL     1       2.365   0.697   0.000  0.00  0.00    +0.000 C 
ATOM     30  C   UNL     1       2.365  -0.953   0.000  0.00  0.00    +0.000 C 
ATOM     31  C   UNL     1       1.650   0.285   0.000  0.00  0.00    +0.000 C 
ENDBRANCH  25  27
ENDBRANCH  24  25
ENDBRANCH  23  24
ENDBRANCH  22  23
ENDBRANCH  20  22
ENDBRANCH  19  20
ENDBRANCH   2  19
TORSDOF 10
