REMARK  Name = 68867
REMARK  7 active torsions:
REMARK  status: ('A' for Active; 'I' for Inactive)
REMARK    1  A    between atoms: O_2  and  C_23
REMARK    2  A    between atoms: O_2  and  C_28
REMARK    3  A    between atoms: N_5  and  C_10
REMARK    4  A    between atoms: N_6  and  C_11
REMARK    5  A    between atoms: N_7  and  C_25
REMARK    6  A    between atoms: C_9  and  C_10
REMARK    7  A    between atoms: C_21  and  C_22
REMARK                            x       y       z     vdW  Elec       q    Type
REMARK                         _______ _______ _______ _____ _____    ______ ____
ROOT
ATOM      1  O   UNL     1       5.127  -0.587   0.000  0.00  0.00    +0.000 OA
ATOM      2  N   UNL     1       5.127   0.842   0.000  0.00  0.00    +0.000 NA
ATOM      3  C   UNL     1       5.539   0.128   0.000  0.00  0.00    +0.000 C 
ENDROOT
BRANCH   3   5
ATOM      4  N   UNL     1       8.839   0.128   0.000  0.00  0.00    +0.000 NA
ATOM      5  C   UNL     1       6.364   0.128   0.000  0.00  0.00    +0.000 A 
ATOM      6  C   UNL     1       6.777  -0.587   0.000  0.00  0.00    +0.000 A 
ATOM      7  C   UNL     1       6.777   0.842   0.000  0.00  0.00    +0.000 A 
ATOM      8  C   UNL     1       7.602   0.842   0.000  0.00  0.00    +0.000 A 
ATOM      9  C   UNL     1       7.602  -0.587   0.000  0.00  0.00    +0.000 A 
ATOM     10  C   UNL     1       8.014   0.128   0.000  0.00  0.00    +0.000 A 
BRANCH   8  13
ATOM     11  O   UNL     1       7.602   2.271   0.000  0.00  0.00    +0.000 OA
ATOM     12  O   UNL     1       8.839   1.557   0.000  0.00  0.00    +0.000 OA
ATOM     13  N   UNL     1       8.014   1.557   0.000  0.00  0.00    +0.000 N 
ENDBRANCH   8  13
BRANCH   6  14
ATOM     14  O   UNL     1       6.364  -1.301   0.000  0.00  0.00    +0.000 OA
BRANCH  14  15
ATOM     15  C   UNL     1       6.777  -2.016   0.000  0.00  0.00    +0.000 C 
ATOM     16  C   UNL     1       6.364  -2.730   0.000  0.00  0.00    +0.000 C 
ENDBRANCH  14  15
ENDBRANCH   6  14
ENDBRANCH   3   5
BRANCH   2  18
ATOM     17  N   UNL     1       2.652   0.842   0.000  0.00  0.00    +0.000 NA
ATOM     18  C   UNL     1       4.302   0.842   0.000  0.00  0.00    +0.000 C 
ATOM     19  C   UNL     1       3.064   0.128   0.000  0.00  0.00    +0.000 C 
ATOM     20  C   UNL     1       3.064   1.557   0.000  0.00  0.00    +0.000 C 
ATOM     21  C   UNL     1       3.889   0.128   0.000  0.00  0.00    +0.000 C 
ATOM     22  C   UNL     1       3.889   1.557   0.000  0.00  0.00    +0.000 C 
BRANCH  17  23
ATOM     23  C   UNL     1       1.827   0.842   0.000  0.00  0.00    +0.000 C 
BRANCH  23  24
ATOM     24  C   UNL     1       1.414   1.557   0.000  0.00  0.00    +0.000 C 
ATOM     25  C   UNL     1       0.589   1.557   0.000  0.00  0.00    +0.000 C 
ATOM     26  C   UNL     1       1.827   2.271   0.000  0.00  0.00    +0.000 C 
ATOM     27  C   UNL     1       0.176   2.271   0.000  0.00  0.00    +0.000 C 
ATOM     28  C   UNL     1       1.414   2.986   0.000  0.00  0.00    +0.000 C 
ATOM     29  C   UNL     1       0.589   2.986   0.000  0.00  0.00    +0.000 C 
ENDBRANCH  23  24
ENDBRANCH  17  23
ENDBRANCH   2  18
TORSDOF 7
