REMARK  Name = 689
REMARK  2 active torsions:
REMARK  status: ('A' for Active; 'I' for Inactive)
REMARK    1  A    between atoms: C_9  and  C_10
REMARK    2  A    between atoms: C_14  and  C_15
REMARK                            x       y       z     vdW  Elec       q    Type
REMARK                         _______ _______ _______ _____ _____    ______ ____
ROOT
ATOM      1  C   UNL     1       1.108   1.335   0.000  0.00  0.00    +0.000 C 
ATOM      2  C   UNL     1       0.711   0.549   0.000  0.00  0.00    +0.000 C 
ATOM      3  C   UNL     1       0.161   0.113   0.000  0.00  0.00    +0.000 C 
ATOM      4  C   UNL     1      -0.593  -0.052   0.000  0.00  0.00    +0.000 C 
ATOM      5  C   UNL     1      -0.877   0.861   0.000  0.00  0.00    +0.000 C 
ATOM      6  C   UNL     1      -0.885  -0.689   0.000  0.00  0.00    +0.000 C 
ATOM      7  C   UNL     1      -0.381  -0.265   0.000  0.00  0.00    +0.000 C 
ATOM      8  C   UNL     1      -0.100   0.671   0.000  0.00  0.00    +0.000 C 
ATOM      9  C   UNL     1       0.579  -0.254   0.000  0.00  0.00    +0.000 C 
ATOM     10  C   UNL     1       0.626  -1.241   0.000  0.00  0.00    +0.000 C 
ATOM     11  O   UNL     1      -0.190  -1.421   0.000  0.00  0.00    +0.000 OA
ATOM     12  C   UNL     1       0.222  -0.840   0.000  0.00  0.00    +0.000 C 
ENDROOT
BRANCH  12  13
ATOM     13  C   UNL     1      -0.572  -0.615   0.000  0.00  0.00    +0.000 A 
ATOM     14  C   UNL     1      -1.163  -1.190   0.000  0.00  0.00    +0.000 A 
ATOM     15  C   UNL     1      -1.957  -0.965   0.000  0.00  0.00    +0.000 A 
ATOM     16  C   UNL     1      -2.159  -0.165   0.000  0.00  0.00    +0.000 A 
ATOM     17  O   UNL     1      -2.953   0.060   0.000  0.00  0.00    +0.000 OA
ATOM     18  C   UNL     1      -1.567   0.410   0.000  0.00  0.00    +0.000 A 
ATOM     19  C   UNL     1      -0.773   0.185   0.000  0.00  0.00    +0.000 A 
ENDBRANCH  12  13
BRANCH   9  20
ATOM     20  C   UNL     1       1.481   0.072   0.000  0.00  0.00    +0.000 C 
ATOM     21  O   UNL     1       2.249   0.092   0.000  0.00  0.00    +0.000 OA
ENDBRANCH   9  20
TORSDOF 2
