REMARK  Name = 689
REMARK  7 active torsions:
REMARK  status: ('A' for Active; 'I' for Inactive)
REMARK    1  A    between atoms: O_3  and  C_17
REMARK    2  A    between atoms: O_3  and  C_24
REMARK    3  A    between atoms: N_9  and  CA_12
REMARK    4  A    between atoms: CA_14  and  C_19
REMARK    5  A    between atoms: C_15  and  C_17
REMARK    6  A    between atoms: C_18  and  CA_20
REMARK    7  A    between atoms: CA_20  and  C_21
REMARK                            x       y       z     vdW  Elec       q    Type
REMARK                         _______ _______ _______ _____ _____    ______ ____
ROOT
ATOM      1  S   UNL     1       5.222  -0.846   0.000  0.00  0.00    +0.000 S 
ATOM      2  O   UNL     1       7.351   0.980   0.000  0.00  0.00    +0.000 OA
ATOM      3  N   UNL     1       5.937   0.392   0.000  0.00  0.00    +0.000 N 
ATOM      4  C   UNL     1       5.937  -0.433   0.000  0.00  0.00    +0.000 C 
ATOM      5  CA  UNL     1       6.769  -0.437   0.000  0.00  0.00    +0.000 C 
ATOM      6  C   UNL     1       6.769   0.395   0.000  0.00  0.00    +0.000 C 
ATOM      7  CA  UNL     1       5.222   0.804   0.000  0.00  0.00    +0.000 C 
ATOM      8  C   UNL     1       4.508   0.392   0.000  0.00  0.00    +0.000 C 
ATOM      9  C   UNL     1       4.508  -0.433   0.000  0.00  0.00    +0.000 C 
ENDROOT
BRANCH   7  12
ATOM     10  O   UNL     1       4.508   2.042   0.000  0.00  0.00    +0.000 OA
ATOM     11  OXT UNL     1       5.937   2.042   0.000  0.00  0.00    +0.000 OA
ATOM     12  C   UNL     1       5.222   1.629   0.000  0.00  0.00    +0.000 C 
ENDBRANCH   7  12
BRANCH   5  14
ATOM     13  O   UNL     1       8.363  -0.013   0.000  0.00  0.00    +0.000 OA
ATOM     14  N   UNL     1       7.351  -1.021   0.000  0.00  0.00    +0.000 NA
ATOM     15  C   UNL     1       8.148  -0.810   0.000  0.00  0.00    +0.000 C 
BRANCH  15  17
ATOM     16  N   UNL     1       8.515  -2.191   0.000  0.00  0.00    +0.000 NA
ATOM     17  CA  UNL     1       8.730  -1.394   0.000  0.00  0.00    +0.000 C 
BRANCH  17  18
ATOM     18  C   UNL     1       9.528  -1.182   0.000  0.00  0.00    +0.000 A 
ATOM     19  C   UNL     1       9.743  -0.386   0.000  0.00  0.00    +0.000 A 
ATOM     20  C   UNL     1      10.110  -1.767   0.000  0.00  0.00    +0.000 A 
ATOM     21  C   UNL     1      10.540  -0.174   0.000  0.00  0.00    +0.000 A 
ATOM     22  C   UNL     1      10.907  -1.555   0.000  0.00  0.00    +0.000 A 
ATOM     23  C   UNL     1      11.122  -0.758   0.000  0.00  0.00    +0.000 A 
ENDBRANCH  17  18
ENDBRANCH  15  17
ENDBRANCH   5  14
BRANCH   8  24
ATOM     24  C   UNL     1       3.793   0.804   0.000  0.00  0.00    +0.000 C 
BRANCH  24  25
ATOM     25  O   UNL     1       3.079   0.392   0.000  0.00  0.00    +0.000 OA
BRANCH  25  27
ATOM     26  O   UNL     1       2.365   1.629   0.000  0.00  0.00    +0.000 OA
ATOM     27  C   UNL     1       2.365   0.804   0.000  0.00  0.00    +0.000 C 
ATOM     28  C   UNL     1       1.650   0.392   0.000  0.00  0.00    +0.000 C 
ENDBRANCH  25  27
ENDBRANCH  24  25
ENDBRANCH   8  24
TORSDOF 7
