REMARK  Name = 690
REMARK  6 active torsions:
REMARK  status: ('A' for Active; 'I' for Inactive)
REMARK    1  A    between atoms: N_4  and  C_7
REMARK    2  A    between atoms: N_5  and  C_8
REMARK    3  A    between atoms: N_5  and  C_10
REMARK    4  A    between atoms: N_5  and  C_11
REMARK    5  A    between atoms: C_7  and  C_8
REMARK    6  A    between atoms: C_14  and  C_20
REMARK                            x       y       z     vdW  Elec       q    Type
REMARK                         _______ _______ _______ _____ _____    ______ ____
ROOT
ATOM      1 CL   UNL     1       5.230  -2.729   0.000  0.00  0.00    +0.000 Cl
ATOM      2  O   UNL     1       5.024   1.990   0.000  0.00  0.00    +0.000 OA
ATOM      3  N   UNL     1       4.867   0.601   0.000  0.00  0.00    +0.000 N 
ATOM      4  N   UNL     1       6.721   0.601   0.000  0.00  0.00    +0.000 NA
ATOM      5  C   UNL     1       5.051  -0.203   0.000  0.00  0.00    +0.000 A 
ATOM      6  C   UNL     1       5.794  -0.561   0.000  0.00  0.00    +0.000 A 
ATOM      7  C   UNL     1       5.382   1.246   0.000  0.00  0.00    +0.000 C 
ATOM      8  C   UNL     1       6.538  -0.203   0.000  0.00  0.00    +0.000 C 
ATOM      9  C   UNL     1       6.207   1.246   0.000  0.00  0.00    +0.000 C 
ATOM     10  C   UNL     1       4.334  -0.676   0.000  0.00  0.00    +0.000 A 
ATOM     11  C   UNL     1       5.872  -1.417   0.000  0.00  0.00    +0.000 A 
ATOM     12  C   UNL     1       4.391  -1.534   0.000  0.00  0.00    +0.000 A 
ATOM     13  C   UNL     1       5.165  -1.906   0.000  0.00  0.00    +0.000 A 
ENDROOT
BRANCH   8  15
ATOM     14  F   UNL     1       8.073   0.400   0.000  0.00  0.00    +0.000 F 
ATOM     15  C   UNL     1       7.183  -0.717   0.000  0.00  0.00    +0.000 A 
ATOM     16  C   UNL     1       7.951  -0.416   0.000  0.00  0.00    +0.000 A 
ATOM     17  C   UNL     1       7.060  -1.533   0.000  0.00  0.00    +0.000 A 
ATOM     18  C   UNL     1       8.596  -0.930   0.000  0.00  0.00    +0.000 A 
ATOM     19  C   UNL     1       7.705  -2.047   0.000  0.00  0.00    +0.000 A 
ATOM     20  C   UNL     1       8.473  -1.746   0.000  0.00  0.00    +0.000 A 
ENDBRANCH   8  15
BRANCH   3  21
ATOM     21  C   UNL     1       4.063   0.785   0.000  0.00  0.00    +0.000 C 
BRANCH  21  22
ATOM     22  C   UNL     1       3.820   1.573   0.000  0.00  0.00    +0.000 C 
BRANCH  22  23
ATOM     23  N   UNL     1       3.015   1.757   0.000  0.00  0.00    +0.000 NA
BRANCH  23  24
ATOM     24  C   UNL     1       2.772   2.545   0.000  0.00  0.00    +0.000 C 
ATOM     25  C   UNL     1       1.968   2.729   0.000  0.00  0.00    +0.000 C 
ENDBRANCH  23  24
BRANCH  23  26
ATOM     26  C   UNL     1       2.454   1.152   0.000  0.00  0.00    +0.000 C 
ATOM     27  C   UNL     1       1.650   1.336   0.000  0.00  0.00    +0.000 C 
ENDBRANCH  23  26
ENDBRANCH  22  23
ENDBRANCH  21  22
ENDBRANCH   3  21
TORSDOF 6
