REMARK  Name = 691
REMARK  12 active torsions:
REMARK  status: ('A' for Active; 'I' for Inactive)
REMARK    1  A    between atoms: O_3  and  C_23
REMARK    2  A    between atoms: O_4  and  C_24
REMARK    3  A    between atoms: O_6  and  C_26
REMARK    4  A    between atoms: O_6  and  C_32
REMARK    5  A    between atoms: N_9  and  C_15
REMARK    6  A    between atoms: N_9  and  C_17
REMARK    7  A    between atoms: C_10  and  C_19
REMARK    8  A    between atoms: C_15  and  C_16
REMARK    9  A    between atoms: C_17  and  C_21
REMARK   10  A    between atoms: C_17  and  C_26
REMARK   11  A    between atoms: C_21  and  C_25
REMARK   12  A    between atoms: C_25  and  C_27
REMARK                            x       y       z     vdW  Elec       q    Type
REMARK                         _______ _______ _______ _____ _____    ______ ____
ROOT
ATOM      1  O   UNK A   1       3.079   1.522   0.000  0.00  0.00    +0.000 OA
ATOM      2  N   UNK A   1       4.508   1.522   0.000  0.00  0.00    +0.000 N 
ATOM      3  C   UNK A   1       4.508   2.347   0.000  0.00  0.00    +0.000 C 
ATOM      4  C   UNK A   1       5.222   2.760   0.000  0.00  0.00    +0.000 C 
ATOM      5  C   UNK A   0       5.222   1.110   0.000  0.00  0.00    +0.000 C 
ATOM      6  C   UNK A   1       5.937   2.347   0.000  0.00  0.00    +0.000 A 
ATOM      7  C   UNK A   1       5.937   1.522   0.000  0.00  0.00    +0.000 A 
ATOM      8  C   UNK A   1       3.793   1.110   0.000  0.00  0.00    +0.000 C 
ATOM      9  C   UNK A   1       6.674   2.788   0.000  0.00  0.00    +0.000 A 
ATOM     10  C   UNK A   1       6.674   1.081   0.000  0.00  0.00    +0.000 A 
ATOM     11  C   UNK A   1       7.422   2.364   0.000  0.00  0.00    +0.000 A 
ATOM     12  C   UNK A   1       7.422   1.505   0.000  0.00  0.00    +0.000 A 
ENDROOT
BRANCH   3  15
ATOM     13  O   UNK A   1       3.793   3.585   0.000  0.00  0.00    +0.000 OA
ATOM     14  O   UNK A   1       3.079   2.347   0.000  0.00  0.00    +0.000 OA
ATOM     15  C   UNK A   1       3.793   2.760   0.000  0.00  0.00    +0.000 C 
ENDBRANCH   3  15
BRANCH  12  16
ATOM     16  O   UNK A   1       8.135   1.090   0.000  0.00  0.00    +0.000 OA
ATOM     17  C   UNK A   1       8.132   0.265   0.000  0.00  0.00    +0.000 C 
ENDBRANCH  12  16
BRANCH  11  18
ATOM     18  O   UNK A   1       8.135   2.780   0.000  0.00  0.00    +0.000 OA
ATOM     19  C   UNK A   1       8.132   3.604   0.000  0.00  0.00    +0.000 C 
ENDBRANCH  11  18
BRANCH   8  20
ATOM     20  C   UNK A   1       3.793   0.285   0.000  0.00  0.00    +0.000 C 
ATOM     21  C   UNK A   1       4.508  -0.128   0.000  0.00  0.00    +0.000 C 
BRANCH  20  22
ATOM     22  N   UNK A   1       3.079  -0.128   0.000  0.00  0.00    +0.000 NA
BRANCH  22  23
ATOM     23  C   UNK A   0       3.079  -0.953   0.000  0.00  0.00    +0.000 C 
BRANCH  23  25
ATOM     24  O   UNK A   0       1.650  -0.953   0.000  0.00  0.00    +0.000 OA
ATOM     25  C   UNK A   0       2.365  -1.365   0.000  0.00  0.00    +0.000 C 
BRANCH  25  26
ATOM     26  O   UNK A   0       2.365  -2.190   0.000  0.00  0.00    +0.000 OA
BRANCH  26  27
ATOM     27  C   UNK A   0       1.650  -2.603   0.000  0.00  0.00    +0.000 C 
ATOM     28  C   UNK A   0       1.650  -3.428   0.000  0.00  0.00    +0.000 C 
ENDBRANCH  26  27
ENDBRANCH  25  26
ENDBRANCH  23  25
BRANCH  23  29
ATOM     29  C   UNK A   0       3.793  -1.365   0.000  0.00  0.00    +0.000 C 
BRANCH  29  30
ATOM     30  C   UNK A   0       3.793  -2.190   0.000  0.00  0.00    +0.000 C 
BRANCH  30  31
ATOM     31  C   UNK A   0       4.508  -2.603   0.000  0.00  0.00    +0.000 A 
ATOM     32  C   UNK A   0       5.222  -2.190   0.000  0.00  0.00    +0.000 A 
ATOM     33  C   UNK A   0       4.508  -3.428   0.000  0.00  0.00    +0.000 A 
ATOM     34  C   UNK A   0       5.937  -2.603   0.000  0.00  0.00    +0.000 A 
ATOM     35  C   UNK A   0       5.222  -3.840   0.000  0.00  0.00    +0.000 A 
ATOM     36  C   UNK A   0       5.937  -3.428   0.000  0.00  0.00    +0.000 A 
ENDBRANCH  30  31
ENDBRANCH  29  30
ENDBRANCH  23  29
ENDBRANCH  22  23
ENDBRANCH  20  22
ENDBRANCH   8  20
TORSDOF 12
