REMARK  Name = 692
REMARK  3 active torsions:
REMARK  status: ('A' for Active; 'I' for Inactive)
REMARK    1  A    between atoms: N_2  and  C_3
REMARK    2  A    between atoms: C_3  and  C_4
REMARK    3  A    between atoms: C_9  and  C_10
REMARK                            x       y       z     vdW  Elec       q    Type
REMARK                         _______ _______ _______ _____ _____    ______ ____
ROOT
ATOM      1  C   UNL     1      -0.057   0.665   0.000  0.00  0.00    +0.000 A 
ATOM      2  C   UNL     1      -0.057   1.490   0.000  0.00  0.00    +0.000 A 
ATOM      3  C   UNL     1      -0.771   1.903   0.000  0.00  0.00    +0.000 A 
ATOM      4  C   UNL     1      -1.486   1.490   0.000  0.00  0.00    +0.000 A 
ATOM      5  C   UNL     1      -1.486   0.665   0.000  0.00  0.00    +0.000 A 
ATOM      6  C   UNL     1      -0.771   0.253   0.000  0.00  0.00    +0.000 A 
ENDROOT
BRANCH   6   7
ATOM      7  C   UNL     1      -0.771  -0.572   0.000  0.00  0.00    +0.000 A 
ATOM      8  C   UNL     1      -1.438  -1.057   0.000  0.00  0.00    +0.000 A 
ATOM      9  C   UNL     1      -1.183  -1.842   0.000  0.00  0.00    +0.000 A 
ATOM     10  C   UNL     1      -0.358  -1.842   0.000  0.00  0.00    +0.000 A 
ATOM     11  S   UNL     1      -0.103  -1.057   0.000  0.00  0.00    +0.000 S 
ENDBRANCH   6   7
BRANCH   1  12
ATOM     12  C   UNL     1       0.658   0.253   0.000  0.00  0.00    +0.000 C 
BRANCH  12  14
ATOM     13  C   UNL     1       2.087   0.253   0.000  0.00  0.00    +0.000 C 
ATOM     14  N   UNL     1       1.372   0.665   0.000  0.00  0.00    +0.000 NA
ENDBRANCH  12  14
ENDBRANCH   1  12
TORSDOF 3
