REMARK  Name = 692
REMARK  4 active torsions:
REMARK  status: ('A' for Active; 'I' for Inactive)
REMARK    1  A    between atoms: N_2  and  C_5
REMARK    2  A    between atoms: N_2  and  C_9
REMARK    3  A    between atoms: N_2  and  C_10
REMARK    4  A    between atoms: C_5  and  C_6
REMARK                            x       y       z     vdW  Elec       q    Type
REMARK                         _______ _______ _______ _____ _____    ______ ____
ROOT
ATOM      1  N   UNL     1       3.518   0.240   0.000  0.00  0.00    +0.000 N 
ENDROOT
BRANCH   1   3
ATOM      2  O   UNL     1       2.089  -2.235   0.000  0.00  0.00    +0.000 OA
ATOM      3  C   UNL     1       3.518  -0.585   0.000  0.00  0.00    +0.000 A 
ATOM      4  C   UNL     1       2.804  -0.998   0.000  0.00  0.00    +0.000 A 
ATOM      5  C   UNL     1       4.233  -0.998   0.000  0.00  0.00    +0.000 A 
ATOM      6  C   UNL     1       2.804  -1.823   0.000  0.00  0.00    +0.000 A 
ATOM      7  C   UNL     1       4.233  -1.823   0.000  0.00  0.00    +0.000 A 
ATOM      8  C   UNL     1       3.518  -2.235   0.000  0.00  0.00    +0.000 A 
ENDBRANCH   1   3
BRANCH   1   9
ATOM      9  C   UNL     1       4.233   0.652   0.000  0.00  0.00    +0.000 A 
ATOM     10  C   UNL     1       4.947   0.240   0.000  0.00  0.00    +0.000 A 
ATOM     11  C   UNL     1       4.233   1.477   0.000  0.00  0.00    +0.000 A 
ATOM     12  C   UNL     1       5.662   1.477   0.000  0.00  0.00    +0.000 A 
ATOM     13  C   UNL     1       5.662   0.652   0.000  0.00  0.00    +0.000 A 
ATOM     14  C   UNL     1       4.947   1.890   0.000  0.00  0.00    +0.000 A 
ATOM     15  C   UNL     1       6.376   1.890   0.000  0.00  0.00    +0.000 C 
ENDBRANCH   1   9
BRANCH   1  16
ATOM     16  C   UNL     1       2.804   0.652   0.000  0.00  0.00    +0.000 C 
BRANCH  16  19
ATOM     17  N   UNL     1       2.136   1.962   0.000  0.00  0.00    +0.000 NA
ATOM     18  N   UNL     1       3.471   1.962   0.000  0.00  0.00    +0.000 NA
ATOM     19  C   UNL     1       2.804   1.477   0.000  0.00  0.00    +0.000 C 
ATOM     20  C   UNL     1       2.392   2.747   0.000  0.00  0.00    +0.000 C 
ATOM     21  C   UNL     1       3.216   2.747   0.000  0.00  0.00    +0.000 C 
ENDBRANCH  16  19
ENDBRANCH   1  16
TORSDOF 4
