REMARK  Name = 693
REMARK  7 active torsions:
REMARK  status: ('A' for Active; 'I' for Inactive)
REMARK    1  A    between atoms: C_1  and  C_7
REMARK    2  A    between atoms: C_12  and  C_13
REMARK    3  A    between atoms: C_15  and  C_16
REMARK    4  A    between atoms: C_16  and  C_17
REMARK    5  A    between atoms: C_16  and  C_20
REMARK    6  A    between atoms: C_20  and  C_21
REMARK    7  A    between atoms: C_25  and  C_28
REMARK                            x       y       z     vdW  Elec       q    Type
REMARK                         _______ _______ _______ _____ _____    ______ ____
ROOT
ATOM      1  C   UNL     1       0.090   0.012   0.000  0.00  0.00    +0.000 A 
ATOM      2  C   UNL     1      -0.322  -0.702   0.000  0.00  0.00    +0.000 A 
ATOM      3  C   UNL     1      -1.147  -0.702   0.000  0.00  0.00    +0.000 A 
ATOM      4  C   UNL     1      -1.560   0.012   0.000  0.00  0.00    +0.000 A 
ATOM      5  C   UNL     1      -1.147   0.727   0.000  0.00  0.00    +0.000 A 
ATOM      6  C   UNL     1      -0.322   0.727   0.000  0.00  0.00    +0.000 A 
ATOM      7  O   UNL     1       0.090   1.441   0.000  0.00  0.00    +0.000 OA
ENDROOT
BRANCH   1  16
ATOM      8  C   UNL     1       3.614   0.425   0.000  0.00  0.00    +0.000 A 
ATOM      9  C   UNL     1       3.614  -0.400   0.000  0.00  0.00    +0.000 A 
ATOM     10  C   UNL     1       2.900  -0.813   0.000  0.00  0.00    +0.000 A 
ATOM     11  C   UNL     1       2.185  -0.400   0.000  0.00  0.00    +0.000 A 
ATOM     12  C   UNL     1       2.185   0.425   0.000  0.00  0.00    +0.000 A 
ATOM     13  C   UNL     1       2.900   0.837   0.000  0.00  0.00    +0.000 A 
ATOM     14  N   UNL     1       1.400  -0.655   0.000  0.00  0.00    +0.000 NA
ATOM     15  N   UNL     1       1.400   0.680   0.000  0.00  0.00    +0.000 NA
ATOM     16  C   UNL     1       0.915   0.012   0.000  0.00  0.00    +0.000 A 
BRANCH   8  17
ATOM     17  C   UNL     1       4.329   0.837   0.000  0.00  0.00    +0.000 C 
ATOM     18  N   UNL     1       5.043   0.425   0.000  0.00  0.00    +0.000 NA
ATOM     19  N   UNL     1       4.329   1.662   0.000  0.00  0.00    +0.000 NA
ENDBRANCH   8  17
ENDBRANCH   1  16
BRANCH   5  20
ATOM     20  C   UNL     1      -1.560   1.441   0.000  0.00  0.00    +0.000 A 
ATOM     21  C   UNL     1      -2.385   1.441   0.000  0.00  0.00    +0.000 A 
ATOM     22  C   UNL     1      -2.797   2.156   0.000  0.00  0.00    +0.000 A 
ATOM     23  C   UNL     1      -2.385   2.870   0.000  0.00  0.00    +0.000 A 
ATOM     24  C   UNL     1      -1.560   2.870   0.000  0.00  0.00    +0.000 A 
ATOM     25  C   UNL     1      -1.147   2.156   0.000  0.00  0.00    +0.000 A 
ATOM     26  F   UNL     1      -2.797   0.727   0.000  0.00  0.00    +0.000 F 
ENDBRANCH   5  20
BRANCH   3  27
ATOM     27  C   UNL     1      -1.560  -1.417   0.000  0.00  0.00    +0.000 C 
BRANCH  27  28
ATOM     28  C   UNL     1      -2.385  -1.417   0.000  0.00  0.00    +0.000 C 
ATOM     29  O   UNL     1      -2.797  -2.131   0.000  0.00  0.00    +0.000 OA
ATOM     30  O   UNL     1      -2.797  -0.702   0.000  0.00  0.00    +0.000 OA
ENDBRANCH  27  28
BRANCH  27  31
ATOM     31  C   UNL     1      -1.147  -2.131   0.000  0.00  0.00    +0.000 C 
BRANCH  31  32
ATOM     32  C   UNL     1      -1.560  -2.845   0.000  0.00  0.00    +0.000 C 
ATOM     33  O   UNL     1      -1.147  -3.560   0.000  0.00  0.00    +0.000 OA
ATOM     34  O   UNL     1      -2.385  -2.845   0.000  0.00  0.00    +0.000 OA
ENDBRANCH  31  32
ENDBRANCH  27  31
ENDBRANCH   3  27
TORSDOF 7
