REMARK  Name = 694
REMARK  5 active torsions:
REMARK  status: ('A' for Active; 'I' for Inactive)
REMARK    1  A    between atoms: C_6  and  C_7
REMARK    2  A    between atoms: C_9  and  O_15
REMARK    3  A    between atoms: C_10  and  C_12
REMARK    4  A    between atoms: O_15  and  C_16
REMARK    5  A    between atoms: C_16  and  C_17
REMARK                            x       y       z     vdW  Elec       q    Type
REMARK                         _______ _______ _______ _____ _____    ______ ____
ROOT
ATOM      1  C   UNL     1      -0.238   0.568   0.000  0.00  0.00    +0.000 A 
ATOM      2  C   UNL     1       0.429   0.083   0.000  0.00  0.00    +0.000 A 
ATOM      3  C   UNL     1       0.174  -0.702   0.000  0.00  0.00    +0.000 A 
ATOM      4  C   UNL     1      -0.651  -0.702   0.000  0.00  0.00    +0.000 A 
ATOM      5  S   UNL     1      -0.906   0.083   0.000  0.00  0.00    +0.000 S 
ATOM      6 BR   UNL     1       1.214   0.338   0.000  0.00  0.00    +0.000 Br
ENDROOT
BRANCH   1  12
ATOM      7  C   UNL     1      -0.953   1.805   0.000  0.00  0.00    +0.000 A 
ATOM      8  C   UNL     1      -0.953   2.630   0.000  0.00  0.00    +0.000 A 
ATOM      9  C   UNL     1      -0.238   3.043   0.000  0.00  0.00    +0.000 A 
ATOM     10  C   UNL     1       0.476   2.630   0.000  0.00  0.00    +0.000 A 
ATOM     11  C   UNL     1       0.476   1.805   0.000  0.00  0.00    +0.000 A 
ATOM     12  C   UNL     1      -0.238   1.393   0.000  0.00  0.00    +0.000 A 
ATOM     13  O   UNL     1      -0.238   3.868   0.000  0.00  0.00    +0.000 OA
ENDBRANCH   1  12
BRANCH   4  14
ATOM     14  C   UNL     1      -1.136  -1.369   0.000  0.00  0.00    +0.000 C 
ATOM     15  O   UNL     1      -1.956  -1.283   0.000  0.00  0.00    +0.000 OA
ATOM     16  O   UNL     1      -0.800  -2.123   0.000  0.00  0.00    +0.000 OA
ENDBRANCH   4  14
BRANCH   3  17
ATOM     17  O   UNL     1       0.659  -1.369   0.000  0.00  0.00    +0.000 OA
BRANCH  17  18
ATOM     18  C   UNL     1       0.324  -2.123   0.000  0.00  0.00    +0.000 C 
BRANCH  18  19
ATOM     19  C   UNL     1       0.809  -2.790   0.000  0.00  0.00    +0.000 C 
ATOM     20  O   UNL     1       0.473  -3.544   0.000  0.00  0.00    +0.000 OA
ATOM     21  O   UNL     1       1.629  -2.704   0.000  0.00  0.00    +0.000 OA
ENDBRANCH  18  19
ENDBRANCH  17  18
ENDBRANCH   3  17
TORSDOF 5
