REMARK  Name = 695
REMARK  5 active torsions:
REMARK  status: ('A' for Active; 'I' for Inactive)
REMARK    1  A    between atoms: S_2  and  C_11
REMARK    2  A    between atoms: N_8  and  C_10
REMARK    3  A    between atoms: N_8  and  C_14
REMARK    4  A    between atoms: C_12  and  C_18
REMARK    5  A    between atoms: C_14  and  C_17
REMARK                            x       y       z     vdW  Elec       q    Type
REMARK                         _______ _______ _______ _____ _____    ______ ____
ROOT
ATOM      1 CL   UNL     1       1.650   1.538   0.000  0.00  0.00    +0.000 Cl
ATOM      2  C   UNL     1       3.079  -0.112   0.000  0.00  0.00    +0.000 A 
ATOM      3  C   UNL     1       3.079   1.538   0.000  0.00  0.00    +0.000 A 
ATOM      4  C   UNL     1       3.793   0.301   0.000  0.00  0.00    +0.000 A 
ATOM      5  C   UNL     1       3.793   1.126   0.000  0.00  0.00    +0.000 A 
ATOM      6  C   UNL     1       2.365   0.301   0.000  0.00  0.00    +0.000 A 
ATOM      7  C   UNL     1       2.365   1.126   0.000  0.00  0.00    +0.000 A 
ENDROOT
BRANCH   3   8
ATOM      8  S   UNL     1       3.079   2.363   0.000  0.00  0.00    +0.000 S 
ATOM      9  O   UNL     1       2.254   2.363   0.000  0.00  0.00    +0.000 OA
ATOM     10  O   UNL     1       3.904   2.363   0.000  0.00  0.00    +0.000 OA
ATOM     11  N   UNL     1       3.079   3.188   0.000  0.00  0.00    +0.000 NA
ENDBRANCH   3   8
BRANCH   4  14
ATOM     12  O   UNL     1       5.222   0.301   0.000  0.00  0.00    +0.000 OA
ATOM     13  O   UNL     1       4.508  -0.937   0.000  0.00  0.00    +0.000 OA
ATOM     14  C   UNL     1       4.508  -0.112   0.000  0.00  0.00    +0.000 C 
ENDBRANCH   4  14
BRANCH   2  15
ATOM     15  N   UNL     1       3.079  -0.937   0.000  0.00  0.00    +0.000 NA
BRANCH  15  16
ATOM     16  C   UNL     1       2.365  -1.349   0.000  0.00  0.00    +0.000 C 
BRANCH  16  18
ATOM     17  O   UNL     1       3.032  -2.659   0.000  0.00  0.00    +0.000 OA
ATOM     18  C   UNL     1       2.365  -2.174   0.000  0.00  0.00    +0.000 A 
ATOM     19  C   UNL     1       1.697  -2.659   0.000  0.00  0.00    +0.000 A 
ATOM     20  C   UNL     1       1.952  -3.444   0.000  0.00  0.00    +0.000 A 
ATOM     21  C   UNL     1       2.777  -3.444   0.000  0.00  0.00    +0.000 A 
ENDBRANCH  16  18
ENDBRANCH  15  16
ENDBRANCH   2  15
TORSDOF 5
