REMARK  Name = 696
REMARK  3 active torsions:
REMARK  status: ('A' for Active; 'I' for Inactive)
REMARK    1  A    between atoms: C_1  and  C_7
REMARK    2  A    between atoms: C_12  and  C_13
REMARK    3  A    between atoms: C_17  and  C_20
REMARK                            x       y       z     vdW  Elec       q    Type
REMARK                         _______ _______ _______ _____ _____    ______ ____
ROOT
ATOM      1  C   UNL     1      -0.823  -0.730   0.000  0.00  0.00    +0.000 A 
ATOM      2  C   UNL     1      -1.235  -1.445   0.000  0.00  0.00    +0.000 A 
ATOM      3  C   UNL     1      -2.060  -1.445   0.000  0.00  0.00    +0.000 A 
ATOM      4  C   UNL     1      -2.473  -0.730   0.000  0.00  0.00    +0.000 A 
ATOM      5  C   UNL     1      -2.060  -0.016   0.000  0.00  0.00    +0.000 A 
ATOM      6  C   UNL     1      -1.235  -0.016   0.000  0.00  0.00    +0.000 A 
ATOM      7  O   UNL     1      -0.823   0.699   0.000  0.00  0.00    +0.000 OA
ENDROOT
BRANCH   1  16
ATOM      8  C   UNL     1       2.701  -0.318   0.000  0.00  0.00    +0.000 A 
ATOM      9  C   UNL     1       2.701  -1.143   0.000  0.00  0.00    +0.000 A 
ATOM     10  C   UNL     1       1.986  -1.555   0.000  0.00  0.00    +0.000 A 
ATOM     11  C   UNL     1       1.272  -1.143   0.000  0.00  0.00    +0.000 A 
ATOM     12  C   UNL     1       1.272  -0.318   0.000  0.00  0.00    +0.000 A 
ATOM     13  C   UNL     1       1.986   0.095   0.000  0.00  0.00    +0.000 A 
ATOM     14  N   UNL     1       0.487  -1.398   0.000  0.00  0.00    +0.000 NA
ATOM     15  C   UNL     1       0.487  -0.063   0.000  0.00  0.00    +0.000 A 
ATOM     16  C   UNL     1       0.002  -0.730   0.000  0.00  0.00    +0.000 A 
BRANCH   8  17
ATOM     17  C   UNL     1       3.415   0.095   0.000  0.00  0.00    +0.000 C 
ATOM     18  N   UNL     1       4.130  -0.318   0.000  0.00  0.00    +0.000 NA
ATOM     19  N   UNL     1       3.415   0.920   0.000  0.00  0.00    +0.000 NA
ENDBRANCH   8  17
ENDBRANCH   1  16
BRANCH   5  20
ATOM     20  C   UNL     1      -2.473   0.699   0.000  0.00  0.00    +0.000 A 
ATOM     21  C   UNL     1      -3.298   0.699   0.000  0.00  0.00    +0.000 A 
ATOM     22  C   UNL     1      -3.710   1.413   0.000  0.00  0.00    +0.000 A 
ATOM     23  C   UNL     1      -3.298   2.127   0.000  0.00  0.00    +0.000 A 
ATOM     24  C   UNL     1      -2.473   2.127   0.000  0.00  0.00    +0.000 A 
ATOM     25  C   UNL     1      -2.060   1.413   0.000  0.00  0.00    +0.000 A 
ENDBRANCH   5  20
TORSDOF 3
