REMARK  Name = 697
REMARK  2 active torsions:
REMARK  status: ('A' for Active; 'I' for Inactive)
REMARK    1  A    between atoms: C_4  and  C_8
REMARK    2  A    between atoms: C_16  and  C_18
REMARK                            x       y       z     vdW  Elec       q    Type
REMARK                         _______ _______ _______ _____ _____    ______ ____
ROOT
ATOM      1  C   UNL     1      -0.331   0.014   0.000  0.00  0.00    +0.000 A 
ATOM      2  C   UNL     1       0.154  -0.653   0.000  0.00  0.00    +0.000 A 
ATOM      3  C   UNL     1       0.938  -0.399   0.000  0.00  0.00    +0.000 A 
ATOM      4  C   UNL     1       0.938   0.426   0.000  0.00  0.00    +0.000 A 
ATOM      5  O   UNL     1       0.154   0.681   0.000  0.00  0.00    +0.000 OA
ATOM      6  C   UNL     1       1.653  -0.811   0.000  0.00  0.00    +0.000 A 
ATOM      7  C   UNL     1       2.367  -0.399   0.000  0.00  0.00    +0.000 A 
ATOM      8  C   UNL     1       2.367   0.426   0.000  0.00  0.00    +0.000 A 
ATOM      9  C   UNL     1       1.653   0.839   0.000  0.00  0.00    +0.000 A 
ATOM     10  O   UNL     1       3.082  -0.811   0.000  0.00  0.00    +0.000 OA
ENDROOT
BRANCH   1  14
ATOM     11  C   UNL     1      -2.806   0.014   0.000  0.00  0.00    +0.000 A 
ATOM     12  C   UNL     1      -2.394   0.728   0.000  0.00  0.00    +0.000 A 
ATOM     13  C   UNL     1      -1.569   0.728   0.000  0.00  0.00    +0.000 A 
ATOM     14  C   UNL     1      -1.156   0.014   0.000  0.00  0.00    +0.000 A 
ATOM     15  C   UNL     1      -1.569  -0.701   0.000  0.00  0.00    +0.000 A 
ATOM     16  C   UNL     1      -2.394  -0.701   0.000  0.00  0.00    +0.000 A 
ATOM     17  O   UNL     1      -3.631   0.014   0.000  0.00  0.00    +0.000 OA
ENDBRANCH   1  14
BRANCH   9  18
ATOM     18  C   UNL     1       1.653   1.664   0.000  0.00  0.00    +0.000 C 
ATOM     19  N   UNL     1       1.653   2.489   0.000  0.00  0.00    +0.000 NA
ENDBRANCH   9  18
TORSDOF 2
