REMARK  Name = 697
REMARK  1 active torsions:
REMARK  status: ('A' for Active; 'I' for Inactive)
REMARK    1  A    between atoms: N_4  and  C_11
REMARK                            x       y       z     vdW  Elec       q    Type
REMARK                         _______ _______ _______ _____ _____    ______ ____
ROOT
ATOM      1 CL   UNL     1       2.241  -0.375   0.000  0.00  0.00    +0.000 Cl
ATOM      2  S   UNL     1       5.647  -1.200   0.000  0.00  0.00    +0.000 S 
ATOM      3  N   UNL     1       5.165  -0.536   0.000  0.00  0.00    +0.000 NA
ATOM      4  N   UNL     1       5.165  -1.864   0.000  0.00  0.00    +0.000 NA
ATOM      5  C   UNL     1       3.670  -0.375   0.000  0.00  0.00    +0.000 A 
ATOM      6  C   UNL     1       4.385  -0.788   0.000  0.00  0.00    +0.000 A 
ATOM      7  C   UNL     1       4.385  -1.613   0.000  0.00  0.00    +0.000 A 
ATOM      8  C   UNL     1       2.956  -0.788   0.000  0.00  0.00    +0.000 A 
ATOM      9  C   UNL     1       3.670  -2.025   0.000  0.00  0.00    +0.000 A 
ATOM     10  C   UNL     1       2.956  -1.613   0.000  0.00  0.00    +0.000 A 
ENDROOT
BRANCH   5  12
ATOM     11  N   UNL     1       2.869   1.683   0.000  0.00  0.00    +0.000 NA
ATOM     12  N   UNL     1       3.670   0.450   0.000  0.00  0.00    +0.000 NA
ATOM     13  N   UNL     1       2.202   0.527   0.000  0.00  0.00    +0.000 NA
ATOM     14  C   UNL     1       2.062   1.854   0.000  0.00  0.00    +0.000 C 
ATOM     15  C   UNL     1       1.650   1.140   0.000  0.00  0.00    +0.000 C 
ATOM     16  C   UNL     1       2.956   0.862   0.000  0.00  0.00    +0.000 C 
ENDBRANCH   5  12
TORSDOF 1
