REMARK  Name = 698
REMARK  7 active torsions:
REMARK  status: ('A' for Active; 'I' for Inactive)
REMARK    1  A    between atoms: C_2  and  C_4
REMARK    2  A    between atoms: C_5  and  C_6
REMARK    3  A    between atoms: C_12  and  C_13
REMARK    4  A    between atoms: C_12  and  C_17
REMARK    5  A    between atoms: C_13  and  C_14
REMARK    6  A    between atoms: C_21  and  C_23
REMARK    7  A    between atoms: C_28  and  C_29
REMARK                            x       y       z     vdW  Elec       q    Type
REMARK                         _______ _______ _______ _____ _____    ______ ____
ROOT
ATOM      1  C   UNL     1      -0.993   1.318   0.000  0.00  0.00    +0.000 C 
ATOM      2  C   UNL     1      -1.661   0.833   0.000  0.00  0.00    +0.000 C 
ATOM      3  C   UNL     1      -0.326   0.833   0.000  0.00  0.00    +0.000 C 
ATOM      4  C   UNL     1      -0.581   0.048   0.000  0.00  0.00    +0.000 C 
ATOM      5  N   UNL     1      -1.406   0.048   0.000  0.00  0.00    +0.000 N 
ATOM      6  C   UNL     1      -1.891  -0.619   0.000  0.00  0.00    +0.000 C 
ATOM      7  O   UNL     1      -1.555  -1.373   0.000  0.00  0.00    +0.000 OA
ENDROOT
BRANCH   6   8
ATOM      8  C   UNL     1      -2.711  -0.533   0.000  0.00  0.00    +0.000 A 
ATOM      9  C   UNL     1      -3.047   0.221   0.000  0.00  0.00    +0.000 A 
ATOM     10  C   UNL     1      -3.867   0.307   0.000  0.00  0.00    +0.000 A 
ATOM     11  C   UNL     1      -3.196  -1.200   0.000  0.00  0.00    +0.000 A 
ATOM     12  C   UNL     1      -4.017  -1.114   0.000  0.00  0.00    +0.000 A 
ATOM     13  C   UNL     1      -4.352  -0.360   0.000  0.00  0.00    +0.000 A 
BRANCH  13  14
ATOM     14  C   UNL     1      -5.173  -0.274   0.000  0.00  0.00    +0.000 C 
ATOM     15  C   UNL     1      -5.993  -0.188   0.000  0.00  0.00    +0.000 C 
ATOM     16  C   UNL     1      -5.086   0.546   0.000  0.00  0.00    +0.000 C 
ATOM     17  C   UNL     1      -5.259  -1.095   0.000  0.00  0.00    +0.000 C 
ENDBRANCH  13  14
ENDBRANCH   6   8
BRANCH   2  18
ATOM     18  C   UNL     1      -2.445   1.088   0.000  0.00  0.00    +0.000 A 
ATOM     19  N   UNL     1      -2.700   1.872   0.000  0.00  0.00    +0.000 NA
ATOM     20  C   UNL     1      -3.525   1.872   0.000  0.00  0.00    +0.000 A 
ATOM     21  C   UNL     1      -3.780   1.088   0.000  0.00  0.00    +0.000 A 
ATOM     22  S   UNL     1      -3.113   0.603   0.000  0.00  0.00    +0.000 S 
ENDBRANCH   2  18
BRANCH   1  24
ATOM     23  O   UNL     1      -0.279   2.555   0.000  0.00  0.00    +0.000 OA
ATOM     24  C   UNL     1      -0.993   2.143   0.000  0.00  0.00    +0.000 C 
ATOM     25  O   UNL     1      -1.708   2.555   0.000  0.00  0.00    +0.000 OA
ENDBRANCH   1  24
BRANCH   4  26
ATOM     26  C   UNL     1       0.226  -0.123   0.000  0.00  0.00    +0.000 C 
ATOM     27  O   UNL     1       0.894  -0.608   0.000  0.00  0.00    +0.000 OA
ATOM     28  O   UNL     1       0.778   0.490   0.000  0.00  0.00    +0.000 OA
ENDBRANCH   4  26
BRANCH   4  29
ATOM     29  C   UNL     1      -0.667  -0.772   0.000  0.00  0.00    +0.000 C 
BRANCH  29  30
ATOM     30  C   UNL     1       0.000  -1.257   0.000  0.00  0.00    +0.000 C 
ATOM     31  C   UNL     1      -0.086  -2.078   0.000  0.00  0.00    +0.000 C 
ATOM     32  C   UNL     1       0.754  -0.922   0.000  0.00  0.00    +0.000 C 
ENDBRANCH  29  30
ENDBRANCH   4  29
TORSDOF 7
