REMARK  Name = 699
REMARK  7 active torsions:
REMARK  status: ('A' for Active; 'I' for Inactive)
REMARK    1  A    between atoms: C_2  and  C_5
REMARK    2  A    between atoms: C_10  and  C_11
REMARK    3  A    between atoms: C_14  and  C_15
REMARK    4  A    between atoms: C_14  and  C_18
REMARK    5  A    between atoms: C_18  and  C_19
REMARK    6  A    between atoms: C_23  and  C_24
REMARK    7  A    between atoms: C_27  and  C_28
REMARK                            x       y       z     vdW  Elec       q    Type
REMARK                         _______ _______ _______ _____ _____    ______ ____
ROOT
ATOM      1  C   UNL     1      -0.826   0.070   0.000  0.00  0.00    +0.000 C 
ATOM      2  O   UNL     1      -0.213  -0.483   0.000  0.00  0.00    +0.000 OA
ATOM      3  N   UNL     1      -1.611  -0.185   0.000  0.00  0.00    +0.000 N 
ATOM      4  C   UNL     1      -1.866  -0.970   0.000  0.00  0.00    +0.000 C 
ATOM      5  C   UNL     1      -2.691  -0.970   0.000  0.00  0.00    +0.000 C 
ATOM      6  C   UNL     1      -2.946  -0.185   0.000  0.00  0.00    +0.000 C 
ATOM      7  C   UNL     1      -2.278   0.299   0.000  0.00  0.00    +0.000 C 
ENDROOT
BRANCH   1  13
ATOM      8  C   UNL     1      -0.311   2.490   0.000  0.00  0.00    +0.000 A 
ATOM      9  C   UNL     1       0.302   1.938   0.000  0.00  0.00    +0.000 A 
ATOM     10  C   UNL     1       0.130   1.131   0.000  0.00  0.00    +0.000 A 
ATOM     11  C   UNL     1      -1.096   2.235   0.000  0.00  0.00    +0.000 A 
ATOM     12  C   UNL     1      -1.268   1.429   0.000  0.00  0.00    +0.000 A 
ATOM     13  C   UNL     1      -0.654   0.876   0.000  0.00  0.00    +0.000 A 
BRANCH   8  15
ATOM     14  F   UNL     1       0.032   4.104   0.000  0.00  0.00    +0.000 F 
ATOM     15  C   UNL     1      -0.140   3.297   0.000  0.00  0.00    +0.000 C 
ATOM     16  F   UNL     1      -0.947   3.469   0.000  0.00  0.00    +0.000 F 
ATOM     17  F   UNL     1       0.667   3.126   0.000  0.00  0.00    +0.000 F 
ENDBRANCH   8  15
ENDBRANCH   1  13
BRANCH   7  18
ATOM     18  C   UNL     1      -2.278   1.125   0.000  0.00  0.00    +0.000 A 
ATOM     19  S   UNL     1      -2.946   1.609   0.000  0.00  0.00    +0.000 S 
ATOM     20  C   UNL     1      -1.611   1.609   0.000  0.00  0.00    +0.000 A 
ATOM     21  C   UNL     1      -1.866   2.394   0.000  0.00  0.00    +0.000 A 
ATOM     22  C   UNL     1      -2.691   2.394   0.000  0.00  0.00    +0.000 A 
ENDBRANCH   7  18
BRANCH   4  23
ATOM     23  C   UNL     1      -1.059  -1.142   0.000  0.00  0.00    +0.000 C 
ATOM     24  O   UNL     1      -0.507  -0.528   0.000  0.00  0.00    +0.000 OA
ATOM     25  O   UNL     1      -0.804  -1.926   0.000  0.00  0.00    +0.000 OA
ENDBRANCH   4  23
BRANCH   6  26
ATOM     26  C   UNL     1      -3.730   0.070   0.000  0.00  0.00    +0.000 C 
ATOM     27  O   UNL     1      -4.343  -0.483   0.000  0.00  0.00    +0.000 OA
ATOM     28  O   UNL     1      -3.902   0.876   0.000  0.00  0.00    +0.000 OA
ENDBRANCH   6  26
BRANCH   4  29
ATOM     29  C   UNL     1      -1.952  -1.791   0.000  0.00  0.00    +0.000 C 
BRANCH  29  30
ATOM     30  C   UNL     1      -2.705  -2.126   0.000  0.00  0.00    +0.000 C 
ATOM     31  C   UNL     1      -2.792  -2.947   0.000  0.00  0.00    +0.000 C 
ATOM     32  C   UNL     1      -3.373  -1.641   0.000  0.00  0.00    +0.000 C 
ENDBRANCH  29  30
ENDBRANCH   4  29
TORSDOF 7
