REMARK  Name = 6BD
REMARK  4 active torsions:
REMARK  status: ('A' for Active; 'I' for Inactive)
REMARK    1  A    between atoms: N_14  and  O_15
REMARK    2  A    between atoms: O_15  and  C_16
REMARK    3  A    between atoms: C_16  and  C_17
REMARK    4  A    between atoms: C_17  and  C_19
REMARK                            x       y       z     vdW  Elec       q    Type
REMARK                         _______ _______ _______ _____ _____    ______ ____
ROOT
ATOM      1  C   UNL     1      -1.322  -0.667   0.000  0.00  0.00    +0.000 A 
ATOM      2  C   UNL     1      -1.577  -1.452   0.000  0.00  0.00    +0.000 A 
ATOM      3  C   UNL     1      -2.384  -1.623   0.000  0.00  0.00    +0.000 A 
ATOM      4  C   UNL     1      -2.936  -1.010   0.000  0.00  0.00    +0.000 A 
ATOM      5  C   UNL     1      -2.681  -0.226   0.000  0.00  0.00    +0.000 A 
ATOM      6  C   UNL     1      -1.874  -0.054   0.000  0.00  0.00    +0.000 A 
ATOM      7  C   UNL     1      -1.462   0.660   0.000  0.00  0.00    +0.000 A 
ATOM      8  C   UNL     1      -1.717   1.445   0.000  0.00  0.00    +0.000 A 
ATOM      9  C   UNL     1      -1.165   2.058   0.000  0.00  0.00    +0.000 A 
ATOM     10  C   UNL     1      -0.358   1.887   0.000  0.00  0.00    +0.000 A 
ATOM     11  C   UNL     1      -0.103   1.102   0.000  0.00  0.00    +0.000 A 
ATOM     12  C   UNL     1      -0.655   0.489   0.000  0.00  0.00    +0.000 A 
ATOM     13  C   UNL     1      -0.569  -0.332   0.000  0.00  0.00    +0.000 C 
ATOM     14  N   UNL     1       0.146  -0.744   0.000  0.00  0.00    +0.000 NA
ENDROOT
BRANCH  14  15
ATOM     15  O   UNL     1       0.860  -0.332   0.000  0.00  0.00    +0.000 OA
BRANCH  15  16
ATOM     16  C   UNL     1       1.575  -0.744   0.000  0.00  0.00    +0.000 C 
BRANCH  16  17
ATOM     17  C   UNL     1       2.289  -0.332   0.000  0.00  0.00    +0.000 C 
ATOM     18  C   UNL     1       2.289   0.493   0.000  0.00  0.00    +0.000 C 
BRANCH  17  19
ATOM     19  C   UNL     1       3.004  -0.744   0.000  0.00  0.00    +0.000 C 
ATOM     20  O   UNL     1       3.718  -0.332   0.000  0.00  0.00    +0.000 OA
ATOM     21  O   UNL     1       3.004  -1.569   0.000  0.00  0.00    +0.000 OA
ENDBRANCH  17  19
ENDBRANCH  16  17
ENDBRANCH  15  16
ENDBRANCH  14  15
TORSDOF 4
