REMARK  Name = 6C3
REMARK  2 active torsions:
REMARK  status: ('A' for Active; 'I' for Inactive)
REMARK    1  A    between atoms: C_4  and  C_12
REMARK    2  A    between atoms: C_5  and  C_21
REMARK                            x       y       z     vdW  Elec       q    Type
REMARK                         _______ _______ _______ _____ _____    ______ ____
ROOT
ATOM      1  C   UNL     1      -1.989  -4.240   0.000  0.00  0.00    +0.000 A 
ATOM      2  C   UNL     1      -1.989  -3.415   0.000  0.00  0.00    +0.000 A 
ATOM      3  C   UNL     1      -2.703  -3.002   0.000  0.00  0.00    +0.000 A 
ATOM      4  C   UNL     1      -1.274  -3.002   0.000  0.00  0.00    +0.000 A 
ATOM      5  C   UNL     1      -0.560  -3.415   0.000  0.00  0.00    +0.000 A 
ATOM      6  C   UNL     1      -0.560  -4.240   0.000  0.00  0.00    +0.000 A 
ATOM      7  C   UNL     1      -3.418  -3.415   0.000  0.00  0.00    +0.000 A 
ATOM      8  C   UNL     1      -3.418  -4.240   0.000  0.00  0.00    +0.000 A 
ATOM      9  C   UNL     1      -2.703  -4.652   0.000  0.00  0.00    +0.000 A 
ATOM     10  N   UNL     1      -1.274  -4.652   0.000  0.00  0.00    +0.000 NA
ATOM     11 CL   UNL     1      -4.132  -3.002   0.000  0.00  0.00    +0.000 Cl
ATOM     12  O   UNL     1       0.155  -4.652   0.000  0.00  0.00    +0.000 OA
ENDROOT
BRANCH   4  18
ATOM     13  C   UNL     1      -1.989  -1.765   0.000  0.00  0.00    +0.000 A 
ATOM     14  C   UNL     1      -1.989  -0.940   0.000  0.00  0.00    +0.000 A 
ATOM     15  C   UNL     1      -1.274  -0.527   0.000  0.00  0.00    +0.000 A 
ATOM     16  C   UNL     1      -0.560  -0.940   0.000  0.00  0.00    +0.000 A 
ATOM     17  C   UNL     1      -0.560  -1.765   0.000  0.00  0.00    +0.000 A 
ATOM     18  C   UNL     1      -1.274  -2.178   0.000  0.00  0.00    +0.000 A 
ENDBRANCH   4  18
BRANCH   5  21
ATOM     19  C   UNL     1       0.908  -3.338   0.000  0.00  0.00    +0.000 A 
ATOM     20  C   UNL     1       2.281  -2.811   0.000  0.00  0.00    +0.000 C 
ATOM     21  C   UNL     1       0.155  -3.002   0.000  0.00  0.00    +0.000 A 
ATOM     22  O   UNL     1       0.241  -2.182   0.000  0.00  0.00    +0.000 OA
ATOM     23  N   UNL     1       1.048  -2.010   0.000  0.00  0.00    +0.000 NA
ATOM     24  C   UNL     1       1.460  -2.725   0.000  0.00  0.00    +0.000 A 
ENDBRANCH   5  21
TORSDOF 2
