REMARK  Name = 6CP
REMARK  4 active torsions:
REMARK  status: ('A' for Active; 'I' for Inactive)
REMARK    1  A    between atoms: C_3  and  C_4
REMARK    2  A    between atoms: C_3  and  O_16
REMARK    3  A    between atoms: C_15  and  O_16
REMARK    4  A    between atoms: N_22  and  C_23
REMARK                            x       y       z     vdW  Elec       q    Type
REMARK                         _______ _______ _______ _____ _____    ______ ____
ROOT
ATOM      1  C   UNL     1       0.117   1.472   0.000  0.00  0.00    +0.000 A 
ATOM      2  C   UNL     1      -2.581   1.060   0.000  0.00  0.00    +0.000 A 
ATOM      3  N   UNL     1       0.117   0.647   0.000  0.00  0.00    +0.000 NA
ATOM      4  C   UNL     1      -0.597   0.235   0.000  0.00  0.00    +0.000 A 
ATOM      5  C   UNL     1      -1.312   0.647   0.000  0.00  0.00    +0.000 A 
ATOM      6  N   UNL     1      -2.096   0.392   0.000  0.00  0.00    +0.000 NA
ATOM      7  N   UNL     1      -2.096   1.727   0.000  0.00  0.00    +0.000 NA
ATOM      8  C   UNL     1      -1.312   1.472   0.000  0.00  0.00    +0.000 A 
ATOM      9  N   UNL     1      -0.597   1.885   0.000  0.00  0.00    +0.000 NA
ATOM     10  N   UNL     1       0.832   1.885   0.000  0.00  0.00    +0.000 NA
ENDROOT
BRANCH  10  15
ATOM     11  C   UNL     1       0.117   3.947   0.000  0.00  0.00    +0.000 A 
ATOM     12  C   UNL     1       0.832   4.360   0.000  0.00  0.00    +0.000 A 
ATOM     13  C   UNL     1       1.546   3.947   0.000  0.00  0.00    +0.000 A 
ATOM     14  C   UNL     1       1.546   3.122   0.000  0.00  0.00    +0.000 A 
ATOM     15  C   UNL     1       0.832   2.710   0.000  0.00  0.00    +0.000 A 
ATOM     16  C   UNL     1       0.117   3.122   0.000  0.00  0.00    +0.000 A 
ATOM     17 CL   UNL     1      -0.597   4.360   0.000  0.00  0.00    +0.000 Cl
ENDBRANCH  10  15
BRANCH   4  18
ATOM     18  O   UNL     1      -0.597  -0.590   0.000  0.00  0.00    +0.000 OA
BRANCH  18  19
ATOM     19  C   UNL     1      -1.312  -1.003   0.000  0.00  0.00    +0.000 C 
BRANCH  19  20
ATOM     20  C   UNL     1      -1.312  -1.828   0.000  0.00  0.00    +0.000 C 
ATOM     21  C   UNL     1      -0.597  -2.240   0.000  0.00  0.00    +0.000 C 
ATOM     22  C   UNL     1      -0.597  -3.065   0.000  0.00  0.00    +0.000 C 
ATOM     23  C   UNL     1      -1.312  -3.478   0.000  0.00  0.00    +0.000 C 
ATOM     24  C   UNL     1      -2.026  -3.065   0.000  0.00  0.00    +0.000 C 
ATOM     25  C   UNL     1      -2.026  -2.240   0.000  0.00  0.00    +0.000 C 
ENDBRANCH  19  20
ENDBRANCH  18  19
ENDBRANCH   4  18
TORSDOF 4
