REMARK  Name = 6DE
REMARK  4 active torsions:
REMARK  status: ('A' for Active; 'I' for Inactive)
REMARK    1  A    between atoms: C_2  and  O_3
REMARK    2  A    between atoms: C_2  and  C_6
REMARK    3  A    between atoms: O_3  and  C_4
REMARK    4  A    between atoms: N_12  and  C_13
REMARK                            x       y       z     vdW  Elec       q    Type
REMARK                         _______ _______ _______ _____ _____    ______ ____
ROOT
ATOM      1  C   UNL     1      -0.032   0.488   0.000  0.00  0.00    +0.000 A 
ATOM      2  C   UNL     1       0.636   0.003   0.000  0.00  0.00    +0.000 A 
ATOM      3  C   UNL     1       1.420   0.258   0.000  0.00  0.00    +0.000 C 
ATOM      4  C   UNL     1      -0.699   0.003   0.000  0.00  0.00    +0.000 A 
ATOM      5  C   UNL     1      -1.484   0.258   0.000  0.00  0.00    +0.000 C 
ATOM      6  N   UNL     1      -0.444  -0.781   0.000  0.00  0.00    +0.000 NA
ATOM      7  N   UNL     1       0.381  -0.781   0.000  0.00  0.00    +0.000 N 
ENDROOT
BRANCH   7   8
ATOM      8  C   UNL     1       0.866  -1.449   0.000  0.00  0.00    +0.000 A 
ATOM      9  C   UNL     1       1.686  -1.363   0.000  0.00  0.00    +0.000 A 
ATOM     10 CL   UNL     1       2.022  -0.609   0.000  0.00  0.00    +0.000 Cl
ATOM     11  C   UNL     1       2.171  -2.030   0.000  0.00  0.00    +0.000 A 
ATOM     12  C   UNL     1       1.835  -2.784   0.000  0.00  0.00    +0.000 A 
ATOM     13  C   UNL     1       1.015  -2.870   0.000  0.00  0.00    +0.000 A 
ATOM     14  C   UNL     1       0.530  -2.202   0.000  0.00  0.00    +0.000 A 
ENDBRANCH   7   8
BRANCH   1  16
ATOM     15  O   UNL     1       0.683   1.726   0.000  0.00  0.00    +0.000 OA
ATOM     16  C   UNL     1      -0.032   1.313   0.000  0.00  0.00    +0.000 C 
BRANCH  16  17
ATOM     17  O   UNL     1      -0.746   1.726   0.000  0.00  0.00    +0.000 OA
BRANCH  17  18
ATOM     18  C   UNL     1      -0.746   2.551   0.000  0.00  0.00    +0.000 C 
ATOM     19  C   UNL     1      -1.461   2.963   0.000  0.00  0.00    +0.000 C 
ENDBRANCH  17  18
ENDBRANCH  16  17
ENDBRANCH   1  16
TORSDOF 4
