REMARK  Name = 6EA
REMARK  6 active torsions:
REMARK  status: ('A' for Active; 'I' for Inactive)
REMARK    1  A    between atoms: C_4  and  C_7
REMARK    2  A    between atoms: C_13  and  O_17
REMARK    3  A    between atoms: O_17  and  C_18
REMARK    4  A    between atoms: C_18  and  C_19
REMARK    5  A    between atoms: C_19  and  C_21
REMARK    6  A    between atoms: C_21  and  C_22
REMARK                            x       y       z     vdW  Elec       q    Type
REMARK                         _______ _______ _______ _____ _____    ______ ____
ROOT
ATOM      1  C   UNL     1      -2.901   1.620   0.000  0.00  0.00    +0.000 A 
ATOM      2  C   UNL     1      -2.646   0.835   0.000  0.00  0.00    +0.000 A 
ATOM      3  C   UNL     1      -1.839   0.664   0.000  0.00  0.00    +0.000 A 
ATOM      4  C   UNL     1      -1.287   1.277   0.000  0.00  0.00    +0.000 A 
ATOM      5  C   UNL     1      -1.542   2.062   0.000  0.00  0.00    +0.000 A 
ATOM      6  N   UNL     1      -2.349   2.233   0.000  0.00  0.00    +0.000 NA
ATOM      7  C   UNL     1      -0.480   1.105   0.000  0.00  0.00    +0.000 A 
ATOM      8  C   UNL     1       0.072   1.718   0.000  0.00  0.00    +0.000 A 
ATOM      9  N   UNL     1      -0.183   2.503   0.000  0.00  0.00    +0.000 NA
ATOM     10  C   UNL     1      -0.990   2.675   0.000  0.00  0.00    +0.000 A 
ENDROOT
BRANCH   1  14
ATOM     11  N   UNL     1      -5.322   2.135   0.000  0.00  0.00    +0.000 NA
ATOM     12  C   UNL     1      -4.769   2.748   0.000  0.00  0.00    +0.000 A 
ATOM     13  C   UNL     1      -3.962   2.576   0.000  0.00  0.00    +0.000 A 
ATOM     14  C   UNL     1      -3.708   1.792   0.000  0.00  0.00    +0.000 A 
ATOM     15  C   UNL     1      -4.260   1.179   0.000  0.00  0.00    +0.000 A 
ATOM     16  C   UNL     1      -5.067   1.350   0.000  0.00  0.00    +0.000 A 
ENDBRANCH   1  14
BRANCH   7  17
ATOM     17  O   UNL     1      -0.225   0.321   0.000  0.00  0.00    +0.000 OA
BRANCH  17  18
ATOM     18  C   UNL     1       0.582   0.149   0.000  0.00  0.00    +0.000 C 
BRANCH  18  19
ATOM     19  C   UNL     1       0.837  -0.635   0.000  0.00  0.00    +0.000 C 
ATOM     20  N   UNL     1       0.285  -1.248   0.000  0.00  0.00    +0.000 NA
BRANCH  19  21
ATOM     21  C   UNL     1       1.644  -0.807   0.000  0.00  0.00    +0.000 C 
BRANCH  21  22
ATOM     22  C   UNL     1       1.899  -1.591   0.000  0.00  0.00    +0.000 A 
ATOM     23  C   UNL     1       1.414  -2.259   0.000  0.00  0.00    +0.000 A 
ATOM     24  N   UNL     1       1.899  -2.926   0.000  0.00  0.00    +0.000 NA
ATOM     25  C   UNL     1       2.684  -2.671   0.000  0.00  0.00    +0.000 A 
ATOM     26  C   UNL     1       2.684  -1.846   0.000  0.00  0.00    +0.000 A 
ATOM     27  C   UNL     1       3.398  -3.084   0.000  0.00  0.00    +0.000 A 
ATOM     28  C   UNL     1       4.113  -2.671   0.000  0.00  0.00    +0.000 A 
ATOM     29  C   UNL     1       4.113  -1.846   0.000  0.00  0.00    +0.000 A 
ATOM     30  C   UNL     1       3.398  -1.434   0.000  0.00  0.00    +0.000 A 
ENDBRANCH  21  22
ENDBRANCH  19  21
ENDBRANCH  18  19
ENDBRANCH  17  18
ENDBRANCH   7  17
TORSDOF 6
