REMARK  Name = 6IN
REMARK  9 active torsions:
REMARK  status: ('A' for Active; 'I' for Inactive)
REMARK    1  A    between atoms: C_1  and  O_22
REMARK    2  A    between atoms: N_7  and  C_10
REMARK    3  A    between atoms: C_9  and  C_18
REMARK    4  A    between atoms: C_10  and  C_11
REMARK    5  A    between atoms: C_18  and  C_19
REMARK    6  A    between atoms: O_22  and  C_23
REMARK    7  A    between atoms: C_23  and  C_24
REMARK    8  A    between atoms: C_24  and  C_25
REMARK    9  A    between atoms: C_25  and  C_26
REMARK                            x       y       z     vdW  Elec       q    Type
REMARK                         _______ _______ _______ _____ _____    ______ ____
ROOT
ATOM      1  C   UNL     1       0.849  -1.383   0.000  0.00  0.00    +0.000 A 
ATOM      2  C   UNL     1       0.135  -1.795   0.000  0.00  0.00    +0.000 A 
ATOM      3  C   UNL     1      -0.580  -1.383   0.000  0.00  0.00    +0.000 A 
ATOM      4  C   UNL     1      -0.580  -0.558   0.000  0.00  0.00    +0.000 A 
ATOM      5  C   UNL     1       0.135  -0.145   0.000  0.00  0.00    +0.000 A 
ATOM      6  C   UNL     1       0.849  -0.558   0.000  0.00  0.00    +0.000 A 
ATOM      7  N   UNL     1      -1.193  -0.006   0.000  0.00  0.00    +0.000 N 
ATOM      8  C   UNL     1      -0.857   0.748   0.000  0.00  0.00    +0.000 A 
ATOM      9  C   UNL     1      -0.037   0.662   0.000  0.00  0.00    +0.000 A 
ATOM     10  C   UNL     1      -1.270   1.462   0.000  0.00  0.00    +0.000 C 
ENDROOT
BRANCH   9  11
ATOM     11  C   UNL     1       0.515   1.275   0.000  0.00  0.00    +0.000 C 
BRANCH  11  12
ATOM     12  C   UNL     1       0.260   2.059   0.000  0.00  0.00    +0.000 C 
ATOM     13  N   UNL     1      -0.547   2.231   0.000  0.00  0.00    +0.000 NA
ATOM     14  O   UNL     1       0.812   2.673   0.000  0.00  0.00    +0.000 OA
ENDBRANCH  11  12
ENDBRANCH   9  11
BRANCH   7  15
ATOM     15  C   UNL     1      -2.000  -0.177   0.000  0.00  0.00    +0.000 C 
BRANCH  15  16
ATOM     16  C   UNL     1      -2.552   0.436   0.000  0.00  0.00    +0.000 A 
ATOM     17  C   UNL     1      -3.359   0.264   0.000  0.00  0.00    +0.000 A 
ATOM     18  C   UNL     1      -3.911   0.877   0.000  0.00  0.00    +0.000 A 
ATOM     19  C   UNL     1      -3.656   1.662   0.000  0.00  0.00    +0.000 A 
ATOM     20  C   UNL     1      -2.849   1.834   0.000  0.00  0.00    +0.000 A 
ATOM     21  C   UNL     1      -2.297   1.221   0.000  0.00  0.00    +0.000 A 
ENDBRANCH  15  16
ENDBRANCH   7  15
BRANCH   1  22
ATOM     22  O   UNL     1       1.564  -1.795   0.000  0.00  0.00    +0.000 OA
BRANCH  22  23
ATOM     23  C   UNL     1       2.278  -1.383   0.000  0.00  0.00    +0.000 C 
BRANCH  23  24
ATOM     24  C   UNL     1       2.993  -1.795   0.000  0.00  0.00    +0.000 C 
BRANCH  24  25
ATOM     25  C   UNL     1       3.707  -1.383   0.000  0.00  0.00    +0.000 C 
BRANCH  25  26
ATOM     26  C   UNL     1       4.421  -1.795   0.000  0.00  0.00    +0.000 C 
ATOM     27  O   UNL     1       5.136  -1.383   0.000  0.00  0.00    +0.000 OA
ATOM     28  O   UNL     1       4.421  -2.620   0.000  0.00  0.00    +0.000 OA
ENDBRANCH  25  26
ENDBRANCH  24  25
ENDBRANCH  23  24
ENDBRANCH  22  23
ENDBRANCH   1  22
TORSDOF 9
