REMARK  Name = 6IP
REMARK  3 active torsions:
REMARK  status: ('A' for Active; 'I' for Inactive)
REMARK    1  A    between atoms: C_6  and  C_7
REMARK    2  A    between atoms: C_7  and  C_8
REMARK    3  A    between atoms: C_8  and  C_9
REMARK                            x       y       z     vdW  Elec       q    Type
REMARK                         _______ _______ _______ _____ _____    ______ ____
ROOT
ATOM      1  C   UNL     1      -0.232  -0.371   0.000  0.00  0.00    +0.000 C 
ENDROOT
BRANCH   1   2
ATOM      2  C   UNL     1      -0.947   0.042   0.000  0.00  0.00    +0.000 A 
ATOM      3  C   UNL     1      -0.947   0.867   0.000  0.00  0.00    +0.000 A 
ATOM      4  C   UNL     1      -1.661   1.279   0.000  0.00  0.00    +0.000 A 
ATOM      5  C   UNL     1      -2.376   0.867   0.000  0.00  0.00    +0.000 A 
ATOM      6  C   UNL     1      -3.160   1.121   0.000  0.00  0.00    +0.000 A 
ATOM      7  C   UNL     1      -3.645   0.454   0.000  0.00  0.00    +0.000 A 
ATOM      8  N   UNL     1      -3.160  -0.213   0.000  0.00  0.00    +0.000 NA
ATOM      9  C   UNL     1      -2.376   0.042   0.000  0.00  0.00    +0.000 A 
ATOM     10  C   UNL     1      -1.661  -0.371   0.000  0.00  0.00    +0.000 A 
ENDBRANCH   1   2
BRANCH   1  11
ATOM     11  C   UNL     1      -0.232  -1.196   0.000  0.00  0.00    +0.000 C 
BRANCH  11  17
ATOM     12  N   UNL     1       1.197  -3.671   0.000  0.00  0.00    +0.000 NA
ATOM     13  C   UNL     1       1.197  -2.846   0.000  0.00  0.00    +0.000 A 
ATOM     14  C   UNL     1       1.911  -2.433   0.000  0.00  0.00    +0.000 A 
ATOM     15  C   UNL     1       1.911  -1.609   0.000  0.00  0.00    +0.000 A 
ATOM     16  C   UNL     1       1.197  -1.196   0.000  0.00  0.00    +0.000 A 
ATOM     17  C   UNL     1       0.482  -1.609   0.000  0.00  0.00    +0.000 A 
ATOM     18  N   UNL     1       0.482  -2.433   0.000  0.00  0.00    +0.000 NA
ENDBRANCH  11  17
ENDBRANCH   1  11
TORSDOF 3
