REMARK  Name = 6NH
REMARK  3 active torsions:
REMARK  status: ('A' for Active; 'I' for Inactive)
REMARK    1  A    between atoms: C_1  and  C_7
REMARK    2  A    between atoms: C_12  and  C_13
REMARK    3  A    between atoms: C_16  and  C_19
REMARK                            x       y       z     vdW  Elec       q    Type
REMARK                         _______ _______ _______ _____ _____    ______ ____
ROOT
ATOM      1  C   UNL     1       2.894   0.768   0.000  0.00  0.00    +0.000 A 
ATOM      2  C   UNL     1       2.894  -0.057   0.000  0.00  0.00    +0.000 A 
ATOM      3  C   UNL     1       2.180  -0.469   0.000  0.00  0.00    +0.000 A 
ATOM      4  C   UNL     1       1.465  -0.057   0.000  0.00  0.00    +0.000 A 
ATOM      5  C   UNL     1       1.465   0.768   0.000  0.00  0.00    +0.000 A 
ATOM      6  C   UNL     1       2.180   1.181   0.000  0.00  0.00    +0.000 A 
ATOM      7  N   UNL     1       0.681  -0.311   0.000  0.00  0.00    +0.000 NA
ATOM      8  N   UNL     1       0.681   1.023   0.000  0.00  0.00    +0.000 NA
ATOM      9  C   UNL     1       0.196   0.356   0.000  0.00  0.00    +0.000 A 
ENDROOT
BRANCH   9  10
ATOM     10  C   UNL     1      -0.629   0.356   0.000  0.00  0.00    +0.000 A 
ATOM     11  C   UNL     1      -1.114  -0.311   0.000  0.00  0.00    +0.000 A 
ATOM     12  O   UNL     1      -0.859  -1.096   0.000  0.00  0.00    +0.000 OA
ATOM     13  C   UNL     1      -1.899  -0.057   0.000  0.00  0.00    +0.000 A 
ATOM     14  N   UNL     1      -1.899   0.768   0.000  0.00  0.00    +0.000 NA
ATOM     15  N   UNL     1      -1.114   1.023   0.000  0.00  0.00    +0.000 NA
BRANCH  13  16
ATOM     16  C   UNL     1      -2.566  -0.541   0.000  0.00  0.00    +0.000 A 
ATOM     17  C   UNL     1      -2.480  -1.362   0.000  0.00  0.00    +0.000 A 
ATOM     18  C   UNL     1      -3.148  -1.847   0.000  0.00  0.00    +0.000 A 
ATOM     19  C   UNL     1      -3.901  -1.511   0.000  0.00  0.00    +0.000 A 
ATOM     20  C   UNL     1      -3.987  -0.691   0.000  0.00  0.00    +0.000 A 
ATOM     21  C   UNL     1      -3.320  -0.206   0.000  0.00  0.00    +0.000 A 
ENDBRANCH  13  16
ENDBRANCH   9  10
BRANCH   1  22
ATOM     22  C   UNL     1       3.609   1.181   0.000  0.00  0.00    +0.000 C 
ATOM     23  N   UNL     1       4.323   0.768   0.000  0.00  0.00    +0.000 NA
ATOM     24  N   UNL     1       3.609   2.006   0.000  0.00  0.00    +0.000 NA
ENDBRANCH   1  22
TORSDOF 3
