REMARK  Name = 6SC
REMARK  4 active torsions:
REMARK  status: ('A' for Active; 'I' for Inactive)
REMARK    1  A    between atoms: C_7  and  C_11
REMARK    2  A    between atoms: C_9  and  N_10
REMARK    3  A    between atoms: N_10  and  C_12
REMARK    4  A    between atoms: C_12  and  C_13
REMARK                            x       y       z     vdW  Elec       q    Type
REMARK                         _______ _______ _______ _____ _____    ______ ____
ROOT
ATOM      1  C   UNL     1      -2.259   1.037   0.000  0.00  0.00    +0.000 A 
ATOM      2  C   UNL     1      -1.475   0.782   0.000  0.00  0.00    +0.000 A 
ATOM      3  N   UNL     1      -1.475  -0.043   0.000  0.00  0.00    +0.000 N 
ATOM      4  N   UNL     1      -2.259  -0.298   0.000  0.00  0.00    +0.000 NA
ATOM      5  C   UNL     1      -2.744   0.369   0.000  0.00  0.00    +0.000 A 
ATOM      6  N   UNL     1      -0.760   1.194   0.000  0.00  0.00    +0.000 NA
ATOM      7  C   UNL     1      -0.046   0.782   0.000  0.00  0.00    +0.000 A 
ATOM      8  C   UNL     1      -0.046  -0.043   0.000  0.00  0.00    +0.000 A 
ATOM      9  C   UNL     1      -0.760  -0.456   0.000  0.00  0.00    +0.000 A 
ATOM     10 BR   UNL     1      -2.514   1.822   0.000  0.00  0.00    +0.000 Br
ENDROOT
BRANCH   7  11
ATOM     11  C   UNL     1       0.669   1.194   0.000  0.00  0.00    +0.000 A 
ATOM     12  C   UNL     1       0.669   2.019   0.000  0.00  0.00    +0.000 A 
ATOM     13  C   UNL     1       1.383   2.432   0.000  0.00  0.00    +0.000 A 
ATOM     14  C   UNL     1       2.098   2.019   0.000  0.00  0.00    +0.000 A 
ATOM     15  C   UNL     1       2.098   1.194   0.000  0.00  0.00    +0.000 A 
ATOM     16  C   UNL     1       1.383   0.782   0.000  0.00  0.00    +0.000 A 
ENDBRANCH   7  11
BRANCH   9  17
ATOM     17  N   UNL     1      -0.760  -1.280   0.000  0.00  0.00    +0.000 NA
BRANCH  17  18
ATOM     18  C   UNL     1      -1.475  -1.693   0.000  0.00  0.00    +0.000 C 
BRANCH  18  19
ATOM     19  C   UNL     1      -1.475  -2.518   0.000  0.00  0.00    +0.000 A 
ATOM     20  C   UNL     1      -2.189  -2.930   0.000  0.00  0.00    +0.000 A 
ATOM     21  C   UNL     1      -2.189  -3.756   0.000  0.00  0.00    +0.000 A 
ATOM     22  N   UNL     1      -1.475  -4.168   0.000  0.00  0.00    +0.000 NA
ATOM     23  C   UNL     1      -0.760  -3.756   0.000  0.00  0.00    +0.000 A 
ATOM     24  C   UNL     1      -0.760  -2.930   0.000  0.00  0.00    +0.000 A 
ENDBRANCH  18  19
ENDBRANCH  17  18
ENDBRANCH   9  17
TORSDOF 4
