REMARK  Name = 700
REMARK  6 active torsions:
REMARK  status: ('A' for Active; 'I' for Inactive)
REMARK    1  A    between atoms: C_1  and  C_2
REMARK    2  A    between atoms: C_1  and  C_8
REMARK    3  A    between atoms: C_8  and  C_9
REMARK    4  A    between atoms: C_8  and  N_18
REMARK    5  A    between atoms: C_13  and  C_14
REMARK    6  A    between atoms: C_19  and  C_20
REMARK                            x       y       z     vdW  Elec       q    Type
REMARK                         _______ _______ _______ _____ _____    ______ ____
ROOT
ATOM      1  C   UNL     1      -0.685  -0.139   0.000  0.00  0.00    +0.000 C 
ENDROOT
BRANCH   1   2
ATOM      2  C   UNL     1      -1.097   0.576   0.000  0.00  0.00    +0.000 C 
ATOM      3  O   UNL     1      -1.922   0.576   0.000  0.00  0.00    +0.000 OA
ATOM      4  N   UNL     1      -0.685   1.290   0.000  0.00  0.00    +0.000 N 
ATOM      5  C   UNL     1      -0.898   2.087   0.000  0.00  0.00    +0.000 C 
ATOM      6  C   UNL     1      -0.102   2.300   0.000  0.00  0.00    +0.000 C 
ATOM      7  C   UNL     1       0.112   1.504   0.000  0.00  0.00    +0.000 C 
BRANCH   6   8
ATOM      8  C   UNL     1       0.311   3.015   0.000  0.00  0.00    +0.000 C 
ATOM      9  O   UNL     1      -0.102   3.729   0.000  0.00  0.00    +0.000 OA
ATOM     10  O   UNL     1       1.136   3.015   0.000  0.00  0.00    +0.000 OA
ENDBRANCH   6   8
ENDBRANCH   1   2
BRANCH   1  11
ATOM     11  N   UNL     1       0.140  -0.139   0.000  0.00  0.00    +0.000 NA
ATOM     12  C   UNL     1       0.553  -0.853   0.000  0.00  0.00    +0.000 C 
ATOM     13  O   UNL     1       0.140  -1.568   0.000  0.00  0.00    +0.000 OA
BRANCH  12  14
ATOM     14  C   UNL     1       1.378  -0.853   0.000  0.00  0.00    +0.000 A 
ATOM     15  C   UNL     1       1.863  -1.521   0.000  0.00  0.00    +0.000 A 
ATOM     16  C   UNL     1       2.647  -1.266   0.000  0.00  0.00    +0.000 A 
ATOM     17  C   UNL     1       2.647  -0.441   0.000  0.00  0.00    +0.000 A 
ATOM     18  C   UNL     1       3.362  -0.028   0.000  0.00  0.00    +0.000 A 
ATOM     19  C   UNL     1       4.076  -0.441   0.000  0.00  0.00    +0.000 A 
ATOM     20  C   UNL     1       4.076  -1.266   0.000  0.00  0.00    +0.000 A 
ATOM     21 CL   UNL     1       4.791  -1.678   0.000  0.00  0.00    +0.000 Cl
ATOM     22  C   UNL     1       3.362  -1.678   0.000  0.00  0.00    +0.000 A 
ATOM     23  N   UNL     1       1.863  -0.186   0.000  0.00  0.00    +0.000 NA
ENDBRANCH  12  14
ENDBRANCH   1  11
BRANCH   1  24
ATOM     24  C   UNL     1      -1.097  -0.853   0.000  0.00  0.00    +0.000 C 
BRANCH  24  25
ATOM     25  C   UNL     1      -1.922  -0.853   0.000  0.00  0.00    +0.000 A 
ATOM     26  C   UNL     1      -2.335  -1.568   0.000  0.00  0.00    +0.000 A 
ATOM     27  C   UNL     1      -3.160  -1.568   0.000  0.00  0.00    +0.000 A 
ATOM     28  C   UNL     1      -3.572  -0.853   0.000  0.00  0.00    +0.000 A 
ATOM     29  C   UNL     1      -3.160  -0.139   0.000  0.00  0.00    +0.000 A 
ATOM     30  C   UNL     1      -2.335  -0.139   0.000  0.00  0.00    +0.000 A 
ENDBRANCH  24  25
ENDBRANCH   1  24
TORSDOF 6
