REMARK  Name = 701
REMARK  6 active torsions:
REMARK  status: ('A' for Active; 'I' for Inactive)
REMARK    1  A    between atoms: C_5  and  C_6
REMARK    2  A    between atoms: S_8  and  N_11
REMARK    3  A    between atoms: S_8  and  C_29
REMARK    4  A    between atoms: N_11  and  C_12
REMARK    5  A    between atoms: N_17  and  C_18
REMARK    6  A    between atoms: C_18  and  C_20
REMARK                            x       y       z     vdW  Elec       q    Type
REMARK                         _______ _______ _______ _____ _____    ______ ____
ROOT
ATOM      1  C   UNL     1      -1.045  -1.332   0.000  0.00  0.00    +0.000 C 
ATOM      2  C   UNL     1      -0.238  -1.504   0.000  0.00  0.00    +0.000 C 
ATOM      3  C   UNL     1      -0.152  -2.324   0.000  0.00  0.00    +0.000 C 
ATOM      4  C   UNL     1      -1.458  -2.047   0.000  0.00  0.00    +0.000 C 
ATOM      5  O   UNL     1      -2.278  -2.133   0.000  0.00  0.00    +0.000 OA
ATOM      6  N   UNL     1      -0.906  -2.660   0.000  0.00  0.00    +0.000 N 
ENDROOT
BRANCH   6   7
ATOM      7  C   UNL     1      -1.077  -3.467   0.000  0.00  0.00    +0.000 C 
ATOM      8  C   UNL     1      -1.862  -3.722   0.000  0.00  0.00    +0.000 C 
BRANCH   7   9
ATOM      9  C   UNL     1      -0.464  -4.019   0.000  0.00  0.00    +0.000 C 
ATOM     10  O   UNL     1       0.321  -3.764   0.000  0.00  0.00    +0.000 OA
ATOM     11  N   UNL     1      -0.636  -4.826   0.000  0.00  0.00    +0.000 N 
ATOM     12  C   UNL     1      -0.022  -5.378   0.000  0.00  0.00    +0.000 C 
ATOM     13  C   UNL     1      -0.194  -6.185   0.000  0.00  0.00    +0.000 C 
ATOM     14  O   UNL     1      -0.979  -6.440   0.000  0.00  0.00    +0.000 OA
ATOM     15  C   UNL     1      -1.592  -5.888   0.000  0.00  0.00    +0.000 C 
ATOM     16  C   UNL     1      -1.420  -5.081   0.000  0.00  0.00    +0.000 C 
ENDBRANCH   7   9
ENDBRANCH   6   7
BRANCH   1  17
ATOM     17  N   UNL     1      -1.381  -0.579   0.000  0.00  0.00    +0.000 NA
BRANCH  17  18
ATOM     18  S   UNL     1      -0.896   0.089   0.000  0.00  0.00    +0.000 S 
ATOM     19  O   UNL     1      -1.563   0.574   0.000  0.00  0.00    +0.000 OA
ATOM     20  O   UNL     1      -0.228  -0.396   0.000  0.00  0.00    +0.000 OA
BRANCH  18  23
ATOM     21  C   UNL     1       0.410   0.670   0.000  0.00  0.00    +0.000 C 
ATOM     22  C   UNL     1       0.745  -0.084   0.000  0.00  0.00    +0.000 C 
ATOM     23  C   UNL     1      -0.411   0.756   0.000  0.00  0.00    +0.000 C 
BRANCH  21  28
ATOM     24 CL   UNL     1       1.307   3.432   0.000  0.00  0.00    +0.000 Cl
ATOM     25  C   UNL     1       1.307   2.607   0.000  0.00  0.00    +0.000 A 
ATOM     26  C   UNL     1       1.974   2.122   0.000  0.00  0.00    +0.000 A 
ATOM     27  C   UNL     1       1.720   1.337   0.000  0.00  0.00    +0.000 A 
ATOM     28  C   UNL     1       0.895   1.337   0.000  0.00  0.00    +0.000 A 
ATOM     29  S   UNL     1       0.640   2.122   0.000  0.00  0.00    +0.000 S 
ENDBRANCH  21  28
ENDBRANCH  18  23
ENDBRANCH  17  18
ENDBRANCH   1  17
TORSDOF 6
