REMARK  Name = 703
REMARK  6 active torsions:
REMARK  status: ('A' for Active; 'I' for Inactive)
REMARK    1  A    between atoms: C_3  and  N_7
REMARK    2  A    between atoms: C_5  and  C_10
REMARK    3  A    between atoms: N_19  and  C_23
REMARK    4  A    between atoms: C_23  and  C_24
REMARK    5  A    between atoms: C_24  and  C_25
REMARK    6  A    between atoms: C_25  and  N_26
REMARK                            x       y       z     vdW  Elec       q    Type
REMARK                         _______ _______ _______ _____ _____    ______ ____
ROOT
ATOM      1  C   UNL     1       3.121  -1.087   0.000  0.00  0.00    +0.000 A 
ATOM      2  S   UNL     1       2.866  -1.872   0.000  0.00  0.00    +0.000 S 
ATOM      3  C   UNL     1       2.041  -1.872   0.000  0.00  0.00    +0.000 A 
ATOM      4  C   UNL     1       1.786  -1.087   0.000  0.00  0.00    +0.000 A 
ATOM      5  C   UNL     1       2.453  -0.602   0.000  0.00  0.00    +0.000 A 
ATOM      6  N   UNL     1       0.961  -1.087   0.000  0.00  0.00    +0.000 N 
ATOM      7  C   UNL     1       0.706  -1.872   0.000  0.00  0.00    +0.000 A 
ATOM      8  C   UNL     1       1.373  -2.357   0.000  0.00  0.00    +0.000 A 
ATOM      9  C   UNL     1       0.293  -0.602   0.000  0.00  0.00    +0.000 C 
ATOM     10  N   UNL     1      -0.374  -1.087   0.000  0.00  0.00    +0.000 N 
ATOM     11  C   UNL     1      -0.119  -1.872   0.000  0.00  0.00    +0.000 C 
ATOM     12  S   UNL     1       0.293   0.223   0.000  0.00  0.00    +0.000 S 
ATOM     13  O   UNL     1      -0.604  -2.539   0.000  0.00  0.00    +0.000 OA
ENDROOT
BRANCH   1  18
ATOM     14  C   UNL     1       4.861   0.230   0.000  0.00  0.00    +0.000 A 
ATOM     15  C   UNL     1       5.474  -0.322   0.000  0.00  0.00    +0.000 A 
ATOM     16  C   UNL     1       5.303  -1.129   0.000  0.00  0.00    +0.000 A 
ATOM     17  C   UNL     1       4.518  -1.384   0.000  0.00  0.00    +0.000 A 
ATOM     18  C   UNL     1       3.905  -0.832   0.000  0.00  0.00    +0.000 A 
ATOM     19  C   UNL     1       4.077  -0.025   0.000  0.00  0.00    +0.000 A 
BRANCH  16  20
ATOM     20  N   UNL     1       5.916  -1.681   0.000  0.00  0.00    +0.000 N 
ATOM     21  O   UNL     1       6.701  -1.426   0.000  0.00  0.00    +0.000 OA
ATOM     22  O   UNL     1       5.745  -2.488   0.000  0.00  0.00    +0.000 OA
ENDBRANCH  16  20
ENDBRANCH   1  18
BRANCH  10  23
ATOM     23  C   UNL     1      -1.159  -0.832   0.000  0.00  0.00    +0.000 C 
BRANCH  23  24
ATOM     24  C   UNL     1      -1.330  -0.025   0.000  0.00  0.00    +0.000 C 
BRANCH  24  25
ATOM     25  C   UNL     1      -2.115   0.230   0.000  0.00  0.00    +0.000 C 
BRANCH  25  26
ATOM     26  N   UNL     1      -2.287   1.037   0.000  0.00  0.00    +0.000 NA
ATOM     27  C   UNL     1      -3.071   1.292   0.000  0.00  0.00    +0.000 C 
ATOM     28  C   UNL     1      -3.243   2.099   0.000  0.00  0.00    +0.000 C 
ATOM     29  O   UNL     1      -2.630   2.651   0.000  0.00  0.00    +0.000 OA
ATOM     30  C   UNL     1      -1.845   2.396   0.000  0.00  0.00    +0.000 C 
ATOM     31  C   UNL     1      -1.673   1.589   0.000  0.00  0.00    +0.000 C 
ENDBRANCH  25  26
ENDBRANCH  24  25
ENDBRANCH  23  24
ENDBRANCH  10  23
TORSDOF 6
