REMARK  Name = 705
REMARK  6 active torsions:
REMARK  status: ('A' for Active; 'I' for Inactive)
REMARK    1  A    between atoms: S_1  and  N_10
REMARK    2  A    between atoms: N_5  and  C_15
REMARK    3  A    between atoms: N_8  and  C_18
REMARK    4  A    between atoms: N_8  and  C_22
REMARK    5  A    between atoms: N_10  and  C_27
REMARK    6  A    between atoms: C_16  and  C_17
REMARK                            x       y       z     vdW  Elec       q    Type
REMARK                         _______ _______ _______ _____ _____    ______ ____
ROOT
ATOM      1  O   UNL     1       7.722   2.640   0.000  0.00  0.00    +0.000 OA
ATOM      2  N   UNL     1       8.547  -0.218   0.000  0.00  0.00    +0.000 N 
ATOM      3  N   UNL     1       7.722   1.211   0.000  0.00  0.00    +0.000 N 
ATOM      4  C   UNL     1       8.960   0.497   0.000  0.00  0.00    +0.000 C 
ATOM      5  C   UNL     1       7.722  -0.218   0.000  0.00  0.00    +0.000 C 
ATOM      6  C   UNL     1       8.547   1.211   0.000  0.00  0.00    +0.000 C 
ATOM      7  C   UNL     1       7.310   0.497   0.000  0.00  0.00    +0.000 C 
ATOM      8  C   UNL     1       7.310   1.926   0.000  0.00  0.00    +0.000 C 
ENDROOT
BRANCH   8  10
ATOM      9  N   UNL     1       6.003   2.590   0.000  0.00  0.00    +0.000 NA
ATOM     10  C   UNL     1       6.485   1.926   0.000  0.00  0.00    +0.000 A 
ATOM     11  C   UNL     1       6.003   1.262   0.000  0.00  0.00    +0.000 A 
ATOM     12  C   UNL     1       5.222   1.513   0.000  0.00  0.00    +0.000 A 
ATOM     13  C   UNL     1       5.222   2.338   0.000  0.00  0.00    +0.000 A 
ATOM     14  C   UNL     1       4.508   1.101   0.000  0.00  0.00    +0.000 A 
ATOM     15  C   UNL     1       4.508   2.751   0.000  0.00  0.00    +0.000 A 
ATOM     16  C   UNL     1       3.793   1.513   0.000  0.00  0.00    +0.000 A 
ATOM     17  C   UNL     1       3.793   2.338   0.000  0.00  0.00    +0.000 A 
BRANCH  16  18
ATOM     18  N   UNL     1       3.079   1.101   0.000  0.00  0.00    +0.000 NA
BRANCH  18  19
ATOM     19  S   UNL     1       2.365   1.513   0.000  0.00  0.00    +0.000 S 
ATOM     20  O   UNL     1       2.777   2.228   0.000  0.00  0.00    +0.000 OA
ATOM     21  O   UNL     1       1.952   0.799   0.000  0.00  0.00    +0.000 OA
ATOM     22  C   UNL     1       1.650   1.926   0.000  0.00  0.00    +0.000 C 
ENDBRANCH  18  19
ENDBRANCH  16  18
ENDBRANCH   8  10
BRANCH   2  24
ATOM     23  N   UNL     1       9.785  -0.932   0.000  0.00  0.00    +0.000 NA
ATOM     24  C   UNL     1       8.960  -0.932   0.000  0.00  0.00    +0.000 A 
ATOM     25  C   UNL     1       8.547  -1.647   0.000  0.00  0.00    +0.000 A 
ATOM     26  C   UNL     1       8.960  -2.361   0.000  0.00  0.00    +0.000 A 
ATOM     27  C   UNL     1      10.197  -1.647   0.000  0.00  0.00    +0.000 A 
ATOM     28  C   UNL     1       9.785  -2.361   0.000  0.00  0.00    +0.000 A 
BRANCH  25  29
ATOM     29  N   UNL     1       7.722  -1.647   0.000  0.00  0.00    +0.000 NA
BRANCH  29  30
ATOM     30  C   UNL     1       7.310  -2.361   0.000  0.00  0.00    +0.000 C 
ATOM     31  C   UNL     1       6.485  -2.361   0.000  0.00  0.00    +0.000 C 
ATOM     32  C   UNL     1       7.722  -3.076   0.000  0.00  0.00    +0.000 C 
ENDBRANCH  29  30
ENDBRANCH  25  29
ENDBRANCH   2  24
TORSDOF 6
