REMARK  Name = 706
REMARK  11 active torsions:
REMARK  status: ('A' for Active; 'I' for Inactive)
REMARK    1  A    between atoms: S_1  and  C_15
REMARK    2  A    between atoms: O_2  and  C_17
REMARK    3  A    between atoms: O_2  and  C_20
REMARK    4  A    between atoms: O_3  and  C_18
REMARK    5  A    between atoms: O_6  and  C_21
REMARK    6  A    between atoms: O_6  and  C_27
REMARK    7  A    between atoms: N_7  and  C_9
REMARK    8  A    between atoms: N_7  and  C_13
REMARK    9  A    between atoms: C_9  and  C_10
REMARK   10  A    between atoms: C_10  and  C_11
REMARK   11  A    between atoms: C_13  and  C_17
REMARK                            x       y       z     vdW  Elec       q    Type
REMARK                         _______ _______ _______ _____ _____    ______ ____
ROOT
ATOM      1  C   UNL     1       5.222   0.491   0.000  0.00  0.00    +0.000 C 
ATOM      2  C   UNL     1       4.508   0.078   0.000  0.00  0.00    +0.000 C 
ENDROOT
BRANCH   1   3
ATOM      3  N   UNL     1       5.937   0.078   0.000  0.00  0.00    +0.000 NA
BRANCH   3   4
ATOM      4  C   UNL     1       5.937  -0.747   0.000  0.00  0.00    +0.000 C 
BRANCH   4   5
ATOM      5  C   UNL     1       6.652  -1.159   0.000  0.00  0.00    +0.000 C 
BRANCH   5   6
ATOM      6  O   UNL     1       6.652  -1.984   0.000  0.00  0.00    +0.000 OA
BRANCH   6   7
ATOM      7  C   UNL     1       7.366  -2.397   0.000  0.00  0.00    +0.000 A 
ATOM      8  C   UNL     1       7.366  -3.222   0.000  0.00  0.00    +0.000 A 
ATOM      9  C   UNL     1       8.080  -1.984   0.000  0.00  0.00    +0.000 A 
ATOM     10  C   UNL     1       8.080  -3.634   0.000  0.00  0.00    +0.000 A 
ATOM     11  C   UNL     1       8.795  -2.397   0.000  0.00  0.00    +0.000 A 
ATOM     12  C   UNL     1       8.795  -3.222   0.000  0.00  0.00    +0.000 A 
BRANCH   8  13
ATOM     13  O   UNL     1       6.652  -3.634   0.000  0.00  0.00    +0.000 OA
BRANCH  13  14
ATOM     14  C   UNL     1       6.652  -4.459   0.000  0.00  0.00    +0.000 C 
ATOM     15  C   UNL     1       5.937  -4.872   0.000  0.00  0.00    +0.000 C 
ENDBRANCH  13  14
ENDBRANCH   8  13
ENDBRANCH   6   7
ENDBRANCH   5   6
ENDBRANCH   4   5
ENDBRANCH   3   4
ENDBRANCH   1   3
BRANCH   1  16
ATOM     16  C   UNL     1       5.222   1.316   0.000  0.00  0.00    +0.000 C 
BRANCH  16  17
ATOM     17  C   UNL     1       4.508   1.728   0.000  0.00  0.00    +0.000 A 
ATOM     18  C   UNL     1       4.508   2.553   0.000  0.00  0.00    +0.000 A 
ATOM     19  C   UNL     1       3.793   2.966   0.000  0.00  0.00    +0.000 A 
ATOM     20  C   UNL     1       3.793   1.316   0.000  0.00  0.00    +0.000 A 
ATOM     21  C   UNL     1       3.079   2.553   0.000  0.00  0.00    +0.000 A 
ATOM     22  C   UNL     1       3.079   1.728   0.000  0.00  0.00    +0.000 A 
BRANCH  19  23
ATOM     23  S   UNL     1       3.793   3.791   0.000  0.00  0.00    +0.000 S 
ATOM     24  O   UNL     1       2.969   3.791   0.000  0.00  0.00    +0.000 OA
ATOM     25  O   UNL     1       4.619   3.791   0.000  0.00  0.00    +0.000 OA
ATOM     26  N   UNL     1       3.793   4.616   0.000  0.00  0.00    +0.000 NA
ENDBRANCH  19  23
BRANCH  21  27
ATOM     27  O   UNL     1       2.365   2.966   0.000  0.00  0.00    +0.000 OA
ATOM     28  C   UNL     1       1.650   2.553   0.000  0.00  0.00    +0.000 C 
ENDBRANCH  21  27
ENDBRANCH  16  17
ENDBRANCH   1  16
TORSDOF 11
