REMARK  Name = 708
REMARK  8 active torsions:
REMARK  status: ('A' for Active; 'I' for Inactive)
REMARK    1  A    between atoms: O_2  and  C_11
REMARK    2  A    between atoms: N_4  and  C_12
REMARK    3  A    between atoms: N_5  and  C_6
REMARK    4  A    between atoms: N_5  and  C_13
REMARK    5  A    between atoms: C_6  and  C_11
REMARK    6  A    between atoms: C_12  and  C_15
REMARK    7  A    between atoms: C_14  and  C_16
REMARK    8  A    between atoms: C_15  and  C_19
REMARK                            x       y       z     vdW  Elec       q    Type
REMARK                         _______ _______ _______ _____ _____    ______ ____
ROOT
ATOM      1  N   UNL     1       3.300  -0.588   0.000  0.00  0.00    +0.000 NA
ATOM      2  C   UNL     1       3.300   1.062   0.000  0.00  0.00    +0.000 C 
ATOM      3  C   UNL     1       2.586   0.650   0.000  0.00  0.00    +0.000 C 
ATOM      4  C   UNL     1       4.014   0.650   0.000  0.00  0.00    +0.000 C 
ATOM      5  C   UNL     1       2.586  -0.175   0.000  0.00  0.00    +0.000 C 
ATOM      6  C   UNL     1       4.014  -0.175   0.000  0.00  0.00    +0.000 C 
ENDROOT
BRANCH   2   8
ATOM      7  O   UNL     1       2.475   2.491   0.000  0.00  0.00    +0.000 OA
ATOM      8  N   UNL     1       3.713   1.777   0.000  0.00  0.00    +0.000 N 
ATOM      9  C   UNL     1       3.300   2.491   0.000  0.00  0.00    +0.000 C 
BRANCH   8  10
ATOM     10  C   UNL     1       4.538   1.777   0.000  0.00  0.00    +0.000 A 
ATOM     11  C   UNL     1       4.950   2.491   0.000  0.00  0.00    +0.000 A 
ATOM     12  C   UNL     1       4.950   1.062   0.000  0.00  0.00    +0.000 A 
ATOM     13  C   UNL     1       5.775   2.491   0.000  0.00  0.00    +0.000 A 
ATOM     14  C   UNL     1       5.775   1.062   0.000  0.00  0.00    +0.000 A 
ATOM     15  C   UNL     1       6.188   1.777   0.000  0.00  0.00    +0.000 A 
ENDBRANCH   8  10
BRANCH   9  16
ATOM     16  C   UNL     1       3.713   3.205   0.000  0.00  0.00    +0.000 C 
ATOM     17  C   UNL     1       3.300   3.920   0.000  0.00  0.00    +0.000 C 
ENDBRANCH   9  16
ENDBRANCH   2   8
BRANCH   1  18
ATOM     18  C   UNL     1       3.300  -1.413   0.000  0.00  0.00    +0.000 C 
BRANCH  18  19
ATOM     19  C   UNL     1       2.586  -1.825   0.000  0.00  0.00    +0.000 C 
BRANCH  19  21
ATOM     20  S   UNL     1       3.253  -3.135   0.000  0.00  0.00    +0.000 S 
ATOM     21  C   UNL     1       2.586  -2.651   0.000  0.00  0.00    +0.000 A 
ATOM     22  C   UNL     1       1.918  -3.135   0.000  0.00  0.00    +0.000 A 
ATOM     23  C   UNL     1       2.173  -3.920   0.000  0.00  0.00    +0.000 A 
ATOM     24  C   UNL     1       2.998  -3.920   0.000  0.00  0.00    +0.000 A 
ENDBRANCH  19  21
ENDBRANCH  18  19
ENDBRANCH   1  18
BRANCH   2  25
ATOM     25  C   UNL     1       2.888   1.777   0.000  0.00  0.00    +0.000 C 
BRANCH  25  26
ATOM     26  O   UNL     1       2.062   1.777   0.000  0.00  0.00    +0.000 OA
ATOM     27  C   UNL     1       1.650   2.491   0.000  0.00  0.00    +0.000 C 
ENDBRANCH  25  26
ENDBRANCH   2  25
TORSDOF 8
