REMARK  Name = 709
REMARK  3 active torsions:
REMARK  status: ('A' for Active; 'I' for Inactive)
REMARK    1  A    between atoms: C_4  and  C_11
REMARK    2  A    between atoms: C_7  and  N_14
REMARK    3  A    between atoms: C_15  and  C_16
REMARK                            x       y       z     vdW  Elec       q    Type
REMARK                         _______ _______ _______ _____ _____    ______ ____
ROOT
ATOM      1  C   UNL     1       0.092  -2.032   0.000  0.00  0.00    +0.000 A 
ATOM      2  C   UNL     1      -0.622  -2.444   0.000  0.00  0.00    +0.000 A 
ATOM      3  C   UNL     1      -1.337  -2.032   0.000  0.00  0.00    +0.000 A 
ATOM      4  C   UNL     1      -1.337  -1.207   0.000  0.00  0.00    +0.000 A 
ATOM      5  C   UNL     1      -0.622  -0.794   0.000  0.00  0.00    +0.000 A 
ATOM      6  C   UNL     1       0.092  -1.207   0.000  0.00  0.00    +0.000 A 
ATOM      7  C   UNL     1       0.807  -0.794   0.000  0.00  0.00    +0.000 A 
ATOM      8  C   UNL     1       1.521  -1.207   0.000  0.00  0.00    +0.000 A 
ATOM      9  C   UNL     1       1.521  -2.032   0.000  0.00  0.00    +0.000 A 
ATOM     10  C   UNL     1       0.807  -2.444   0.000  0.00  0.00    +0.000 A 
ENDROOT
BRANCH   4  11
ATOM     11  C   UNL     1      -2.051  -0.794   0.000  0.00  0.00    +0.000 C 
ATOM     12  N   UNL     1      -2.765  -1.207   0.000  0.00  0.00    +0.000 NA
ATOM     13  N   UNL     1      -2.051   0.031   0.000  0.00  0.00    +0.000 NA
ENDBRANCH   4  11
BRANCH   7  14
ATOM     14  N   UNL     1       0.807   0.031   0.000  0.00  0.00    +0.000 NA
ATOM     15  C   UNL     1       0.092   0.443   0.000  0.00  0.00    +0.000 C 
ATOM     16  O   UNL     1      -0.622   0.031   0.000  0.00  0.00    +0.000 OA
BRANCH  15  17
ATOM     17  C   UNL     1       0.092   1.268   0.000  0.00  0.00    +0.000 A 
ATOM     18  C   UNL     1      -0.622   1.681   0.000  0.00  0.00    +0.000 A 
ATOM     19  C   UNL     1      -0.622   2.506   0.000  0.00  0.00    +0.000 A 
ATOM     20  C   UNL     1       0.092   2.918   0.000  0.00  0.00    +0.000 A 
ATOM     21  C   UNL     1       0.807   2.506   0.000  0.00  0.00    +0.000 A 
ATOM     22  C   UNL     1       0.807   1.681   0.000  0.00  0.00    +0.000 A 
ATOM     23  C   UNL     1       1.521   1.268   0.000  0.00  0.00    +0.000 C 
ATOM     24  O   UNL     1       1.521   2.918   0.000  0.00  0.00    +0.000 OA
ENDBRANCH  15  17
ENDBRANCH   7  14
TORSDOF 3
