REMARK  Name = 709
REMARK  2 active torsions:
REMARK  status: ('A' for Active; 'I' for Inactive)
REMARK    1  A    between atoms: N_5  and  C_8
REMARK    2  A    between atoms: C_10  and  C_11
REMARK                            x       y       z     vdW  Elec       q    Type
REMARK                         _______ _______ _______ _____ _____    ______ ____
ROOT
ATOM      1  O   UNL     1       1.650   0.599   0.000  0.00  0.00    +0.000 OA
ATOM      2  N   UNL     1       3.079   0.599   0.000  0.00  0.00    +0.000 N 
ATOM      3  N   UNL     1       2.365   1.837   0.000  0.00  0.00    +0.000 NA
ATOM      4  N   UNL     1       3.079   3.074   0.000  0.00  0.00    +0.000 NA
ATOM      5  C   UNL     1       3.793   1.012   0.000  0.00  0.00    +0.000 A 
ATOM      6  C   UNL     1       2.365   1.012   0.000  0.00  0.00    +0.000 A 
ATOM      7  C   UNL     1       3.793   1.837   0.000  0.00  0.00    +0.000 A 
ATOM      8  C   UNL     1       3.079   2.249   0.000  0.00  0.00    +0.000 A 
ENDROOT
BRANCH   2  11
ATOM      9  S   UNL     1       2.667  -1.495   0.000  0.00  0.00    +0.000 S 
ATOM     10  O   UNL     1       3.747  -0.711   0.000  0.00  0.00    +0.000 OA
ATOM     11  C   UNL     1       3.079  -0.226   0.000  0.00  0.00    +0.000 C 
ATOM     12  C   UNL     1       2.412  -0.711   0.000  0.00  0.00    +0.000 C 
ATOM     13  C   UNL     1       3.492  -1.495   0.000  0.00  0.00    +0.000 C 
BRANCH  13  15
ATOM     14  O   UNL     1       3.641  -2.916   0.000  0.00  0.00    +0.000 OA
ATOM     15  C   UNL     1       3.976  -2.163   0.000  0.00  0.00    +0.000 C 
ENDBRANCH  13  15
ENDBRANCH   2  11
TORSDOF 2
