REMARK  Name = 710
REMARK  5 active torsions:
REMARK  status: ('A' for Active; 'I' for Inactive)
REMARK    1  A    between atoms: C_2  and  C_26
REMARK    2  A    between atoms: C_9  and  C_10
REMARK    3  A    between atoms: C_17  and  C_19
REMARK    4  A    between atoms: C_19  and  N_20
REMARK    5  A    between atoms: C_27  and  C_31
REMARK                            x       y       z     vdW  Elec       q    Type
REMARK                         _______ _______ _______ _____ _____    ______ ____
ROOT
ATOM      1  C   UNL     1      -2.088  -1.145   0.000  0.00  0.00    +0.000 A 
ATOM      2  C   UNL     1      -2.873  -0.890   0.000  0.00  0.00    +0.000 A 
ATOM      3  C   UNL     1      -3.044  -0.084   0.000  0.00  0.00    +0.000 A 
ATOM      4  C   UNL     1      -1.475  -0.593   0.000  0.00  0.00    +0.000 A 
ATOM      5  C   UNL     1      -1.646   0.214   0.000  0.00  0.00    +0.000 A 
ATOM      6  C   UNL     1      -2.431   0.469   0.000  0.00  0.00    +0.000 A 
ATOM      7  N   UNL     1      -2.431   1.294   0.000  0.00  0.00    +0.000 NA
ATOM      8  N   UNL     1      -1.646   1.548   0.000  0.00  0.00    +0.000 NA
ATOM      9  C   UNL     1      -1.161   0.881   0.000  0.00  0.00    +0.000 A 
ENDROOT
BRANCH   9  10
ATOM     10  C   UNL     1      -0.336   0.881   0.000  0.00  0.00    +0.000 A 
ATOM     11  N   UNL     1       0.148   1.548   0.000  0.00  0.00    +0.000 NA
ATOM     12  C   UNL     1       0.148   0.214   0.000  0.00  0.00    +0.000 A 
ATOM     13  C   UNL     1       0.933   0.469   0.000  0.00  0.00    +0.000 A 
ATOM     14  C   UNL     1       0.933   1.294   0.000  0.00  0.00    +0.000 A 
ATOM     15  C   UNL     1       1.648   1.706   0.000  0.00  0.00    +0.000 A 
ATOM     16  C   UNL     1       2.362   1.294   0.000  0.00  0.00    +0.000 A 
ATOM     17  C   UNL     1       2.362   0.469   0.000  0.00  0.00    +0.000 A 
ATOM     18  C   UNL     1       1.648   0.056   0.000  0.00  0.00    +0.000 A 
BRANCH  17  19
ATOM     19  C   UNL     1       3.077   0.056   0.000  0.00  0.00    +0.000 C 
BRANCH  19  20
ATOM     20  N   UNL     1       3.791   0.469   0.000  0.00  0.00    +0.000 NA
ATOM     21  C   UNL     1       3.791   1.294   0.000  0.00  0.00    +0.000 C 
ATOM     22  C   UNL     1       4.505   1.706   0.000  0.00  0.00    +0.000 C 
ATOM     23  C   UNL     1       5.220   1.294   0.000  0.00  0.00    +0.000 C 
ATOM     24  C   UNL     1       5.220   0.469   0.000  0.00  0.00    +0.000 C 
ATOM     25  C   UNL     1       4.505   0.056   0.000  0.00  0.00    +0.000 C 
ENDBRANCH  19  20
ENDBRANCH  17  19
ENDBRANCH   9  10
BRANCH   2  26
ATOM     26  C   UNL     1      -3.486  -1.442   0.000  0.00  0.00    +0.000 A 
ATOM     27  C   UNL     1      -3.399  -2.263   0.000  0.00  0.00    +0.000 A 
ATOM     28  N   UNL     1      -4.153  -2.599   0.000  0.00  0.00    +0.000 NA
ATOM     29  N   UNL     1      -4.705  -1.985   0.000  0.00  0.00    +0.000 NA
ATOM     30  N   UNL     1      -4.293  -1.271   0.000  0.00  0.00    +0.000 NA
BRANCH  27  31
ATOM     31  C   UNL     1      -2.685  -2.675   0.000  0.00  0.00    +0.000 C 
ATOM     32  O   UNL     1      -1.970  -2.263   0.000  0.00  0.00    +0.000 OA
ENDBRANCH  27  31
ENDBRANCH   2  26
TORSDOF 5
