REMARK  Name = 712
REMARK  3 active torsions:
REMARK  status: ('A' for Active; 'I' for Inactive)
REMARK    1  A    between atoms: C_4  and  C_5
REMARK    2  A    between atoms: C_4  and  C_13
REMARK    3  A    between atoms: C_6  and  C_12
REMARK                            x       y       z     vdW  Elec       q    Type
REMARK                         _______ _______ _______ _____ _____    ______ ____
ROOT
ATOM      1  F   UNL     1       1.650   0.747   0.000  0.00  0.00    +0.000 F 
ATOM      2  C   UNL     1       3.079  -0.903   0.000  0.00  0.00    +0.000 A 
ATOM      3  C   UNL     1       3.079   0.747   0.000  0.00  0.00    +0.000 A 
ATOM      4  C   UNL     1       2.364  -0.491   0.000  0.00  0.00    +0.000 A 
ATOM      5  C   UNL     1       3.793  -0.491   0.000  0.00  0.00    +0.000 A 
ATOM      6  C   UNL     1       2.364   0.334   0.000  0.00  0.00    +0.000 A 
ATOM      7  C   UNL     1       3.793   0.334   0.000  0.00  0.00    +0.000 A 
ENDROOT
BRANCH   3   8
ATOM      8  C   UNL     1       3.079   1.572   0.000  0.00  0.00    +0.000 A 
ATOM      9  C   UNL     1       2.364   1.984   0.000  0.00  0.00    +0.000 A 
ATOM     10  C   UNL     1       3.793   1.984   0.000  0.00  0.00    +0.000 A 
ATOM     11  C   UNL     1       2.364   2.809   0.000  0.00  0.00    +0.000 A 
ATOM     12  C   UNL     1       3.793   2.809   0.000  0.00  0.00    +0.000 A 
ATOM     13  C   UNL     1       3.079   3.222   0.000  0.00  0.00    +0.000 A 
ENDBRANCH   3   8
BRANCH   2  14
ATOM     14  C   UNL     1       3.079  -1.728   0.000  0.00  0.00    +0.000 C 
ATOM     15  C   UNL     1       2.364  -2.141   0.000  0.00  0.00    +0.000 C 
BRANCH  14  18
ATOM     16  O   UNL     1       3.793  -2.966   0.000  0.00  0.00    +0.000 OA
ATOM     17  O   UNL     1       4.508  -1.728   0.000  0.00  0.00    +0.000 OA
ATOM     18  C   UNL     1       3.793  -2.141   0.000  0.00  0.00    +0.000 C 
ENDBRANCH  14  18
ENDBRANCH   2  14
TORSDOF 3
