REMARK  Name = 713
REMARK  4 active torsions:
REMARK  status: ('A' for Active; 'I' for Inactive)
REMARK    1  A    between atoms: N_8  and  CA_13
REMARK    2  A    between atoms: CA_12  and  C_17
REMARK    3  A    between atoms: C_18  and  C_19
REMARK    4  A    between atoms: C_20  and  C_22
REMARK                            x       y       z     vdW  Elec       q    Type
REMARK                         _______ _______ _______ _____ _____    ______ ____
ROOT
ATOM      1  O   UNL     1       3.208  -0.611   0.000  0.00  0.00    +0.000 OA
ATOM      2  N   UNL     1       4.221   0.398   0.000  0.00  0.00    +0.000 NA
ATOM      3  C   UNL     1       3.423   0.186   0.000  0.00  0.00    +0.000 C 
ENDROOT
BRANCH   2  10
ATOM      4  S   UNL     1       6.419   0.064   0.000  0.00  0.00    +0.000 S 
ATOM      5  O   UNL     1       4.221  -1.603   0.000  0.00  0.00    +0.000 OA
ATOM      6  N   UNL     1       5.635  -1.016   0.000  0.00  0.00    +0.000 N 
ATOM      7  C   UNL     1       5.635  -0.191   0.000  0.00  0.00    +0.000 C 
ATOM      8  C   UNL     1       6.904  -0.603   0.000  0.00  0.00    +0.000 C 
ATOM      9  CA  UNL     1       6.419  -1.270   0.000  0.00  0.00    +0.000 C 
ATOM     10  CA  UNL     1       4.803  -0.187   0.000  0.00  0.00    +0.000 C 
ATOM     11  C   UNL     1       4.803  -1.019   0.000  0.00  0.00    +0.000 C 
ATOM     12  C   UNL     1       7.572  -0.118   0.000  0.00  0.00    +0.000 C 
ATOM     13  C   UNL     1       7.572  -1.088   0.000  0.00  0.00    +0.000 C 
BRANCH   9  16
ATOM     14  O   UNL     1       6.122  -2.668   0.000  0.00  0.00    +0.000 OA
ATOM     15  OXT UNL     1       7.481  -2.227   0.000  0.00  0.00    +0.000 OA
ATOM     16  C   UNL     1       6.674  -2.055   0.000  0.00  0.00    +0.000 C 
ENDBRANCH   9  16
ENDBRANCH   2  10
BRANCH   3  19
ATOM     17  O   UNL     1       1.653   1.379   0.000  0.00  0.00    +0.000 OA
ATOM     18  N   UNL     1       2.238   1.961   0.000  0.00  0.00    +0.000 NA
ATOM     19  C   UNL     1       2.841   0.770   0.000  0.00  0.00    +0.000 A 
ATOM     20  C   UNL     1       2.972   1.585   0.000  0.00  0.00    +0.000 A 
ATOM     21  C   UNL     1       2.026   0.643   0.000  0.00  0.00    +0.000 A 
ATOM     22  C   UNL     1       1.650  -0.091   0.000  0.00  0.00    +0.000 C 
BRANCH  20  23
ATOM     23  C   UNL     1       3.708   1.958   0.000  0.00  0.00    +0.000 A 
ATOM     24  C   UNL     1       3.753   2.782   0.000  0.00  0.00    +0.000 A 
ATOM     25  C   UNL     1       4.399   1.507   0.000  0.00  0.00    +0.000 A 
ATOM     26  C   UNL     1       4.489   3.155   0.000  0.00  0.00    +0.000 A 
ATOM     27  C   UNL     1       5.135   1.880   0.000  0.00  0.00    +0.000 A 
ATOM     28  C   UNL     1       5.179   2.704   0.000  0.00  0.00    +0.000 A 
ENDBRANCH  20  23
ENDBRANCH   3  19
TORSDOF 4
