REMARK  Name = 714
REMARK  0 active torsions:
REMARK  status: ('A' for Active; 'I' for Inactive)
REMARK                            x       y       z     vdW  Elec       q    Type
REMARK                         _______ _______ _______ _____ _____    ______ ____
ROOT
ATOM      1  O   UNL     1       3.422   1.385   0.000  0.00  0.00    +0.000 OA
ATOM      2  O   UNL     1       2.010   0.585   0.000  0.00  0.00    +0.000 OA
ATOM      3  N   UNL     1       6.173  -1.016   0.000  0.00  0.00    +0.000 NA
ATOM      4  C   UNL     1       5.493  -0.623   0.000  0.00  0.00    +0.000 C 
ATOM      5  C   UNL     1       5.493   0.169   0.000  0.00  0.00    +0.000 A 
ATOM      6  C   UNL     1       4.807  -1.019   0.000  0.00  0.00    +0.000 C 
ATOM      7  C   UNL     1       6.213   0.571   0.000  0.00  0.00    +0.000 A 
ATOM      8  C   UNL     1       6.858  -0.633   0.000  0.00  0.00    +0.000 C 
ATOM      9  C   UNL     1       6.878   0.152   0.000  0.00  0.00    +0.000 C 
ATOM     10  C   UNL     1       4.807   0.565   0.000  0.00  0.00    +0.000 A 
ATOM     11  C   UNL     1       4.121  -0.623   0.000  0.00  0.00    +0.000 A 
ATOM     12  C   UNL     1       4.121   0.169   0.000  0.00  0.00    +0.000 A 
ATOM     13  C   UNL     1       6.167  -1.808   0.000  0.00  0.00    +0.000 C 
ATOM     14  C   UNL     1       6.220   1.396   0.000  0.00  0.00    +0.000 A 
ATOM     15  C   UNL     1       4.794   1.390   0.000  0.00  0.00    +0.000 A 
ATOM     16  C   UNL     1       3.413  -1.046   0.000  0.00  0.00    +0.000 A 
ATOM     17  C   UNL     1       3.413   0.593   0.000  0.00  0.00    +0.000 A 
ATOM     18  C   UNL     1       5.505   1.808   0.000  0.00  0.00    +0.000 A 
ATOM     19  C   UNL     1       2.695   0.186   0.000  0.00  0.00    +0.000 A 
ATOM     20  C   UNL     1       2.695  -0.639   0.000  0.00  0.00    +0.000 A 
ENDROOT
TORSDOF 0
