REMARK  Name = 715
REMARK  4 active torsions:
REMARK  status: ('A' for Active; 'I' for Inactive)
REMARK    1  A    between atoms: O_2  and  C_11
REMARK    2  A    between atoms: O_2  and  C_17
REMARK    3  A    between atoms: C_6  and  C_12
REMARK    4  A    between atoms: C_7  and  C_11
REMARK                            x       y       z     vdW  Elec       q    Type
REMARK                         _______ _______ _______ _____ _____    ______ ____
ROOT
ATOM      1  N   UNL     1       2.365   2.219   0.000  0.00  0.00    +0.000 NA
ATOM      2  C   UNL     1       2.365   0.569   0.000  0.00  0.00    +0.000 C 
ATOM      3  C   UNL     1       3.079   0.982   0.000  0.00  0.00    +0.000 C 
ATOM      4  C   UNL     1       1.650   0.982   0.000  0.00  0.00    +0.000 C 
ATOM      5  C   UNL     1       3.079   1.807   0.000  0.00  0.00    +0.000 C 
ATOM      6  C   UNL     1       1.650   1.807   0.000  0.00  0.00    +0.000 C 
ENDROOT
BRANCH   2   8
ATOM      7  F   UNL     1       2.365  -2.731   0.000  0.00  0.00    +0.000 F 
ATOM      8  C   UNL     1       2.365  -0.256   0.000  0.00  0.00    +0.000 A 
ATOM      9  C   UNL     1       3.079  -0.668   0.000  0.00  0.00    +0.000 A 
ATOM     10  C   UNL     1       1.650  -0.668   0.000  0.00  0.00    +0.000 A 
ATOM     11  C   UNL     1       3.079  -1.493   0.000  0.00  0.00    +0.000 A 
ATOM     12  C   UNL     1       1.650  -1.493   0.000  0.00  0.00    +0.000 A 
ATOM     13  C   UNL     1       2.365  -1.906   0.000  0.00  0.00    +0.000 A 
ENDBRANCH   2   8
BRANCH   3  14
ATOM     14  C   UNL     1       3.793   0.569   0.000  0.00  0.00    +0.000 C 
BRANCH  14  15
ATOM     15  O   UNL     1       4.508   0.982   0.000  0.00  0.00    +0.000 OA
BRANCH  15  18
ATOM     16  O   UNL     1       7.432   0.821   0.000  0.00  0.00    +0.000 OA
ATOM     17  O   UNL     1       7.432  -0.507   0.000  0.00  0.00    +0.000 OA
ATOM     18  C   UNL     1       5.222   0.569   0.000  0.00  0.00    +0.000 A 
ATOM     19  C   UNL     1       5.937   0.982   0.000  0.00  0.00    +0.000 A 
ATOM     20  C   UNL     1       5.222  -0.256   0.000  0.00  0.00    +0.000 A 
ATOM     21  C   UNL     1       6.652   0.569   0.000  0.00  0.00    +0.000 A 
ATOM     22  C   UNL     1       6.652  -0.256   0.000  0.00  0.00    +0.000 A 
ATOM     23  C   UNL     1       5.937  -0.668   0.000  0.00  0.00    +0.000 A 
ATOM     24  C   UNL     1       7.914   0.157   0.000  0.00  0.00    +0.000 C 
ENDBRANCH  15  18
ENDBRANCH  14  15
ENDBRANCH   3  14
TORSDOF 4
