REMARK  Name = 716
REMARK  5 active torsions:
REMARK  status: ('A' for Active; 'I' for Inactive)
REMARK    1  A    between atoms: N_8  and  C_16
REMARK    2  A    between atoms: C_10  and  C_12
REMARK    3  A    between atoms: C_12  and  C_18
REMARK    4  A    between atoms: C_17  and  C_26
REMARK    5  A    between atoms: C_24  and  C_27
REMARK                            x       y       z     vdW  Elec       q    Type
REMARK                         _______ _______ _______ _____ _____    ______ ____
ROOT
ATOM      1  O   UNL     1       4.268   0.249   0.000  0.00  0.00    +0.000 OA
ATOM      2  O   UNL     1       7.163  -2.283   0.000  0.00  0.00    +0.000 OA
ATOM      3  O   UNL     1       4.278  -2.283   0.000  0.00  0.00    +0.000 OA
ATOM      4  N   UNL     1       7.172   0.249   0.000  0.00  0.00    +0.000 N 
ATOM      5  C   UNL     1       6.435  -0.192   0.000  0.00  0.00    +0.000 A 
ATOM      6  C   UNL     1       5.720   0.221   0.000  0.00  0.00    +0.000 A 
ATOM      7  C   UNL     1       6.435  -1.017   0.000  0.00  0.00    +0.000 A 
ATOM      8  C   UNL     1       5.006  -0.192   0.000  0.00  0.00    +0.000 A 
ATOM      9  C   UNL     1       5.006  -1.017   0.000  0.00  0.00    +0.000 A 
ATOM     10  C   UNL     1       5.720  -1.429   0.000  0.00  0.00    +0.000 A 
ATOM     11  C   UNL     1       7.920  -0.175   0.000  0.00  0.00    +0.000 A 
ATOM     12  C   UNL     1       7.172  -1.458   0.000  0.00  0.00    +0.000 A 
ATOM     13  C   UNL     1       7.920  -1.034   0.000  0.00  0.00    +0.000 A 
ATOM     14  C   UNL     1       4.268  -1.458   0.000  0.00  0.00    +0.000 A 
ATOM     15  C   UNL     1       3.521  -0.175   0.000  0.00  0.00    +0.000 A 
ATOM     16  C   UNL     1       3.521  -1.034   0.000  0.00  0.00    +0.000 A 
ENDROOT
BRANCH  11  19
ATOM     17  O   UNL     1       9.349  -0.169   0.000  0.00  0.00    +0.000 OA
ATOM     18  O   UNL     1       8.630   1.065   0.000  0.00  0.00    +0.000 OA
ATOM     19  C   UNL     1       8.633   0.240   0.000  0.00  0.00    +0.000 C 
ENDBRANCH  11  19
BRANCH  15  22
ATOM     20  O   UNL     1       2.092  -0.169   0.000  0.00  0.00    +0.000 OA
ATOM     21  O   UNL     1       2.811   1.065   0.000  0.00  0.00    +0.000 OA
ATOM     22  C   UNL     1       2.808   0.240   0.000  0.00  0.00    +0.000 C 
ENDBRANCH  15  22
BRANCH   4  23
ATOM     23  C   UNL     1       7.163   1.074   0.000  0.00  0.00    +0.000 C 
ATOM     24  C   UNL     1       7.872   1.495   0.000  0.00  0.00    +0.000 C 
ENDBRANCH   4  23
BRANCH   6  25
ATOM     25  C   UNL     1       5.720   1.046   0.000  0.00  0.00    +0.000 C 
BRANCH  25  26
ATOM     26  C   UNL     1       5.006   1.458   0.000  0.00  0.00    +0.000 C 
ATOM     27  C   UNL     1       5.006   2.283   0.000  0.00  0.00    +0.000 C 
ENDBRANCH  25  26
ENDBRANCH   6  25
TORSDOF 5
