REMARK  Name = 718
REMARK  15 active torsions:
REMARK  status: ('A' for Active; 'I' for Inactive)
REMARK    1  A    between atoms: P_1  and  O_5
REMARK    2  A    between atoms: P_1  and  O_6
REMARK    3  A    between atoms: P_1  and  C_27
REMARK    4  A    between atoms: O_2  and  C_26
REMARK    5  A    between atoms: O_2  and  C_27
REMARK    6  A    between atoms: O_3  and  C_23
REMARK    7  A    between atoms: O_3  and  C_29
REMARK    8  A    between atoms: O_4  and  C_24
REMARK    9  A    between atoms: O_4  and  C_30
REMARK   10  A    between atoms: O_5  and  C_29
REMARK   11  A    between atoms: O_6  and  C_30
REMARK   12  A    between atoms: N_10  and  C_25
REMARK   13  A    between atoms: C_15  and  C_23
REMARK   14  A    between atoms: C_16  and  C_24
REMARK   15  A    between atoms: C_25  and  C_26
REMARK                            x       y       z     vdW  Elec       q    Type
REMARK                         _______ _______ _______ _____ _____    ______ ____
ROOT
ATOM      1  P   UNL     1       6.243  -0.893   0.000  0.00  0.00    +0.000 P 
ATOM      2  O   UNL     1       5.459  -1.149   0.000  0.00  0.00    +0.000 OA
ENDROOT
BRANCH   1   3
ATOM      3  O   UNL     1       6.499  -1.677   0.000  0.00  0.00    +0.000 OA
BRANCH   3   4
ATOM      4  C   UNL     1       7.307  -1.847   0.000  0.00  0.00    +0.000 C 
BRANCH   4   5
ATOM      5  O   UNL     1       7.563  -2.631   0.000  0.00  0.00    +0.000 OA
BRANCH   5   7
ATOM      6  O   UNL     1       8.921  -2.187   0.000  0.00  0.00    +0.000 OA
ATOM      7  C   UNL     1       8.370  -2.801   0.000  0.00  0.00    +0.000 C 
BRANCH   7   8
ATOM      8  C   UNL     1       8.627  -3.586   0.000  0.00  0.00    +0.000 C 
ATOM      9  C   UNL     1       7.842  -3.842   0.000  0.00  0.00    +0.000 C 
ATOM     10  C   UNL     1       9.411  -3.329   0.000  0.00  0.00    +0.000 C 
ATOM     11  C   UNL     1       8.883  -4.370   0.000  0.00  0.00    +0.000 C 
ENDBRANCH   7   8
ENDBRANCH   5   7
ENDBRANCH   4   5
ENDBRANCH   3   4
ENDBRANCH   1   3
BRANCH   1  12
ATOM     12  O   UNL     1       7.027  -0.636   0.000  0.00  0.00    +0.000 OA
BRANCH  12  13
ATOM     13  C   UNL     1       7.197   0.171   0.000  0.00  0.00    +0.000 C 
BRANCH  13  14
ATOM     14  O   UNL     1       7.982   0.427   0.000  0.00  0.00    +0.000 OA
BRANCH  14  16
ATOM     15  O   UNL     1       7.538   1.785   0.000  0.00  0.00    +0.000 OA
ATOM     16  C   UNL     1       8.152   1.234   0.000  0.00  0.00    +0.000 C 
BRANCH  16  17
ATOM     17  C   UNL     1       8.936   1.491   0.000  0.00  0.00    +0.000 C 
ATOM     18  C   UNL     1       9.192   0.707   0.000  0.00  0.00    +0.000 C 
ATOM     19  C   UNL     1       8.680   2.275   0.000  0.00  0.00    +0.000 C 
ATOM     20  C   UNL     1       9.720   1.747   0.000  0.00  0.00    +0.000 C 
ENDBRANCH  16  17
ENDBRANCH  14  16
ENDBRANCH  13  14
ENDBRANCH  12  13
ENDBRANCH   1  12
BRANCH   1  21
ATOM     21  C   UNL     1       5.987  -0.109   0.000  0.00  0.00    +0.000 C 
BRANCH  21  22
ATOM     22  O   UNL     1       5.179   0.061   0.000  0.00  0.00    +0.000 OA
BRANCH  22  23
ATOM     23  C   UNL     1       4.923   0.846   0.000  0.00  0.00    +0.000 C 
BRANCH  23  24
ATOM     24  C   UNL     1       4.116   1.016   0.000  0.00  0.00    +0.000 C 
BRANCH  24  25
ATOM     25  N   UNL     1       3.860   1.800   0.000  0.00  0.00    +0.000 N 
ATOM     26  N   UNL     1       3.860   3.128   0.000  0.00  0.00    +0.000 NA
ATOM     27  N   UNL     1       2.365   1.639   0.000  0.00  0.00    +0.000 NA
ATOM     28  N   UNL     1       1.650   2.877   0.000  0.00  0.00    +0.000 NA
ATOM     29  N   UNL     1       2.365   4.114   0.000  0.00  0.00    +0.000 NA
ATOM     30  C   UNL     1       3.079   2.051   0.000  0.00  0.00    +0.000 A 
ATOM     31  C   UNL     1       3.079   2.877   0.000  0.00  0.00    +0.000 A 
ATOM     32  C   UNL     1       4.341   2.464   0.000  0.00  0.00    +0.000 A 
ATOM     33  C   UNL     1       2.365   3.289   0.000  0.00  0.00    +0.000 A 
ATOM     34  C   UNL     1       1.650   2.051   0.000  0.00  0.00    +0.000 A 
ENDBRANCH  24  25
ENDBRANCH  23  24
ENDBRANCH  22  23
ENDBRANCH  21  22
ENDBRANCH   1  21
TORSDOF 15
