REMARK  Name = 719
REMARK  0 active torsions:
REMARK  status: ('A' for Active; 'I' for Inactive)
REMARK                            x       y       z     vdW  Elec       q    Type
REMARK                         _______ _______ _______ _____ _____    ______ ____
ROOT
ATOM      1  N   UNL     1       4.029  -1.729   0.000  0.00  0.00    +0.000 NA
ATOM      2  N   UNL     1       2.664   0.510   0.000  0.00  0.00    +0.000 NA
ATOM      3  C   UNL     1       4.029  -0.079   0.000  0.00  0.00    +0.000 C 
ATOM      4  C   UNL     1       4.743  -0.491   0.000  0.00  0.00    +0.000 C 
ATOM      5  C   UNL     1       3.314  -0.491   0.000  0.00  0.00    +0.000 C 
ATOM      6  C   UNL     1       4.743  -1.316   0.000  0.00  0.00    +0.000 C 
ATOM      7  C   UNL     1       3.314  -1.316   0.000  0.00  0.00    +0.000 C 
ATOM      8  C   UNL     1       4.029   0.746   0.000  0.00  0.00    +0.000 C 
ATOM      9  C   UNL     1       4.772   1.104   0.000  0.00  0.00    +0.000 A 
ATOM     10  C   UNL     1       3.285   1.104   0.000  0.00  0.00    +0.000 A 
ATOM     11  C   UNL     1       4.955   1.909   0.000  0.00  0.00    +0.000 A 
ATOM     12  C   UNL     1       4.441   2.554   0.000  0.00  0.00    +0.000 C 
ATOM     13  C   UNL     1       3.616   2.554   0.000  0.00  0.00    +0.000 C 
ATOM     14  C   UNL     1       3.102   1.909   0.000  0.00  0.00    +0.000 A 
ATOM     15  C   UNL     1       4.029  -2.554   0.000  0.00  0.00    +0.000 C 
ATOM     16  C   UNL     1       5.393   0.510   0.000  0.00  0.00    +0.000 A 
ATOM     17  C   UNL     1       5.772   2.175   0.000  0.00  0.00    +0.000 A 
ATOM     18  C   UNL     1       2.284   2.175   0.000  0.00  0.00    +0.000 A 
ATOM     19  C   UNL     1       6.216   0.757   0.000  0.00  0.00    +0.000 A 
ATOM     20  C   UNL     1       6.407   1.595   0.000  0.00  0.00    +0.000 A 
ATOM     21  C   UNL     1       1.650   1.595   0.000  0.00  0.00    +0.000 A 
ATOM     22  C   UNL     1       1.841   0.757   0.000  0.00  0.00    +0.000 A 
ENDROOT
TORSDOF 0
