REMARK  Name = 72145
REMARK  8 active torsions:
REMARK  status: ('A' for Active; 'I' for Inactive)
REMARK    1  A    between atoms: O_2  and  C_18
REMARK    2  A    between atoms: O_5  and  C_22
REMARK    3  A    between atoms: O_5  and  C_31
REMARK    4  A    between atoms: O_6  and  C_27
REMARK    5  A    between atoms: O_6  and  C_32
REMARK    6  A    between atoms: O_8  and  C_28
REMARK    7  A    between atoms: O_8  and  C_33
REMARK    8  A    between atoms: C_11  and  C_12
REMARK                            x       y       z     vdW  Elec       q    Type
REMARK                         _______ _______ _______ _____ _____    ______ ____
ROOT
ATOM      1  O   UNL     1       6.493   0.212   0.000  0.00  0.00    +0.000 OA
ATOM      2  O   UNL     1       6.746   1.655   0.000  0.00  0.00    +0.000 OA
ATOM      3  N   UNL     1       5.152   2.410   0.000  0.00  0.00    +0.000 NA
ATOM      4  C   UNL     1       5.824  -0.262   0.000  0.00  0.00    +0.000 C 
ATOM      5  C   UNL     1       5.165   0.227   0.000  0.00  0.00    +0.000 A 
ATOM      6  C   UNL     1       5.431   1.008   0.000  0.00  0.00    +0.000 A 
ATOM      7  C   UNL     1       4.356   0.066   0.000  0.00  0.00    +0.000 A 
ATOM      8  C   UNL     1       6.251   0.995   0.000  0.00  0.00    +0.000 C 
ATOM      9  C   UNL     1       4.887   1.629   0.000  0.00  0.00    +0.000 A 
ATOM     10  C   UNL     1       3.812   0.686   0.000  0.00  0.00    +0.000 A 
ATOM     11  C   UNL     1       4.078   1.468   0.000  0.00  0.00    +0.000 A 
ENDROOT
BRANCH   4  15
ATOM     12  O   UNL     1       8.761  -1.277   0.000  0.00  0.00    +0.000 OA
ATOM     13  O   UNL     1       8.761  -2.605   0.000  0.00  0.00    +0.000 OA
ATOM     14  N   UNL     1       5.067  -1.511   0.000  0.00  0.00    +0.000 NA
ATOM     15  C   UNL     1       5.814  -1.087   0.000  0.00  0.00    +0.000 C 
ATOM     16  C   UNL     1       6.552  -1.528   0.000  0.00  0.00    +0.000 A 
ATOM     17  C   UNL     1       5.067  -2.370   0.000  0.00  0.00    +0.000 C 
ATOM     18  C   UNL     1       6.552  -2.353   0.000  0.00  0.00    +0.000 A 
ATOM     19  C   UNL     1       5.814  -2.794   0.000  0.00  0.00    +0.000 C 
ATOM     20  C   UNL     1       7.266  -1.116   0.000  0.00  0.00    +0.000 A 
ATOM     21  C   UNL     1       4.255  -1.365   0.000  0.00  0.00    +0.000 C 
ATOM     22  C   UNL     1       7.266  -2.766   0.000  0.00  0.00    +0.000 A 
ATOM     23  C   UNL     1       7.981  -1.528   0.000  0.00  0.00    +0.000 A 
ATOM     24  C   UNL     1       7.981  -2.353   0.000  0.00  0.00    +0.000 A 
ATOM     25  C   UNL     1       9.243  -1.941   0.000  0.00  0.00    +0.000 C 
BRANCH  20  26
ATOM     26  O   UNL     1       7.266  -0.291   0.000  0.00  0.00    +0.000 OA
ATOM     27  C   UNL     1       7.981   0.122   0.000  0.00  0.00    +0.000 C 
ENDBRANCH  20  26
ENDBRANCH   4  15
BRANCH   7  28
ATOM     28  O   UNL     1       3.840  -0.577   0.000  0.00  0.00    +0.000 OA
BRANCH  28  29
ATOM     29  C   UNL     1       3.024  -0.451   0.000  0.00  0.00    +0.000 C 
ATOM     30  C   UNL     1       2.508  -1.095   0.000  0.00  0.00    +0.000 C 
ENDBRANCH  28  29
ENDBRANCH   7  28
BRANCH  11  31
ATOM     31  O   UNL     1       3.534   2.088   0.000  0.00  0.00    +0.000 OA
BRANCH  31  32
ATOM     32  C   UNL     1       2.725   1.927   0.000  0.00  0.00    +0.000 C 
ATOM     33  C   UNL     1       2.181   2.548   0.000  0.00  0.00    +0.000 C 
ENDBRANCH  31  32
ENDBRANCH  11  31
BRANCH  10  34
ATOM     34  O   UNL     1       3.003   0.526   0.000  0.00  0.00    +0.000 OA
BRANCH  34  35
ATOM     35  C   UNL     1       2.459   1.146   0.000  0.00  0.00    +0.000 C 
ATOM     36  C   UNL     1       1.650   0.985   0.000  0.00  0.00    +0.000 C 
ENDBRANCH  34  35
ENDBRANCH  10  34
TORSDOF 8
