REMARK  Name = 722
REMARK  12 active torsions:
REMARK  status: ('A' for Active; 'I' for Inactive)
REMARK    1  A    between atoms: N_7  and  CA_13
REMARK    2  A    between atoms: N_7  and  CA_16
REMARK    3  A    between atoms: CA_9  and  C_18
REMARK    4  A    between atoms: CA_13  and  C_14
REMARK    5  A    between atoms: CA_13  and  CB_15
REMARK    6  A    between atoms: CB_15  and  CG_17
REMARK    7  A    between atoms: CA_16  and  C_19
REMARK    8  A    between atoms: CA_16  and  C_22
REMARK    9  A    between atoms: CG_17  and  CD_20
REMARK   10  A    between atoms: C_19  and  C_21
REMARK   11  A    between atoms: CD_20  and  CE_23
REMARK   12  A    between atoms: C_21  and  C_24
REMARK                            x       y       z     vdW  Elec       q    Type
REMARK                         _______ _______ _______ _____ _____    ______ ____
ROOT
ATOM      1  CA  UNL     1       4.237   0.775   0.000  0.00  0.00    +0.000 C 
ENDROOT
BRANCH   1   8
ATOM      2  O   UNL     1       5.665   0.775   0.000  0.00  0.00    +0.000 OA
ATOM      3  N   UNL     1       4.951   2.013   0.000  0.00  0.00    +0.000 N 
ATOM      4  CA  UNL     1       5.619   2.498   0.000  0.00  0.00    +0.000 C 
ATOM      5  CB  UNL     1       5.363   3.283   0.000  0.00  0.00    +0.000 C 
ATOM      6  CD  UNL     1       4.284   2.498   0.000  0.00  0.00    +0.000 C 
ATOM      7  CG  UNL     1       4.538   3.283   0.000  0.00  0.00    +0.000 C 
ATOM      8  C   UNL     1       4.951   1.188   0.000  0.00  0.00    +0.000 C 
BRANCH   4  11
ATOM      9  O   UNL     1       7.016   2.795   0.000  0.00  0.00    +0.000 OA
ATOM     10  OXT UNL     1       6.575   1.436   0.000  0.00  0.00    +0.000 OA
ATOM     11  C   UNL     1       6.403   2.243   0.000  0.00  0.00    +0.000 C 
ENDBRANCH   4  11
ENDBRANCH   1   8
BRANCH   1  12
ATOM     12  N   UNL     1       4.237  -0.050   0.000  0.00  0.00    +0.000 NA
BRANCH  12  13
ATOM     13  CA  UNL     1       3.522  -0.462   0.000  0.00  0.00    +0.000 C 
BRANCH  13  16
ATOM     14  O   UNL     1       2.808   0.775   0.000  0.00  0.00    +0.000 OA
ATOM     15  OXT UNL     1       2.093  -0.462   0.000  0.00  0.00    +0.000 OA
ATOM     16  C   UNL     1       2.808  -0.050   0.000  0.00  0.00    +0.000 C 
ENDBRANCH  13  16
BRANCH  13  17
ATOM     17  C   UNL     1       3.522  -1.287   0.000  0.00  0.00    +0.000 C 
BRANCH  17  18
ATOM     18  C   UNL     1       2.808  -1.700   0.000  0.00  0.00    +0.000 C 
BRANCH  18  19
ATOM     19  C   UNL     1       2.808  -2.525   0.000  0.00  0.00    +0.000 A 
ATOM     20  C   UNL     1       3.522  -2.937   0.000  0.00  0.00    +0.000 A 
ATOM     21  C   UNL     1       2.093  -2.937   0.000  0.00  0.00    +0.000 A 
ATOM     22  C   UNL     1       3.522  -3.762   0.000  0.00  0.00    +0.000 A 
ATOM     23  C   UNL     1       2.093  -3.762   0.000  0.00  0.00    +0.000 A 
ATOM     24  C   UNL     1       2.808  -4.175   0.000  0.00  0.00    +0.000 A 
ENDBRANCH  18  19
ENDBRANCH  17  18
ENDBRANCH  13  17
ENDBRANCH  12  13
ENDBRANCH   1  12
BRANCH   1  25
ATOM     25  CB  UNL     1       3.522   1.188   0.000  0.00  0.00    +0.000 C 
BRANCH  25  26
ATOM     26  CG  UNL     1       3.522   2.013   0.000  0.00  0.00    +0.000 C 
BRANCH  26  27
ATOM     27  CD  UNL     1       2.808   2.426   0.000  0.00  0.00    +0.000 C 
BRANCH  27  29
ATOM     28  NZ  UNL     1       2.093   3.663   0.000  0.00  0.00    +0.000 NA
ATOM     29  CE  UNL     1       2.808   3.251   0.000  0.00  0.00    +0.000 C 
ENDBRANCH  27  29
ENDBRANCH  26  27
ENDBRANCH  25  26
ENDBRANCH   1  25
TORSDOF 12
