REMARK  Name = 723
REMARK  4 active torsions:
REMARK  status: ('A' for Active; 'I' for Inactive)
REMARK    1  A    between atoms: O_2  and  C_9
REMARK    2  A    between atoms: O_3  and  C_11
REMARK    3  A    between atoms: C_5  and  C_6
REMARK    4  A    between atoms: C_5  and  C_7
REMARK                            x       y       z     vdW  Elec       q    Type
REMARK                         _______ _______ _______ _____ _____    ______ ____
ROOT
ATOM      1  C   UNL     1       3.793   0.078   0.000  0.00  0.00    +0.000 A 
ATOM      2  C   UNL     1       3.079  -0.334   0.000  0.00  0.00    +0.000 A 
ATOM      3  C   UNL     1       4.508  -0.334   0.000  0.00  0.00    +0.000 A 
ATOM      4  C   UNL     1       4.508  -1.159   0.000  0.00  0.00    +0.000 A 
ATOM      5  C   UNL     1       3.079  -1.159   0.000  0.00  0.00    +0.000 A 
ATOM      6  C   UNL     1       3.793  -1.572   0.000  0.00  0.00    +0.000 A 
ENDROOT
BRANCH   1   8
ATOM      7  O   UNL     1       3.079   1.316   0.000  0.00  0.00    +0.000 OA
ATOM      8  C   UNL     1       3.793   0.903   0.000  0.00  0.00    +0.000 C 
BRANCH   8  10
ATOM      9  N   UNL     1       4.508   2.141   0.000  0.00  0.00    +0.000 NA
ATOM     10  C   UNL     1       4.508   1.316   0.000  0.00  0.00    +0.000 C 
ATOM     11  C   UNL     1       5.222   0.903   0.000  0.00  0.00    +0.000 C 
ENDBRANCH   8  10
ENDBRANCH   1   8
BRANCH   2  12
ATOM     12  O   UNL     1       2.365   0.078   0.000  0.00  0.00    +0.000 OA
ATOM     13  C   UNL     1       1.650  -0.334   0.000  0.00  0.00    +0.000 C 
ENDBRANCH   2  12
BRANCH   4  14
ATOM     14  O   UNL     1       5.222  -1.572   0.000  0.00  0.00    +0.000 OA
ATOM     15  C   UNL     1       5.222  -2.397   0.000  0.00  0.00    +0.000 C 
ENDBRANCH   4  14
TORSDOF 4
