REMARK  Name = 726
REMARK  4 active torsions:
REMARK  status: ('A' for Active; 'I' for Inactive)
REMARK    1  A    between atoms: N_1  and  C_4
REMARK    2  A    between atoms: N_2  and  C_7
REMARK    3  A    between atoms: C_3  and  C_4
REMARK    4  A    between atoms: C_3  and  C_7
REMARK                            x       y       z     vdW  Elec       q    Type
REMARK                         _______ _______ _______ _____ _____    ______ ____
ROOT
ATOM      1  N   UNL     1       3.868   0.717   0.000  0.00  0.00    +0.000 N 
ATOM      2  C   UNL     1       4.582   1.060   0.000  0.00  0.00    +0.000 A 
ATOM      3  C   UNL     1       3.154   1.060   0.000  0.00  0.00    +0.000 A 
ATOM      4  C   UNL     1       4.264   2.452   0.000  0.00  0.00    +0.000 C 
ATOM      5  C   UNL     1       3.472   2.452   0.000  0.00  0.00    +0.000 C 
ATOM      6  C   UNL     1       4.758   1.833   0.000  0.00  0.00    +0.000 A 
ATOM      7  C   UNL     1       2.978   1.833   0.000  0.00  0.00    +0.000 A 
ATOM      8  C   UNL     1       5.178   0.490   0.000  0.00  0.00    +0.000 A 
ATOM      9  C   UNL     1       2.558   0.490   0.000  0.00  0.00    +0.000 A 
ATOM     10  C   UNL     1       5.543   2.088   0.000  0.00  0.00    +0.000 A 
ATOM     11  C   UNL     1       2.193   2.088   0.000  0.00  0.00    +0.000 A 
ATOM     12  C   UNL     1       5.968   0.727   0.000  0.00  0.00    +0.000 A 
ATOM     13  C   UNL     1       1.768   0.727   0.000  0.00  0.00    +0.000 A 
ATOM     14  C   UNL     1       6.152   1.531   0.000  0.00  0.00    +0.000 A 
ATOM     15  C   UNL     1       1.584   1.532   0.000  0.00  0.00    +0.000 A 
ENDROOT
BRANCH   1  16
ATOM     16  C   UNL     1       3.868  -0.075   0.000  0.00  0.00    +0.000 C 
BRANCH  16  17
ATOM     17  C   UNL     1       3.182  -0.471   0.000  0.00  0.00    +0.000 C 
ATOM     18  C   UNL     1       2.496  -0.075   0.000  0.00  0.00    +0.000 C 
BRANCH  17  19
ATOM     19  C   UNL     1       3.182  -1.264   0.000  0.00  0.00    +0.000 C 
BRANCH  19  20
ATOM     20  N   UNL     1       2.496  -1.660   0.000  0.00  0.00    +0.000 NA
ATOM     21  C   UNL     1       2.496  -2.452   0.000  0.00  0.00    +0.000 C 
ATOM     22  C   UNL     1       1.810  -1.264   0.000  0.00  0.00    +0.000 C 
ENDBRANCH  19  20
ENDBRANCH  17  19
ENDBRANCH  16  17
ENDBRANCH   1  16
TORSDOF 4
