REMARK  Name = 727
REMARK  8 active torsions:
REMARK  status: ('A' for Active; 'I' for Inactive)
REMARK    1  A    between atoms: O_1  and  N_10
REMARK    2  A    between atoms: O_1  and  C_13
REMARK    3  A    between atoms: O_2  and  N_11
REMARK    4  A    between atoms: O_2  and  C_14
REMARK    5  A    between atoms: O_3  and  N_12
REMARK    6  A    between atoms: O_3  and  C_15
REMARK    7  A    between atoms: C_13  and  C_14
REMARK    8  A    between atoms: C_13  and  C_15
REMARK                            x       y       z     vdW  Elec       q    Type
REMARK                         _______ _______ _______ _____ _____    ______ ____
ROOT
ATOM      1  C   UNL     1       4.508   0.619   0.000  0.00  0.00    +0.000 C 
ENDROOT
BRANCH   1   2
ATOM      2  O   UNL     1       5.222   1.031   0.000  0.00  0.00    +0.000 OA
BRANCH   2   5
ATOM      3  O   UNL     1       6.652   1.031   0.000  0.00  0.00    +0.000 OA
ATOM      4  O   UNL     1       5.937  -0.206   0.000  0.00  0.00    +0.000 OA
ATOM      5  N   UNL     1       5.937   0.619   0.000  0.00  0.00    +0.000 N 
ENDBRANCH   2   5
ENDBRANCH   1   2
BRANCH   1   6
ATOM      6  C   UNL     1       3.793   1.031   0.000  0.00  0.00    +0.000 C 
BRANCH   6   7
ATOM      7  O   UNL     1       3.079   0.619   0.000  0.00  0.00    +0.000 OA
BRANCH   7  10
ATOM      8  O   UNL     1       1.650   0.619   0.000  0.00  0.00    +0.000 OA
ATOM      9  O   UNL     1       2.365   1.856   0.000  0.00  0.00    +0.000 OA
ATOM     10  N   UNL     1       2.365   1.031   0.000  0.00  0.00    +0.000 N 
ENDBRANCH   7  10
ENDBRANCH   6   7
ENDBRANCH   1   6
BRANCH   1  11
ATOM     11  C   UNL     1       4.508  -0.206   0.000  0.00  0.00    +0.000 C 
BRANCH  11  12
ATOM     12  O   UNL     1       3.793  -0.619   0.000  0.00  0.00    +0.000 OA
BRANCH  12  15
ATOM     13  O   UNL     1       3.079  -1.856   0.000  0.00  0.00    +0.000 OA
ATOM     14  O   UNL     1       4.508  -1.856   0.000  0.00  0.00    +0.000 OA
ATOM     15  N   UNL     1       3.793  -1.444   0.000  0.00  0.00    +0.000 N 
ENDBRANCH  12  15
ENDBRANCH  11  12
ENDBRANCH   1  11
TORSDOF 8
