REMARK  Name = 730
REMARK  1 active torsions:
REMARK  status: ('A' for Active; 'I' for Inactive)
REMARK    1  A    between atoms: C_7  and  C_8
REMARK                            x       y       z     vdW  Elec       q    Type
REMARK                         _______ _______ _______ _____ _____    ______ ____
ROOT
ATOM      1  N   UNL     1       3.860   0.501   0.000  0.00  0.00    +0.000 NA
ATOM      2  N   UNL     1       3.860  -0.827   0.000  0.00  0.00    +0.000 NA
ATOM      3  C   UNL     1       3.079   0.250   0.000  0.00  0.00    +0.000 A 
ATOM      4  C   UNL     1       3.079  -0.575   0.000  0.00  0.00    +0.000 A 
ATOM      5  C   UNL     1       4.341  -0.163   0.000  0.00  0.00    +0.000 A 
ATOM      6  C   UNL     1       2.365   0.662   0.000  0.00  0.00    +0.000 A 
ATOM      7  C   UNL     1       2.365  -0.988   0.000  0.00  0.00    +0.000 A 
ATOM      8  C   UNL     1       1.650   0.250   0.000  0.00  0.00    +0.000 A 
ATOM      9  C   UNL     1       1.650  -0.575   0.000  0.00  0.00    +0.000 A 
ENDROOT
BRANCH   5  12
ATOM     10  S   UNL     1       6.436   0.250   0.000  0.00  0.00    +0.000 S 
ATOM     11  N   UNL     1       5.651  -0.830   0.000  0.00  0.00    +0.000 NA
ATOM     12  C   UNL     1       5.166  -0.163   0.000  0.00  0.00    +0.000 A 
ATOM     13  C   UNL     1       5.651   0.505   0.000  0.00  0.00    +0.000 A 
ATOM     14  C   UNL     1       6.436  -0.575   0.000  0.00  0.00    +0.000 A 
ENDBRANCH   5  12
TORSDOF 1
