REMARK  Name = 734
REMARK  4 active torsions:
REMARK  status: ('A' for Active; 'I' for Inactive)
REMARK    1  A    between atoms: N_4  and  C_13
REMARK    2  A    between atoms: C_8  and  C_14
REMARK    3  A    between atoms: C_13  and  C_15
REMARK    4  A    between atoms: C_15  and  C_16
REMARK                            x       y       z     vdW  Elec       q    Type
REMARK                         _______ _______ _______ _____ _____    ______ ____
ROOT
ATOM      1  N   UNL     1       6.964   0.274   0.000  0.00  0.00    +0.000 NA
ATOM      2  C   UNL     1       5.535  -0.551   0.000  0.00  0.00    +0.000 C 
ATOM      3  C   UNL     1       5.535   0.274   0.000  0.00  0.00    +0.000 C 
ATOM      4  C   UNL     1       6.250  -0.964   0.000  0.00  0.00    +0.000 C 
ATOM      5  C   UNL     1       6.250   0.686   0.000  0.00  0.00    +0.000 C 
ATOM      6  C   UNL     1       6.964  -0.551   0.000  0.00  0.00    +0.000 C 
ENDROOT
BRANCH   2  10
ATOM      7  F   UNL     1       1.650  -0.119   0.000  0.00  0.00    +0.000 F 
ATOM      8  O   UNL     1       3.934  -1.952   0.000  0.00  0.00    +0.000 OA
ATOM      9  N   UNL     1       4.736  -1.780   0.000  0.00  0.00    +0.000 NA
ATOM     10  C   UNL     1       4.821  -0.964   0.000  0.00  0.00    +0.000 A 
ATOM     11  C   UNL     1       4.072  -0.630   0.000  0.00  0.00    +0.000 A 
ATOM     12  C   UNL     1       3.521  -1.244   0.000  0.00  0.00    +0.000 A 
ATOM     13  C   UNL     1       3.816   0.154   0.000  0.00  0.00    +0.000 A 
ATOM     14  C   UNL     1       2.714  -1.074   0.000  0.00  0.00    +0.000 A 
ATOM     15  C   UNL     1       3.008   0.325   0.000  0.00  0.00    +0.000 A 
ATOM     16  C   UNL     1       2.457  -0.289   0.000  0.00  0.00    +0.000 A 
ENDBRANCH   2  10
BRANCH   1  17
ATOM     17  C   UNL     1       7.679   0.686   0.000  0.00  0.00    +0.000 C 
BRANCH  17  18
ATOM     18  C   UNL     1       8.393   0.274   0.000  0.00  0.00    +0.000 C 
BRANCH  18  22
ATOM     19  O   UNL     1       9.822  -0.551   0.000  0.00  0.00    +0.000 OA
ATOM     20  N   UNL     1      10.537   0.686   0.000  0.00  0.00    +0.000 N 
ATOM     21  N   UNL     1       9.822   1.924   0.000  0.00  0.00    +0.000 NA
ATOM     22  C   UNL     1       9.108   0.686   0.000  0.00  0.00    +0.000 A 
ATOM     23  C   UNL     1      11.274   0.245   0.000  0.00  0.00    +0.000 C 
ATOM     24  C   UNL     1      12.022   0.669   0.000  0.00  0.00    +0.000 C 
ATOM     25  C   UNL     1      10.537   1.511   0.000  0.00  0.00    +0.000 A 
ATOM     26  C   UNL     1      12.022   1.528   0.000  0.00  0.00    +0.000 C 
ATOM     27  C   UNL     1      11.274   1.952   0.000  0.00  0.00    +0.000 C 
ATOM     28  C   UNL     1       9.822   0.274   0.000  0.00  0.00    +0.000 A 
ATOM     29  C   UNL     1       9.108   1.511   0.000  0.00  0.00    +0.000 A 
ATOM     30  C   UNL     1       8.393   1.924   0.000  0.00  0.00    +0.000 C 
ENDBRANCH  18  22
ENDBRANCH  17  18
ENDBRANCH   1  17
TORSDOF 4
