REMARK  Name = 735
REMARK  5 active torsions:
REMARK  status: ('A' for Active; 'I' for Inactive)
REMARK    1  A    between atoms: N_1  and  C_2
REMARK    2  A    between atoms: N_1  and  C_6
REMARK    3  A    between atoms: C_2  and  C_3
REMARK    4  A    between atoms: C_6  and  C_13
REMARK    5  A    between atoms: C_16  and  C_17
REMARK                            x       y       z     vdW  Elec       q    Type
REMARK                         _______ _______ _______ _____ _____    ______ ____
ROOT
ATOM      1  N   UNL     1       4.508   0.398   0.000  0.00  0.00    +0.000 NA
ATOM      2  C   UNL     1       3.793   0.811   0.000  0.00  0.00    +0.000 C 
ENDROOT
BRANCH   1   3
ATOM      3  C   UNL     1       5.222   0.811   0.000  0.00  0.00    +0.000 C 
BRANCH   3   4
ATOM      4  C   UNL     1       5.222   1.636   0.000  0.00  0.00    +0.000 A 
ATOM      5  C   UNL     1       5.937   2.048   0.000  0.00  0.00    +0.000 A 
ATOM      6  C   UNL     1       5.937   2.873   0.000  0.00  0.00    +0.000 A 
ATOM      7  C   UNL     1       4.508   2.048   0.000  0.00  0.00    +0.000 A 
ATOM      8  C   UNL     1       6.674   1.607   0.000  0.00  0.00    +0.000 A 
ATOM      9  C   UNL     1       5.222   3.286   0.000  0.00  0.00    +0.000 A 
ATOM     10  C   UNL     1       4.508   2.873   0.000  0.00  0.00    +0.000 A 
ATOM     11  C   UNL     1       6.674   3.314   0.000  0.00  0.00    +0.000 A 
ATOM     12  C   UNL     1       7.422   2.031   0.000  0.00  0.00    +0.000 A 
ATOM     13  C   UNL     1       7.422   2.890   0.000  0.00  0.00    +0.000 A 
ENDBRANCH   3   4
ENDBRANCH   1   3
BRANCH   1  14
ATOM     14  C   UNL     1       4.508  -0.427   0.000  0.00  0.00    +0.000 C 
BRANCH  14  15
ATOM     15  C   UNL     1       3.793  -0.839   0.000  0.00  0.00    +0.000 C 
ATOM     16  C   UNL     1       3.793  -1.664   0.000  0.00  0.00    +0.000 C 
BRANCH  16  17
ATOM     17  C   UNL     1       3.079  -2.077   0.000  0.00  0.00    +0.000 A 
ATOM     18  C   UNL     1       3.079  -2.902   0.000  0.00  0.00    +0.000 A 
ATOM     19  C   UNL     1       2.364  -1.664   0.000  0.00  0.00    +0.000 A 
ATOM     20  C   UNL     1       2.364  -3.314   0.000  0.00  0.00    +0.000 A 
ATOM     21  C   UNL     1       1.650  -2.077   0.000  0.00  0.00    +0.000 A 
ATOM     22  C   UNL     1       1.650  -2.902   0.000  0.00  0.00    +0.000 A 
ENDBRANCH  16  17
ENDBRANCH  14  15
ENDBRANCH   1  14
TORSDOF 5
