REMARK  Name = 737
REMARK  5 active torsions:
REMARK  status: ('A' for Active; 'I' for Inactive)
REMARK    1  A    between atoms: N_2  and  C_8
REMARK    2  A    between atoms: N_3  and  C_9
REMARK    3  A    between atoms: C_8  and  C_10
REMARK    4  A    between atoms: C_8  and  C_11
REMARK    5  A    between atoms: C_9  and  C_12
REMARK                            x       y       z     vdW  Elec       q    Type
REMARK                         _______ _______ _______ _____ _____    ______ ____
ROOT
ATOM      1  N   UNL     1       4.508  -0.825   0.000  0.00  0.00    +0.000 NA
ATOM      2  N   UNL     1       4.508   0.825   0.000  0.00  0.00    +0.000 NA
ATOM      3  C   UNL     1       3.793  -0.412   0.000  0.00  0.00    +0.000 C 
ATOM      4  C   UNL     1       5.222  -0.412   0.000  0.00  0.00    +0.000 C 
ATOM      5  C   UNL     1       3.793   0.412   0.000  0.00  0.00    +0.000 C 
ATOM      6  C   UNL     1       5.222   0.412   0.000  0.00  0.00    +0.000 C 
ENDROOT
BRANCH   1   7
ATOM      7  C   UNL     1       4.508  -1.650   0.000  0.00  0.00    +0.000 C 
BRANCH   7   9
ATOM      8 CL   UNL     1       1.650  -3.300   0.000  0.00  0.00    +0.000 Cl
ATOM      9  C   UNL     1       3.793  -2.062   0.000  0.00  0.00    +0.000 A 
ATOM     10  C   UNL     1       3.793  -2.888   0.000  0.00  0.00    +0.000 A 
ATOM     11  C   UNL     1       3.079  -1.650   0.000  0.00  0.00    +0.000 A 
ATOM     12  C   UNL     1       3.079  -3.300   0.000  0.00  0.00    +0.000 A 
ATOM     13  C   UNL     1       2.365  -2.062   0.000  0.00  0.00    +0.000 A 
ATOM     14  C   UNL     1       2.365  -2.888   0.000  0.00  0.00    +0.000 A 
ENDBRANCH   7   9
BRANCH   7  15
ATOM     15  C   UNL     1       5.222  -2.062   0.000  0.00  0.00    +0.000 A 
ATOM     16  C   UNL     1       5.937  -1.650   0.000  0.00  0.00    +0.000 A 
ATOM     17  C   UNL     1       5.222  -2.888   0.000  0.00  0.00    +0.000 A 
ATOM     18  C   UNL     1       6.652  -2.062   0.000  0.00  0.00    +0.000 A 
ATOM     19  C   UNL     1       5.937  -3.300   0.000  0.00  0.00    +0.000 A 
ATOM     20  C   UNL     1       6.652  -2.888   0.000  0.00  0.00    +0.000 A 
ENDBRANCH   7  15
ENDBRANCH   1   7
BRANCH   2  21
ATOM     21  C   UNL     1       4.508   1.650   0.000  0.00  0.00    +0.000 C 
BRANCH  21  22
ATOM     22  C   UNL     1       5.222   2.062   0.000  0.00  0.00    +0.000 A 
ATOM     23  C   UNL     1       5.937   1.650   0.000  0.00  0.00    +0.000 A 
ATOM     24  C   UNL     1       5.222   2.888   0.000  0.00  0.00    +0.000 A 
ATOM     25  C   UNL     1       6.652   2.062   0.000  0.00  0.00    +0.000 A 
ATOM     26  C   UNL     1       5.937   3.300   0.000  0.00  0.00    +0.000 A 
ATOM     27  C   UNL     1       6.652   2.888   0.000  0.00  0.00    +0.000 A 
ATOM     28  C   UNL     1       7.366   1.650   0.000  0.00  0.00    +0.000 C 
ENDBRANCH  21  22
ENDBRANCH   2  21
TORSDOF 5
