REMARK  Name = 739
REMARK  3 active torsions:
REMARK  status: ('A' for Active; 'I' for Inactive)
REMARK    1  A    between atoms: N_7  and  CA_10
REMARK    2  A    between atoms: CA_11  and  C_19
REMARK    3  A    between atoms: CA_16  and  C_22
REMARK                            x       y       z     vdW  Elec       q    Type
REMARK                         _______ _______ _______ _____ _____    ______ ____
ROOT
ATOM      1  O   UNL     1       4.091   0.066   0.000  0.00  0.00    +0.000 OA
ATOM      2  N   UNL     1       5.282   0.928   0.000  0.00  0.00    +0.000 N 
ATOM      3  N   UNL     1       4.678   2.119   0.000  0.00  0.00    +0.000 NA
ATOM      4  C   UNL     1       5.413   1.743   0.000  0.00  0.00    +0.000 C 
ATOM      5  C   UNL     1       4.467   0.801   0.000  0.00  0.00    +0.000 C 
ATOM      6  CA  UNL     1       4.094   1.536   0.000  0.00  0.00    +0.000 C 
ATOM      7  C   UNL     1       6.227   1.612   0.000  0.00  0.00    +0.000 C 
ATOM      8  C   UNL     1       5.789   2.477   0.000  0.00  0.00    +0.000 C 
ENDROOT
BRANCH   2  13
ATOM      9  S   UNL     1       7.481   0.595   0.000  0.00  0.00    +0.000 S 
ATOM     10  O   UNL     1       5.282  -1.073   0.000  0.00  0.00    +0.000 OA
ATOM     11  N   UNL     1       6.696  -0.485   0.000  0.00  0.00    +0.000 N 
ATOM     12  C   UNL     1       6.696   0.340   0.000  0.00  0.00    +0.000 C 
ATOM     13  CA  UNL     1       5.864   0.344   0.000  0.00  0.00    +0.000 C 
ATOM     14  CA  UNL     1       7.481  -0.740   0.000  0.00  0.00    +0.000 C 
ATOM     15  C   UNL     1       7.965  -0.072   0.000  0.00  0.00    +0.000 C 
ATOM     16  C   UNL     1       5.864  -0.488   0.000  0.00  0.00    +0.000 C 
ATOM     17  C   UNL     1       8.633  -0.557   0.000  0.00  0.00    +0.000 C 
ATOM     18  C   UNL     1       8.633   0.412   0.000  0.00  0.00    +0.000 C 
BRANCH  14  21
ATOM     19  O   UNL     1       7.183  -2.138   0.000  0.00  0.00    +0.000 OA
ATOM     20  OXT UNL     1       8.542  -1.696   0.000  0.00  0.00    +0.000 OA
ATOM     21  C   UNL     1       7.736  -1.524   0.000  0.00  0.00    +0.000 C 
ENDBRANCH  14  21
ENDBRANCH   2  13
BRANCH   6  22
ATOM     22  C   UNL     1       3.279   1.667   0.000  0.00  0.00    +0.000 A 
ATOM     23  C   UNL     1       2.759   1.027   0.000  0.00  0.00    +0.000 A 
ATOM     24  C   UNL     1       2.985   2.438   0.000  0.00  0.00    +0.000 A 
ATOM     25  C   UNL     1       1.944   1.158   0.000  0.00  0.00    +0.000 A 
ATOM     26  C   UNL     1       2.171   2.569   0.000  0.00  0.00    +0.000 A 
ATOM     27  C   UNL     1       1.650   1.929   0.000  0.00  0.00    +0.000 A 
ENDBRANCH   6  22
TORSDOF 3
