REMARK  Name = 73Q
REMARK  0 active torsions:
REMARK  status: ('A' for Active; 'I' for Inactive)
REMARK                            x       y       z     vdW  Elec       q    Type
REMARK                         _______ _______ _______ _____ _____    ______ ____
ROOT
ATOM      1  C   UNL     1      -1.218  -1.444   0.000  0.00  0.00    +0.000 C 
ATOM      2  C   UNL     1      -0.963  -0.660   0.000  0.00  0.00    +0.000 A 
ATOM      3  N   UNL     1      -1.448   0.008   0.000  0.00  0.00    +0.000 NA
ATOM      4  N   UNL     1      -0.963   0.675   0.000  0.00  0.00    +0.000 N 
ATOM      5  C   UNL     1      -1.218   1.460   0.000  0.00  0.00    +0.000 C 
ATOM      6  C   UNL     1      -0.178   0.420   0.000  0.00  0.00    +0.000 A 
ATOM      7  N   UNL     1       0.536   0.833   0.000  0.00  0.00    +0.000 N 
ATOM      8  O   UNL     1       0.536   1.658   0.000  0.00  0.00    +0.000 OA
ATOM      9  C   UNL     1       1.251   0.420   0.000  0.00  0.00    +0.000 A 
ATOM     10  C   UNL     1       1.965   0.833   0.000  0.00  0.00    +0.000 A 
ATOM     11  C   UNL     1       2.680   0.420   0.000  0.00  0.00    +0.000 A 
ATOM     12  C   UNL     1       2.680  -0.405   0.000  0.00  0.00    +0.000 A 
ATOM     13 CL   UNL     1       3.394  -0.817   0.000  0.00  0.00    +0.000 Cl
ATOM     14  C   UNL     1       1.965  -0.817   0.000  0.00  0.00    +0.000 A 
ATOM     15  C   UNL     1       1.251  -0.405   0.000  0.00  0.00    +0.000 A 
ATOM     16  C   UNL     1       0.536  -0.817   0.000  0.00  0.00    +0.000 A 
ATOM     17  O   UNL     1       0.536  -1.642   0.000  0.00  0.00    +0.000 OA
ATOM     18  C   UNL     1      -0.178  -0.405   0.000  0.00  0.00    +0.000 A 
ENDROOT
TORSDOF 0
