REMARK  Name = 73V
REMARK  12 active torsions:
REMARK  status: ('A' for Active; 'I' for Inactive)
REMARK    1  A    between atoms: C_2  and  C_3
REMARK    2  A    between atoms: C_3  and  N_4
REMARK    3  A    between atoms: C_5  and  C_11
REMARK    4  A    between atoms: C_11  and  O_30
REMARK    5  A    between atoms: C_13  and  C_14
REMARK    6  A    between atoms: C_16  and  C_17
REMARK    7  A    between atoms: N_19  and  C_20
REMARK    8  A    between atoms: C_20  and  C_21
REMARK    9  A    between atoms: C_20  and  C_23
REMARK   10  A    between atoms: C_23  and  C_24
REMARK   11  A    between atoms: C_28  and  C_29
REMARK   12  A    between atoms: C_29  and  O_30
REMARK                            x       y       z     vdW  Elec       q    Type
REMARK                         _______ _______ _______ _____ _____    ______ ____
ROOT
ATOM      1  C   UNL     1       0.012  -0.336   0.000  0.00  0.00    +0.000 C 
ENDROOT
BRANCH   1   2
ATOM      2  C   UNL     1       0.424   0.379   0.000  0.00  0.00    +0.000 C 
ATOM      3  O   UNL     1       0.012   1.093   0.000  0.00  0.00    +0.000 OA
ATOM      4  N   UNL     1       1.249   0.379   0.000  0.00  0.00    +0.000 N 
ATOM      5  C   UNL     1       1.734   1.046   0.000  0.00  0.00    +0.000 C 
ATOM      6  C   UNL     1       2.519   0.791   0.000  0.00  0.00    +0.000 C 
ATOM      7  C   UNL     1       2.519  -0.034   0.000  0.00  0.00    +0.000 C 
ATOM      8  C   UNL     1       1.734  -0.289   0.000  0.00  0.00    +0.000 C 
BRANCH   5   9
ATOM      9  C   UNL     1       1.479   1.831   0.000  0.00  0.00    +0.000 C 
ATOM     10  O   UNL     1       0.672   2.002   0.000  0.00  0.00    +0.000 OA
BRANCH   9  11
ATOM     11  O   UNL     1       2.031   2.444   0.000  0.00  0.00    +0.000 OA
BRANCH  11  12
ATOM     12  C   UNL     1       1.776   3.228   0.000  0.00  0.00    +0.000 C 
BRANCH  12  13
ATOM     13  C   UNL     1       2.328   3.841   0.000  0.00  0.00    +0.000 A 
ATOM     14  C   UNL     1       2.073   4.626   0.000  0.00  0.00    +0.000 A 
ATOM     15  C   UNL     1       2.625   5.239   0.000  0.00  0.00    +0.000 A 
ATOM     16  C   UNL     1       3.432   5.067   0.000  0.00  0.00    +0.000 A 
ATOM     17  C   UNL     1       3.687   4.283   0.000  0.00  0.00    +0.000 A 
ATOM     18  C   UNL     1       3.135   3.670   0.000  0.00  0.00    +0.000 A 
ENDBRANCH  12  13
ENDBRANCH  11  12
ENDBRANCH   9  11
ENDBRANCH   5   9
ENDBRANCH   1   2
BRANCH   1  21
ATOM     19  C   UNL     1      -1.226  -1.050   0.000  0.00  0.00    +0.000 C 
ATOM     20  O   UNL     1      -0.813  -1.765   0.000  0.00  0.00    +0.000 OA
ATOM     21  N   UNL     1      -0.813  -0.336   0.000  0.00  0.00    +0.000 NA
BRANCH  19  23
ATOM     22  O   UNL     1      -2.765  -0.638   0.000  0.00  0.00    +0.000 OA
ATOM     23  C   UNL     1      -2.051  -1.050   0.000  0.00  0.00    +0.000 C 
ATOM     24  C   UNL     1      -2.765  -1.463   0.000  0.00  0.00    +0.000 C 
BRANCH  24  26
ATOM     25  N   UNL     1      -4.003  -2.178   0.000  0.00  0.00    +0.000 NA
ATOM     26  C   UNL     1      -3.178  -2.178   0.000  0.00  0.00    +0.000 C 
ATOM     27  O   UNL     1      -2.765  -2.892   0.000  0.00  0.00    +0.000 OA
BRANCH  25  28
ATOM     28  C   UNL     1      -4.415  -2.892   0.000  0.00  0.00    +0.000 C 
BRANCH  28  30
ATOM     29  C   UNL     1      -5.653  -3.606   0.000  0.00  0.00    +0.000 C 
ATOM     30  C   UNL     1      -5.240  -2.892   0.000  0.00  0.00    +0.000 C 
ENDBRANCH  28  30
ENDBRANCH  25  28
ENDBRANCH  24  26
ENDBRANCH  19  23
ENDBRANCH   1  21
BRANCH   1  31
ATOM     31  C   UNL     1       0.424  -1.050   0.000  0.00  0.00    +0.000 C 
ATOM     32  C   UNL     1       0.012  -1.765   0.000  0.00  0.00    +0.000 C 
BRANCH  31  33
ATOM     33  C   UNL     1       1.249  -1.050   0.000  0.00  0.00    +0.000 C 
ATOM     34  C   UNL     1       1.662  -1.765   0.000  0.00  0.00    +0.000 C 
ENDBRANCH  31  33
ENDBRANCH   1  31
TORSDOF 12
