REMARK  Name = 740
REMARK  4 active torsions:
REMARK  status: ('A' for Active; 'I' for Inactive)
REMARK    1  A    between atoms: C_1  and  N_28
REMARK    2  A    between atoms: C_4  and  C_7
REMARK    3  A    between atoms: C_7  and  C_8
REMARK    4  A    between atoms: C_16  and  N_19
REMARK                            x       y       z     vdW  Elec       q    Type
REMARK                         _______ _______ _______ _____ _____    ______ ____
ROOT
ATOM      1  C   UNL     1      -0.514   0.206   0.000  0.00  0.00    +0.000 C 
ATOM      2  N   UNL     1       0.293   0.377   0.000  0.00  0.00    +0.000 NA
ATOM      3  C   UNL     1       0.548   1.162   0.000  0.00  0.00    +0.000 A 
ATOM      4  N   UNL     1       0.063   1.829   0.000  0.00  0.00    +0.000 NA
ATOM      5  N   UNL     1       0.548   2.497   0.000  0.00  0.00    +0.000 NA
ATOM      6  C   UNL     1       1.332   2.242   0.000  0.00  0.00    +0.000 A 
ATOM      7  C   UNL     1       2.047   2.654   0.000  0.00  0.00    +0.000 A 
ATOM      8  C   UNL     1       2.761   2.242   0.000  0.00  0.00    +0.000 A 
ATOM      9  C   UNL     1       2.761   1.417   0.000  0.00  0.00    +0.000 A 
ATOM     10  C   UNL     1       2.047   1.004   0.000  0.00  0.00    +0.000 A 
ATOM     11  C   UNL     1       1.332   1.417   0.000  0.00  0.00    +0.000 A 
ATOM     12  O   UNL     1      -1.066   0.819   0.000  0.00  0.00    +0.000 OA
ENDROOT
BRANCH   9  13
ATOM     13  N   UNL     1       3.476   1.004   0.000  0.00  0.00    +0.000 N 
ATOM     14  C   UNL     1       4.229   1.340   0.000  0.00  0.00    +0.000 C 
ATOM     15  C   UNL     1       4.781   0.727   0.000  0.00  0.00    +0.000 C 
ATOM     16  S   UNL     1       3.562   0.184   0.000  0.00  0.00    +0.000 S 
ATOM     17  C   UNL     1       4.369   0.012   0.000  0.00  0.00    +0.000 C 
ATOM     18  O   UNL     1       2.757   0.004   0.000  0.00  0.00    +0.000 OA
ATOM     19  O   UNL     1       3.299  -0.598   0.000  0.00  0.00    +0.000 OA
ENDBRANCH   9  13
BRANCH   1  20
ATOM     20  C   UNL     1      -0.769  -0.579   0.000  0.00  0.00    +0.000 C 
BRANCH  20  24
ATOM     21  C   UNL     1      -3.190  -1.093   0.000  0.00  0.00    +0.000 A 
ATOM     22  C   UNL     1      -2.638  -1.706   0.000  0.00  0.00    +0.000 A 
ATOM     23  C   UNL     1      -1.831  -1.535   0.000  0.00  0.00    +0.000 A 
ATOM     24  C   UNL     1      -1.576  -0.750   0.000  0.00  0.00    +0.000 A 
ATOM     25  C   UNL     1      -2.128  -0.137   0.000  0.00  0.00    +0.000 A 
ATOM     26  C   UNL     1      -2.935  -0.309   0.000  0.00  0.00    +0.000 A 
BRANCH  21  28
ATOM     27  C   UNL     1      -4.252  -2.050   0.000  0.00  0.00    +0.000 C 
ATOM     28  N   UNL     1      -3.997  -1.265   0.000  0.00  0.00    +0.000 N 
ATOM     29  C   UNL     1      -4.549  -0.652   0.000  0.00  0.00    +0.000 C 
ATOM     30  C   UNL     1      -5.356  -0.823   0.000  0.00  0.00    +0.000 C 
ATOM     31  C   UNL     1      -5.611  -1.608   0.000  0.00  0.00    +0.000 C 
ATOM     32  C   UNL     1      -5.059  -2.221   0.000  0.00  0.00    +0.000 C 
ENDBRANCH  21  28
ENDBRANCH  20  24
ENDBRANCH   1  20
TORSDOF 4
