REMARK  Name = 740
REMARK  2 active torsions:
REMARK  status: ('A' for Active; 'I' for Inactive)
REMARK    1  A    between atoms: O_5  and  C_11
REMARK    2  A    between atoms: O_5  and  C_15
REMARK                            x       y       z     vdW  Elec       q    Type
REMARK                         _______ _______ _______ _____ _____    ______ ____
ROOT
ATOM      1  S   UNL     1       6.003   0.513   0.000  0.00  0.00    +0.000 S 
ATOM      2  N   UNL     1       6.003  -0.815   0.000  0.00  0.00    +0.000 NA
ATOM      3  N   UNL     1       7.310  -0.151   0.000  0.00  0.00    +0.000 NA
ATOM      4  C   UNL     1       5.222   0.262   0.000  0.00  0.00    +0.000 A 
ATOM      5  C   UNL     1       5.222  -0.564   0.000  0.00  0.00    +0.000 A 
ATOM      6  C   UNL     1       4.508   0.674   0.000  0.00  0.00    +0.000 A 
ATOM      7  C   UNL     1       3.793   0.262   0.000  0.00  0.00    +0.000 A 
ATOM      8  C   UNL     1       4.508  -0.976   0.000  0.00  0.00    +0.000 A 
ATOM      9  C   UNL     1       3.793  -0.564   0.000  0.00  0.00    +0.000 A 
ATOM     10  C   UNL     1       6.485  -0.151   0.000  0.00  0.00    +0.000 A 
ENDROOT
BRANCH   7  11
ATOM     11  O   UNL     1       3.079   0.674   0.000  0.00  0.00    +0.000 OA
BRANCH  11  15
ATOM     12  F   UNL     1       2.777  -0.453   0.000  0.00  0.00    +0.000 F 
ATOM     13  F   UNL     1       1.650  -0.151   0.000  0.00  0.00    +0.000 F 
ATOM     14  F   UNL     1       1.952   0.976   0.000  0.00  0.00    +0.000 F 
ATOM     15  C   UNL     1       2.365   0.262   0.000  0.00  0.00    +0.000 C 
ENDBRANCH  11  15
ENDBRANCH   7  11
TORSDOF 2
