REMARK  Name = 742
REMARK  15 active torsions:
REMARK  status: ('A' for Active; 'I' for Inactive)
REMARK    1  A    between atoms: C_2  and  C_3
REMARK    2  A    between atoms: C_3  and  C_4
REMARK    3  A    between atoms: C_4  and  C_5
REMARK    4  A    between atoms: C_5  and  C_6
REMARK    5  A    between atoms: C_6  and  C_7
REMARK    6  A    between atoms: C_7  and  C_8
REMARK    7  A    between atoms: C_8  and  C_9
REMARK    8  A    between atoms: C_9  and  C_10
REMARK    9  A    between atoms: C_10  and  C_11
REMARK   10  A    between atoms: C_11  and  C_12
REMARK   11  A    between atoms: C_12  and  P_13
REMARK   12  A    between atoms: P_13  and  C_16
REMARK   13  A    between atoms: C_16  and  C_17
REMARK   14  A    between atoms: C_17  and  P_18
REMARK   15  A    between atoms: C_17  and  P_22
REMARK                            x       y       z     vdW  Elec       q    Type
REMARK                         _______ _______ _______ _____ _____    ______ ____
ROOT
ATOM      1  P   UNL     1       3.589   0.270   0.000  0.00  0.00    +0.000 P 
ATOM      2  C   UNL     1       3.145   0.966   0.000  0.00  0.00    +0.000 C 
ATOM      3  C   UNL     1       4.033  -0.425   0.000  0.00  0.00    +0.000 C 
ENDROOT
BRANCH   1   4
ATOM      4  C   UNL     1       2.893  -0.174   0.000  0.00  0.00    +0.000 C 
BRANCH   4   5
ATOM      5  C   UNL     1       2.161   0.207   0.000  0.00  0.00    +0.000 C 
BRANCH   5   6
ATOM      6  C   UNL     1       1.466  -0.237   0.000  0.00  0.00    +0.000 C 
BRANCH   6   7
ATOM      7  C   UNL     1       0.734   0.143   0.000  0.00  0.00    +0.000 C 
BRANCH   7   8
ATOM      8  C   UNL     1       0.038  -0.301   0.000  0.00  0.00    +0.000 C 
BRANCH   8   9
ATOM      9  C   UNL     1      -0.694   0.080   0.000  0.00  0.00    +0.000 C 
BRANCH   9  10
ATOM     10  C   UNL     1      -1.389  -0.364   0.000  0.00  0.00    +0.000 C 
BRANCH  10  11
ATOM     11  C   UNL     1      -2.122   0.016   0.000  0.00  0.00    +0.000 C 
BRANCH  11  12
ATOM     12  C   UNL     1      -2.817  -0.427   0.000  0.00  0.00    +0.000 C 
BRANCH  12  13
ATOM     13  C   UNL     1      -3.549  -0.047   0.000  0.00  0.00    +0.000 C 
BRANCH  13  15
ATOM     14  C   UNL     1      -4.977  -0.110   0.000  0.00  0.00    +0.000 C 
ATOM     15  C   UNL     1      -4.245  -0.491   0.000  0.00  0.00    +0.000 C 
ENDBRANCH  13  15
ENDBRANCH  12  13
ENDBRANCH  11  12
ENDBRANCH  10  11
ENDBRANCH   9  10
ENDBRANCH   8   9
ENDBRANCH   7   8
ENDBRANCH   6   7
ENDBRANCH   5   6
ENDBRANCH   4   5
ENDBRANCH   1   4
BRANCH   1  16
ATOM     16  C   UNL     1       4.284   0.714   0.000  0.00  0.00    +0.000 C 
BRANCH  16  17
ATOM     17  C   UNL     1       5.016   0.333   0.000  0.00  0.00    +0.000 C 
BRANCH  17  18
ATOM     18  P   UNL     1       5.053  -0.491   0.000  0.00  0.00    +0.000 P 
ATOM     19  O   UNL     1       4.280  -0.780   0.000  0.00  0.00    +0.000 OA
ATOM     20  O   UNL     1       5.877  -0.454   0.000  0.00  0.00    +0.000 OA
ATOM     21  O   UNL     1       5.090  -1.315   0.000  0.00  0.00    +0.000 OA
ENDBRANCH  17  18
BRANCH  17  22
ATOM     22  P   UNL     1       5.712   0.777   0.000  0.00  0.00    +0.000 P 
ATOM     23  O   UNL     1       6.407   1.221   0.000  0.00  0.00    +0.000 OA
ATOM     24  O   UNL     1       5.268   1.473   0.000  0.00  0.00    +0.000 OA
ATOM     25  O   UNL     1       6.156   0.082   0.000  0.00  0.00    +0.000 OA
ENDBRANCH  17  22
ENDBRANCH  16  17
ENDBRANCH   1  16
TORSDOF 15
