REMARK  Name = 744
REMARK  3 active torsions:
REMARK  status: ('A' for Active; 'I' for Inactive)
REMARK    1  A    between atoms: C_3  and  N_11
REMARK    2  A    between atoms: C_9  and  C_12
REMARK    3  A    between atoms: N_13  and  C_16
REMARK                            x       y       z     vdW  Elec       q    Type
REMARK                         _______ _______ _______ _____ _____    ______ ____
ROOT
ATOM      1  C   UNL     1       2.438   3.401   0.000  0.00  0.00    +0.000 C 
ATOM      2  C   UNL     1       1.770   3.886   0.000  0.00  0.00    +0.000 C 
ATOM      3  C   UNL     1       1.103   3.401   0.000  0.00  0.00    +0.000 C 
ATOM      4  C   UNL     1       1.357   2.617   0.000  0.00  0.00    +0.000 C 
ATOM      5  N   UNL     1       2.183   2.617   0.000  0.00  0.00    +0.000 N 
ATOM      6  O   UNL     1       3.222   3.656   0.000  0.00  0.00    +0.000 OA
ENDROOT
BRANCH   5   9
ATOM      7  C   UNL     1       3.973   1.368   0.000  0.00  0.00    +0.000 C 
ATOM      8  C   UNL     1       3.488   2.035   0.000  0.00  0.00    +0.000 C 
ATOM      9  C   UNL     1       2.667   1.949   0.000  0.00  0.00    +0.000 C 
ATOM     10  C   UNL     1       2.332   1.196   0.000  0.00  0.00    +0.000 C 
ATOM     11  C   UNL     1       2.817   0.528   0.000  0.00  0.00    +0.000 C 
ATOM     12  C   UNL     1       3.637   0.614   0.000  0.00  0.00    +0.000 C 
ENDBRANCH   5   9
BRANCH   3  13
ATOM     13  C   UNL     1       0.318   3.656   0.000  0.00  0.00    +0.000 C 
ATOM     14  N   UNL     1      -0.295   3.104   0.000  0.00  0.00    +0.000 NA
ATOM     15  O   UNL     1       0.146   4.463   0.000  0.00  0.00    +0.000 OA
BRANCH  14  16
ATOM     16  C   UNL     1      -1.080   3.359   0.000  0.00  0.00    +0.000 A 
ATOM     17  C   UNL     1      -1.693   2.807   0.000  0.00  0.00    +0.000 A 
ATOM     18  C   UNL     1      -1.521   2.000   0.000  0.00  0.00    +0.000 C 
ATOM     19  C   UNL     1      -2.478   3.062   0.000  0.00  0.00    +0.000 A 
ATOM     20  C   UNL     1      -2.649   3.869   0.000  0.00  0.00    +0.000 A 
ATOM     21  C   UNL     1      -2.036   4.421   0.000  0.00  0.00    +0.000 A 
ATOM     22 CL   UNL     1      -2.207   5.228   0.000  0.00  0.00    +0.000 Cl
ATOM     23  C   UNL     1      -1.251   4.166   0.000  0.00  0.00    +0.000 A 
ENDBRANCH  14  16
ENDBRANCH   3  13
TORSDOF 3
