REMARK  Name = 744
REMARK  2 active torsions:
REMARK  status: ('A' for Active; 'I' for Inactive)
REMARK    1  A    between atoms: N_4  and  C_6
REMARK    2  A    between atoms: C_6  and  C_7
REMARK                            x       y       z     vdW  Elec       q    Type
REMARK                         _______ _______ _______ _____ _____    ______ ____
ROOT
ATOM      1  S   UNL     1       3.860   1.187   0.000  0.00  0.00    +0.000 S 
ATOM      2  C   UNL     1       4.341   0.523   0.000  0.00  0.00    +0.000 A 
ATOM      3  C   UNL     1       3.079   0.111   0.000  0.00  0.00    +0.000 A 
ATOM      4  C   UNL     1       3.860  -0.140   0.000  0.00  0.00    +0.000 A 
ATOM      5  C   UNL     1       3.079   0.936   0.000  0.00  0.00    +0.000 A 
ATOM      6  C   UNL     1       2.365  -0.301   0.000  0.00  0.00    +0.000 A 
ATOM      7  C   UNL     1       2.365   1.349   0.000  0.00  0.00    +0.000 A 
ATOM      8  C   UNL     1       1.650   0.111   0.000  0.00  0.00    +0.000 A 
ATOM      9  C   UNL     1       1.650   0.936   0.000  0.00  0.00    +0.000 A 
ENDROOT
BRANCH   2  10
ATOM     10  C   UNL     1       5.166   0.523   0.000  0.00  0.00    +0.000 C 
ATOM     11  C   UNL     1       5.579   1.238   0.000  0.00  0.00    +0.000 C 
BRANCH  10  14
ATOM     12  O   UNL     1       5.166  -0.905   0.000  0.00  0.00    +0.000 OA
ATOM     13  O   UNL     1       6.816   0.523   0.000  0.00  0.00    +0.000 OA
ATOM     14  N   UNL     1       5.579  -0.191   0.000  0.00  0.00    +0.000 N 
ATOM     15  N   UNL     1       6.816  -0.905   0.000  0.00  0.00    +0.000 NA
ATOM     16  C   UNL     1       6.404  -0.191   0.000  0.00  0.00    +0.000 C 
ENDBRANCH  10  14
ENDBRANCH   2  10
TORSDOF 2
