REMARK  Name = 745
REMARK  3 active torsions:
REMARK  status: ('A' for Active; 'I' for Inactive)
REMARK    1  A    between atoms: C_1  and  C_14
REMARK    2  A    between atoms: C_9  and  C_11
REMARK    3  A    between atoms: C_15  and  C_16
REMARK                            x       y       z     vdW  Elec       q    Type
REMARK                         _______ _______ _______ _____ _____    ______ ____
ROOT
ATOM      1  C   UNL     1      -0.800   0.543   0.000  0.00  0.00    +0.000 A 
ATOM      2  C   UNL     1      -0.085   0.131   0.000  0.00  0.00    +0.000 A 
ATOM      3  C   UNL     1       0.629   0.543   0.000  0.00  0.00    +0.000 A 
ATOM      4  C   UNL     1       0.629   1.368   0.000  0.00  0.00    +0.000 A 
ATOM      5  C   UNL     1      -0.085   1.780   0.000  0.00  0.00    +0.000 A 
ATOM      6  C   UNL     1      -0.800   1.368   0.000  0.00  0.00    +0.000 A 
ATOM      7  C   UNL     1       1.344   0.131   0.000  0.00  0.00    +0.000 A 
ATOM      8  C   UNL     1       2.058   0.543   0.000  0.00  0.00    +0.000 A 
ATOM      9  C   UNL     1       2.058   1.368   0.000  0.00  0.00    +0.000 A 
ATOM     10  C   UNL     1       1.344   1.780   0.000  0.00  0.00    +0.000 A 
ENDROOT
BRANCH   9  11
ATOM     11  C   UNL     1       2.773   1.780   0.000  0.00  0.00    +0.000 C 
ATOM     12  N   UNL     1       2.773   2.606   0.000  0.00  0.00    +0.000 NA
ATOM     13  N   UNL     1       3.487   1.368   0.000  0.00  0.00    +0.000 NA
ENDBRANCH   9  11
BRANCH   1  14
ATOM     14  C   UNL     1      -1.514   0.131   0.000  0.00  0.00    +0.000 C 
ATOM     15  C   UNL     1      -1.927  -0.584   0.000  0.00  0.00    +0.000 C 
ATOM     16  C   UNL     1      -2.339   0.131   0.000  0.00  0.00    +0.000 C 
BRANCH  15  17
ATOM     17  C   UNL     1      -1.927  -1.409   0.000  0.00  0.00    +0.000 A 
ATOM     18  C   UNL     1      -1.212  -1.821   0.000  0.00  0.00    +0.000 A 
ATOM     19  C   UNL     1      -1.212  -2.647   0.000  0.00  0.00    +0.000 A 
ATOM     20  C   UNL     1      -1.927  -3.059   0.000  0.00  0.00    +0.000 A 
ATOM     21  C   UNL     1      -2.641  -2.647   0.000  0.00  0.00    +0.000 A 
ATOM     22  C   UNL     1      -2.641  -1.821   0.000  0.00  0.00    +0.000 A 
ENDBRANCH  15  17
ENDBRANCH   1  14
TORSDOF 3
