REMARK  Name = 745
REMARK  5 active torsions:
REMARK  status: ('A' for Active; 'I' for Inactive)
REMARK    1  A    between atoms: S_1  and  C_5
REMARK    2  A    between atoms: S_1  and  C_8
REMARK    3  A    between atoms: C_5  and  C_6
REMARK    4  A    between atoms: C_5  and  C_7
REMARK    5  A    between atoms: C_8  and  C_19
REMARK                            x       y       z     vdW  Elec       q    Type
REMARK                         _______ _______ _______ _____ _____    ______ ____
ROOT
ATOM      1  C   UNL     1       3.793  -0.128   0.000  0.00  0.00    +0.000 C 
ENDROOT
BRANCH   1   2
ATOM      2  C   UNL     1       3.793  -0.953   0.000  0.00  0.00    +0.000 A 
ATOM      3  C   UNL     1       4.508  -1.365   0.000  0.00  0.00    +0.000 A 
ATOM      4  C   UNL     1       3.079  -1.365   0.000  0.00  0.00    +0.000 A 
ATOM      5  C   UNL     1       4.508  -2.190   0.000  0.00  0.00    +0.000 A 
ATOM      6  C   UNL     1       3.079  -2.190   0.000  0.00  0.00    +0.000 A 
ATOM      7  C   UNL     1       3.793  -2.603   0.000  0.00  0.00    +0.000 A 
ENDBRANCH   1   2
BRANCH   1   8
ATOM      8  C   UNL     1       4.508   0.285   0.000  0.00  0.00    +0.000 A 
ATOM      9  C   UNL     1       4.508   1.110   0.000  0.00  0.00    +0.000 A 
ATOM     10  C   UNL     1       5.222  -0.128   0.000  0.00  0.00    +0.000 A 
ATOM     11  C   UNL     1       5.222   1.522   0.000  0.00  0.00    +0.000 A 
ATOM     12  C   UNL     1       5.937   0.285   0.000  0.00  0.00    +0.000 A 
ATOM     13  C   UNL     1       5.937   1.110   0.000  0.00  0.00    +0.000 A 
ENDBRANCH   1   8
BRANCH   1  14
ATOM     14  S   UNL     1       3.079   0.285   0.000  0.00  0.00    +0.000 S 
ATOM     15  O   UNL     1       2.365  -0.128   0.000  0.00  0.00    +0.000 OA
BRANCH  14  16
ATOM     16  C   UNL     1       3.079   1.110   0.000  0.00  0.00    +0.000 C 
BRANCH  16  19
ATOM     17  O   UNL     1       1.650   1.110   0.000  0.00  0.00    +0.000 OA
ATOM     18  N   UNL     1       2.365   2.347   0.000  0.00  0.00    +0.000 NA
ATOM     19  C   UNL     1       2.365   1.522   0.000  0.00  0.00    +0.000 C 
ENDBRANCH  16  19
ENDBRANCH  14  16
ENDBRANCH   1  14
TORSDOF 5
