REMARK  Name = 749
REMARK  4 active torsions:
REMARK  status: ('A' for Active; 'I' for Inactive)
REMARK    1  A    between atoms: C_5  and  C_9
REMARK    2  A    between atoms: C_5  and  C_10
REMARK    3  A    between atoms: C_10  and  C_17
REMARK    4  A    between atoms: C_14  and  C_18
REMARK                            x       y       z     vdW  Elec       q    Type
REMARK                         _______ _______ _______ _____ _____    ______ ____
ROOT
ATOM      1  O   UNL     1       6.290  -0.504   0.000  0.00  0.00    +0.000 OA
ATOM      2  N   UNL     1       4.205   0.423   0.000  0.00  0.00    +0.000 NA
ATOM      3  C   UNL     1       5.710   0.130   0.000  0.00  0.00    +0.000 C 
ATOM      4  C   UNL     1       4.873  -0.062   0.000  0.00  0.00    +0.000 A 
ATOM      5  C   UNL     1       4.618  -0.846   0.000  0.00  0.00    +0.000 A 
ATOM      6  C   UNL     1       5.183  -1.494   0.000  0.00  0.00    +0.000 C 
ATOM      7  C   UNL     1       3.793  -0.846   0.000  0.00  0.00    +0.000 A 
ATOM      8  C   UNL     1       6.025  -1.321   0.000  0.00  0.00    +0.000 C 
ATOM      9  C   UNL     1       3.538  -0.062   0.000  0.00  0.00    +0.000 A 
ATOM     10  C   UNL     1       2.700   0.130   0.000  0.00  0.00    +0.000 A 
ATOM     11  C   UNL     1       3.228  -1.494   0.000  0.00  0.00    +0.000 A 
ATOM     12  C   UNL     1       2.121  -0.504   0.000  0.00  0.00    +0.000 A 
ATOM     13  C   UNL     1       2.386  -1.321   0.000  0.00  0.00    +0.000 A 
ENDROOT
BRANCH   3  14
ATOM     14  C   UNL     1       5.529   0.935   0.000  0.00  0.00    +0.000 C 
ATOM     15  C   UNL     1       6.136   1.494   0.000  0.00  0.00    +0.000 C 
ENDBRANCH   3  14
BRANCH  10  16
ATOM     16  C   UNL     1       2.455   0.917   0.000  0.00  0.00    +0.000 C 
ATOM     17  C   UNL     1       1.650   1.098   0.000  0.00  0.00    +0.000 C 
ENDBRANCH  10  16
BRANCH   3  18
ATOM     18  C   UNL     1       6.317   0.689   0.000  0.00  0.00    +0.000 C 
BRANCH  18  21
ATOM     19  O   UNL     1       7.711   1.002   0.000  0.00  0.00    +0.000 OA
ATOM     20  O   UNL     1       7.285  -0.362   0.000  0.00  0.00    +0.000 OA
ATOM     21  C   UNL     1       7.104   0.443   0.000  0.00  0.00    +0.000 C 
ENDBRANCH  18  21
ENDBRANCH   3  18
TORSDOF 4
