REMARK  Name = 74M
REMARK  10 active torsions:
REMARK  status: ('A' for Active; 'I' for Inactive)
REMARK    1  A    between atoms: C_1  and  C_27
REMARK    2  A    between atoms: C_3  and  C_4
REMARK    3  A    between atoms: N_6  and  C_7
REMARK    4  A    between atoms: C_7  and  C_8
REMARK    5  A    between atoms: C_7  and  C_10
REMARK    6  A    between atoms: C_10  and  C_11
REMARK    7  A    between atoms: C_15  and  C_16
REMARK    8  A    between atoms: C_16  and  O_21
REMARK    9  A    between atoms: N_23  and  C_24
REMARK   10  A    between atoms: C_24  and  C_25
REMARK                            x       y       z     vdW  Elec       q    Type
REMARK                         _______ _______ _______ _____ _____    ______ ____
ROOT
ATOM      1  C   UNL     1       0.533   0.320   0.000  0.00  0.00    +0.000 C 
ENDROOT
BRANCH   1   2
ATOM      2  C   UNL     1       0.946   1.034   0.000  0.00  0.00    +0.000 C 
ATOM      3  O   UNL     1       0.533   1.749   0.000  0.00  0.00    +0.000 OA
ATOM      4  N   UNL     1       1.771   1.034   0.000  0.00  0.00    +0.000 N 
ATOM      5  C   UNL     1       2.256   1.702   0.000  0.00  0.00    +0.000 C 
ATOM      6  C   UNL     1       3.041   1.447   0.000  0.00  0.00    +0.000 C 
ATOM      7  C   UNL     1       3.041   0.622   0.000  0.00  0.00    +0.000 C 
ATOM      8  C   UNL     1       2.256   0.367   0.000  0.00  0.00    +0.000 C 
BRANCH   5   9
ATOM      9  C   UNL     1       2.001   2.486   0.000  0.00  0.00    +0.000 C 
ATOM     10  O   UNL     1       1.194   2.658   0.000  0.00  0.00    +0.000 OA
BRANCH   9  11
ATOM     11  O   UNL     1       2.553   3.099   0.000  0.00  0.00    +0.000 OA
ATOM     12  C   UNL     1       2.298   3.884   0.000  0.00  0.00    +0.000 C 
ENDBRANCH   9  11
ENDBRANCH   5   9
ENDBRANCH   1   2
BRANCH   1  15
ATOM     13  C   UNL     1      -0.704  -0.395   0.000  0.00  0.00    +0.000 C 
ATOM     14  O   UNL     1      -0.291  -1.109   0.000  0.00  0.00    +0.000 OA
ATOM     15  N   UNL     1      -0.291   0.320   0.000  0.00  0.00    +0.000 NA
BRANCH  13  18
ATOM     16  C   UNL     1      -2.243  -0.807   0.000  0.00  0.00    +0.000 C 
ATOM     17  O   UNL     1      -2.243   0.018   0.000  0.00  0.00    +0.000 OA
ATOM     18  C   UNL     1      -1.529  -0.395   0.000  0.00  0.00    +0.000 C 
BRANCH  16  20
ATOM     19  N   UNL     1      -3.481  -1.522   0.000  0.00  0.00    +0.000 NA
ATOM     20  C   UNL     1      -2.656  -1.522   0.000  0.00  0.00    +0.000 C 
ATOM     21  O   UNL     1      -2.243  -2.236   0.000  0.00  0.00    +0.000 OA
BRANCH  19  22
ATOM     22  C   UNL     1      -3.893  -2.236   0.000  0.00  0.00    +0.000 C 
BRANCH  22  23
ATOM     23  C   UNL     1      -4.718  -2.236   0.000  0.00  0.00    +0.000 C 
ATOM     24  C   UNL     1      -5.131  -2.951   0.000  0.00  0.00    +0.000 C 
ENDBRANCH  22  23
ENDBRANCH  19  22
ENDBRANCH  16  20
ENDBRANCH  13  18
ENDBRANCH   1  15
BRANCH   1  25
ATOM     25  C   UNL     1       0.946  -0.395   0.000  0.00  0.00    +0.000 C 
ATOM     26  C   UNL     1       0.533  -1.109   0.000  0.00  0.00    +0.000 C 
BRANCH  25  27
ATOM     27  C   UNL     1       1.771  -0.395   0.000  0.00  0.00    +0.000 C 
ATOM     28  C   UNL     1       2.183  -1.109   0.000  0.00  0.00    +0.000 C 
ENDBRANCH  25  27
ENDBRANCH   1  25
TORSDOF 10
