REMARK  Name = 750
REMARK  5 active torsions:
REMARK  status: ('A' for Active; 'I' for Inactive)
REMARK    1  A    between atoms: N_2  and  C_4
REMARK    2  A    between atoms: N_2  and  C_5
REMARK    3  A    between atoms: N_3  and  C_9
REMARK    4  A    between atoms: C_4  and  C_7
REMARK    5  A    between atoms: C_5  and  C_6
REMARK                            x       y       z     vdW  Elec       q    Type
REMARK                         _______ _______ _______ _____ _____    ______ ____
ROOT
ATOM      1  O   UNL     1       4.508  -0.619   0.000  0.00  0.00    +0.000 OA
ATOM      2  N   UNL     1       3.079  -0.619   0.000  0.00  0.00    +0.000 NA
ATOM      3  C   UNL     1       3.793  -0.206   0.000  0.00  0.00    +0.000 C 
ENDROOT
BRANCH   2   4
ATOM      4  C   UNL     1       3.079  -1.444   0.000  0.00  0.00    +0.000 A 
ATOM      5  C   UNL     1       2.365  -1.856   0.000  0.00  0.00    +0.000 A 
ATOM      6  C   UNL     1       3.793  -1.856   0.000  0.00  0.00    +0.000 A 
ATOM      7  C   UNL     1       2.365  -2.681   0.000  0.00  0.00    +0.000 A 
ATOM      8  C   UNL     1       1.650  -1.444   0.000  0.00  0.00    +0.000 C 
ATOM      9  C   UNL     1       3.793  -2.681   0.000  0.00  0.00    +0.000 A 
ATOM     10  C   UNL     1       3.079  -3.094   0.000  0.00  0.00    +0.000 A 
ENDBRANCH   2   4
BRANCH   3  11
ATOM     11  C   UNL     1       3.793   0.619   0.000  0.00  0.00    +0.000 C 
ATOM     12  C   UNL     1       3.079   1.031   0.000  0.00  0.00    +0.000 C 
BRANCH  11  13
ATOM     13  N   UNL     1       4.508   1.031   0.000  0.00  0.00    +0.000 NA
BRANCH  13  14
ATOM     14  C   UNL     1       4.508   1.856   0.000  0.00  0.00    +0.000 C 
BRANCH  14  15
ATOM     15  C   UNL     1       5.222   2.269   0.000  0.00  0.00    +0.000 C 
ATOM     16  C   UNL     1       5.222   3.094   0.000  0.00  0.00    +0.000 C 
ENDBRANCH  14  15
ENDBRANCH  13  14
ENDBRANCH  11  13
ENDBRANCH   3  11
TORSDOF 5
