REMARK  Name = 751
REMARK  0 active torsions:
REMARK  status: ('A' for Active; 'I' for Inactive)
REMARK                            x       y       z     vdW  Elec       q    Type
REMARK                         _______ _______ _______ _____ _____    ______ ____
ROOT
ATOM      1  N   UNL     1       3.599  -0.416   0.000  0.00  0.00    +0.000 N 
ATOM      2  N   UNL     1       2.716  -1.336   0.000  0.00  0.00    +0.000 NA
ATOM      3  N   UNL     1       4.063  -1.744   0.000  0.00  0.00    +0.000 NA
ATOM      4  C   UNL     1       2.885  -0.072   0.000  0.00  0.00    +0.000 C 
ATOM      5  C   UNL     1       2.709   0.700   0.000  0.00  0.00    +0.000 A 
ATOM      6  C   UNL     1       2.343  -0.643   0.000  0.00  0.00    +0.000 C 
ATOM      7  C   UNL     1       4.313  -0.072   0.000  0.00  0.00    +0.000 A 
ATOM      8  C   UNL     1       3.203   1.319   0.000  0.00  0.00    +0.000 A 
ATOM      9  C   UNL     1       3.995   1.319   0.000  0.00  0.00    +0.000 C 
ATOM     10  C   UNL     1       4.489   0.700   0.000  0.00  0.00    +0.000 A 
ATOM     11  C   UNL     1       3.491  -1.196   0.000  0.00  0.00    +0.000 C 
ATOM     12  C   UNL     1       1.891   0.810   0.000  0.00  0.00    +0.000 A 
ATOM     13  C   UNL     1       2.913   2.092   0.000  0.00  0.00    +0.000 A 
ATOM     14  C   UNL     1       4.909  -0.643   0.000  0.00  0.00    +0.000 A 
ATOM     15  C   UNL     1       5.273   0.955   0.000  0.00  0.00    +0.000 A 
ATOM     16  C   UNL     1       1.584   1.576   0.000  0.00  0.00    +0.000 A 
ATOM     17  C   UNL     1       2.099   2.221   0.000  0.00  0.00    +0.000 A 
ATOM     18  C   UNL     1       5.699  -0.406   0.000  0.00  0.00    +0.000 A 
ATOM     19  C   UNL     1       5.883   0.399   0.000  0.00  0.00    +0.000 A 
ENDROOT
TORSDOF 0
