REMARK  Name = 754
REMARK  2 active torsions:
REMARK  status: ('A' for Active; 'I' for Inactive)
REMARK    1  A    between atoms: N_3  and  C_9
REMARK    2  A    between atoms: C_5  and  C_7
REMARK                            x       y       z     vdW  Elec       q    Type
REMARK                         _______ _______ _______ _____ _____    ______ ____
ROOT
ATOM      1  O   UNL     1       4.256   0.122   0.000  0.00  0.00    +0.000 OA
ATOM      2  O   UNL     1       1.907   1.829   0.000  0.00  0.00    +0.000 OA
ATOM      3  N   UNL     1       3.216   1.162   0.000  0.00  0.00    +0.000 N 
ATOM      4  N   UNL     1       2.136   0.377   0.000  0.00  0.00    +0.000 NA
ATOM      5  C   UNL     1       2.804  -0.108   0.000  0.00  0.00    +0.000 C 
ATOM      6  C   UNL     1       3.471   0.377   0.000  0.00  0.00    +0.000 C 
ATOM      7  C   UNL     1       2.391   1.162   0.000  0.00  0.00    +0.000 C 
ENDROOT
BRANCH   5   8
ATOM      8  C   UNL     1       2.804  -0.933   0.000  0.00  0.00    +0.000 A 
ATOM      9  C   UNL     1       3.518  -1.345   0.000  0.00  0.00    +0.000 A 
ATOM     10  C   UNL     1       2.089  -1.345   0.000  0.00  0.00    +0.000 A 
ATOM     11  C   UNL     1       3.518  -2.170   0.000  0.00  0.00    +0.000 A 
ATOM     12  C   UNL     1       2.089  -2.170   0.000  0.00  0.00    +0.000 A 
ATOM     13  C   UNL     1       2.804  -2.583   0.000  0.00  0.00    +0.000 A 
ENDBRANCH   5   8
BRANCH   3  14
ATOM     14  C   UNL     1       3.701   1.829   0.000  0.00  0.00    +0.000 C 
ATOM     15  C   UNL     1       3.366   2.583   0.000  0.00  0.00    +0.000 C 
ENDBRANCH   3  14
TORSDOF 2
