REMARK  Name = 756
REMARK  2 active torsions:
REMARK  status: ('A' for Active; 'I' for Inactive)
REMARK    1  A    between atoms: C_9  and  C_10
REMARK    2  A    between atoms: C_9  and  C_11
REMARK                            x       y       z     vdW  Elec       q    Type
REMARK                         _______ _______ _______ _____ _____    ______ ____
ROOT
ATOM      1  C   UNL     1       3.522  -0.170   0.000  0.00  0.00    +0.000 C 
ENDROOT
BRANCH   1   6
ATOM      2 CL   UNL     1       5.147   0.117   0.000  0.00  0.00    +0.000 Cl
ATOM      3 CL   UNL     1       3.026   2.645   0.000  0.00  0.00    +0.000 Cl
ATOM      4 CL   UNL     1       5.711   1.667   0.000  0.00  0.00    +0.000 Cl
ATOM      5  O   UNL     1       2.461   1.094   0.000  0.00  0.00    +0.000 OA
ATOM      6  C   UNL     1       3.804   0.606   0.000  0.00  0.00    +0.000 A 
ATOM      7  C   UNL     1       3.274   1.238   0.000  0.00  0.00    +0.000 A 
ATOM      8  C   UNL     1       4.617   0.749   0.000  0.00  0.00    +0.000 A 
ATOM      9  C   UNL     1       3.556   2.013   0.000  0.00  0.00    +0.000 A 
ATOM     10  C   UNL     1       4.899   1.524   0.000  0.00  0.00    +0.000 A 
ATOM     11  C   UNL     1       4.368   2.156   0.000  0.00  0.00    +0.000 A 
ENDBRANCH   1   6
BRANCH   1  16
ATOM     12 CL   UNL     1       4.951  -0.995   0.000  0.00  0.00    +0.000 Cl
ATOM     13 CL   UNL     1       2.093  -2.645   0.000  0.00  0.00    +0.000 Cl
ATOM     14 CL   UNL     1       4.951  -2.645   0.000  0.00  0.00    +0.000 Cl
ATOM     15  O   UNL     1       2.093  -0.995   0.000  0.00  0.00    +0.000 OA
ATOM     16  C   UNL     1       3.522  -0.995   0.000  0.00  0.00    +0.000 A 
ATOM     17  C   UNL     1       2.808  -1.407   0.000  0.00  0.00    +0.000 A 
ATOM     18  C   UNL     1       4.236  -1.407   0.000  0.00  0.00    +0.000 A 
ATOM     19  C   UNL     1       2.808  -2.232   0.000  0.00  0.00    +0.000 A 
ATOM     20  C   UNL     1       4.236  -2.232   0.000  0.00  0.00    +0.000 A 
ATOM     21  C   UNL     1       3.522  -2.645   0.000  0.00  0.00    +0.000 A 
ENDBRANCH   1  16
TORSDOF 2
