REMARK  Name = 75V
REMARK  10 active torsions:
REMARK  status: ('A' for Active; 'I' for Inactive)
REMARK    1  A    between atoms: C_1  and  O_3
REMARK    2  A    between atoms: C_1  and  C_8
REMARK    3  A    between atoms: O_3  and  C_4
REMARK    4  A    between atoms: C_6  and  C_7
REMARK    5  A    between atoms: N_11  and  CA_12
REMARK    6  A    between atoms: CA_12  and  C_13
REMARK    7  A    between atoms: CA_12  and  CB_15
REMARK    8  A    between atoms: CB_15  and  CG1_16
REMARK    9  A    between atoms: N_19  and  CA_20
REMARK   10  A    between atoms: CA_20  and  C_21
REMARK                            x       y       z     vdW  Elec       q    Type
REMARK                         _______ _______ _______ _____ _____    ______ ____
ROOT
ATOM      1  CA  ILE A   1      -0.649   0.210   0.000  0.00  0.00    +0.000 C 
ENDROOT
BRANCH   1   2
ATOM      2  C   ILE A   1      -1.474   0.210   0.000  0.00  0.00    +0.000 C 
ATOM      3  O   ILE A   1      -1.887  -0.504   0.000  0.00  0.00    +0.000 OA
ATOM      4  N   ALA A   2      -1.887   0.924   0.000  0.00  0.00    +0.000 NA
BRANCH   4   5
ATOM      5  CA  ALA A   2      -2.712   0.924   0.000  0.00  0.00    +0.000 C 
ATOM      6  CB  ALA A   2      -3.124   0.210   0.000  0.00  0.00    +0.000 C 
BRANCH   5   7
ATOM      7  C   ALA A   2      -3.124   1.639   0.000  0.00  0.00    +0.000 C 
ATOM      8  O   ALA A   2      -3.950   1.639   0.000  0.00  0.00    +0.000 OA
ATOM      9  OXT ALA A   2      -2.712   2.353   0.000  0.00  0.00    +0.000 OA
ENDBRANCH   5   7
ENDBRANCH   4   5
ENDBRANCH   1   2
BRANCH   1  12
ATOM     10  C   UNK A   0       0.588  -0.504   0.000  0.00  0.00    +0.000 C 
ATOM     11  O   UNK A   0       1.000   0.210   0.000  0.00  0.00    +0.000 OA
ATOM     12  N   ILE A   1      -0.237  -0.504   0.000  0.00  0.00    +0.000 NA
BRANCH  10  13
ATOM     13  C   UNK A   0       1.000  -1.219   0.000  0.00  0.00    +0.000 C 
ATOM     14  C   UNK A   0       1.715  -1.631   0.000  0.00  0.00    +0.000 C 
ATOM     15  O   UNK A   0       1.000  -2.044   0.000  0.00  0.00    +0.000 OA
BRANCH  14  16
ATOM     16  C   UNK A   0       2.540  -1.631   0.000  0.00  0.00    +0.000 C 
ATOM     17  O   UNK A   0       2.953  -0.917   0.000  0.00  0.00    +0.000 OA
BRANCH  16  18
ATOM     18  O   UNK A   0       2.953  -2.346   0.000  0.00  0.00    +0.000 OA
BRANCH  18  19
ATOM     19  C   UNK A   0       3.777  -2.346   0.000  0.00  0.00    +0.000 C 
ATOM     20  C   UNK A   0       4.190  -3.060   0.000  0.00  0.00    +0.000 C 
ENDBRANCH  18  19
ENDBRANCH  16  18
ENDBRANCH  14  16
ENDBRANCH  10  13
ENDBRANCH   1  12
BRANCH   1  21
ATOM     21  CB  ILE A   1      -0.237   0.924   0.000  0.00  0.00    +0.000 C 
ATOM     22  CG2 ILE A   1       0.588   0.924   0.000  0.00  0.00    +0.000 C 
BRANCH  21  23
ATOM     23  CG1 ILE A   1      -0.649   1.639   0.000  0.00  0.00    +0.000 C 
ATOM     24  CD1 ILE A   1      -0.237   2.353   0.000  0.00  0.00    +0.000 C 
ENDBRANCH  21  23
ENDBRANCH   1  21
TORSDOF 10
