REMARK  Name = 761
REMARK  3 active torsions:
REMARK  status: ('A' for Active; 'I' for Inactive)
REMARK    1  A    between atoms: C_8  and  N_14
REMARK    2  A    between atoms: C_9  and  C_11
REMARK    3  A    between atoms: C_15  and  C_17
REMARK                            x       y       z     vdW  Elec       q    Type
REMARK                         _______ _______ _______ _____ _____    ______ ____
ROOT
ATOM      1  C   UNL     1      -2.305   0.027   0.000  0.00  0.00    +0.000 A 
ATOM      2  C   UNL     1      -1.590  -0.385   0.000  0.00  0.00    +0.000 A 
ATOM      3  C   UNL     1      -0.876   0.027   0.000  0.00  0.00    +0.000 A 
ATOM      4  C   UNL     1      -0.876   0.852   0.000  0.00  0.00    +0.000 A 
ATOM      5  C   UNL     1      -1.590   1.265   0.000  0.00  0.00    +0.000 A 
ATOM      6  C   UNL     1      -2.305   0.852   0.000  0.00  0.00    +0.000 A 
ATOM      7  C   UNL     1      -0.161  -0.385   0.000  0.00  0.00    +0.000 A 
ATOM      8  C   UNL     1       0.553   0.027   0.000  0.00  0.00    +0.000 A 
ATOM      9  C   UNL     1       0.553   0.852   0.000  0.00  0.00    +0.000 A 
ATOM     10  C   UNL     1      -0.161   1.265   0.000  0.00  0.00    +0.000 A 
ENDROOT
BRANCH   9  11
ATOM     11  C   UNL     1       1.268   1.265   0.000  0.00  0.00    +0.000 C 
ATOM     12  O   UNL     1       1.268   2.090   0.000  0.00  0.00    +0.000 OA
ATOM     13  O   UNL     1       1.982   0.852   0.000  0.00  0.00    +0.000 OA
ENDBRANCH   9  11
BRANCH   8  14
ATOM     14  N   UNL     1       1.268  -0.385   0.000  0.00  0.00    +0.000 NA
ATOM     15  C   UNL     1       1.268  -1.210   0.000  0.00  0.00    +0.000 C 
ATOM     16  O   UNL     1       0.553  -1.623   0.000  0.00  0.00    +0.000 OA
BRANCH  15  17
ATOM     17  C   UNL     1       1.982  -1.623   0.000  0.00  0.00    +0.000 C 
ATOM     18  O   UNL     1       2.696  -1.210   0.000  0.00  0.00    +0.000 OA
ATOM     19  O   UNL     1       1.982  -2.448   0.000  0.00  0.00    +0.000 OA
ENDBRANCH  15  17
ENDBRANCH   8  14
TORSDOF 3
