REMARK  Name = 763
REMARK  0 active torsions:
REMARK  status: ('A' for Active; 'I' for Inactive)
REMARK                            x       y       z     vdW  Elec       q    Type
REMARK                         _______ _______ _______ _____ _____    ______ ____
ROOT
ATOM      1  S   UNL     1       3.770  -0.199   0.000  0.00  0.00    +0.000 S 
ATOM      2  N   UNL     1       2.318  -0.429   0.000  0.00  0.00    +0.000 N 
ATOM      3  N   UNL     1       2.730   0.840   0.000  0.00  0.00    +0.000 NA
ATOM      4  C   UNL     1       2.985   0.056   0.000  0.00  0.00    +0.000 A 
ATOM      5  C   UNL     1       1.650   0.056   0.000  0.00  0.00    +0.000 A 
ATOM      6  C   UNL     1       2.318  -1.254   0.000  0.00  0.00    +0.000 C 
ATOM      7  C   UNL     1       1.905   0.840   0.000  0.00  0.00    +0.000 A 
ENDROOT
TORSDOF 0
