REMARK  Name = 766
REMARK  2 active torsions:
REMARK  status: ('A' for Active; 'I' for Inactive)
REMARK    1  A    between atoms: C_8  and  C_12
REMARK    2  A    between atoms: C_13  and  C_14
REMARK                            x       y       z     vdW  Elec       q    Type
REMARK                         _______ _______ _______ _____ _____    ______ ____
ROOT
ATOM      1  O   UNL     1       3.849   1.144   0.000  0.00  0.00    +0.000 OA
ATOM      2  O   UNL     1       1.650  -0.524   0.000  0.00  0.00    +0.000 OA
ATOM      3  N   UNL     1       3.064   0.064   0.000  0.00  0.00    +0.000 N 
ATOM      4  C   UNL     1       3.064   0.889   0.000  0.00  0.00    +0.000 C 
ATOM      5  C   UNL     1       3.849  -0.191   0.000  0.00  0.00    +0.000 C 
ATOM      6  C   UNL     1       2.232   0.892   0.000  0.00  0.00    +0.000 C 
ATOM      7  C   UNL     1       2.232   0.060   0.000  0.00  0.00    +0.000 C 
ATOM      8  C   UNL     1       4.334   0.476   0.000  0.00  0.00    +0.000 C 
ATOM      9  C   UNL     1       5.159   0.476   0.000  0.00  0.00    +0.000 C 
ENDROOT
BRANCH   5  12
ATOM     10  O   UNL     1       4.911  -1.147   0.000  0.00  0.00    +0.000 OA
ATOM     11  O   UNL     1       3.551  -1.589   0.000  0.00  0.00    +0.000 OA
ATOM     12  C   UNL     1       4.104  -0.976   0.000  0.00  0.00    +0.000 C 
ENDBRANCH   5  12
BRANCH   9  14
ATOM     13  O   UNL     1       6.396   1.191   0.000  0.00  0.00    +0.000 OA
ATOM     14  C   UNL     1       5.571   1.191   0.000  0.00  0.00    +0.000 C 
ENDBRANCH   9  14
TORSDOF 2
