REMARK  Name = 767
REMARK  7 active torsions:
REMARK  status: ('A' for Active; 'I' for Inactive)
REMARK    1  A    between atoms: O_1  and  C_11
REMARK    2  A    between atoms: O_1  and  C_24
REMARK    3  A    between atoms: O_3  and  C_20
REMARK    4  A    between atoms: O_4  and  C_21
REMARK    5  A    between atoms: N_7  and  C_22
REMARK    6  A    between atoms: N_7  and  C_23
REMARK    7  A    between atoms: C_9  and  C_17
REMARK                            x       y       z     vdW  Elec       q    Type
REMARK                         _______ _______ _______ _____ _____    ______ ____
ROOT
ATOM      1  N   UNL     1       4.564  -0.637   0.000  0.00  0.00    +0.000 NA
ATOM      2  C   UNL     1       4.564   0.188   0.000  0.00  0.00    +0.000 C 
ATOM      3  C   UNL     1       3.079  -0.655   0.000  0.00  0.00    +0.000 C 
ATOM      4  C   UNL     1       3.826   0.629   0.000  0.00  0.00    +0.000 C 
ATOM      5  C   UNL     1       3.079   0.205   0.000  0.00  0.00    +0.000 C 
ATOM      6  C   UNL     1       3.826  -1.078   0.000  0.00  0.00    +0.000 C 
ATOM      7  C   UNL     1       5.278  -1.050   0.000  0.00  0.00    +0.000 C 
ATOM      8  C   UNL     1       5.278   0.600   0.000  0.00  0.00    +0.000 A 
ATOM      9  C   UNL     1       5.993  -0.637   0.000  0.00  0.00    +0.000 C 
ATOM     10  C   UNL     1       5.993   0.188   0.000  0.00  0.00    +0.000 A 
ATOM     11  C   UNL     1       5.265   1.459   0.000  0.00  0.00    +0.000 A 
ATOM     12  C   UNL     1       6.744   0.606   0.000  0.00  0.00    +0.000 A 
ATOM     13  C   UNL     1       6.006   1.895   0.000  0.00  0.00    +0.000 A 
ATOM     14  C   UNL     1       6.750   1.465   0.000  0.00  0.00    +0.000 A 
ENDROOT
BRANCH   3  17
ATOM     15  O   UNL     1       1.650  -0.660   0.000  0.00  0.00    +0.000 OA
ATOM     16  N   UNL     1       2.369  -1.895   0.000  0.00  0.00    +0.000 N 
ATOM     17  C   UNL     1       2.366  -1.070   0.000  0.00  0.00    +0.000 C 
BRANCH  16  18
ATOM     18  C   UNL     1       3.085  -2.305   0.000  0.00  0.00    +0.000 C 
ATOM     19  C   UNL     1       3.088  -3.130   0.000  0.00  0.00    +0.000 C 
ENDBRANCH  16  18
BRANCH  16  20
ATOM     20  C   UNL     1       1.656  -2.310   0.000  0.00  0.00    +0.000 C 
ATOM     21  C   UNL     1       1.660  -3.135   0.000  0.00  0.00    +0.000 C 
ENDBRANCH  16  20
ENDBRANCH   3  17
BRANCH  14  22
ATOM     22  O   UNL     1       7.466   1.875   0.000  0.00  0.00    +0.000 OA
ATOM     23  C   UNL     1       8.179   1.460   0.000  0.00  0.00    +0.000 C 
ENDBRANCH  14  22
BRANCH  13  24
ATOM     24  O   UNL     1       6.003   2.720   0.000  0.00  0.00    +0.000 OA
ATOM     25  C   UNL     1       6.716   3.135   0.000  0.00  0.00    +0.000 C 
ENDBRANCH  13  24
BRANCH   5  26
ATOM     26  O   UNL     1       2.366   0.620   0.000  0.00  0.00    +0.000 OA
BRANCH  26  28
ATOM     27  O   UNL     1       3.085   1.855   0.000  0.00  0.00    +0.000 OA
ATOM     28  C   UNL     1       2.369   1.445   0.000  0.00  0.00    +0.000 C 
ATOM     29  C   UNL     1       1.656   1.860   0.000  0.00  0.00    +0.000 C 
ENDBRANCH  26  28
ENDBRANCH   5  26
TORSDOF 7
