REMARK  Name = 768
REMARK  5 active torsions:
REMARK  status: ('A' for Active; 'I' for Inactive)
REMARK    1  A    between atoms: N_4  and  C_13
REMARK    2  A    between atoms: C_10  and  C_11
REMARK    3  A    between atoms: C_10  and  C_13
REMARK    4  A    between atoms: C_15  and  C_20
REMARK    5  A    between atoms: C_20  and  C_25
REMARK                            x       y       z     vdW  Elec       q    Type
REMARK                         _______ _______ _______ _____ _____    ______ ____
ROOT
ATOM      1  O   UNL     1       5.909   2.554   0.000  0.00  0.00    +0.000 OA
ATOM      2  C   UNL     1       6.321   0.746   0.000  0.00  0.00    +0.000 C 
ATOM      3  C   UNL     1       5.578   1.104   0.000  0.00  0.00    +0.000 A 
ATOM      4  C   UNL     1       7.064   1.104   0.000  0.00  0.00    +0.000 A 
ATOM      5  C   UNL     1       7.248   1.909   0.000  0.00  0.00    +0.000 A 
ATOM      6  C   UNL     1       5.394   1.909   0.000  0.00  0.00    +0.000 A 
ATOM      7  C   UNL     1       6.321  -0.079   0.000  0.00  0.00    +0.000 C 
ATOM      8  C   UNL     1       6.734   2.554   0.000  0.00  0.00    +0.000 C 
ATOM      9  C   UNL     1       4.957   0.510   0.000  0.00  0.00    +0.000 A 
ATOM     10  C   UNL     1       4.134   0.757   0.000  0.00  0.00    +0.000 A 
ATOM     11  C   UNL     1       7.685   0.510   0.000  0.00  0.00    +0.000 A 
ATOM     12  C   UNL     1       4.577   2.175   0.000  0.00  0.00    +0.000 A 
ATOM     13  C   UNL     1       8.065   2.175   0.000  0.00  0.00    +0.000 A 
ATOM     14  C   UNL     1       3.943   1.595   0.000  0.00  0.00    +0.000 A 
ATOM     15  C   UNL     1       8.508   0.757   0.000  0.00  0.00    +0.000 A 
ATOM     16  C   UNL     1       8.700   1.595   0.000  0.00  0.00    +0.000 A 
ENDROOT
BRANCH   7  17
ATOM     17  C   UNL     1       5.607  -0.491   0.000  0.00  0.00    +0.000 C 
BRANCH  17  18
ATOM     18  C   UNL     1       5.607  -1.316   0.000  0.00  0.00    +0.000 C 
BRANCH  18  19
ATOM     19  N   UNL     1       4.892  -1.729   0.000  0.00  0.00    +0.000 NA
ATOM     20  C   UNL     1       4.892  -2.554   0.000  0.00  0.00    +0.000 C 
ATOM     21  C   UNL     1       4.178  -1.316   0.000  0.00  0.00    +0.000 C 
ENDBRANCH  18  19
ENDBRANCH  17  18
ENDBRANCH   7  17
BRANCH  10  22
ATOM     22  C   UNL     1       3.531   0.194   0.000  0.00  0.00    +0.000 C 
BRANCH  22  25
ATOM     23  O   UNL     1       2.139  -0.130   0.000  0.00  0.00    +0.000 OA
ATOM     24  O   UNL     1       2.555   1.237   0.000  0.00  0.00    +0.000 OA
ATOM     25  C   UNL     1       2.742   0.434   0.000  0.00  0.00    +0.000 C 
ENDBRANCH  22  25
ENDBRANCH  10  22
TORSDOF 5
