REMARK  Name = 76V
REMARK  12 active torsions:
REMARK  status: ('A' for Active; 'I' for Inactive)
REMARK    1  A    between atoms: C_1  and  O_5
REMARK    2  A    between atoms: C_3  and  O_5
REMARK    3  A    between atoms: C_3  and  C_7
REMARK    4  A    between atoms: C_6  and  C_9
REMARK    5  A    between atoms: N_11  and  CA_12
REMARK    6  A    between atoms: CA_12  and  C_13
REMARK    7  A    between atoms: CA_12  and  CB_15
REMARK    8  A    between atoms: CB_15  and  CG1_16
REMARK    9  A    between atoms: N_19  and  CA_20
REMARK   10  A    between atoms: CA_20  and  C_21
REMARK   11  A    between atoms: CA_20  and  CB_23
REMARK   12  A    between atoms: CB_23  and  CG1_24
REMARK                            x       y       z     vdW  Elec       q    Type
REMARK                         _______ _______ _______ _____ _____    ______ ____
ROOT
ATOM      1  CA  ILE A   1       0.631  -0.381   0.000  0.00  0.00    +0.000 C 
ENDROOT
BRANCH   1   2
ATOM      2  C   ILE A   1      -0.179  -0.225   0.000  0.00  0.00    +0.000 C 
ATOM      3  O   ILE A   1      -0.449   0.554   0.000  0.00  0.00    +0.000 OA
ATOM      4  N   ILE A   2      -0.719  -0.849   0.000  0.00  0.00    +0.000 NA
BRANCH   4   5
ATOM      5  CA  ILE A   2      -1.529  -0.693   0.000  0.00  0.00    +0.000 C 
BRANCH   5   6
ATOM      6  C   ILE A   2      -1.799   0.086   0.000  0.00  0.00    +0.000 C 
ATOM      7  O   ILE A   2      -2.609   0.242   0.000  0.00  0.00    +0.000 OA
ATOM      8  OXT ILE A   2      -1.259   0.710   0.000  0.00  0.00    +0.000 OA
ENDBRANCH   5   6
BRANCH   5   9
ATOM      9  CB  ILE A   2      -2.069  -1.317   0.000  0.00  0.00    +0.000 C 
ATOM     10  CG2 ILE A   2      -1.799  -2.096   0.000  0.00  0.00    +0.000 C 
BRANCH   9  11
ATOM     11  CG1 ILE A   2      -2.879  -1.161   0.000  0.00  0.00    +0.000 C 
ATOM     12  CD1 ILE A   2      -3.420  -1.784   0.000  0.00  0.00    +0.000 C 
ENDBRANCH   9  11
ENDBRANCH   5   9
ENDBRANCH   4   5
ENDBRANCH   1   2
BRANCH   1  15
ATOM     13  C   UNK A   0       1.982   0.086   0.000  0.00  0.00    +0.000 C 
ATOM     14  O   UNK A   0       2.252  -0.693   0.000  0.00  0.00    +0.000 OA
ATOM     15  N   ILE A   1       1.171   0.242   0.000  0.00  0.00    +0.000 NA
BRANCH  13  16
ATOM     16  C   UNK A   0       2.522   0.710   0.000  0.00  0.00    +0.000 C 
ATOM     17  C   UNK A   0       2.677   1.520   0.000  0.00  0.00    +0.000 C 
ATOM     18  O   UNK A   0       3.301   0.980   0.000  0.00  0.00    +0.000 OA
BRANCH  17  19
ATOM     19  C   UNK A   0       2.408   2.300   0.000  0.00  0.00    +0.000 C 
ATOM     20  O   UNK A   0       1.597   2.456   0.000  0.00  0.00    +0.000 OA
BRANCH  19  21
ATOM     21  O   UNK A   0       2.947   2.923   0.000  0.00  0.00    +0.000 OA
BRANCH  21  22
ATOM     22  C   UNK A   0       2.677   3.703   0.000  0.00  0.00    +0.000 C 
ATOM     23  C   UNK A   0       3.217   4.327   0.000  0.00  0.00    +0.000 C 
ENDBRANCH  21  22
ENDBRANCH  19  21
ENDBRANCH  17  19
ENDBRANCH  13  16
ENDBRANCH   1  15
BRANCH   1  24
ATOM     24  CB  ILE A   1       0.901  -1.161   0.000  0.00  0.00    +0.000 C 
ATOM     25  CG2 ILE A   1       0.361  -1.784   0.000  0.00  0.00    +0.000 C 
BRANCH  24  26
ATOM     26  CG1 ILE A   1       1.711  -1.317   0.000  0.00  0.00    +0.000 C 
ATOM     27  CD1 ILE A   1       1.982  -2.096   0.000  0.00  0.00    +0.000 C 
ENDBRANCH  24  26
ENDBRANCH   1  24
TORSDOF 12
