REMARK  Name = 770
REMARK  2 active torsions:
REMARK  status: ('A' for Active; 'I' for Inactive)
REMARK    1  A    between atoms: C_7  and  C_8
REMARK    2  A    between atoms: C_25  and  N_26
REMARK                            x       y       z     vdW  Elec       q    Type
REMARK                         _______ _______ _______ _____ _____    ______ ____
ROOT
ATOM      1  C   UNL     1       0.945  -0.662   0.000  0.00  0.00    +0.000 A 
ATOM      2  C   UNL     1       1.044   0.157   0.000  0.00  0.00    +0.000 A 
ATOM      3  C   UNL     1       1.718   0.632   0.000  0.00  0.00    +0.000 C 
ATOM      4  O   UNL     1       2.499   0.365   0.000  0.00  0.00    +0.000 OA
ATOM      5  N   UNL     1       1.476   1.420   0.000  0.00  0.00    +0.000 NA
ATOM      6  C   UNL     1       0.384   0.652   0.000  0.00  0.00    +0.000 A 
ATOM      7  C   UNL     1       0.651   1.433   0.000  0.00  0.00    +0.000 C 
ATOM      8  O   UNL     1       0.176   2.107   0.000  0.00  0.00    +0.000 OA
ATOM      9  C   UNL     1      -0.375   0.328   0.000  0.00  0.00    +0.000 A 
ATOM     10  C   UNL     1      -0.474  -0.491   0.000  0.00  0.00    +0.000 A 
ATOM     11  C   UNL     1       0.186  -0.986   0.000  0.00  0.00    +0.000 A 
ATOM     12  C   UNL     1      -1.123   0.675   0.000  0.00  0.00    +0.000 A 
ATOM     13  C   UNL     1      -1.685   0.070   0.000  0.00  0.00    +0.000 A 
ATOM     14  N   UNL     1      -1.283  -0.650   0.000  0.00  0.00    +0.000 NA
ATOM     15  C   UNL     1      -2.489   0.254   0.000  0.00  0.00    +0.000 A 
ATOM     16  C   UNL     1      -2.732   1.042   0.000  0.00  0.00    +0.000 A 
ATOM     17  C   UNL     1      -1.366   1.463   0.000  0.00  0.00    +0.000 A 
ATOM     18  C   UNL     1      -2.171   1.647   0.000  0.00  0.00    +0.000 A 
ENDROOT
BRANCH   1  25
ATOM     19 CL   UNL     1       0.748  -2.300   0.000  0.00  0.00    +0.000 Cl
ATOM     20  C   UNL     1       1.506  -1.976   0.000  0.00  0.00    +0.000 A 
ATOM     21  C   UNL     1       2.166  -2.471   0.000  0.00  0.00    +0.000 A 
ATOM     22  C   UNL     1       2.925  -2.147   0.000  0.00  0.00    +0.000 A 
ATOM     23  C   UNL     1       3.024  -1.328   0.000  0.00  0.00    +0.000 A 
ATOM     24  C   UNL     1       2.364  -0.833   0.000  0.00  0.00    +0.000 A 
ATOM     25  C   UNL     1       1.605  -1.157   0.000  0.00  0.00    +0.000 A 
ENDBRANCH   1  25
BRANCH  18  26
ATOM     26  N   UNL     1      -2.414   2.436   0.000  0.00  0.00    +0.000 NA
ATOM     27  C   UNL     1      -1.852   3.040   0.000  0.00  0.00    +0.000 C 
ATOM     28  O   UNL     1      -2.095   3.829   0.000  0.00  0.00    +0.000 OA
ENDBRANCH  18  26
TORSDOF 2
