REMARK  Name = 772
REMARK  3 active torsions:
REMARK  status: ('A' for Active; 'I' for Inactive)
REMARK    1  A    between atoms: C_5  and  O_11
REMARK    2  A    between atoms: C_9  and  C_15
REMARK    3  A    between atoms: O_11  and  P_12
REMARK                            x       y       z     vdW  Elec       q    Type
REMARK                         _______ _______ _______ _____ _____    ______ ____
ROOT
ATOM      1  C   UNL     1      -1.422  -0.935   0.000  0.00  0.00    +0.000 A 
ATOM      2  C   UNL     1      -0.708  -1.347   0.000  0.00  0.00    +0.000 A 
ATOM      3  C   UNL     1       0.007  -0.935   0.000  0.00  0.00    +0.000 A 
ATOM      4  C   UNL     1       0.007  -0.110   0.000  0.00  0.00    +0.000 A 
ATOM      5  C   UNL     1      -0.708   0.303   0.000  0.00  0.00    +0.000 A 
ATOM      6  C   UNL     1      -1.422  -0.110   0.000  0.00  0.00    +0.000 A 
ATOM      7  C   UNL     1       0.721  -1.347   0.000  0.00  0.00    +0.000 A 
ATOM      8  C   UNL     1       1.436  -0.935   0.000  0.00  0.00    +0.000 A 
ATOM      9  C   UNL     1       1.436  -0.110   0.000  0.00  0.00    +0.000 A 
ATOM     10  N   UNL     1       0.721   0.303   0.000  0.00  0.00    +0.000 NA
ENDROOT
BRANCH   9  11
ATOM     11  C   UNL     1       2.150   0.303   0.000  0.00  0.00    +0.000 C 
ATOM     12  N   UNL     1       2.865   0.715   0.000  0.00  0.00    +0.000 NA
ENDBRANCH   9  11
BRANCH   5  13
ATOM     13  O   UNL     1      -0.708   1.128   0.000  0.00  0.00    +0.000 OA
BRANCH  13  14
ATOM     14  P   UNL     1      -1.422   1.540   0.000  0.00  0.00    +0.000 P 
ATOM     15  O   UNL     1      -2.137   1.953   0.000  0.00  0.00    +0.000 OA
ATOM     16  O   UNL     1      -1.835   0.826   0.000  0.00  0.00    +0.000 OA
ATOM     17  O   UNL     1      -1.010   2.255   0.000  0.00  0.00    +0.000 OA
ENDBRANCH  13  14
ENDBRANCH   5  13
TORSDOF 3
