REMARK  Name = 772
REMARK  11 active torsions:
REMARK  status: ('A' for Active; 'I' for Inactive)
REMARK    1  A    between atoms: S_1  and  P_3
REMARK    2  A    between atoms: S_1  and  C_10
REMARK    3  A    between atoms: P_3  and  O_6
REMARK    4  A    between atoms: P_3  and  O_7
REMARK    5  A    between atoms: O_4  and  C_12
REMARK    6  A    between atoms: O_4  and  C_14
REMARK    7  A    between atoms: O_5  and  C_13
REMARK    8  A    between atoms: O_5  and  C_15
REMARK    9  A    between atoms: C_10  and  C_11
REMARK   10  A    between atoms: C_10  and  C_12
REMARK   11  A    between atoms: C_11  and  C_13
REMARK                            x       y       z     vdW  Elec       q    Type
REMARK                         _______ _______ _______ _____ _____    ______ ____
ROOT
ATOM      1  C   UNL     1       4.508   0.936   0.000  0.00  0.00    +0.000 C 
ENDROOT
BRANCH   1   3
ATOM      2  O   UNL     1       5.222   2.173   0.000  0.00  0.00    +0.000 OA
ATOM      3  C   UNL     1       5.222   1.348   0.000  0.00  0.00    +0.000 C 
BRANCH   3   4
ATOM      4  O   UNL     1       5.937   0.936   0.000  0.00  0.00    +0.000 OA
BRANCH   4   5
ATOM      5  C   UNL     1       6.652   1.348   0.000  0.00  0.00    +0.000 C 
ATOM      6  C   UNL     1       7.366   0.936   0.000  0.00  0.00    +0.000 C 
ENDBRANCH   4   5
ENDBRANCH   3   4
ENDBRANCH   1   3
BRANCH   1   7
ATOM      7  C   UNL     1       4.508   0.111   0.000  0.00  0.00    +0.000 C 
BRANCH   7   9
ATOM      8  O   UNL     1       5.937   0.111   0.000  0.00  0.00    +0.000 OA
ATOM      9  C   UNL     1       5.222  -0.302   0.000  0.00  0.00    +0.000 C 
BRANCH   9  10
ATOM     10  O   UNL     1       5.222  -1.127   0.000  0.00  0.00    +0.000 OA
BRANCH  10  11
ATOM     11  C   UNL     1       5.937  -1.540   0.000  0.00  0.00    +0.000 C 
ATOM     12  C   UNL     1       5.937  -2.365   0.000  0.00  0.00    +0.000 C 
ENDBRANCH  10  11
ENDBRANCH   9  10
ENDBRANCH   7   9
ENDBRANCH   1   7
BRANCH   1  13
ATOM     13  S   UNL     1       3.793   1.348   0.000  0.00  0.00    +0.000 S 
BRANCH  13  15
ATOM     14  S   UNL     1       3.492   0.221   0.000  0.00  0.00    +0.000 S 
ATOM     15  P   UNL     1       3.079   0.936   0.000  0.00  0.00    +0.000 P 
BRANCH  15  16
ATOM     16  O   UNL     1       2.365   0.523   0.000  0.00  0.00    +0.000 OA
ATOM     17  C   UNL     1       1.650   0.936   0.000  0.00  0.00    +0.000 C 
ENDBRANCH  15  16
BRANCH  15  18
ATOM     18  O   UNL     1       2.667   1.650   0.000  0.00  0.00    +0.000 OA
ATOM     19  C   UNL     1       3.079   2.365   0.000  0.00  0.00    +0.000 C 
ENDBRANCH  15  18
ENDBRANCH  13  15
ENDBRANCH   1  13
TORSDOF 11
