REMARK  Name = 773
REMARK  5 active torsions:
REMARK  status: ('A' for Active; 'I' for Inactive)
REMARK    1  A    between atoms: O_1  and  C_16
REMARK    2  A    between atoms: O_1  and  C_22
REMARK    3  A    between atoms: O_11  and  C_36
REMARK    4  A    between atoms: O_12  and  C_37
REMARK    5  A    between atoms: C_17  and  C_23
REMARK                            x       y       z     vdW  Elec       q    Type
REMARK                         _______ _______ _______ _____ _____    ______ ____
ROOT
ATOM      1  O   UNL     1       5.939   0.652   0.000  0.00  0.00    +0.000 OA
ATOM      2  O   UNL     1       7.081  -0.267   0.000  0.00  0.00    +0.000 OA
ATOM      3  O   UNL     1       2.846  -3.323   0.000  0.00  0.00    +0.000 OA
ATOM      4  O   UNL     1       4.043  -4.015   0.000  0.00  0.00    +0.000 OA
ATOM      5  C   UNL     1       4.951  -0.235   0.000  0.00  0.00    +0.000 C 
ATOM      6  C   UNL     1       5.665  -0.647   0.000  0.00  0.00    +0.000 C 
ATOM      7  C   UNL     1       4.237  -0.647   0.000  0.00  0.00    +0.000 C 
ATOM      8  C   UNL     1       5.665  -1.472   0.000  0.00  0.00    +0.000 C 
ATOM      9  C   UNL     1       4.237  -1.472   0.000  0.00  0.00    +0.000 A 
ATOM     10  C   UNL     1       4.951  -1.885   0.000  0.00  0.00    +0.000 A 
ATOM     11  C   UNL     1       5.123   0.567   0.000  0.00  0.00    +0.000 C 
ATOM     12  C   UNL     1       6.274  -0.097   0.000  0.00  0.00    +0.000 C 
ATOM     13  C   UNL     1       3.486  -1.891   0.000  0.00  0.00    +0.000 A 
ATOM     14  C   UNL     1       4.964  -2.744   0.000  0.00  0.00    +0.000 A 
ATOM     15  C   UNL     1       3.479  -2.750   0.000  0.00  0.00    +0.000 A 
ATOM     16  C   UNL     1       4.223  -3.179   0.000  0.00  0.00    +0.000 A 
ATOM     17  C   UNL     1       3.194  -4.103   0.000  0.00  0.00    +0.000 C 
ENDROOT
BRANCH   8  19
ATOM     18  O   UNL     1       8.523  -3.122   0.000  0.00  0.00    +0.000 OA
ATOM     19  C   UNL     1       6.380  -1.885   0.000  0.00  0.00    +0.000 A 
ATOM     20  C   UNL     1       7.094  -1.472   0.000  0.00  0.00    +0.000 A 
ATOM     21  C   UNL     1       6.380  -2.710   0.000  0.00  0.00    +0.000 A 
ATOM     22  C   UNL     1       7.094  -3.122   0.000  0.00  0.00    +0.000 A 
ATOM     23  C   UNL     1       7.809  -1.885   0.000  0.00  0.00    +0.000 A 
ATOM     24  C   UNL     1       7.809  -2.710   0.000  0.00  0.00    +0.000 A 
BRANCH  22  25
ATOM     25  O   UNL     1       7.094  -3.947   0.000  0.00  0.00    +0.000 OA
ATOM     26  C   UNL     1       6.380  -4.360   0.000  0.00  0.00    +0.000 C 
ENDBRANCH  22  25
BRANCH  23  27
ATOM     27  O   UNL     1       8.523  -1.472   0.000  0.00  0.00    +0.000 OA
ATOM     28  C   UNL     1       9.238  -1.885   0.000  0.00  0.00    +0.000 C 
ENDBRANCH  23  27
ENDBRANCH   8  19
BRANCH   7  29
ATOM     29  O   UNL     1       3.522  -0.235   0.000  0.00  0.00    +0.000 OA
BRANCH  29  35
ATOM     30  O   UNL     1       4.237   1.003   0.000  0.00  0.00    +0.000 OA
ATOM     31  O   UNL     1       3.509   3.099   0.000  0.00  0.00    +0.000 OA
ATOM     32  O   UNL     1       2.093   0.590   0.000  0.00  0.00    +0.000 OA
ATOM     33  O   UNL     1       4.994   3.105   0.000  0.00  0.00    +0.000 OA
ATOM     34  O   UNL     1       2.093   2.240   0.000  0.00  0.00    +0.000 OA
ATOM     35  C   UNL     1       3.522   0.590   0.000  0.00  0.00    +0.000 C 
ATOM     36  C   UNL     1       2.808   1.003   0.000  0.00  0.00    +0.000 C 
ATOM     37  C   UNL     1       3.522   2.240   0.000  0.00  0.00    +0.000 C 
ATOM     38  C   UNL     1       2.808   1.828   0.000  0.00  0.00    +0.000 C 
ATOM     39  C   UNL     1       4.237   1.828   0.000  0.00  0.00    +0.000 C 
ATOM     40  C   UNL     1       4.987   2.246   0.000  0.00  0.00    +0.000 C 
ATOM     41  C   UNL     1       4.250   3.535   0.000  0.00  0.00    +0.000 C 
ATOM     42  C   UNL     1       4.247   4.360   0.000  0.00  0.00    +0.000 C 
ENDBRANCH  29  35
ENDBRANCH   7  29
TORSDOF 5
