REMARK  Name = 774
REMARK  2 active torsions:
REMARK  status: ('A' for Active; 'I' for Inactive)
REMARK    1  A    between atoms: S_2  and  C_15
REMARK    2  A    between atoms: C_16  and  C_20
REMARK                            x       y       z     vdW  Elec       q    Type
REMARK                         _______ _______ _______ _____ _____    ______ ____
ROOT
ATOM      1  S   UNL     1       5.381  -0.613   0.000  0.00  0.00    +0.000 S 
ATOM      2  O   UNL     1       5.785  -1.333   0.000  0.00  0.00    +0.000 OA
ATOM      3  O   UNL     1       4.960  -1.323   0.000  0.00  0.00    +0.000 OA
ATOM      4  N   UNL     1       5.381   1.094   0.000  0.00  0.00    +0.000 NA
ATOM      5  N   UNL     1       6.128  -0.189   0.000  0.00  0.00    +0.000 NA
ATOM      6  C   UNL     1       4.643  -0.172   0.000  0.00  0.00    +0.000 A 
ATOM      7  C   UNL     1       4.643   0.653   0.000  0.00  0.00    +0.000 A 
ATOM      8  C   UNL     1       3.214  -0.172   0.000  0.00  0.00    +0.000 A 
ATOM      9  C   UNL     1       3.214   0.653   0.000  0.00  0.00    +0.000 A 
ATOM     10  C   UNL     1       3.929  -0.585   0.000  0.00  0.00    +0.000 A 
ATOM     11  C   UNL     1       6.128   0.670   0.000  0.00  0.00    +0.000 C 
ATOM     12  C   UNL     1       3.929   1.065   0.000  0.00  0.00    +0.000 A 
ENDROOT
BRANCH   8  13
ATOM     13  S   UNL     1       2.684  -0.804   0.000  0.00  0.00    +0.000 S 
ATOM     14  O   UNL     1       2.052  -0.274   0.000  0.00  0.00    +0.000 OA
ATOM     15  O   UNL     1       3.316  -1.335   0.000  0.00  0.00    +0.000 OA
ATOM     16  N   UNL     1       2.154  -1.436   0.000  0.00  0.00    +0.000 NA
ENDBRANCH   8  13
BRANCH   9  20
ATOM     17  F   UNL     1       2.052   0.755   0.000  0.00  0.00    +0.000 F 
ATOM     18  F   UNL     1       3.316   1.815   0.000  0.00  0.00    +0.000 F 
ATOM     19  F   UNL     1       2.154   1.917   0.000  0.00  0.00    +0.000 F 
ATOM     20  C   UNL     1       2.684   1.285   0.000  0.00  0.00    +0.000 C 
ENDBRANCH   9  20
TORSDOF 2
