REMARK  Name = 775
REMARK  14 active torsions:
REMARK  status: ('A' for Active; 'I' for Inactive)
REMARK    1  A    between atoms: S_1  and  N_8
REMARK    2  A    between atoms: S_1  and  C_20
REMARK    3  A    between atoms: O_2  and  C_17
REMARK    4  A    between atoms: O_2  and  C_21
REMARK    5  A    between atoms: N_8  and  C_18
REMARK    6  A    between atoms: C_9  and  C_12
REMARK    7  A    between atoms: C_12  and  C_15
REMARK    8  A    between atoms: C_15  and  C_16
REMARK    9  A    between atoms: C_16  and  C_17
REMARK   10  A    between atoms: C_18  and  C_19
REMARK   11  A    between atoms: C_18  and  C_29
REMARK   12  A    between atoms: C_19  and  C_23
REMARK   13  A    between atoms: C_20  and  C_22
REMARK   14  A    between atoms: C_22  and  C_24
REMARK                            x       y       z     vdW  Elec       q    Type
REMARK                         _______ _______ _______ _____ _____    ______ ____
ROOT
ATOM      1  C   UNL     1       5.665  -0.825   0.000  0.00  0.00    +0.000 A 
ATOM      2  C   UNL     1       5.665   0.825   0.000  0.00  0.00    +0.000 A 
ATOM      3  C   UNL     1       6.380  -0.412   0.000  0.00  0.00    +0.000 A 
ATOM      4  C   UNL     1       4.951  -0.412   0.000  0.00  0.00    +0.000 A 
ATOM      5  C   UNL     1       6.380   0.412   0.000  0.00  0.00    +0.000 A 
ATOM      6  C   UNL     1       4.951   0.412   0.000  0.00  0.00    +0.000 A 
ENDROOT
BRANCH   2   7
ATOM      7  C   UNL     1       5.665   1.650   0.000  0.00  0.00    +0.000 C 
BRANCH   7   8
ATOM      8  C   UNL     1       6.380   2.062   0.000  0.00  0.00    +0.000 C 
BRANCH   8  11
ATOM      9  O   UNL     1       7.809   2.062   0.000  0.00  0.00    +0.000 OA
ATOM     10  O   UNL     1       7.094   0.825   0.000  0.00  0.00    +0.000 OA
ATOM     11  C   UNL     1       7.094   1.650   0.000  0.00  0.00    +0.000 C 
ENDBRANCH   8  11
BRANCH   8  12
ATOM     12  N   UNL     1       6.380   2.888   0.000  0.00  0.00    +0.000 NA
BRANCH  12  13
ATOM     13  S   UNL     1       7.094   3.300   0.000  0.00  0.00    +0.000 S 
ATOM     14  O   UNL     1       7.507   2.586   0.000  0.00  0.00    +0.000 OA
ATOM     15  O   UNL     1       6.682   4.014   0.000  0.00  0.00    +0.000 OA
BRANCH  13  16
ATOM     16  C   UNL     1       7.809   3.713   0.000  0.00  0.00    +0.000 C 
BRANCH  16  17
ATOM     17  C   UNL     1       7.809   4.538   0.000  0.00  0.00    +0.000 C 
BRANCH  17  18
ATOM     18  C   UNL     1       8.523   4.950   0.000  0.00  0.00    +0.000 C 
ATOM     19  C   UNL     1       8.523   5.775   0.000  0.00  0.00    +0.000 C 
ENDBRANCH  17  18
ENDBRANCH  16  17
ENDBRANCH  13  16
ENDBRANCH  12  13
ENDBRANCH   8  12
ENDBRANCH   7   8
ENDBRANCH   2   7
BRANCH   1  20
ATOM     20  O   UNL     1       5.665  -1.650   0.000  0.00  0.00    +0.000 OA
BRANCH  20  21
ATOM     21  C   UNL     1       4.951  -2.062   0.000  0.00  0.00    +0.000 C 
BRANCH  21  22
ATOM     22  C   UNL     1       4.951  -2.888   0.000  0.00  0.00    +0.000 C 
BRANCH  22  23
ATOM     23  C   UNL     1       4.237  -3.300   0.000  0.00  0.00    +0.000 C 
BRANCH  23  24
ATOM     24  C   UNL     1       4.237  -4.125   0.000  0.00  0.00    +0.000 C 
BRANCH  24  26
ATOM     25  N   UNL     1       2.093  -5.363   0.000  0.00  0.00    +0.000 NA
ATOM     26  C   UNL     1       3.522  -4.538   0.000  0.00  0.00    +0.000 C 
ATOM     27  C   UNL     1       3.522  -5.363   0.000  0.00  0.00    +0.000 C 
ATOM     28  C   UNL     1       2.808  -4.125   0.000  0.00  0.00    +0.000 C 
ATOM     29  C   UNL     1       2.808  -5.775   0.000  0.00  0.00    +0.000 C 
ATOM     30  C   UNL     1       2.093  -4.538   0.000  0.00  0.00    +0.000 C 
ENDBRANCH  24  26
ENDBRANCH  23  24
ENDBRANCH  22  23
ENDBRANCH  21  22
ENDBRANCH  20  21
ENDBRANCH   1  20
TORSDOF 14
