REMARK  Name = 777
REMARK  5 active torsions:
REMARK  status: ('A' for Active; 'I' for Inactive)
REMARK    1  A    between atoms: N_3  and  C_6
REMARK    2  A    between atoms: N_4  and  C_5
REMARK    3  A    between atoms: C_5  and  C_6
REMARK    4  A    between atoms: C_16  and  C_22
REMARK    5  A    between atoms: C_22  and  C_23
REMARK                            x       y       z     vdW  Elec       q    Type
REMARK                         _______ _______ _______ _____ _____    ______ ____
ROOT
ATOM      1  S   UNL     1       3.696  -1.966   0.000  0.00  0.00    +0.000 S 
ATOM      2  N   UNL     1       3.696  -0.382   0.000  0.00  0.00    +0.000 N 
ATOM      3  C   UNL     1       4.382  -0.778   0.000  0.00  0.00    +0.000 A 
ATOM      4  C   UNL     1       3.010  -0.778   0.000  0.00  0.00    +0.000 A 
ATOM      5  C   UNL     1       4.382  -1.570   0.000  0.00  0.00    +0.000 A 
ATOM      6  C   UNL     1       3.010  -1.570   0.000  0.00  0.00    +0.000 A 
ATOM      7  C   UNL     1       5.090  -0.355   0.000  0.00  0.00    +0.000 A 
ATOM      8  C   UNL     1       2.302  -0.355   0.000  0.00  0.00    +0.000 A 
ATOM      9  C   UNL     1       5.808  -0.762   0.000  0.00  0.00    +0.000 A 
ATOM     10  C   UNL     1       5.090  -1.994   0.000  0.00  0.00    +0.000 A 
ATOM     11  C   UNL     1       2.302  -1.994   0.000  0.00  0.00    +0.000 A 
ATOM     12  C   UNL     1       5.808  -1.587   0.000  0.00  0.00    +0.000 A 
ATOM     13  C   UNL     1       1.584  -0.762   0.000  0.00  0.00    +0.000 A 
ATOM     14  C   UNL     1       1.584  -1.587   0.000  0.00  0.00    +0.000 A 
ENDROOT
BRANCH   9  16
ATOM     15  O   UNL     1       6.489   0.429   0.000  0.00  0.00    +0.000 OA
ATOM     16  C   UNL     1       6.492  -0.363   0.000  0.00  0.00    +0.000 C 
BRANCH  16  17
ATOM     17  C   UNL     1       7.179  -0.756   0.000  0.00  0.00    +0.000 C 
ATOM     18  C   UNL     1       7.864  -0.358   0.000  0.00  0.00    +0.000 C 
ENDBRANCH  16  17
ENDBRANCH   9  16
BRANCH   2  19
ATOM     19  C   UNL     1       3.696   0.410   0.000  0.00  0.00    +0.000 C 
BRANCH  19  20
ATOM     20  C   UNL     1       3.010   0.806   0.000  0.00  0.00    +0.000 C 
ATOM     21  C   UNL     1       2.324   0.410   0.000  0.00  0.00    +0.000 C 
BRANCH  20  22
ATOM     22  N   UNL     1       3.010   1.598   0.000  0.00  0.00    +0.000 NA
ATOM     23  C   UNL     1       2.324   1.994   0.000  0.00  0.00    +0.000 C 
ATOM     24  C   UNL     1       3.696   1.994   0.000  0.00  0.00    +0.000 C 
ENDBRANCH  20  22
ENDBRANCH  19  20
ENDBRANCH   2  19
TORSDOF 5
