REMARK  Name = 779
REMARK  2 active torsions:
REMARK  status: ('A' for Active; 'I' for Inactive)
REMARK    1  A    between atoms: N_4  and  C_8
REMARK    2  A    between atoms: C_10  and  C_16
REMARK                            x       y       z     vdW  Elec       q    Type
REMARK                         _______ _______ _______ _____ _____    ______ ____
ROOT
ATOM      1  O   UNL     1       4.236   1.856   0.000  0.00  0.00    +0.000 OA
ATOM      2  N   UNL     1       4.236  -0.619   0.000  0.00  0.00    +0.000 N 
ATOM      3  N   UNL     1       5.689  -0.647   0.000  0.00  0.00    +0.000 NA
ATOM      4  C   UNL     1       4.951  -0.206   0.000  0.00  0.00    +0.000 A 
ATOM      5  C   UNL     1       4.951   0.619   0.000  0.00  0.00    +0.000 A 
ATOM      6  C   UNL     1       3.522  -0.206   0.000  0.00  0.00    +0.000 A 
ATOM      7  C   UNL     1       3.522   0.619   0.000  0.00  0.00    +0.000 A 
ATOM      8  C   UNL     1       4.236   1.031   0.000  0.00  0.00    +0.000 A 
ATOM      9  C   UNL     1       5.689   1.060   0.000  0.00  0.00    +0.000 A 
ATOM     10  C   UNL     1       6.436  -0.223   0.000  0.00  0.00    +0.000 A 
ATOM     11  C   UNL     1       6.436   0.636   0.000  0.00  0.00    +0.000 A 
ATOM     12  C   UNL     1       7.149  -0.639   0.000  0.00  0.00    +0.000 C 
ENDROOT
BRANCH   7  15
ATOM     13  O   UNL     1       2.093   0.619   0.000  0.00  0.00    +0.000 OA
ATOM     14  O   UNL     1       2.808   1.856   0.000  0.00  0.00    +0.000 OA
ATOM     15  C   UNL     1       2.808   1.031   0.000  0.00  0.00    +0.000 C 
ENDBRANCH   7  15
BRANCH   2  16
ATOM     16  C   UNL     1       4.236  -1.444   0.000  0.00  0.00    +0.000 C 
ATOM     17  C   UNL     1       3.522  -1.856   0.000  0.00  0.00    +0.000 C 
ENDBRANCH   2  16
TORSDOF 2
