REMARK  Name = 77A
REMARK  6 active torsions:
REMARK  status: ('A' for Active; 'I' for Inactive)
REMARK    1  A    between atoms: N_1  and  C_2
REMARK    2  A    between atoms: C_7  and  O_8
REMARK    3  A    between atoms: C_16  and  O_20
REMARK    4  A    between atoms: O_20  and  C_21
REMARK    5  A    between atoms: C_21  and  C_22
REMARK    6  A    between atoms: C_22  and  N_23
REMARK                            x       y       z     vdW  Elec       q    Type
REMARK                         _______ _______ _______ _____ _____    ______ ____
ROOT
ATOM      1  N   UNL     1      -3.445   0.805   0.000  0.00  0.00    +0.000 NA
ATOM      2  C   UNL     1      -2.730   0.392   0.000  0.00  0.00    +0.000 C 
ATOM      3  O   UNL     1      -2.730  -0.433   0.000  0.00  0.00    +0.000 OA
ATOM      4  N   UNL     1      -2.016   0.805   0.000  0.00  0.00    +0.000 NA
ATOM      5  C   UNL     1      -1.301   0.392   0.000  0.00  0.00    +0.000 A 
ATOM      6  N   UNL     1      -0.587   0.805   0.000  0.00  0.00    +0.000 NA
ATOM      7  C   UNL     1       0.128   0.392   0.000  0.00  0.00    +0.000 A 
ATOM      8  C   UNL     1       0.128  -0.433   0.000  0.00  0.00    +0.000 A 
ATOM      9  N   UNL     1      -0.587  -0.845   0.000  0.00  0.00    +0.000 NA
ATOM     10  C   UNL     1      -1.301  -0.433   0.000  0.00  0.00    +0.000 A 
ENDROOT
BRANCH   1  11
ATOM     11  C   UNL     1      -4.159   0.392   0.000  0.00  0.00    +0.000 A 
ATOM     12  C   UNL     1      -4.159  -0.433   0.000  0.00  0.00    +0.000 A 
ATOM     13  C   UNL     1      -4.874  -0.845   0.000  0.00  0.00    +0.000 A 
ATOM     14  C   UNL     1      -5.588  -0.433   0.000  0.00  0.00    +0.000 A 
ATOM     15  C   UNL     1      -5.588   0.392   0.000  0.00  0.00    +0.000 A 
ATOM     16  C   UNL     1      -4.874   0.805   0.000  0.00  0.00    +0.000 A 
ATOM     17 CL   UNL     1      -4.874  -1.670   0.000  0.00  0.00    +0.000 Cl
BRANCH  16  18
ATOM     18  O   UNL     1      -4.874   1.630   0.000  0.00  0.00    +0.000 OA
ATOM     19  C   UNL     1      -5.588   2.042   0.000  0.00  0.00    +0.000 C 
ENDBRANCH  16  18
ENDBRANCH   1  11
BRANCH   7  20
ATOM     20  O   UNL     1       0.842   0.805   0.000  0.00  0.00    +0.000 OA
BRANCH  20  21
ATOM     21  C   UNL     1       1.557   0.392   0.000  0.00  0.00    +0.000 C 
ATOM     22  C   UNL     1       1.557  -0.433   0.000  0.00  0.00    +0.000 C 
BRANCH  21  23
ATOM     23  C   UNL     1       2.271   0.805   0.000  0.00  0.00    +0.000 C 
BRANCH  23  24
ATOM     24  N   UNL     1       2.986   0.392   0.000  0.00  0.00    +0.000 NA
ATOM     25  C   UNL     1       3.700   0.805   0.000  0.00  0.00    +0.000 C 
ATOM     26  C   UNL     1       2.986  -0.433   0.000  0.00  0.00    +0.000 C 
ENDBRANCH  23  24
ENDBRANCH  21  23
ENDBRANCH  20  21
ENDBRANCH   7  20
TORSDOF 6
