REMARK  Name = 780
REMARK  3 active torsions:
REMARK  status: ('A' for Active; 'I' for Inactive)
REMARK    1  A    between atoms: N_1  and  C_5
REMARK    2  A    between atoms: C_3  and  C_4
REMARK    3  A    between atoms: C_3  and  C_5
REMARK                            x       y       z     vdW  Elec       q    Type
REMARK                         _______ _______ _______ _____ _____    ______ ____
ROOT
ATOM      1  C   UNL     1       2.364  -0.668   0.000  0.00  0.00    +0.000 A 
ATOM      2  C   UNL     1       3.079  -1.081   0.000  0.00  0.00    +0.000 A 
ATOM      3  C   UNL     1       1.650  -1.081   0.000  0.00  0.00    +0.000 A 
ATOM      4  C   UNL     1       3.079  -1.906   0.000  0.00  0.00    +0.000 A 
ATOM      5  C   UNL     1       1.650  -1.906   0.000  0.00  0.00    +0.000 A 
ATOM      6  C   UNL     1       2.364  -2.318   0.000  0.00  0.00    +0.000 A 
ENDROOT
BRANCH   1   7
ATOM      7  C   UNL     1       2.364   0.157   0.000  0.00  0.00    +0.000 C 
BRANCH   7   8
ATOM      8  C   UNL     1       3.079   0.569   0.000  0.00  0.00    +0.000 C 
BRANCH   8   9
ATOM      9  N   UNL     1       3.079   1.394   0.000  0.00  0.00    +0.000 NA
ATOM     10  N   UNL     1       3.793   1.807   0.000  0.00  0.00    +0.000 NA
ENDBRANCH   8   9
ENDBRANCH   7   8
ENDBRANCH   1   7
TORSDOF 3
