REMARK  Name = 782
REMARK  7 active torsions:
REMARK  status: ('A' for Active; 'I' for Inactive)
REMARK    1  A    between atoms: O_1  and  C_13
REMARK    2  A    between atoms: O_1  and  C_15
REMARK    3  A    between atoms: N_4  and  C_5
REMARK    4  A    between atoms: N_4  and  C_6
REMARK    5  A    between atoms: N_4  and  C_7
REMARK    6  A    between atoms: C_7  and  C_13
REMARK    7  A    between atoms: C_14  and  C_15
REMARK                            x       y       z     vdW  Elec       q    Type
REMARK                         _______ _______ _______ _____ _____    ______ ____
ROOT
ATOM      1  O   UNL     1       3.849  -3.079   0.000  0.00  0.00    +0.000 OA
ATOM      2  C   UNL     1       3.849  -1.429   0.000  0.00  0.00    +0.000 C 
ATOM      3  C   UNL     1       4.564  -1.842   0.000  0.00  0.00    +0.000 A 
ATOM      4  C   UNL     1       3.135  -1.842   0.000  0.00  0.00    +0.000 A 
ATOM      5  C   UNL     1       4.564  -2.667   0.000  0.00  0.00    +0.000 A 
ATOM      6  C   UNL     1       3.135  -2.667   0.000  0.00  0.00    +0.000 A 
ATOM      7  C   UNL     1       5.301  -1.401   0.000  0.00  0.00    +0.000 A 
ATOM      8  C   UNL     1       2.397  -1.401   0.000  0.00  0.00    +0.000 A 
ATOM      9  C   UNL     1       5.301  -3.108   0.000  0.00  0.00    +0.000 A 
ATOM     10  C   UNL     1       2.397  -3.108   0.000  0.00  0.00    +0.000 A 
ATOM     11  C   UNL     1       6.049  -1.825   0.000  0.00  0.00    +0.000 A 
ATOM     12  C   UNL     1       1.650  -1.825   0.000  0.00  0.00    +0.000 A 
ATOM     13  C   UNL     1       6.049  -2.684   0.000  0.00  0.00    +0.000 A 
ATOM     14  C   UNL     1       1.650  -2.684   0.000  0.00  0.00    +0.000 A 
ENDROOT
BRANCH   2  16
ATOM     15  O   UNL     1       3.135  -0.192   0.000  0.00  0.00    +0.000 OA
ATOM     16  C   UNL     1       3.849  -0.605   0.000  0.00  0.00    +0.000 C 
BRANCH  16  17
ATOM     17  O   UNL     1       4.564  -0.192   0.000  0.00  0.00    +0.000 OA
BRANCH  17  18
ATOM     18  C   UNL     1       4.564   0.633   0.000  0.00  0.00    +0.000 C 
BRANCH  18  19
ATOM     19  C   UNL     1       5.278   1.046   0.000  0.00  0.00    +0.000 C 
BRANCH  19  20
ATOM     20  N   UNL     1       5.278   1.871   0.000  0.00  0.00    +0.000 N 
ATOM     21  C   UNL     1       4.453   1.871   0.000  0.00  0.00    +0.000 C 
BRANCH  20  22
ATOM     22  C   UNL     1       6.103   1.871   0.000  0.00  0.00    +0.000 C 
ATOM     23  C   UNL     1       6.516   1.156   0.000  0.00  0.00    +0.000 C 
ATOM     24  C   UNL     1       6.516   2.585   0.000  0.00  0.00    +0.000 C 
ENDBRANCH  20  22
BRANCH  20  25
ATOM     25  C   UNL     1       5.278   2.696   0.000  0.00  0.00    +0.000 C 
ATOM     26  C   UNL     1       5.993   3.108   0.000  0.00  0.00    +0.000 C 
ATOM     27  C   UNL     1       4.564   3.108   0.000  0.00  0.00    +0.000 C 
ENDBRANCH  20  25
ENDBRANCH  19  20
ENDBRANCH  18  19
ENDBRANCH  17  18
ENDBRANCH  16  17
ENDBRANCH   2  16
TORSDOF 7
