REMARK  Name = 783
REMARK  4 active torsions:
REMARK  status: ('A' for Active; 'I' for Inactive)
REMARK    1  A    between atoms: C_1  and  C_7
REMARK    2  A    between atoms: C_12  and  C_13
REMARK    3  A    between atoms: C_15  and  O_16
REMARK    4  A    between atoms: C_19  and  C_22
REMARK                            x       y       z     vdW  Elec       q    Type
REMARK                         _______ _______ _______ _____ _____    ______ ____
ROOT
ATOM      1  C   UNL     1      -0.469  -0.512   0.000  0.00  0.00    +0.000 A 
ATOM      2  C   UNL     1      -0.882  -1.227   0.000  0.00  0.00    +0.000 A 
ATOM      3  C   UNL     1      -1.707  -1.227   0.000  0.00  0.00    +0.000 A 
ATOM      4  C   UNL     1      -2.119  -0.512   0.000  0.00  0.00    +0.000 A 
ATOM      5  C   UNL     1      -1.707   0.202   0.000  0.00  0.00    +0.000 A 
ATOM      6  C   UNL     1      -0.882   0.202   0.000  0.00  0.00    +0.000 A 
ATOM      7  O   UNL     1      -0.469   0.917   0.000  0.00  0.00    +0.000 OA
ENDROOT
BRANCH   1  16
ATOM      8  C   UNL     1       3.054  -0.100   0.000  0.00  0.00    +0.000 A 
ATOM      9  C   UNL     1       3.054  -0.925   0.000  0.00  0.00    +0.000 A 
ATOM     10  C   UNL     1       2.340  -1.337   0.000  0.00  0.00    +0.000 A 
ATOM     11  C   UNL     1       1.625  -0.925   0.000  0.00  0.00    +0.000 A 
ATOM     12  C   UNL     1       1.625  -0.100   0.000  0.00  0.00    +0.000 A 
ATOM     13  C   UNL     1       2.340   0.313   0.000  0.00  0.00    +0.000 A 
ATOM     14  N   UNL     1       0.841  -1.180   0.000  0.00  0.00    +0.000 NA
ATOM     15  C   UNL     1       0.841   0.155   0.000  0.00  0.00    +0.000 A 
ATOM     16  C   UNL     1       0.356  -0.512   0.000  0.00  0.00    +0.000 A 
BRANCH   8  17
ATOM     17  C   UNL     1       3.769   0.313   0.000  0.00  0.00    +0.000 C 
ATOM     18  N   UNL     1       4.483  -0.100   0.000  0.00  0.00    +0.000 NA
ATOM     19  N   UNL     1       3.769   1.138   0.000  0.00  0.00    +0.000 NA
ENDBRANCH   8  17
ENDBRANCH   1  16
BRANCH   5  20
ATOM     20  C   UNL     1      -2.119   0.917   0.000  0.00  0.00    +0.000 A 
ATOM     21  C   UNL     1      -2.944   0.917   0.000  0.00  0.00    +0.000 A 
ATOM     22  C   UNL     1      -3.357   1.631   0.000  0.00  0.00    +0.000 A 
ATOM     23  C   UNL     1      -2.944   2.346   0.000  0.00  0.00    +0.000 A 
ATOM     24  C   UNL     1      -2.119   2.346   0.000  0.00  0.00    +0.000 A 
ATOM     25  C   UNL     1      -1.707   1.631   0.000  0.00  0.00    +0.000 A 
ENDBRANCH   5  20
BRANCH   3  26
ATOM     26  O   UNL     1      -2.119  -1.941   0.000  0.00  0.00    +0.000 OA
ATOM     27  C   UNL     1      -2.944  -1.941   0.000  0.00  0.00    +0.000 C 
ENDBRANCH   3  26
TORSDOF 4
