REMARK  Name = 783
REMARK  0 active torsions:
REMARK  status: ('A' for Active; 'I' for Inactive)
REMARK                            x       y       z     vdW  Elec       q    Type
REMARK                         _______ _______ _______ _____ _____    ______ ____
ROOT
ATOM      1  O   UNL     1       7.577   1.743   0.000  0.00  0.00    +0.000 OA
ATOM      2  O   UNL     1       2.092  -1.810   0.000  0.00  0.00    +0.000 OA
ATOM      3  C   UNL     1       6.541   0.707   0.000  0.00  0.00    +0.000 C 
ATOM      4  C   UNL     1       6.541  -0.118   0.000  0.00  0.00    +0.000 C 
ATOM      5  C   UNL     1       5.826  -0.530   0.000  0.00  0.00    +0.000 C 
ATOM      6  C   UNL     1       5.112  -0.118   0.000  0.00  0.00    +0.000 C 
ATOM      7  C   UNL     1       7.321   0.959   0.000  0.00  0.00    +0.000 C 
ATOM      8  C   UNL     1       5.826   1.120   0.000  0.00  0.00    +0.000 C 
ATOM      9  C   UNL     1       7.321  -0.369   0.000  0.00  0.00    +0.000 C 
ATOM     10  C   UNL     1       5.112   0.707   0.000  0.00  0.00    +0.000 C 
ATOM     11  C   UNL     1       7.803   0.295   0.000  0.00  0.00    +0.000 C 
ATOM     12  C   UNL     1       5.840  -1.389   0.000  0.00  0.00    +0.000 C 
ATOM     13  C   UNL     1       6.541   1.532   0.000  0.00  0.00    +0.000 C 
ATOM     14  C   UNL     1       4.361  -0.536   0.000  0.00  0.00    +0.000 A 
ATOM     15  C   UNL     1       5.099  -1.825   0.000  0.00  0.00    +0.000 C 
ATOM     16  C   UNL     1       4.354  -1.395   0.000  0.00  0.00    +0.000 A 
ATOM     17  C   UNL     1       3.597  -0.070   0.000  0.00  0.00    +0.000 A 
ATOM     18  C   UNL     1       3.583  -1.848   0.000  0.00  0.00    +0.000 A 
ATOM     19  C   UNL     1       2.815  -0.506   0.000  0.00  0.00    +0.000 A 
ATOM     20  C   UNL     1       2.808  -1.401   0.000  0.00  0.00    +0.000 A 
ENDROOT
TORSDOF 0
