REMARK  Name = 784
REMARK  3 active torsions:
REMARK  status: ('A' for Active; 'I' for Inactive)
REMARK    1  A    between atoms: N_3  and  C_5
REMARK    2  A    between atoms: N_3  and  C_7
REMARK    3  A    between atoms: C_12  and  C_18
REMARK                            x       y       z     vdW  Elec       q    Type
REMARK                         _______ _______ _______ _____ _____    ______ ____
ROOT
ATOM      1  N   UNL     1       3.079  -0.128   0.000  0.00  0.00    +0.000 NA
ENDROOT
BRANCH   1   3
ATOM      2  C   UNL     1       2.365  -1.365   0.000  0.00  0.00    +0.000 A 
ATOM      3  C   UNL     1       3.079  -0.953   0.000  0.00  0.00    +0.000 A 
ATOM      4  C   UNL     1       2.365  -2.190   0.000  0.00  0.00    +0.000 A 
ATOM      5  C   UNL     1       3.793  -1.365   0.000  0.00  0.00    +0.000 A 
ATOM      6  C   UNL     1       3.079  -2.603   0.000  0.00  0.00    +0.000 A 
ATOM      7  C   UNL     1       1.650  -0.953   0.000  0.00  0.00    +0.000 C 
ATOM      8  C   UNL     1       3.793  -2.190   0.000  0.00  0.00    +0.000 A 
ATOM      9  C   UNL     1       1.650  -2.603   0.000  0.00  0.00    +0.000 C 
ENDBRANCH   1   3
BRANCH   1  10
ATOM     10  C   UNL     1       3.793   0.285   0.000  0.00  0.00    +0.000 A 
ATOM     11  C   UNL     1       3.793   1.110   0.000  0.00  0.00    +0.000 A 
ATOM     12  C   UNL     1       4.508  -0.128   0.000  0.00  0.00    +0.000 A 
ATOM     13  C   UNL     1       4.508   1.522   0.000  0.00  0.00    +0.000 A 
ATOM     14  C   UNL     1       5.222   0.285   0.000  0.00  0.00    +0.000 A 
ATOM     15  C   UNL     1       5.222   1.110   0.000  0.00  0.00    +0.000 A 
BRANCH  11  18
ATOM     16  O   UNL     1       3.079   2.347   0.000  0.00  0.00    +0.000 OA
ATOM     17  O   UNL     1       2.365   1.110   0.000  0.00  0.00    +0.000 OA
ATOM     18  C   UNL     1       3.079   1.522   0.000  0.00  0.00    +0.000 C 
ENDBRANCH  11  18
ENDBRANCH   1  10
TORSDOF 3
