REMARK  Name = 785
REMARK  4 active torsions:
REMARK  status: ('A' for Active; 'I' for Inactive)
REMARK    1  A    between atoms: C_1  and  C_7
REMARK    2  A    between atoms: C_12  and  C_13
REMARK    3  A    between atoms: C_15  and  O_16
REMARK    4  A    between atoms: O_16  and  C_17
REMARK                            x       y       z     vdW  Elec       q    Type
REMARK                         _______ _______ _______ _____ _____    ______ ____
ROOT
ATOM      1  C   UNL     1       2.745   0.502   0.000  0.00  0.00    +0.000 A 
ATOM      2  C   UNL     1       2.745  -0.323   0.000  0.00  0.00    +0.000 A 
ATOM      3  C   UNL     1       2.031  -0.735   0.000  0.00  0.00    +0.000 A 
ATOM      4  C   UNL     1       1.317  -0.323   0.000  0.00  0.00    +0.000 A 
ATOM      5  C   UNL     1       1.317   0.502   0.000  0.00  0.00    +0.000 A 
ATOM      6  C   UNL     1       2.031   0.915   0.000  0.00  0.00    +0.000 A 
ATOM      7  N   UNL     1       0.532  -0.578   0.000  0.00  0.00    +0.000 NA
ATOM      8  N   UNL     1       0.532   0.757   0.000  0.00  0.00    +0.000 NA
ATOM      9  C   UNL     1       0.047   0.090   0.000  0.00  0.00    +0.000 A 
ENDROOT
BRANCH   9  10
ATOM     10  C   UNL     1      -0.778   0.090   0.000  0.00  0.00    +0.000 A 
ATOM     11  C   UNL     1      -1.190  -0.625   0.000  0.00  0.00    +0.000 A 
ATOM     12  C   UNL     1      -2.015  -0.625   0.000  0.00  0.00    +0.000 A 
ATOM     13  C   UNL     1      -2.428   0.090   0.000  0.00  0.00    +0.000 A 
ATOM     14  C   UNL     1      -2.015   0.804   0.000  0.00  0.00    +0.000 A 
ATOM     15  C   UNL     1      -1.190   0.804   0.000  0.00  0.00    +0.000 A 
ATOM     16  O   UNL     1      -0.778   1.519   0.000  0.00  0.00    +0.000 OA
BRANCH  12  17
ATOM     17  O   UNL     1      -2.428  -1.339   0.000  0.00  0.00    +0.000 OA
BRANCH  17  18
ATOM     18  C   UNL     1      -2.015  -2.054   0.000  0.00  0.00    +0.000 C 
ATOM     19  F   UNL     1      -1.603  -2.768   0.000  0.00  0.00    +0.000 F 
ATOM     20  F   UNL     1      -2.730  -2.466   0.000  0.00  0.00    +0.000 F 
ATOM     21  F   UNL     1      -1.301  -1.641   0.000  0.00  0.00    +0.000 F 
ENDBRANCH  17  18
ENDBRANCH  12  17
ENDBRANCH   9  10
BRANCH   1  22
ATOM     22  C   UNL     1       3.460   0.915   0.000  0.00  0.00    +0.000 C 
ATOM     23  N   UNL     1       4.175   0.502   0.000  0.00  0.00    +0.000 NA
ATOM     24  N   UNL     1       3.460   1.740   0.000  0.00  0.00    +0.000 NA
ENDBRANCH   1  22
TORSDOF 4
