REMARK  Name = 789
REMARK  1 active torsions:
REMARK  status: ('A' for Active; 'I' for Inactive)
REMARK    1  A    between atoms: C_8  and  C_10
REMARK                            x       y       z     vdW  Elec       q    Type
REMARK                         _______ _______ _______ _____ _____    ______ ____
ROOT
ATOM      1  C   UNL     1       2.547  -0.056   0.000  0.00  0.00    +0.000 A 
ATOM      2  C   UNL     1       1.832  -0.469   0.000  0.00  0.00    +0.000 A 
ATOM      3  C   UNL     1       1.118  -0.056   0.000  0.00  0.00    +0.000 A 
ATOM      4  C   UNL     1       1.118   0.769   0.000  0.00  0.00    +0.000 A 
ATOM      5  C   UNL     1       1.832   1.181   0.000  0.00  0.00    +0.000 A 
ATOM      6  C   UNL     1       2.547   0.769   0.000  0.00  0.00    +0.000 A 
ATOM      7  C   UNL     1       0.333  -0.311   0.000  0.00  0.00    +0.000 C 
ATOM      8  C   UNL     1      -0.152   0.356   0.000  0.00  0.00    +0.000 C 
ATOM      9  C   UNL     1       0.333   1.024   0.000  0.00  0.00    +0.000 C 
ATOM     10  O   UNL     1       0.078  -1.096   0.000  0.00  0.00    +0.000 OA
ATOM     11  O   UNL     1       3.261  -0.469   0.000  0.00  0.00    +0.000 OA
ATOM     12 BR   UNL     1       0.078   1.808   0.000  0.00  0.00    +0.000 Br
ENDROOT
BRANCH   8  13
ATOM     13  C   UNL     1      -0.977   0.356   0.000  0.00  0.00    +0.000 A 
ATOM     14  C   UNL     1      -1.389  -0.358   0.000  0.00  0.00    +0.000 A 
ATOM     15  C   UNL     1      -2.214  -0.358   0.000  0.00  0.00    +0.000 A 
ATOM     16  C   UNL     1      -2.627   0.356   0.000  0.00  0.00    +0.000 A 
ATOM     17  C   UNL     1      -2.214   1.071   0.000  0.00  0.00    +0.000 A 
ATOM     18  C   UNL     1      -1.389   1.071   0.000  0.00  0.00    +0.000 A 
ATOM     19  O   UNL     1      -3.452   0.356   0.000  0.00  0.00    +0.000 OA
ENDBRANCH   8  13
TORSDOF 1
