REMARK  Name = 78P
REMARK  2 active torsions:
REMARK  status: ('A' for Active; 'I' for Inactive)
REMARK    1  A    between atoms: C_2  and  C_5
REMARK    2  A    between atoms: C_4  and  C_6
REMARK                            x       y       z     vdW  Elec       q    Type
REMARK                         _______ _______ _______ _____ _____    ______ ____
ROOT
ATOM      1  C   UNL     1       1.255   0.231   0.000  0.00  0.00    +0.000 A 
ATOM      2  C   UNL     1       1.969   0.644   0.000  0.00  0.00    +0.000 A 
ATOM      3  C   UNL     1       2.684   0.231   0.000  0.00  0.00    +0.000 A 
ATOM      4  C   UNL     1      -0.015  -0.181   0.000  0.00  0.00    +0.000 A 
ATOM      5  C   UNL     1       2.684  -0.594   0.000  0.00  0.00    +0.000 A 
ATOM      6  C   UNL     1       1.969  -1.006   0.000  0.00  0.00    +0.000 A 
ATOM      7  C   UNL     1       1.255  -0.594   0.000  0.00  0.00    +0.000 A 
ATOM      8  N   UNL     1       0.470  -0.849   0.000  0.00  0.00    +0.000 NA
ATOM      9  N   UNL     1       0.470   0.486   0.000  0.00  0.00    +0.000 NA
ENDROOT
BRANCH   4  10
ATOM     10  C   UNL     1      -0.840  -0.181   0.000  0.00  0.00    +0.000 C 
ATOM     11  C   UNL     1      -2.148  -0.445   0.000  0.00  0.00    +0.000 C 
ATOM     12  C   UNL     1      -0.934  -1.001   0.000  0.00  0.00    +0.000 C 
ATOM     13  N   UNL     1      -1.590   0.162   0.000  0.00  0.00    +0.000 NA
ATOM     14  C   UNL     1      -1.743  -1.164   0.000  0.00  0.00    +0.000 C 
ATOM     15  C   UNL     1      -0.412   0.524   0.000  0.00  0.00    +0.000 C 
ENDBRANCH   4  10
BRANCH   2  16
ATOM     16  C   UNL     1       1.969   1.469   0.000  0.00  0.00    +0.000 C 
ATOM     17  N   UNL     1       1.255   1.881   0.000  0.00  0.00    +0.000 NA
ATOM     18  O   UNL     1       2.684   1.881   0.000  0.00  0.00    +0.000 OA
ENDBRANCH   2  16
TORSDOF 2
