REMARK  Name = 791
REMARK  3 active torsions:
REMARK  status: ('A' for Active; 'I' for Inactive)
REMARK    1  A    between atoms: C_4  and  C_7
REMARK    2  A    between atoms: C_7  and  C_8
REMARK    3  A    between atoms: C_7  and  C_9
REMARK                            x       y       z     vdW  Elec       q    Type
REMARK                         _______ _______ _______ _____ _____    ______ ____
ROOT
ATOM      1  C   UNL     1      -0.750  -0.399   0.000  0.00  0.00    +0.000 C 
ENDROOT
BRANCH   1   5
ATOM      2  C   UNL     1       1.393   0.838   0.000  0.00  0.00    +0.000 A 
ATOM      3  C   UNL     1       1.393   0.013   0.000  0.00  0.00    +0.000 A 
ATOM      4  C   UNL     1       0.679  -0.399   0.000  0.00  0.00    +0.000 A 
ATOM      5  C   UNL     1      -0.035   0.013   0.000  0.00  0.00    +0.000 A 
ATOM      6  C   UNL     1      -0.035   0.838   0.000  0.00  0.00    +0.000 A 
ATOM      7  C   UNL     1       0.679   1.251   0.000  0.00  0.00    +0.000 A 
ENDBRANCH   1   5
BRANCH   1   8
ATOM      8  C   UNL     1      -1.464   0.013   0.000  0.00  0.00    +0.000 C 
ATOM      9  O   UNL     1      -2.179  -0.399   0.000  0.00  0.00    +0.000 OA
ATOM     10  O   UNL     1      -1.464   0.838   0.000  0.00  0.00    +0.000 OA
ENDBRANCH   1   8
BRANCH   1  11
ATOM     11  C   UNL     1      -0.750  -1.224   0.000  0.00  0.00    +0.000 C 
ATOM     12  O   UNL     1      -1.464  -1.637   0.000  0.00  0.00    +0.000 OA
ATOM     13  O   UNL     1      -0.035  -1.637   0.000  0.00  0.00    +0.000 OA
ENDBRANCH   1  11
TORSDOF 3
