REMARK  Name = 791
REMARK  5 active torsions:
REMARK  status: ('A' for Active; 'I' for Inactive)
REMARK    1  A    between atoms: N_5  and  C_8
REMARK    2  A    between atoms: N_5  and  C_9
REMARK    3  A    between atoms: N_5  and  C_10
REMARK    4  A    between atoms: C_8  and  C_11
REMARK    5  A    between atoms: C_9  and  C_12
REMARK                            x       y       z     vdW  Elec       q    Type
REMARK                         _______ _______ _______ _____ _____    ______ ____
ROOT
ATOM      1  O   UNL     1       3.793  -1.601   0.000  0.00  0.00    +0.000 OA
ATOM      2  O   UNL     1       6.652  -1.601   0.000  0.00  0.00    +0.000 OA
ATOM      3  N   UNL     1       5.222  -1.601   0.000  0.00  0.00    +0.000 NA
ATOM      4  N   UNL     1       5.937  -0.363   0.000  0.00  0.00    +0.000 NA
ATOM      5  C   UNL     1       4.508  -0.363   0.000  0.00  0.00    +0.000 A 
ATOM      6  C   UNL     1       4.508  -1.188   0.000  0.00  0.00    +0.000 A 
ATOM      7  C   UNL     1       5.222   0.050   0.000  0.00  0.00    +0.000 A 
ATOM      8  C   UNL     1       5.937  -1.188   0.000  0.00  0.00    +0.000 A 
ENDROOT
BRANCH   5   9
ATOM      9  N   UNL     1       3.793   0.050   0.000  0.00  0.00    +0.000 N 
BRANCH   9  10
ATOM     10  C   UNL     1       3.079  -0.363   0.000  0.00  0.00    +0.000 C 
BRANCH  10  12
ATOM     11 CL   UNL     1       1.650  -0.363   0.000  0.00  0.00    +0.000 Cl
ATOM     12  C   UNL     1       2.365   0.050   0.000  0.00  0.00    +0.000 C 
ENDBRANCH  10  12
ENDBRANCH   9  10
BRANCH   9  13
ATOM     13  C   UNL     1       3.793   0.875   0.000  0.00  0.00    +0.000 C 
BRANCH  13  15
ATOM     14 CL   UNL     1       3.079   2.112   0.000  0.00  0.00    +0.000 Cl
ATOM     15  C   UNL     1       3.079   1.287   0.000  0.00  0.00    +0.000 C 
ENDBRANCH  13  15
ENDBRANCH   9  13
ENDBRANCH   5   9
TORSDOF 5
