REMARK  Name = 792
REMARK  9 active torsions:
REMARK  status: ('A' for Active; 'I' for Inactive)
REMARK    1  A    between atoms: S_7  and  C_8
REMARK    2  A    between atoms: S_7  and  N_27
REMARK    3  A    between atoms: C_11  and  O_14
REMARK    4  A    between atoms: O_14  and  C_15
REMARK    5  A    between atoms: C_15  and  C_16
REMARK    6  A    between atoms: C_23  and  C_24
REMARK    7  A    between atoms: C_24  and  C_25
REMARK    8  A    between atoms: C_25  and  C_26
REMARK    9  A    between atoms: C_25  and  N_27
REMARK                            x       y       z     vdW  Elec       q    Type
REMARK                         _______ _______ _______ _____ _____    ______ ____
ROOT
ATOM      1  C   UNL     1       0.420   1.051   0.000  0.00  0.00    +0.000 C 
ENDROOT
BRANCH   1   2
ATOM      2  C   UNL     1       1.134   0.639   0.000  0.00  0.00    +0.000 C 
ATOM      3  O   UNL     1       1.849   1.051   0.000  0.00  0.00    +0.000 OA
ATOM      4  O   UNL     1       1.134  -0.186   0.000  0.00  0.00    +0.000 OA
ENDBRANCH   1   2
BRANCH   1   5
ATOM      5  C   UNL     1       0.420   1.876   0.000  0.00  0.00    +0.000 C 
BRANCH   5  14
ATOM      6  C   UNL     1       2.282   4.065   0.000  0.00  0.00    +0.000 A 
ATOM      7  C   UNL     1       2.027   3.281   0.000  0.00  0.00    +0.000 A 
ATOM      8  C   UNL     1       1.220   3.109   0.000  0.00  0.00    +0.000 A 
ATOM      9  C   UNL     1       0.668   3.722   0.000  0.00  0.00    +0.000 A 
ATOM     10  C   UNL     1       0.923   4.507   0.000  0.00  0.00    +0.000 A 
ATOM     11  C   UNL     1       1.730   4.678   0.000  0.00  0.00    +0.000 A 
ATOM     12  N   UNL     1       2.440   2.566   0.000  0.00  0.00    +0.000 NA
ATOM     13  C   UNL     1       1.888   1.953   0.000  0.00  0.00    +0.000 A 
ATOM     14  C   UNL     1       1.134   2.289   0.000  0.00  0.00    +0.000 A 
ATOM     15  C   UNL     1       0.371   5.120   0.000  0.00  0.00    +0.000 C 
ENDBRANCH   5  14
ENDBRANCH   1   5
BRANCH   1  16
ATOM     16  N   UNL     1      -0.295   0.639   0.000  0.00  0.00    +0.000 NA
BRANCH  16  17
ATOM     17  S   UNL     1      -0.295  -0.186   0.000  0.00  0.00    +0.000 S 
ATOM     18  O   UNL     1      -1.120  -0.186   0.000  0.00  0.00    +0.000 OA
ATOM     19  O   UNL     1       0.530  -0.186   0.000  0.00  0.00    +0.000 OA
BRANCH  17  20
ATOM     20  C   UNL     1      -0.295  -1.011   0.000  0.00  0.00    +0.000 A 
ATOM     21  C   UNL     1      -1.009  -1.424   0.000  0.00  0.00    +0.000 A 
ATOM     22  C   UNL     1      -1.009  -2.249   0.000  0.00  0.00    +0.000 A 
ATOM     23  C   UNL     1      -0.295  -2.661   0.000  0.00  0.00    +0.000 A 
ATOM     24  C   UNL     1       0.420  -2.249   0.000  0.00  0.00    +0.000 A 
ATOM     25  C   UNL     1       0.420  -1.424   0.000  0.00  0.00    +0.000 A 
BRANCH  23  26
ATOM     26  O   UNL     1      -0.295  -3.486   0.000  0.00  0.00    +0.000 OA
BRANCH  26  27
ATOM     27  C   UNL     1      -1.009  -3.899   0.000  0.00  0.00    +0.000 C 
BRANCH  27  28
ATOM     28  C   UNL     1      -1.009  -4.724   0.000  0.00  0.00    +0.000 C 
ATOM     29  C   UNL     1      -1.009  -5.549   0.000  0.00  0.00    +0.000 C 
ATOM     30  C   UNL     1      -1.009  -6.374   0.000  0.00  0.00    +0.000 C 
ENDBRANCH  27  28
ENDBRANCH  26  27
ENDBRANCH  23  26
ENDBRANCH  17  20
ENDBRANCH  16  17
ENDBRANCH   1  16
TORSDOF 9
