REMARK  Name = 793
REMARK  5 active torsions:
REMARK  status: ('A' for Active; 'I' for Inactive)
REMARK    1  A    between atoms: C_2  and  C_3
REMARK    2  A    between atoms: C_2  and  N_16
REMARK    3  A    between atoms: C_9  and  N_21
REMARK    4  A    between atoms: N_16  and  C_17
REMARK    5  A    between atoms: C_18  and  N_21
REMARK                            x       y       z     vdW  Elec       q    Type
REMARK                         _______ _______ _______ _____ _____    ______ ____
ROOT
ATOM      1  C   UNL     1      -0.039   1.694   0.000  0.00  0.00    +0.000 C 
ATOM      2  C   UNL     1       0.544   1.111   0.000  0.00  0.00    +0.000 C 
ATOM      3  C   UNL     1      -0.039   0.527   0.000  0.00  0.00    +0.000 C 
ATOM      4  C   UNL     1      -0.622   1.111   0.000  0.00  0.00    +0.000 C 
ATOM      5  O   UNL     1      -0.039   2.519   0.000  0.00  0.00    +0.000 OA
ATOM      6  O   UNL     1       1.369   1.111   0.000  0.00  0.00    +0.000 OA
ENDROOT
BRANCH   3   7
ATOM      7  N   UNL     1      -0.039  -0.298   0.000  0.00  0.00    +0.000 NA
BRANCH   7   9
ATOM      8  C   UNL     1       1.390  -0.298   0.000  0.00  0.00    +0.000 C 
ATOM      9  C   UNL     1       0.675  -0.710   0.000  0.00  0.00    +0.000 C 
BRANCH   9  10
ATOM     10  C   UNL     1       0.675  -1.535   0.000  0.00  0.00    +0.000 A 
ATOM     11  C   UNL     1       1.390  -1.948   0.000  0.00  0.00    +0.000 A 
ATOM     12  C   UNL     1       1.390  -2.773   0.000  0.00  0.00    +0.000 A 
ATOM     13  C   UNL     1       0.675  -3.185   0.000  0.00  0.00    +0.000 A 
ATOM     14  C   UNL     1      -0.039  -2.773   0.000  0.00  0.00    +0.000 A 
ATOM     15  C   UNL     1      -0.039  -1.948   0.000  0.00  0.00    +0.000 A 
ENDBRANCH   9  10
ENDBRANCH   7   9
ENDBRANCH   3   7
BRANCH   4  16
ATOM     16  N   UNL     1      -1.447   1.111   0.000  0.00  0.00    +0.000 NA
BRANCH  16  17
ATOM     17  C   UNL     1      -1.860   1.825   0.000  0.00  0.00    +0.000 A 
ATOM     18  C   UNL     1      -2.685   1.825   0.000  0.00  0.00    +0.000 A 
ATOM     19  C   UNL     1      -3.097   2.539   0.000  0.00  0.00    +0.000 A 
ATOM     20  C   UNL     1      -1.860   3.254   0.000  0.00  0.00    +0.000 A 
ATOM     21  C   UNL     1      -1.447   2.539   0.000  0.00  0.00    +0.000 A 
ATOM     22  N   UNL     1      -2.685   3.254   0.000  0.00  0.00    +0.000 NA
ENDBRANCH  16  17
ENDBRANCH   4  16
TORSDOF 5
