REMARK  Name = 793
REMARK  3 active torsions:
REMARK  status: ('A' for Active; 'I' for Inactive)
REMARK    1  A    between atoms: O_5  and  C_6
REMARK    2  A    between atoms: O_5  and  C_12
REMARK    3  A    between atoms: C_12  and  C_13
REMARK                            x       y       z     vdW  Elec       q    Type
REMARK                         _______ _______ _______ _____ _____    ______ ____
ROOT
ATOM      1 CL   UNL     1       1.650  -0.619   0.000  0.00  0.00    +0.000 Cl
ATOM      2 CL   UNL     1       4.508  -2.269   0.000  0.00  0.00    +0.000 Cl
ATOM      3 CL   UNL     1       3.079  -3.094   0.000  0.00  0.00    +0.000 Cl
ATOM      4  C   UNL     1       3.079  -0.619   0.000  0.00  0.00    +0.000 A 
ATOM      5  C   UNL     1       2.364  -1.031   0.000  0.00  0.00    +0.000 A 
ATOM      6  C   UNL     1       3.793  -1.031   0.000  0.00  0.00    +0.000 A 
ATOM      7  C   UNL     1       3.793  -1.856   0.000  0.00  0.00    +0.000 A 
ATOM      8  C   UNL     1       2.364  -1.856   0.000  0.00  0.00    +0.000 A 
ATOM      9  C   UNL     1       3.079  -2.269   0.000  0.00  0.00    +0.000 A 
ENDROOT
BRANCH   4  10
ATOM     10  O   UNL     1       3.079   0.206   0.000  0.00  0.00    +0.000 OA
BRANCH  10  11
ATOM     11  C   UNL     1       3.793   0.619   0.000  0.00  0.00    +0.000 C 
BRANCH  11  13
ATOM     12  I   UNL     1       3.793   3.094   0.000  0.00  0.00    +0.000 I 
ATOM     13  C   UNL     1       3.793   1.444   0.000  0.00  0.00    +0.000 C 
ATOM     14  C   UNL     1       3.793   2.269   0.000  0.00  0.00    +0.000 C 
ENDBRANCH  11  13
ENDBRANCH  10  11
ENDBRANCH   4  10
TORSDOF 3
