REMARK  Name = 794
REMARK  4 active torsions:
REMARK  status: ('A' for Active; 'I' for Inactive)
REMARK    1  A    between atoms: C_2  and  C_4
REMARK    2  A    between atoms: N_6  and  C_7
REMARK    3  A    between atoms: N_6  and  C_16
REMARK    4  A    between atoms: C_12  and  C_13
REMARK                            x       y       z     vdW  Elec       q    Type
REMARK                         _______ _______ _______ _____ _____    ______ ____
ROOT
ATOM      1  C   UNL     1       0.611   0.934   0.000  0.00  0.00    +0.000 C 
ATOM      2  O   UNL     1       1.326   0.522   0.000  0.00  0.00    +0.000 OA
ATOM      3  N   UNL     1      -0.103   0.522   0.000  0.00  0.00    +0.000 N 
ENDROOT
BRANCH   3   4
ATOM      4  C   UNL     1      -0.103  -0.303   0.000  0.00  0.00    +0.000 A 
ATOM      5  C   UNL     1      -0.818  -0.716   0.000  0.00  0.00    +0.000 A 
ATOM      6  C   UNL     1      -0.818  -1.541   0.000  0.00  0.00    +0.000 A 
ATOM      7  C   UNL     1      -0.103  -1.953   0.000  0.00  0.00    +0.000 A 
ATOM      8  C   UNL     1       0.611  -1.541   0.000  0.00  0.00    +0.000 A 
ATOM      9  C   UNL     1       0.611  -0.716   0.000  0.00  0.00    +0.000 A 
ATOM     10  C   UNL     1       1.326  -0.303   0.000  0.00  0.00    +0.000 A 
ATOM     11  C   UNL     1       2.040  -0.716   0.000  0.00  0.00    +0.000 A 
ATOM     12  C   UNL     1       2.040  -1.541   0.000  0.00  0.00    +0.000 A 
ATOM     13  C   UNL     1       1.326  -1.953   0.000  0.00  0.00    +0.000 A 
ENDBRANCH   3   4
BRANCH   3  14
ATOM     14  C   UNL     1      -0.818   0.934   0.000  0.00  0.00    +0.000 A 
ATOM     15  C   UNL     1      -0.818   1.759   0.000  0.00  0.00    +0.000 A 
ATOM     16  C   UNL     1      -1.532   2.172   0.000  0.00  0.00    +0.000 A 
ATOM     17  C   UNL     1      -2.247   1.759   0.000  0.00  0.00    +0.000 A 
ATOM     18  C   UNL     1      -2.247   0.934   0.000  0.00  0.00    +0.000 A 
ATOM     19  C   UNL     1      -1.532   0.522   0.000  0.00  0.00    +0.000 A 
BRANCH  19  20
ATOM     20  C   UNL     1      -1.532  -0.303   0.000  0.00  0.00    +0.000 C 
ATOM     21  O   UNL     1      -2.247  -0.716   0.000  0.00  0.00    +0.000 OA
ATOM     22  O   UNL     1      -1.197  -1.057   0.000  0.00  0.00    +0.000 OA
ENDBRANCH  19  20
ENDBRANCH   3  14
BRANCH   1  24
ATOM     23  O   UNL     1       1.326   2.172   0.000  0.00  0.00    +0.000 OA
ATOM     24  C   UNL     1       0.611   1.759   0.000  0.00  0.00    +0.000 C 
ATOM     25  O   UNL     1      -0.103   2.172   0.000  0.00  0.00    +0.000 OA
ENDBRANCH   1  24
TORSDOF 4
