REMARK  Name = 794
REMARK  2 active torsions:
REMARK  status: ('A' for Active; 'I' for Inactive)
REMARK    1  A    between atoms: C_5  and  C_6
REMARK    2  A    between atoms: C_5  and  C_7
REMARK                            x       y       z     vdW  Elec       q    Type
REMARK                         _______ _______ _______ _____ _____    ______ ____
ROOT
ATOM      1  O   UNL     1       1.650  -0.247   0.000  0.00  0.00    +0.000 OA
ATOM      2  O   UNL     1       4.508  -0.247   0.000  0.00  0.00    +0.000 OA
ATOM      3  N   UNL     1       2.365  -1.484   0.000  0.00  0.00    +0.000 NA
ATOM      4  N   UNL     1       3.793  -1.484   0.000  0.00  0.00    +0.000 NA
ATOM      5  C   UNL     1       3.079  -0.247   0.000  0.00  0.00    +0.000 C 
ATOM      6  C   UNL     1       2.365  -0.659   0.000  0.00  0.00    +0.000 C 
ATOM      7  C   UNL     1       3.793  -0.659   0.000  0.00  0.00    +0.000 C 
ATOM      8  C   UNL     1       3.079  -1.897   0.000  0.00  0.00    +0.000 C 
ENDROOT
BRANCH   5   9
ATOM      9  C   UNL     1       3.492   0.468   0.000  0.00  0.00    +0.000 A 
ATOM     10  C   UNL     1       3.079   1.182   0.000  0.00  0.00    +0.000 A 
ATOM     11  C   UNL     1       4.317   0.468   0.000  0.00  0.00    +0.000 A 
ATOM     12  C   UNL     1       3.492   1.897   0.000  0.00  0.00    +0.000 A 
ATOM     13  C   UNL     1       4.729   1.182   0.000  0.00  0.00    +0.000 A 
ATOM     14  C   UNL     1       4.317   1.897   0.000  0.00  0.00    +0.000 A 
ENDBRANCH   5   9
BRANCH   5  15
ATOM     15  C   UNL     1       2.667   0.468   0.000  0.00  0.00    +0.000 C 
ATOM     16  C   UNL     1       1.841   0.468   0.000  0.00  0.00    +0.000 C 
ENDBRANCH   5  15
TORSDOF 2
