REMARK  Name = 796
REMARK  6 active torsions:
REMARK  status: ('A' for Active; 'I' for Inactive)
REMARK    1  A    between atoms: C_2  and  C_3
REMARK    2  A    between atoms: C_7  and  C_8
REMARK    3  A    between atoms: N_16  and  C_17
REMARK    4  A    between atoms: C_17  and  C_18
REMARK    5  A    between atoms: C_17  and  C_20
REMARK    6  A    between atoms: C_20  and  C_21
REMARK                            x       y       z     vdW  Elec       q    Type
REMARK                         _______ _______ _______ _____ _____    ______ ____
ROOT
ATOM      1  O   UNL     1       0.122   1.020   0.000  0.00  0.00    +0.000 OA
ATOM      2  C   UNL     1       0.122   0.195   0.000  0.00  0.00    +0.000 C 
ATOM      3  N   UNL     1      -0.592  -0.217   0.000  0.00  0.00    +0.000 NA
ENDROOT
BRANCH   2   4
ATOM      4  C   UNL     1       0.837  -0.217   0.000  0.00  0.00    +0.000 A 
ATOM      5  S   UNL     1       1.591   0.118   0.000  0.00  0.00    +0.000 S 
ATOM      6  C   UNL     1       0.923  -1.038   0.000  0.00  0.00    +0.000 A 
ATOM      7  C   UNL     1       1.730  -1.210   0.000  0.00  0.00    +0.000 A 
ATOM      8  C   UNL     1       2.143  -0.495   0.000  0.00  0.00    +0.000 A 
BRANCH   8   9
ATOM      9  C   UNL     1       2.963  -0.409   0.000  0.00  0.00    +0.000 A 
ATOM     10  C   UNL     1       3.299   0.345   0.000  0.00  0.00    +0.000 A 
ATOM     11  N   UNL     1       3.448  -1.076   0.000  0.00  0.00    +0.000 NA
ATOM     12  C   UNL     1       4.268  -0.990   0.000  0.00  0.00    +0.000 A 
ATOM     13  N   UNL     1       4.753  -1.657   0.000  0.00  0.00    +0.000 NA
ATOM     14  C   UNL     1       5.574  -1.571   0.000  0.00  0.00    +0.000 C 
ATOM     15  N   UNL     1       4.604  -0.236   0.000  0.00  0.00    +0.000 NA
ATOM     16  C   UNL     1       4.119   0.431   0.000  0.00  0.00    +0.000 A 
ENDBRANCH   8   9
ENDBRANCH   2   4
BRANCH   3  17
ATOM     17  C   UNL     1      -1.306   0.195   0.000  0.00  0.00    +0.000 C 
BRANCH  17  18
ATOM     18  C   UNL     1      -1.306   1.020   0.000  0.00  0.00    +0.000 C 
ATOM     19  N   UNL     1      -0.592   1.433   0.000  0.00  0.00    +0.000 NA
ENDBRANCH  17  18
BRANCH  17  20
ATOM     20  C   UNL     1      -2.021  -0.217   0.000  0.00  0.00    +0.000 C 
BRANCH  20  21
ATOM     21  C   UNL     1      -2.735   0.195   0.000  0.00  0.00    +0.000 A 
ATOM     22  C   UNL     1      -3.450  -0.217   0.000  0.00  0.00    +0.000 A 
ATOM     23  C   UNL     1      -4.164   0.195   0.000  0.00  0.00    +0.000 A 
ATOM     24  C   UNL     1      -4.164   1.020   0.000  0.00  0.00    +0.000 A 
ATOM     25 CL   UNL     1      -4.879   1.433   0.000  0.00  0.00    +0.000 Cl
ATOM     26  C   UNL     1      -3.450   1.433   0.000  0.00  0.00    +0.000 A 
ATOM     27  C   UNL     1      -2.735   1.020   0.000  0.00  0.00    +0.000 A 
ATOM     28 CL   UNL     1      -2.021   1.433   0.000  0.00  0.00    +0.000 Cl
ENDBRANCH  20  21
ENDBRANCH  17  20
ENDBRANCH   3  17
TORSDOF 6
