REMARK  Name = 797
REMARK  1 active torsions:
REMARK  status: ('A' for Active; 'I' for Inactive)
REMARK    1  A    between atoms: C_1  and  C_12
REMARK                            x       y       z     vdW  Elec       q    Type
REMARK                         _______ _______ _______ _____ _____    ______ ____
ROOT
ATOM      1  C   UNL     1      -0.331   0.294   0.000  0.00  0.00    +0.000 A 
ATOM      2  C   UNL     1      -1.137   0.122   0.000  0.00  0.00    +0.000 A 
ATOM      3  C   UNL     1      -1.392  -0.662   0.000  0.00  0.00    +0.000 A 
ATOM      4  C   UNL     1      -0.840  -1.276   0.000  0.00  0.00    +0.000 A 
ATOM      5  C   UNL     1      -0.033  -1.104   0.000  0.00  0.00    +0.000 A 
ATOM      6  C   UNL     1       0.222  -0.319   0.000  0.00  0.00    +0.000 A 
ATOM      7  C   UNL     1      -2.199  -0.834   0.000  0.00  0.00    +0.000 A 
ATOM      8  C   UNL     1      -2.454  -1.619   0.000  0.00  0.00    +0.000 A 
ATOM      9  C   UNL     1      -1.902  -2.232   0.000  0.00  0.00    +0.000 A 
ATOM     10  C   UNL     1      -1.095  -2.060   0.000  0.00  0.00    +0.000 A 
ATOM     11  O   UNL     1      -2.157  -3.016   0.000  0.00  0.00    +0.000 OA
ENDROOT
BRANCH   1  12
ATOM     12  C   UNL     1      -0.076   1.078   0.000  0.00  0.00    +0.000 A 
ATOM     13  C   UNL     1       0.709   1.333   0.000  0.00  0.00    +0.000 A 
ATOM     14  C   UNL     1       0.709   2.158   0.000  0.00  0.00    +0.000 A 
ATOM     15  O   UNL     1      -0.076   2.413   0.000  0.00  0.00    +0.000 OA
ATOM     16  N   UNL     1      -0.560   1.746   0.000  0.00  0.00    +0.000 NA
ATOM     17  C   UNL     1       1.423   0.921   0.000  0.00  0.00    +0.000 A 
ATOM     18  C   UNL     1       2.138   1.333   0.000  0.00  0.00    +0.000 A 
ATOM     19  C   UNL     1       2.138   2.158   0.000  0.00  0.00    +0.000 A 
ATOM     20  C   UNL     1       1.423   2.571   0.000  0.00  0.00    +0.000 A 
ATOM     21  O   UNL     1       2.853   2.571   0.000  0.00  0.00    +0.000 OA
ENDBRANCH   1  12
TORSDOF 1
