REMARK  Name = 797
REMARK  2 active torsions:
REMARK  status: ('A' for Active; 'I' for Inactive)
REMARK    1  A    between atoms: C_3  and  C_5
REMARK    2  A    between atoms: C_5  and  C_7
REMARK                            x       y       z     vdW  Elec       q    Type
REMARK                         _______ _______ _______ _____ _____    ______ ____
ROOT
ATOM      1  C   UNL     1       2.364   0.450   0.000  0.00  0.00    +0.000 C 
ENDROOT
BRANCH   1   2
ATOM      2  C   UNL     1       2.364  -0.375   0.000  0.00  0.00    +0.000 A 
ATOM      3  C   UNL     1       3.079  -0.787   0.000  0.00  0.00    +0.000 A 
ATOM      4  C   UNL     1       1.650  -0.787   0.000  0.00  0.00    +0.000 A 
ATOM      5  C   UNL     1       3.079  -1.613   0.000  0.00  0.00    +0.000 A 
ATOM      6  C   UNL     1       1.650  -1.613   0.000  0.00  0.00    +0.000 A 
ATOM      7  C   UNL     1       2.364  -2.025   0.000  0.00  0.00    +0.000 A 
ENDBRANCH   1   2
BRANCH   1  10
ATOM      8  N   UNL     1       3.165   1.683   0.000  0.00  0.00    +0.000 NA
ATOM      9  N   UNL     1       3.832   0.527   0.000  0.00  0.00    +0.000 NA
ATOM     10  C   UNL     1       3.079   0.862   0.000  0.00  0.00    +0.000 C 
ATOM     11  C   UNL     1       3.972   1.854   0.000  0.00  0.00    +0.000 C 
ATOM     12  C   UNL     1       4.384   1.140   0.000  0.00  0.00    +0.000 C 
ENDBRANCH   1  10
TORSDOF 2
