REMARK  Name = 798
REMARK  6 active torsions:
REMARK  status: ('A' for Active; 'I' for Inactive)
REMARK    1  A    between atoms: C_2  and  C_3
REMARK    2  A    between atoms: C_2  and  C_14
REMARK    3  A    between atoms: C_6  and  C_7
REMARK    4  A    between atoms: C_17  and  O_20
REMARK    5  A    between atoms: O_20  and  C_21
REMARK    6  A    between atoms: C_21  and  C_22
REMARK                            x       y       z     vdW  Elec       q    Type
REMARK                         _______ _______ _______ _____ _____    ______ ____
ROOT
ATOM      1  O   UNL     1       3.270   0.439   0.000  0.00  0.00    +0.000 OA
ATOM      2  C   UNL     1       2.556   0.027   0.000  0.00  0.00    +0.000 C 
ENDROOT
BRANCH   2   3
ATOM      3  C   UNL     1       1.841   0.439   0.000  0.00  0.00    +0.000 A 
ATOM      4  C   UNL     1       1.841   1.264   0.000  0.00  0.00    +0.000 A 
ATOM      5  C   UNL     1       1.127   1.677   0.000  0.00  0.00    +0.000 A 
ATOM      6  C   UNL     1       0.412   1.264   0.000  0.00  0.00    +0.000 A 
ATOM      7  C   UNL     1       0.412   0.439   0.000  0.00  0.00    +0.000 A 
ATOM      8  C   UNL     1       1.127   0.027   0.000  0.00  0.00    +0.000 A 
BRANCH   6   9
ATOM      9  O   UNL     1      -0.302   1.677   0.000  0.00  0.00    +0.000 OA
BRANCH   9  10
ATOM     10  C   UNL     1      -1.017   1.264   0.000  0.00  0.00    +0.000 C 
BRANCH  10  11
ATOM     11  C   UNL     1      -1.731   1.677   0.000  0.00  0.00    +0.000 C 
ATOM     12  N   UNL     1      -2.485   1.341   0.000  0.00  0.00    +0.000 NA
ATOM     13  C   UNL     1      -3.037   1.954   0.000  0.00  0.00    +0.000 C 
ATOM     14  C   UNL     1      -2.624   2.669   0.000  0.00  0.00    +0.000 C 
ATOM     15  C   UNL     1      -1.817   2.497   0.000  0.00  0.00    +0.000 C 
ENDBRANCH  10  11
ENDBRANCH   9  10
ENDBRANCH   6   9
ENDBRANCH   2   3
BRANCH   2  16
ATOM     16  C   UNL     1       2.556  -0.798   0.000  0.00  0.00    +0.000 A 
ATOM     17  C   UNL     1       3.270  -1.211   0.000  0.00  0.00    +0.000 A 
ATOM     18  C   UNL     1       3.270  -2.036   0.000  0.00  0.00    +0.000 A 
ATOM     19  C   UNL     1       2.556  -2.448   0.000  0.00  0.00    +0.000 A 
ATOM     20  C   UNL     1       1.841  -2.036   0.000  0.00  0.00    +0.000 A 
ATOM     21  C   UNL     1       1.841  -1.211   0.000  0.00  0.00    +0.000 A 
BRANCH  19  22
ATOM     22  C   UNL     1       2.556  -3.273   0.000  0.00  0.00    +0.000 A 
ATOM     23  C   UNL     1       3.223  -3.758   0.000  0.00  0.00    +0.000 A 
ATOM     24  S   UNL     1       2.968  -4.543   0.000  0.00  0.00    +0.000 S 
ATOM     25  C   UNL     1       2.143  -4.543   0.000  0.00  0.00    +0.000 A 
ATOM     26  C   UNL     1       1.888  -3.758   0.000  0.00  0.00    +0.000 A 
ENDBRANCH  19  22
ENDBRANCH   2  16
TORSDOF 6
