REMARK  Name = 79Z
REMARK  7 active torsions:
REMARK  status: ('A' for Active; 'I' for Inactive)
REMARK    1  A    between atoms: C_2  and  C_10
REMARK    2  A    between atoms: C_4  and  C_17
REMARK    3  A    between atoms: C_11  and  N_23
REMARK    4  A    between atoms: C_18  and  C_19
REMARK    5  A    between atoms: N_23  and  S_24
REMARK    6  A    between atoms: N_23  and  C_29
REMARK    7  A    between atoms: C_29  and  C_30
REMARK                            x       y       z     vdW  Elec       q    Type
REMARK                         _______ _______ _______ _____ _____    ______ ____
ROOT
ATOM      1  C   UNL     1       1.059   0.120   0.000  0.00  0.00    +0.000 A 
ATOM      2  C   UNL     1       1.059  -0.705   0.000  0.00  0.00    +0.000 A 
ATOM      3  C   UNL     1       0.345  -1.118   0.000  0.00  0.00    +0.000 A 
ATOM      4  C   UNL     1       0.345   0.532   0.000  0.00  0.00    +0.000 A 
ATOM      5  C   UNL     1      -0.370   0.120   0.000  0.00  0.00    +0.000 A 
ATOM      6  C   UNL     1      -0.370  -0.705   0.000  0.00  0.00    +0.000 A 
ATOM      7  O   UNL     1      -1.154  -0.960   0.000  0.00  0.00    +0.000 OA
ATOM      8  C   UNL     1      -1.639  -0.293   0.000  0.00  0.00    +0.000 A 
ATOM      9  C   UNL     1      -1.154   0.375   0.000  0.00  0.00    +0.000 A 
ENDROOT
BRANCH   8  10
ATOM     10  C   UNL     1      -2.464  -0.293   0.000  0.00  0.00    +0.000 A 
ATOM     11  C   UNL     1      -2.877   0.422   0.000  0.00  0.00    +0.000 A 
ATOM     12  C   UNL     1      -3.702   0.422   0.000  0.00  0.00    +0.000 A 
ATOM     13  C   UNL     1      -4.114  -0.293   0.000  0.00  0.00    +0.000 A 
ATOM     14  C   UNL     1      -3.702  -1.007   0.000  0.00  0.00    +0.000 A 
ATOM     15  C   UNL     1      -2.877  -1.007   0.000  0.00  0.00    +0.000 A 
ATOM     16  F   UNL     1      -4.939  -0.293   0.000  0.00  0.00    +0.000 F 
ENDBRANCH   8  10
BRANCH   9  17
ATOM     17  C   UNL     1      -1.409   1.159   0.000  0.00  0.00    +0.000 C 
ATOM     18  O   UNL     1      -0.857   1.772   0.000  0.00  0.00    +0.000 OA
ATOM     19  N   UNL     1      -2.216   1.331   0.000  0.00  0.00    +0.000 NA
ATOM     20  C   UNL     1      -2.471   2.115   0.000  0.00  0.00    +0.000 C 
ENDBRANCH   9  17
BRANCH   1  22
ATOM     21  C   UNL     1       2.186   1.247   0.000  0.00  0.00    +0.000 C 
ATOM     22  C   UNL     1       1.774   0.532   0.000  0.00  0.00    +0.000 C 
ATOM     23  C   UNL     1       2.599   0.532   0.000  0.00  0.00    +0.000 C 
ENDBRANCH   1  22
BRANCH   2  24
ATOM     24  N   UNL     1       1.774  -1.118   0.000  0.00  0.00    +0.000 N 
BRANCH  24  25
ATOM     25  S   UNL     1       1.774  -1.943   0.000  0.00  0.00    +0.000 S 
ATOM     26  O   UNL     1       0.949  -1.943   0.000  0.00  0.00    +0.000 OA
ATOM     27  O   UNL     1       1.774  -2.768   0.000  0.00  0.00    +0.000 OA
ATOM     28  C   UNL     1       2.599  -1.943   0.000  0.00  0.00    +0.000 C 
ENDBRANCH  24  25
BRANCH  24  29
ATOM     29  C   UNL     1       2.488  -0.705   0.000  0.00  0.00    +0.000 C 
BRANCH  29  30
ATOM     30  C   UNL     1       3.203  -1.118   0.000  0.00  0.00    +0.000 C 
ATOM     31  O   UNL     1       3.917  -0.705   0.000  0.00  0.00    +0.000 OA
ENDBRANCH  29  30
ENDBRANCH  24  29
ENDBRANCH   2  24
TORSDOF 7
