REMARK  Name = 7AC
REMARK  3 active torsions:
REMARK  status: ('A' for Active; 'I' for Inactive)
REMARK    1  A    between atoms: C_3  and  C_4
REMARK    2  A    between atoms: C_5  and  C_14
REMARK    3  A    between atoms: C_19  and  C_20
REMARK                            x       y       z     vdW  Elec       q    Type
REMARK                         _______ _______ _______ _____ _____    ______ ____
ROOT
ATOM      1  C   UNL     1      -0.955   1.547   0.000  0.00  0.00    +0.000 A 
ATOM      2  C   UNL     1      -0.240   1.960   0.000  0.00  0.00    +0.000 A 
ATOM      3  C   UNL     1       0.474   1.547   0.000  0.00  0.00    +0.000 A 
ATOM      4  C   UNL     1       0.474   0.722   0.000  0.00  0.00    +0.000 A 
ATOM      5  C   UNL     1      -0.955   0.722   0.000  0.00  0.00    +0.000 A 
ATOM      6  C   UNL     1      -1.994  -0.318   0.000  0.00  0.00    +0.000 C 
ATOM      7  N   UNL     1      -1.739   0.467   0.000  0.00  0.00    +0.000 N 
ATOM      8  C   UNL     1      -2.224   1.135   0.000  0.00  0.00    +0.000 A 
ATOM      9  N   UNL     1      -1.739   1.802   0.000  0.00  0.00    +0.000 NA
ATOM     10  C   UNL     1      -0.240   0.309   0.000  0.00  0.00    +0.000 A 
ENDROOT
BRANCH   4  13
ATOM     11  C   UNL     1       1.903  -0.928   0.000  0.00  0.00    +0.000 A 
ATOM     12  C   UNL     1       2.618   0.309   0.000  0.00  0.00    +0.000 A 
ATOM     13  C   UNL     1       1.189   0.309   0.000  0.00  0.00    +0.000 A 
ATOM     14  C   UNL     1       1.189  -0.515   0.000  0.00  0.00    +0.000 A 
ATOM     15  C   UNL     1       2.618  -0.515   0.000  0.00  0.00    +0.000 A 
ATOM     16  C   UNL     1       1.903   0.722   0.000  0.00  0.00    +0.000 A 
ATOM     17 CL   UNL     1       1.903   1.547   0.000  0.00  0.00    +0.000 Cl
ENDBRANCH   4  13
BRANCH   3  18
ATOM     18  C   UNL     1       1.189   1.960   0.000  0.00  0.00    +0.000 C 
ATOM     19  N   UNL     1       1.903   2.372   0.000  0.00  0.00    +0.000 NA
ENDBRANCH   3  18
BRANCH  10  20
ATOM     20  C   UNL     1      -0.240  -0.515   0.000  0.00  0.00    +0.000 C 
ATOM     21  N   UNL     1      -0.955  -0.928   0.000  0.00  0.00    +0.000 NA
ENDBRANCH  10  20
TORSDOF 3
