REMARK  Name = 7BD
REMARK  4 active torsions:
REMARK  status: ('A' for Active; 'I' for Inactive)
REMARK    1  A    between atoms: C_11  and  C_12
REMARK    2  A    between atoms: C_11  and  O_18
REMARK    3  A    between atoms: C_12  and  C_13
REMARK    4  A    between atoms: N_17  and  O_18
REMARK                            x       y       z     vdW  Elec       q    Type
REMARK                         _______ _______ _______ _____ _____    ______ ____
ROOT
ATOM      1  C   UNL     1      -1.523  -0.070   0.000  0.00  0.00    +0.000 A 
ATOM      2  C   UNL     1      -0.855   0.415   0.000  0.00  0.00    +0.000 C 
ATOM      3  C   UNL     1      -0.188  -0.070   0.000  0.00  0.00    +0.000 A 
ATOM      4  C   UNL     1      -0.443  -0.854   0.000  0.00  0.00    +0.000 A 
ATOM      5  C   UNL     1      -1.268  -0.854   0.000  0.00  0.00    +0.000 A 
ATOM      6  C   UNL     1       0.109  -1.467   0.000  0.00  0.00    +0.000 A 
ATOM      7  C   UNL     1      -1.820  -1.467   0.000  0.00  0.00    +0.000 A 
ATOM      8  C   UNL     1      -2.330   0.102   0.000  0.00  0.00    +0.000 A 
ATOM      9  C   UNL     1      -2.882  -0.511   0.000  0.00  0.00    +0.000 A 
ATOM     10  C   UNL     1      -2.627  -1.296   0.000  0.00  0.00    +0.000 A 
ATOM     11  C   UNL     1       0.619   0.102   0.000  0.00  0.00    +0.000 A 
ATOM     12  C   UNL     1       1.171  -0.511   0.000  0.00  0.00    +0.000 A 
ATOM     13  C   UNL     1       0.916  -1.296   0.000  0.00  0.00    +0.000 A 
ATOM     14  N   UNL     1      -0.855   1.240   0.000  0.00  0.00    +0.000 NA
ENDROOT
BRANCH  14  15
ATOM     15  O   UNL     1      -0.141   1.653   0.000  0.00  0.00    +0.000 OA
BRANCH  15  16
ATOM     16  C   UNL     1       0.574   1.240   0.000  0.00  0.00    +0.000 C 
BRANCH  16  17
ATOM     17  C   UNL     1       1.288   1.653   0.000  0.00  0.00    +0.000 C 
BRANCH  17  18
ATOM     18  C   UNL     1       2.003   1.240   0.000  0.00  0.00    +0.000 C 
ATOM     19  O   UNL     1       2.717   1.653   0.000  0.00  0.00    +0.000 OA
ATOM     20  O   UNL     1       2.003   0.415   0.000  0.00  0.00    +0.000 OA
ENDBRANCH  17  18
ENDBRANCH  16  17
ENDBRANCH  15  16
ENDBRANCH  14  15
TORSDOF 4
