REMARK  Name = 7CK
REMARK  1 active torsions:
REMARK  status: ('A' for Active; 'I' for Inactive)
REMARK    1  A    between atoms: C_3  and  CA_4
REMARK                            x       y       z     vdW  Elec       q    Type
REMARK                         _______ _______ _______ _____ _____    ______ ____
ROOT
ATOM      1  CA  UNL     1       0.613   1.513   0.000  0.00  0.00    +0.000 A 
ATOM      2  N   UNL     1      -0.054   1.998   0.000  0.00  0.00    +0.000 NA
ATOM      3  C   UNL     1       0.358   0.728   0.000  0.00  0.00    +0.000 A 
ATOM      4  C   UNL     1       0.771   0.014   0.000  0.00  0.00    +0.000 A 
ATOM      5  C   UNL     1       0.358  -0.701   0.000  0.00  0.00    +0.000 A 
ATOM      6  N   UNL     1       0.910  -1.314   0.000  0.00  0.00    +0.000 NA
ATOM      7  C   UNL     1       1.664  -0.978   0.000  0.00  0.00    +0.000 A 
ATOM      8  C   UNL     1       1.578  -0.158   0.000  0.00  0.00    +0.000 A 
ATOM      9  C   UNL     1       2.245   0.327   0.000  0.00  0.00    +0.000 A 
ATOM     10  C   UNL     1       2.999  -0.008   0.000  0.00  0.00    +0.000 A 
ATOM     11  C   UNL     1       3.085  -0.829   0.000  0.00  0.00    +0.000 A 
ATOM     12  C   UNL     1       2.418  -1.314   0.000  0.00  0.00    +0.000 A 
ATOM     13  O   UNL     1      -1.506   1.768   0.000  0.00  0.00    +0.000 OA
ATOM     14  C   UNL     1      -0.722   1.513   0.000  0.00  0.00    +0.000 A 
ATOM     15  C   UNL     1      -0.467   0.728   0.000  0.00  0.00    +0.000 A 
ATOM     16  C   UNL     1      -0.879   0.014   0.000  0.00  0.00    +0.000 A 
ATOM     17  C   UNL     1      -0.467  -0.701   0.000  0.00  0.00    +0.000 A 
ATOM     18  N   UNL     1      -1.019  -1.314   0.000  0.00  0.00    +0.000 NA
ATOM     19  C   UNL     1      -1.772  -0.978   0.000  0.00  0.00    +0.000 A 
ATOM     20  C   UNL     1      -1.686  -0.158   0.000  0.00  0.00    +0.000 A 
ATOM     21  C   UNL     1      -2.354   0.327   0.000  0.00  0.00    +0.000 A 
ATOM     22  C   UNL     1      -3.107  -0.008   0.000  0.00  0.00    +0.000 A 
ATOM     23  C   UNL     1      -3.194  -0.829   0.000  0.00  0.00    +0.000 A 
ATOM     24  C   UNL     1      -2.526  -1.314   0.000  0.00  0.00    +0.000 A 
ENDROOT
BRANCH   1  27
ATOM     25  O   UNL     1       1.569   2.575   0.000  0.00  0.00    +0.000 OA
ATOM     26  OXT UNL     1       2.011   1.216   0.000  0.00  0.00    +0.000 OA
ATOM     27  C   UNL     1       1.398   1.768   0.000  0.00  0.00    +0.000 C 
ENDBRANCH   1  27
TORSDOF 1
