REMARK  Name = 7CP
REMARK  1 active torsions:
REMARK  status: ('A' for Active; 'I' for Inactive)
REMARK    1  A    between atoms: C_23  and  C_24
REMARK                            x       y       z     vdW  Elec       q    Type
REMARK                         _______ _______ _______ _____ _____    ______ ____
ROOT
ATOM      1  C   UNL     1       0.056   0.633   0.000  0.00  0.00    +0.000 C 
ATOM      2  C   UNL     1       0.778   1.032   0.000  0.00  0.00    +0.000 C 
ATOM      3  N   UNL     1       1.484   0.606   0.000  0.00  0.00    +0.000 NA
ATOM      4  C   UNL     1       2.206   1.004   0.000  0.00  0.00    +0.000 C 
ATOM      5  C   UNL     1       1.468  -0.219   0.000  0.00  0.00    +0.000 C 
ATOM      6  C   UNL     1       0.746  -0.618   0.000  0.00  0.00    +0.000 C 
ATOM      7  C   UNL     1       0.040  -0.192   0.000  0.00  0.00    +0.000 C 
ATOM      8  N   UNL     1       0.024  -1.017   0.000  0.00  0.00    +0.000 NA
ATOM      9  C   UNL     1      -0.698  -1.416   0.000  0.00  0.00    +0.000 C 
ATOM     10  O   UNL     1      -0.714  -2.240   0.000  0.00  0.00    +0.000 OA
ATOM     11  C   UNL     1      -1.405  -0.990   0.000  0.00  0.00    +0.000 A 
ATOM     12  N   UNL     1      -2.194  -1.230   0.000  0.00  0.00    +0.000 N 
ATOM     13  C   UNL     1      -2.464  -2.009   0.000  0.00  0.00    +0.000 C 
ATOM     14  C   UNL     1      -2.666  -0.553   0.000  0.00  0.00    +0.000 A 
ATOM     15  C   UNL     1      -3.485  -0.451   0.000  0.00  0.00    +0.000 A 
ATOM     16 CL   UNL     1      -3.982  -1.109   0.000  0.00  0.00    +0.000 Cl
ATOM     17  C   UNL     1      -3.806   0.309   0.000  0.00  0.00    +0.000 A 
ATOM     18 CL   UNL     1      -4.625   0.410   0.000  0.00  0.00    +0.000 Cl
ATOM     19  C   UNL     1      -3.308   0.967   0.000  0.00  0.00    +0.000 A 
ATOM     20  C   UNL     1      -2.490   0.865   0.000  0.00  0.00    +0.000 A 
ATOM     21  C   UNL     1      -2.168   0.105   0.000  0.00  0.00    +0.000 A 
ATOM     22  C   UNL     1      -1.389  -0.165   0.000  0.00  0.00    +0.000 A 
ATOM     23  C   UNL     1      -0.667   0.234   0.000  0.00  0.00    +0.000 C 
ENDROOT
BRANCH  23  24
ATOM     24  C   UNL     1      -0.651   1.059   0.000  0.00  0.00    +0.000 C 
ATOM     25  N   UNL     1      -0.635   1.884   0.000  0.00  0.00    +0.000 NA
ENDBRANCH  23  24
TORSDOF 1
