REMARK  Name = 7CS
REMARK  3 active torsions:
REMARK  status: ('A' for Active; 'I' for Inactive)
REMARK    1  A    between atoms: C_1  and  C_4
REMARK    2  A    between atoms: C_4  and  O_6
REMARK    3  A    between atoms: O_6  and  C_14
REMARK                            x       y       z     vdW  Elec       q    Type
REMARK                         _______ _______ _______ _____ _____    ______ ____
ROOT
ATOM      1  O   UNL     1       0.975  -1.067   0.000  0.00  0.00    +0.000 OA
ATOM      2  C   UNL     1       0.168  -0.895   0.000  0.00  0.00    +0.000 C 
ENDROOT
BRANCH   2   3
ATOM      3  C   UNL     1      -0.384  -1.509   0.000  0.00  0.00    +0.000 A 
ATOM      4  C   UNL     1      -1.204  -1.422   0.000  0.00  0.00    +0.000 A 
ATOM      5  C   UNL     1      -0.212  -3.966   0.000  0.00  0.00    +0.000 A 
ATOM      6  N   UNL     1      -0.927  -3.553   0.000  0.00  0.00    +0.000 NA
ATOM      7  C   UNL     1      -0.927  -2.728   0.000  0.00  0.00    +0.000 A 
ATOM      8  C   UNL     1      -0.212  -2.316   0.000  0.00  0.00    +0.000 A 
ATOM      9  C   UNL     1       0.502  -2.728   0.000  0.00  0.00    +0.000 A 
ATOM     10  C   UNL     1       0.502  -3.553   0.000  0.00  0.00    +0.000 A 
ATOM     11  N   UNL     1      -1.540  -2.176   0.000  0.00  0.00    +0.000 NA
ENDBRANCH   2   3
BRANCH   2  12
ATOM     12  O   UNL     1      -0.087  -0.111   0.000  0.00  0.00    +0.000 OA
BRANCH  12  21
ATOM     13  C   UNL     1       1.684   3.056   0.000  0.00  0.00    +0.000 C 
ATOM     14  C   UNL     1      -0.427   2.323   0.000  0.00  0.00    +0.000 C 
ATOM     15  C   UNL     1       0.124   1.850   0.000  0.00  0.00    +0.000 C 
ATOM     16  N   UNL     1       1.141   2.435   0.000  0.00  0.00    +0.000 NA
ATOM     17  C   UNL     1       0.897   1.765   0.000  0.00  0.00    +0.000 C 
ATOM     18  C   UNL     1       1.200   0.887   0.000  0.00  0.00    +0.000 C 
ATOM     19  C   UNL     1       0.412   2.050   0.000  0.00  0.00    +0.000 C 
ATOM     20  C   UNL     1       0.713   1.126   0.000  0.00  0.00    +0.000 C 
ATOM     21  C   UNL     1       0.465   0.502   0.000  0.00  0.00    +0.000 C 
ENDBRANCH  12  21
ENDBRANCH   2  12
TORSDOF 3
