REMARK  Name = 7DE
REMARK  5 active torsions:
REMARK  status: ('A' for Active; 'I' for Inactive)
REMARK    1  A    between atoms: N_2  and  C_4
REMARK    2  A    between atoms: C_7  and  N_10
REMARK    3  A    between atoms: C_13  and  C_17
REMARK    4  A    between atoms: C_17  and  O_19
REMARK    5  A    between atoms: O_19  and  C_20
REMARK                            x       y       z     vdW  Elec       q    Type
REMARK                         _______ _______ _______ _____ _____    ______ ____
ROOT
ATOM      1  N   UNL     1      -1.026   0.461   0.000  0.00  0.00    +0.000 N 
ATOM      2  C   UNL     1      -0.359  -0.024   0.000  0.00  0.00    +0.000 A 
ATOM      3  C   UNL     1       0.426   0.231   0.000  0.00  0.00    +0.000 C 
ATOM      4  C   UNL     1      -0.614  -0.808   0.000  0.00  0.00    +0.000 A 
ATOM      5  C   UNL     1      -1.439  -0.808   0.000  0.00  0.00    +0.000 A 
ATOM      6  N   UNL     1      -1.694  -0.024   0.000  0.00  0.00    +0.000 NA
ATOM      7  C   UNL     1      -1.924  -1.476   0.000  0.00  0.00    +0.000 C 
ENDROOT
BRANCH   1  11
ATOM      8  C   UNL     1      -1.741   2.523   0.000  0.00  0.00    +0.000 A 
ATOM      9  C   UNL     1      -1.026   2.936   0.000  0.00  0.00    +0.000 A 
ATOM     10  C   UNL     1      -1.741   1.698   0.000  0.00  0.00    +0.000 A 
ATOM     11  C   UNL     1      -1.026   1.286   0.000  0.00  0.00    +0.000 A 
ATOM     12  C   UNL     1      -0.312   1.698   0.000  0.00  0.00    +0.000 A 
ATOM     13  C   UNL     1      -0.312   2.523   0.000  0.00  0.00    +0.000 A 
BRANCH   8  15
ATOM     14  O   UNL     1      -2.455   3.761   0.000  0.00  0.00    +0.000 OA
ATOM     15  N   UNL     1      -2.455   2.936   0.000  0.00  0.00    +0.000 N 
ATOM     16  O   UNL     1      -3.170   2.523   0.000  0.00  0.00    +0.000 OA
ENDBRANCH   8  15
ENDBRANCH   1  11
BRANCH   4  17
ATOM     17  C   UNL     1      -0.129  -1.476   0.000  0.00  0.00    +0.000 C 
ATOM     18  O   UNL     1      -0.464  -2.230   0.000  0.00  0.00    +0.000 OA
BRANCH  17  19
ATOM     19  O   UNL     1       0.692  -1.390   0.000  0.00  0.00    +0.000 OA
BRANCH  19  20
ATOM     20  C   UNL     1       1.177  -2.057   0.000  0.00  0.00    +0.000 C 
ATOM     21  C   UNL     1       1.997  -1.971   0.000  0.00  0.00    +0.000 C 
ENDBRANCH  19  20
ENDBRANCH  17  19
ENDBRANCH   4  17
TORSDOF 5
