REMARK  Name = 7I2
REMARK  1 active torsions:
REMARK  status: ('A' for Active; 'I' for Inactive)
REMARK    1  A    between atoms: C_7  and  N_10
REMARK                            x       y       z     vdW  Elec       q    Type
REMARK                         _______ _______ _______ _____ _____    ______ ____
ROOT
ATOM      1  N   UNL     1      -0.606  -0.578   0.000  0.00  0.00    +0.000 NA
ATOM      2  N   UNL     1      -1.091   0.089   0.000  0.00  0.00    +0.000 N 
ATOM      3  C   UNL     1      -0.606   0.757   0.000  0.00  0.00    +0.000 A 
ATOM      4  C   UNL     1       0.893   0.914   0.000  0.00  0.00    +0.000 A 
ATOM      5  C   UNL     1       1.607   0.502   0.000  0.00  0.00    +0.000 A 
ATOM      6  C   UNL     1       1.607  -0.323   0.000  0.00  0.00    +0.000 A 
ATOM      7  C   UNL     1       0.893  -0.736   0.000  0.00  0.00    +0.000 A 
ATOM      8  C   UNL     1       0.178  -0.323   0.000  0.00  0.00    +0.000 A 
ATOM      9  C   UNL     1       0.178   0.502   0.000  0.00  0.00    +0.000 A 
ATOM     10  C   UNL     1      -1.916   0.089   0.000  0.00  0.00    +0.000 C 
ATOM     11  N   UNL     1      -2.329  -0.625   0.000  0.00  0.00    +0.000 NA
ATOM     12  N   UNL     1      -2.329   0.804   0.000  0.00  0.00    +0.000 NA
ENDROOT
BRANCH   7  13
ATOM     13  N   UNL     1       0.893  -1.561   0.000  0.00  0.00    +0.000 N 
ATOM     14  O   UNL     1       1.607  -1.973   0.000  0.00  0.00    +0.000 OA
ATOM     15  O   UNL     1       0.178  -1.973   0.000  0.00  0.00    +0.000 OA
ENDBRANCH   7  13
TORSDOF 1
