REMARK  Name = 7IG
REMARK  5 active torsions:
REMARK  status: ('A' for Active; 'I' for Inactive)
REMARK    1  A    between atoms: C_5  and  C_9
REMARK    2  A    between atoms: C_6  and  C_13
REMARK    3  A    between atoms: C_16  and  N_17
REMARK    4  A    between atoms: N_17  and  C_25
REMARK    5  A    between atoms: C_20  and  C_25
REMARK                            x       y       z     vdW  Elec       q    Type
REMARK                         _______ _______ _______ _____ _____    ______ ____
ROOT
ATOM      1  C   UNL     1       0.449   0.706   0.000  0.00  0.00    +0.000 A 
ATOM      2  C   UNL     1       1.164   0.294   0.000  0.00  0.00    +0.000 A 
ATOM      3  C   UNL     1       1.164  -0.531   0.000  0.00  0.00    +0.000 A 
ATOM      4  C   UNL     1       0.449  -0.944   0.000  0.00  0.00    +0.000 A 
ATOM      5  C   UNL     1      -0.265  -0.531   0.000  0.00  0.00    +0.000 A 
ATOM      6  C   UNL     1      -0.265   0.294   0.000  0.00  0.00    +0.000 A 
ENDROOT
BRANCH   3  12
ATOM      7  C   UNL     1       2.593  -0.531   0.000  0.00  0.00    +0.000 A 
ATOM      8  N   UNL     1       3.307  -0.944   0.000  0.00  0.00    +0.000 NA
ATOM      9  C   UNL     1       3.307  -1.769   0.000  0.00  0.00    +0.000 A 
ATOM     10  N   UNL     1       2.593  -2.181   0.000  0.00  0.00    +0.000 NA
ATOM     11  C   UNL     1       1.878  -1.769   0.000  0.00  0.00    +0.000 A 
ATOM     12  C   UNL     1       1.878  -0.944   0.000  0.00  0.00    +0.000 A 
ATOM     13  N   UNL     1       2.593   0.294   0.000  0.00  0.00    +0.000 NA
ATOM     14  N   UNL     1       4.022  -2.181   0.000  0.00  0.00    +0.000 NA
BRANCH  11  15
ATOM     15  C   UNL     1       1.164  -2.181   0.000  0.00  0.00    +0.000 C 
ATOM     16  C   UNL     1       0.449  -1.769   0.000  0.00  0.00    +0.000 C 
ENDBRANCH  11  15
ENDBRANCH   3  12
BRANCH   6  17
ATOM     17  N   UNL     1      -0.980   0.706   0.000  0.00  0.00    +0.000 NA
BRANCH  17  18
ATOM     18  C   UNL     1      -0.980   1.531   0.000  0.00  0.00    +0.000 C 
BRANCH  18  21
ATOM     19  C   UNL     1      -2.409   3.181   0.000  0.00  0.00    +0.000 A 
ATOM     20  C   UNL     1      -1.694   2.769   0.000  0.00  0.00    +0.000 A 
ATOM     21  C   UNL     1      -1.694   1.944   0.000  0.00  0.00    +0.000 A 
ATOM     22  C   UNL     1      -2.409   1.531   0.000  0.00  0.00    +0.000 A 
ATOM     23  C   UNL     1      -3.123   1.944   0.000  0.00  0.00    +0.000 A 
ATOM     24  C   UNL     1      -3.123   2.769   0.000  0.00  0.00    +0.000 A 
ATOM     25  F   UNL     1      -2.409   4.006   0.000  0.00  0.00    +0.000 F 
ATOM     26  F   UNL     1      -3.838   1.531   0.000  0.00  0.00    +0.000 F 
ENDBRANCH  18  21
ENDBRANCH  17  18
ENDBRANCH   6  17
TORSDOF 5
