REMARK  Name = 7IP
REMARK  5 active torsions:
REMARK  status: ('A' for Active; 'I' for Inactive)
REMARK    1  A    between atoms: O_2  and  C_3
REMARK    2  A    between atoms: C_7  and  C_9
REMARK    3  A    between atoms: C_13  and  C_14
REMARK    4  A    between atoms: C_14  and  C_15
REMARK    5  A    between atoms: C_15  and  C_16
REMARK                            x       y       z     vdW  Elec       q    Type
REMARK                         _______ _______ _______ _____ _____    ______ ____
ROOT
ATOM      1  C   UNL     1       1.767  -0.563   0.000  0.00  0.00    +0.000 A 
ATOM      2  C   UNL     1       1.052  -0.151   0.000  0.00  0.00    +0.000 A 
ATOM      3  C   UNL     1       0.338  -0.563   0.000  0.00  0.00    +0.000 A 
ATOM      4  C   UNL     1       0.338  -1.388   0.000  0.00  0.00    +0.000 A 
ATOM      5  C   UNL     1       1.052  -1.801   0.000  0.00  0.00    +0.000 A 
ATOM      6  C   UNL     1       1.767  -1.388   0.000  0.00  0.00    +0.000 A 
ENDROOT
BRANCH   1  11
ATOM      7  C   UNL     1       3.196   1.087   0.000  0.00  0.00    +0.000 A 
ATOM      8  C   UNL     1       3.910   0.674   0.000  0.00  0.00    +0.000 A 
ATOM      9  C   UNL     1       3.910  -0.151   0.000  0.00  0.00    +0.000 A 
ATOM     10  C   UNL     1       3.196  -0.563   0.000  0.00  0.00    +0.000 A 
ATOM     11  C   UNL     1       2.481  -0.151   0.000  0.00  0.00    +0.000 A 
ATOM     12  C   UNL     1       2.481   0.674   0.000  0.00  0.00    +0.000 A 
BRANCH   7  14
ATOM     13  C   UNL     1       3.910   2.324   0.000  0.00  0.00    +0.000 C 
ATOM     14  O   UNL     1       3.196   1.912   0.000  0.00  0.00    +0.000 OA
ENDBRANCH   7  14
ENDBRANCH   1  11
BRANCH   5  15
ATOM     15  C   UNL     1       1.052  -2.626   0.000  0.00  0.00    +0.000 C 
BRANCH  15  16
ATOM     16  C   UNL     1       0.338  -3.038   0.000  0.00  0.00    +0.000 C 
BRANCH  16  17
ATOM     17  C   UNL     1       0.338  -3.863   0.000  0.00  0.00    +0.000 A 
ATOM     18  C   UNL     1      -0.377  -4.276   0.000  0.00  0.00    +0.000 A 
ATOM     19  C   UNL     1      -0.377  -5.101   0.000  0.00  0.00    +0.000 A 
ATOM     20  C   UNL     1       0.338  -5.513   0.000  0.00  0.00    +0.000 A 
ATOM     21  C   UNL     1       1.052  -5.101   0.000  0.00  0.00    +0.000 A 
ATOM     22  N   UNL     1       1.767  -5.513   0.000  0.00  0.00    +0.000 NA
ATOM     23  N   UNL     1       1.052  -4.276   0.000  0.00  0.00    +0.000 NA
ENDBRANCH  16  17
ENDBRANCH  15  16
ENDBRANCH   5  15
TORSDOF 5
