REMARK  Name = 7MR
REMARK  7 active torsions:
REMARK  status: ('A' for Active; 'I' for Inactive)
REMARK    1  A    between atoms: C_6  and  O_7
REMARK    2  A    between atoms: O_7  and  C_8
REMARK    3  A    between atoms: C_13  and  S_14
REMARK    4  A    between atoms: S_14  and  C_17
REMARK    5  A    between atoms: C_17  and  C_18
REMARK    6  A    between atoms: C_18  and  C_19
REMARK    7  A    between atoms: C_18  and  C_24
REMARK                            x       y       z     vdW  Elec       q    Type
REMARK                         _______ _______ _______ _____ _____    ______ ____
ROOT
ATOM      1  S   UNL     1       1.242  -1.217   0.000  0.00  0.00    +0.000 S 
ATOM      2  O   UNL     1       1.654  -0.503   0.000  0.00  0.00    +0.000 OA
ATOM      3  O   UNL     1       0.829  -1.932   0.000  0.00  0.00    +0.000 OA
ENDROOT
BRANCH   1   9
ATOM      4  C   UNL     1      -0.902   0.020   0.000  0.00  0.00    +0.000 A 
ATOM      5  C   UNL     1      -0.902  -0.805   0.000  0.00  0.00    +0.000 A 
ATOM      6  C   UNL     1      -0.187  -1.217   0.000  0.00  0.00    +0.000 A 
ATOM      7  C   UNL     1      -0.187   0.433   0.000  0.00  0.00    +0.000 A 
ATOM      8  C   UNL     1       0.527   0.020   0.000  0.00  0.00    +0.000 A 
ATOM      9  C   UNL     1       0.527  -0.805   0.000  0.00  0.00    +0.000 A 
BRANCH   4  10
ATOM     10  O   UNL     1      -1.616   0.433   0.000  0.00  0.00    +0.000 OA
BRANCH  10  16
ATOM     11  C   UNL     1      -0.902   1.670   0.000  0.00  0.00    +0.000 A 
ATOM     12  C   UNL     1      -0.902   2.495   0.000  0.00  0.00    +0.000 A 
ATOM     13  C   UNL     1      -1.616   2.908   0.000  0.00  0.00    +0.000 A 
ATOM     14  C   UNL     1      -2.331   2.495   0.000  0.00  0.00    +0.000 A 
ATOM     15  C   UNL     1      -2.331   1.670   0.000  0.00  0.00    +0.000 A 
ATOM     16  C   UNL     1      -1.616   1.258   0.000  0.00  0.00    +0.000 A 
ENDBRANCH  10  16
ENDBRANCH   4  10
ENDBRANCH   1   9
BRANCH   1  17
ATOM     17  C   UNL     1       1.956  -1.630   0.000  0.00  0.00    +0.000 C 
BRANCH  17  18
ATOM     18  C   UNL     1       2.671  -1.217   0.000  0.00  0.00    +0.000 C 
ATOM     19  N   UNL     1       2.258  -0.503   0.000  0.00  0.00    +0.000 NA
BRANCH  18  20
ATOM     20  C   UNL     1       3.385  -0.805   0.000  0.00  0.00    +0.000 C 
ATOM     21  O   UNL     1       3.385   0.020   0.000  0.00  0.00    +0.000 OA
ATOM     22  N   UNL     1       4.100  -1.217   0.000  0.00  0.00    +0.000 NA
ATOM     23  O   UNL     1       4.814  -0.805   0.000  0.00  0.00    +0.000 OA
ENDBRANCH  18  20
BRANCH  18  24
ATOM     24  C   UNL     1       3.083  -1.932   0.000  0.00  0.00    +0.000 C 
ATOM     25  F   UNL     1       3.496  -2.646   0.000  0.00  0.00    +0.000 F 
ATOM     26  F   UNL     1       3.798  -1.519   0.000  0.00  0.00    +0.000 F 
ATOM     27  F   UNL     1       2.369  -2.344   0.000  0.00  0.00    +0.000 F 
ENDBRANCH  18  24
ENDBRANCH  17  18
ENDBRANCH   1  17
TORSDOF 7
