REMARK  Name = 7NH
REMARK  4 active torsions:
REMARK  status: ('A' for Active; 'I' for Inactive)
REMARK    1  A    between atoms: C_9  and  C_10
REMARK    2  A    between atoms: C_14  and  C_17
REMARK    3  A    between atoms: C_21  and  C_23
REMARK    4  A    between atoms: C_23  and  N_24
REMARK                            x       y       z     vdW  Elec       q    Type
REMARK                         _______ _______ _______ _____ _____    ______ ____
ROOT
ATOM      1  C   UNL     1       0.274  -1.485   0.000  0.00  0.00    +0.000 A 
ATOM      2  C   UNL     1      -0.139  -2.200   0.000  0.00  0.00    +0.000 A 
ATOM      3  C   UNL     1      -0.964  -2.200   0.000  0.00  0.00    +0.000 A 
ATOM      4  C   UNL     1      -1.376  -1.485   0.000  0.00  0.00    +0.000 A 
ATOM      5  C   UNL     1      -0.964  -0.771   0.000  0.00  0.00    +0.000 A 
ATOM      6  C   UNL     1      -0.139  -0.771   0.000  0.00  0.00    +0.000 A 
ATOM      7  O   UNL     1       0.274  -0.056   0.000  0.00  0.00    +0.000 OA
ENDROOT
BRANCH   1  16
ATOM      8  N   UNL     1       3.797  -1.073   0.000  0.00  0.00    +0.000 NA
ATOM      9  C   UNL     1       3.797  -1.898   0.000  0.00  0.00    +0.000 A 
ATOM     10  C   UNL     1       3.083  -2.310   0.000  0.00  0.00    +0.000 A 
ATOM     11  C   UNL     1       2.368  -1.898   0.000  0.00  0.00    +0.000 A 
ATOM     12  C   UNL     1       2.368  -1.073   0.000  0.00  0.00    +0.000 A 
ATOM     13  C   UNL     1       3.083  -0.660   0.000  0.00  0.00    +0.000 A 
ATOM     14  N   UNL     1       1.584  -2.152   0.000  0.00  0.00    +0.000 NA
ATOM     15  C   UNL     1       1.584  -0.818   0.000  0.00  0.00    +0.000 A 
ATOM     16  C   UNL     1       1.099  -1.485   0.000  0.00  0.00    +0.000 A 
ENDBRANCH   1  16
BRANCH   5  17
ATOM     17  C   UNL     1      -1.376  -0.056   0.000  0.00  0.00    +0.000 A 
ATOM     18  C   UNL     1      -2.201  -0.056   0.000  0.00  0.00    +0.000 A 
ATOM     19  C   UNL     1      -2.614   0.658   0.000  0.00  0.00    +0.000 A 
ATOM     20  C   UNL     1      -2.201   1.373   0.000  0.00  0.00    +0.000 A 
ATOM     21  C   UNL     1      -1.376   1.373   0.000  0.00  0.00    +0.000 A 
ATOM     22  C   UNL     1      -0.964   0.658   0.000  0.00  0.00    +0.000 A 
BRANCH  21  23
ATOM     23  C   UNL     1      -0.964   2.087   0.000  0.00  0.00    +0.000 C 
BRANCH  23  24
ATOM     24  N   UNL     1      -1.376   2.802   0.000  0.00  0.00    +0.000 NA
ATOM     25  C   UNL     1      -0.964   3.516   0.000  0.00  0.00    +0.000 C 
ATOM     26  O   UNL     1      -1.376   4.231   0.000  0.00  0.00    +0.000 OA
ATOM     27  N   UNL     1      -0.139   3.516   0.000  0.00  0.00    +0.000 NA
ENDBRANCH  23  24
ENDBRANCH  21  23
ENDBRANCH   5  17
TORSDOF 4
