REMARK  Name = 7PY
REMARK  5 active torsions:
REMARK  status: ('A' for Active; 'I' for Inactive)
REMARK    1  A    between atoms: O_2  and  C_3
REMARK    2  A    between atoms: C_5  and  O_6
REMARK    3  A    between atoms: C_8  and  O_9
REMARK    4  A    between atoms: C_12  and  N_13
REMARK    5  A    between atoms: N_22  and  C_23
REMARK                            x       y       z     vdW  Elec       q    Type
REMARK                         _______ _______ _______ _____ _____    ______ ____
ROOT
ATOM      1  N   UNL     1       0.254  -0.622   0.000  0.00  0.00    +0.000 NA
ATOM      2  C   UNL     1      -0.461  -0.210   0.000  0.00  0.00    +0.000 A 
ATOM      3  N   UNL     1      -1.175  -0.622   0.000  0.00  0.00    +0.000 NA
ATOM      4  C   UNL     1      -1.890  -0.210   0.000  0.00  0.00    +0.000 A 
ATOM      5  N   UNL     1      -0.461   0.615   0.000  0.00  0.00    +0.000 NA
ATOM      6  C   UNL     1      -1.175   1.028   0.000  0.00  0.00    +0.000 A 
ATOM      7  C   UNL     1      -1.890   0.615   0.000  0.00  0.00    +0.000 A 
ATOM      8  C   UNL     1      -2.674   0.870   0.000  0.00  0.00    +0.000 A 
ATOM      9  C   UNL     1      -3.159   0.203   0.000  0.00  0.00    +0.000 A 
ATOM     10  N   UNL     1      -2.674  -0.465   0.000  0.00  0.00    +0.000 N 
ENDROOT
BRANCH   1  16
ATOM     11  C   UNL     1       2.397  -0.210   0.000  0.00  0.00    +0.000 A 
ATOM     12  C   UNL     1       1.683  -0.622   0.000  0.00  0.00    +0.000 A 
ATOM     13  C   UNL     1       2.397   0.615   0.000  0.00  0.00    +0.000 A 
ATOM     14  C   UNL     1       1.683   1.028   0.000  0.00  0.00    +0.000 A 
ATOM     15  C   UNL     1       0.968   0.615   0.000  0.00  0.00    +0.000 A 
ATOM     16  C   UNL     1       0.968  -0.210   0.000  0.00  0.00    +0.000 A 
BRANCH  11  18
ATOM     17  C   UNL     1       3.826  -0.210   0.000  0.00  0.00    +0.000 C 
ATOM     18  O   UNL     1       3.111  -0.622   0.000  0.00  0.00    +0.000 OA
ENDBRANCH  11  18
BRANCH  13  19
ATOM     19  O   UNL     1       3.111   1.028   0.000  0.00  0.00    +0.000 OA
ATOM     20  C   UNL     1       3.111   1.853   0.000  0.00  0.00    +0.000 C 
ENDBRANCH  13  19
BRANCH  14  21
ATOM     21  O   UNL     1       1.683   1.853   0.000  0.00  0.00    +0.000 OA
ATOM     22  C   UNL     1       0.968   2.265   0.000  0.00  0.00    +0.000 C 
ENDBRANCH  14  21
ENDBRANCH   1  16
BRANCH  10  23
ATOM     23  C   UNL     1      -2.929  -1.249   0.000  0.00  0.00    +0.000 A 
ATOM     24  C   UNL     1      -2.377  -1.862   0.000  0.00  0.00    +0.000 A 
ATOM     25  C   UNL     1      -2.632  -2.647   0.000  0.00  0.00    +0.000 A 
ATOM     26  C   UNL     1      -3.439  -2.818   0.000  0.00  0.00    +0.000 A 
ATOM     27  C   UNL     1      -3.991  -2.205   0.000  0.00  0.00    +0.000 A 
ATOM     28  N   UNL     1      -3.736  -1.421   0.000  0.00  0.00    +0.000 NA
ENDBRANCH  10  23
TORSDOF 5
