REMARK  Name = 7X1
REMARK  7 active torsions:
REMARK  status: ('A' for Active; 'I' for Inactive)
REMARK    1  A    between atoms: O_2  and  C_3
REMARK    2  A    between atoms: N_7  and  C_8
REMARK    3  A    between atoms: C_23  and  O_24
REMARK    4  A    between atoms: O_24  and  C_25
REMARK    5  A    between atoms: C_25  and  C_26
REMARK    6  A    between atoms: C_26  and  C_27
REMARK    7  A    between atoms: C_27  and  N_28
REMARK                            x       y       z     vdW  Elec       q    Type
REMARK                         _______ _______ _______ _____ _____    ______ ____
ROOT
ATOM      1  C   UNL     1       6.727   6.228   0.000  0.00  0.00    +0.000 A 
ATOM      2  C   UNL     1       7.442   6.640   0.000  0.00  0.00    +0.000 A 
ATOM      3  C   UNL     1       8.156   6.228   0.000  0.00  0.00    +0.000 A 
ATOM      4  C   UNL     1       8.871   6.640   0.000  0.00  0.00    +0.000 A 
ATOM      5  N   UNL     1       8.871   7.465   0.000  0.00  0.00    +0.000 NA
ATOM      6  N   UNL     1       9.585   6.228   0.000  0.00  0.00    +0.000 NA
ATOM      7  C   UNL     1       9.585   5.403   0.000  0.00  0.00    +0.000 A 
ATOM      8  N   UNL     1       8.871   4.990   0.000  0.00  0.00    +0.000 NA
ATOM      9  C   UNL     1       8.156   5.403   0.000  0.00  0.00    +0.000 A 
ATOM     10  C   UNL     1       7.442   4.990   0.000  0.00  0.00    +0.000 A 
ATOM     11  C   UNL     1       6.727   5.403   0.000  0.00  0.00    +0.000 A 
ENDROOT
BRANCH   5  12
ATOM     12  C   UNL     1       9.585   7.878   0.000  0.00  0.00    +0.000 A 
ATOM     13  C   UNL     1       9.585   8.703   0.000  0.00  0.00    +0.000 A 
ATOM     14  O   UNL     1       8.972   9.255   0.000  0.00  0.00    +0.000 OA
ATOM     15  C   UNL     1       9.308  10.009   0.000  0.00  0.00    +0.000 C 
ATOM     16  O   UNL     1      10.128   9.922   0.000  0.00  0.00    +0.000 OA
ATOM     17  C   UNL     1      10.300   9.115   0.000  0.00  0.00    +0.000 A 
ATOM     18  C   UNL     1      11.014   8.703   0.000  0.00  0.00    +0.000 A 
ATOM     19  C   UNL     1      11.014   7.878   0.000  0.00  0.00    +0.000 A 
ATOM     20  C   UNL     1      10.300   7.465   0.000  0.00  0.00    +0.000 A 
ATOM     21 CL   UNL     1      10.300   6.640   0.000  0.00  0.00    +0.000 Cl
ENDBRANCH   5  12
BRANCH   1  23
ATOM     22  C   UNL     1       5.298   6.228   0.000  0.00  0.00    +0.000 C 
ATOM     23  O   UNL     1       6.013   6.640   0.000  0.00  0.00    +0.000 OA
ENDBRANCH   1  23
BRANCH  11  24
ATOM     24  O   UNL     1       6.013   4.990   0.000  0.00  0.00    +0.000 OA
BRANCH  24  25
ATOM     25  C   UNL     1       6.013   4.165   0.000  0.00  0.00    +0.000 C 
BRANCH  25  26
ATOM     26  C   UNL     1       5.298   3.753   0.000  0.00  0.00    +0.000 C 
BRANCH  26  27
ATOM     27  C   UNL     1       5.298   2.928   0.000  0.00  0.00    +0.000 C 
BRANCH  27  28
ATOM     28  N   UNL     1       4.584   2.515   0.000  0.00  0.00    +0.000 NA
ATOM     29  C   UNL     1       4.584   1.690   0.000  0.00  0.00    +0.000 C 
ATOM     30  C   UNL     1       3.869   1.278   0.000  0.00  0.00    +0.000 C 
ATOM     31  C   UNL     1       3.155   1.690   0.000  0.00  0.00    +0.000 C 
ATOM     32  C   UNL     1       3.155   2.515   0.000  0.00  0.00    +0.000 C 
ATOM     33  C   UNL     1       3.869   2.928   0.000  0.00  0.00    +0.000 C 
ENDBRANCH  27  28
ENDBRANCH  26  27
ENDBRANCH  25  26
ENDBRANCH  24  25
ENDBRANCH  11  24
TORSDOF 7
