REMARK  Name = 7X2
REMARK  6 active torsions:
REMARK  status: ('A' for Active; 'I' for Inactive)
REMARK    1  A    between atoms: O_2  and  C_3
REMARK    2  A    between atoms: C_5  and  N_6
REMARK    3  A    between atoms: C_11  and  N_12
REMARK    4  A    between atoms: N_12  and  C_13
REMARK    5  A    between atoms: C_25  and  O_26
REMARK    6  A    between atoms: C_28  and  O_29
REMARK                            x       y       z     vdW  Elec       q    Type
REMARK                         _______ _______ _______ _____ _____    ______ ____
ROOT
ATOM      1  N   UNL     1       4.745   2.491   0.000  0.00  0.00    +0.000 NA
ATOM      2  C   UNL     1       4.745   3.317   0.000  0.00  0.00    +0.000 A 
ATOM      3  N   UNL     1       4.030   3.729   0.000  0.00  0.00    +0.000 NA
ATOM      4  C   UNL     1       4.030   4.554   0.000  0.00  0.00    +0.000 A 
ATOM      5  C   UNL     1       4.745   4.966   0.000  0.00  0.00    +0.000 A 
ATOM      6  C   UNL     1       5.459   4.554   0.000  0.00  0.00    +0.000 A 
ATOM      7  N   UNL     1       5.459   3.729   0.000  0.00  0.00    +0.000 NA
ENDROOT
BRANCH   1  10
ATOM      8  C   UNL     1       6.174   0.842   0.000  0.00  0.00    +0.000 A 
ATOM      9  C   UNL     1       5.459   1.254   0.000  0.00  0.00    +0.000 A 
ATOM     10  C   UNL     1       5.459   2.079   0.000  0.00  0.00    +0.000 A 
ATOM     11  C   UNL     1       6.174   2.491   0.000  0.00  0.00    +0.000 A 
ATOM     12  C   UNL     1       6.888   2.079   0.000  0.00  0.00    +0.000 A 
ATOM     13  C   UNL     1       6.888   1.254   0.000  0.00  0.00    +0.000 A 
BRANCH  13  14
ATOM     14  O   UNL     1       7.603   0.842   0.000  0.00  0.00    +0.000 OA
ATOM     15  C   UNL     1       8.317   1.254   0.000  0.00  0.00    +0.000 C 
ENDBRANCH  13  14
BRANCH   8  17
ATOM     16  C   UNL     1       6.888  -0.396   0.000  0.00  0.00    +0.000 C 
ATOM     17  O   UNL     1       6.174   0.017   0.000  0.00  0.00    +0.000 OA
ENDBRANCH   8  17
BRANCH  12  18
ATOM     18  O   UNL     1       7.603   2.491   0.000  0.00  0.00    +0.000 OA
ATOM     19  C   UNL     1       8.317   2.079   0.000  0.00  0.00    +0.000 C 
ENDBRANCH  12  18
ENDBRANCH   1  10
BRANCH   6  20
ATOM     20  N   UNL     1       6.174   4.966   0.000  0.00  0.00    +0.000 NA
BRANCH  20  21
ATOM     21  C   UNL     1       6.174   5.792   0.000  0.00  0.00    +0.000 A 
ATOM     22  C   UNL     1       5.459   6.204   0.000  0.00  0.00    +0.000 A 
ATOM     23  O   UNL     1       4.675   5.949   0.000  0.00  0.00    +0.000 OA
ATOM     24  C   UNL     1       4.190   6.617   0.000  0.00  0.00    +0.000 C 
ATOM     25  O   UNL     1       4.675   7.284   0.000  0.00  0.00    +0.000 OA
ATOM     26  C   UNL     1       5.459   7.029   0.000  0.00  0.00    +0.000 A 
ATOM     27  C   UNL     1       6.174   7.441   0.000  0.00  0.00    +0.000 A 
ATOM     28  C   UNL     1       6.888   7.029   0.000  0.00  0.00    +0.000 A 
ATOM     29  C   UNL     1       6.888   6.204   0.000  0.00  0.00    +0.000 A 
ATOM     30 CL   UNL     1       7.603   5.792   0.000  0.00  0.00    +0.000 Cl
ENDBRANCH  20  21
ENDBRANCH   6  20
TORSDOF 6
