REMARK  Name = 7X3
REMARK  6 active torsions:
REMARK  status: ('A' for Active; 'I' for Inactive)
REMARK    1  A    between atoms: O_2  and  C_3
REMARK    2  A    between atoms: C_6  and  N_7
REMARK    3  A    between atoms: N_13  and  C_14
REMARK    4  A    between atoms: C_16  and  O_17
REMARK    5  A    between atoms: C_19  and  O_20
REMARK    6  A    between atoms: C_22  and  O_23
REMARK                            x       y       z     vdW  Elec       q    Type
REMARK                         _______ _______ _______ _____ _____    ______ ____
ROOT
ATOM      1  N   UNL     1       5.748   5.410   0.000  0.00  0.00    +0.000 NA
ATOM      2  C   UNL     1       6.463   4.997   0.000  0.00  0.00    +0.000 A 
ATOM      3  N   UNL     1       7.177   5.410   0.000  0.00  0.00    +0.000 NA
ATOM      4  C   UNL     1       7.892   4.997   0.000  0.00  0.00    +0.000 A 
ATOM      5  N   UNL     1       7.892   4.172   0.000  0.00  0.00    +0.000 NA
ATOM      6  C   UNL     1       7.177   3.760   0.000  0.00  0.00    +0.000 A 
ATOM      7  N   UNL     1       7.177   2.935   0.000  0.00  0.00    +0.000 NA
ATOM      8  N   UNL     1       6.463   4.172   0.000  0.00  0.00    +0.000 NA
ENDROOT
BRANCH   1  12
ATOM      9  C   UNL     1       5.748   7.885   0.000  0.00  0.00    +0.000 A 
ATOM     10  C   UNL     1       6.463   7.472   0.000  0.00  0.00    +0.000 A 
ATOM     11  C   UNL     1       6.463   6.647   0.000  0.00  0.00    +0.000 A 
ATOM     12  C   UNL     1       5.748   6.235   0.000  0.00  0.00    +0.000 A 
ATOM     13  C   UNL     1       5.034   6.647   0.000  0.00  0.00    +0.000 A 
ATOM     14  C   UNL     1       5.034   7.472   0.000  0.00  0.00    +0.000 A 
ATOM     15 CL   UNL     1       4.319   7.885   0.000  0.00  0.00    +0.000 Cl
BRANCH   9  17
ATOM     16  C   UNL     1       5.034   9.122   0.000  0.00  0.00    +0.000 C 
ATOM     17  O   UNL     1       5.748   8.710   0.000  0.00  0.00    +0.000 OA
ENDBRANCH   9  17
ENDBRANCH   1  12
BRANCH   7  18
ATOM     18  C   UNL     1       6.463   2.522   0.000  0.00  0.00    +0.000 A 
ATOM     19  C   UNL     1       6.463   1.697   0.000  0.00  0.00    +0.000 A 
ATOM     20  C   UNL     1       5.748   1.285   0.000  0.00  0.00    +0.000 A 
ATOM     21  C   UNL     1       5.034   1.697   0.000  0.00  0.00    +0.000 A 
ATOM     22  C   UNL     1       5.034   2.522   0.000  0.00  0.00    +0.000 A 
ATOM     23  C   UNL     1       5.748   2.935   0.000  0.00  0.00    +0.000 A 
BRANCH  20  24
ATOM     24  O   UNL     1       5.748   0.460   0.000  0.00  0.00    +0.000 OA
ATOM     25  C   UNL     1       5.034   0.047   0.000  0.00  0.00    +0.000 C 
ENDBRANCH  20  24
BRANCH  21  26
ATOM     26  O   UNL     1       4.319   1.285   0.000  0.00  0.00    +0.000 OA
ATOM     27  C   UNL     1       4.319   0.460   0.000  0.00  0.00    +0.000 C 
ENDBRANCH  21  26
BRANCH  22  28
ATOM     28  O   UNL     1       4.319   2.935   0.000  0.00  0.00    +0.000 OA
ATOM     29  C   UNL     1       4.319   3.760   0.000  0.00  0.00    +0.000 C 
ENDBRANCH  22  28
ENDBRANCH   7  18
TORSDOF 6
