REMARK  Name = 7X4
REMARK  4 active torsions:
REMARK  status: ('A' for Active; 'I' for Inactive)
REMARK    1  A    between atoms: C_5  and  N_6
REMARK    2  A    between atoms: N_6  and  C_7
REMARK    3  A    between atoms: S_19  and  C_22
REMARK    4  A    between atoms: C_26  and  N_27
REMARK                            x       y       z     vdW  Elec       q    Type
REMARK                         _______ _______ _______ _____ _____    ______ ____
ROOT
ATOM      1  C   UNL     1       6.380   3.021   0.000  0.00  0.00    +0.000 A 
ATOM      2  N   UNL     1       5.665   3.433   0.000  0.00  0.00    +0.000 NA
ATOM      3  C   UNL     1       5.665   4.258   0.000  0.00  0.00    +0.000 A 
ATOM      4  C   UNL     1       6.380   4.671   0.000  0.00  0.00    +0.000 A 
ATOM      5  C   UNL     1       7.094   4.258   0.000  0.00  0.00    +0.000 A 
ATOM      6  N   UNL     1       7.094   3.433   0.000  0.00  0.00    +0.000 NA
ATOM      7  N   UNL     1       6.380   2.196   0.000  0.00  0.00    +0.000 NA
ENDROOT
BRANCH   7  12
ATOM      8  C   UNL     1       4.951   0.546   0.000  0.00  0.00    +0.000 A 
ATOM      9  C   UNL     1       4.236   0.959   0.000  0.00  0.00    +0.000 A 
ATOM     10  C   UNL     1       4.236   1.784   0.000  0.00  0.00    +0.000 A 
ATOM     11  C   UNL     1       4.951   2.196   0.000  0.00  0.00    +0.000 A 
ATOM     12  C   UNL     1       5.665   1.784   0.000  0.00  0.00    +0.000 A 
ATOM     13  C   UNL     1       5.665   0.959   0.000  0.00  0.00    +0.000 A 
BRANCH   8  15
ATOM     14  N   UNL     1       4.951  -1.104   0.000  0.00  0.00    +0.000 NA
ATOM     15  S   UNL     1       4.951  -0.279   0.000  0.00  0.00    +0.000 S 
ATOM     16  O   UNL     1       4.126  -0.279   0.000  0.00  0.00    +0.000 OA
ATOM     17  O   UNL     1       5.776  -0.279   0.000  0.00  0.00    +0.000 OA
ENDBRANCH   8  15
ENDBRANCH   7  12
BRANCH   5  18
ATOM     18  N   UNL     1       7.809   4.671   0.000  0.00  0.00    +0.000 NA
BRANCH  18  19
ATOM     19  C   UNL     1       7.809   5.496   0.000  0.00  0.00    +0.000 A 
ATOM     20  C   UNL     1       7.094   5.909   0.000  0.00  0.00    +0.000 A 
ATOM     21  O   UNL     1       6.310   5.654   0.000  0.00  0.00    +0.000 OA
ATOM     22  C   UNL     1       5.825   6.321   0.000  0.00  0.00    +0.000 C 
ATOM     23  O   UNL     1       6.310   6.988   0.000  0.00  0.00    +0.000 OA
ATOM     24  C   UNL     1       7.094   6.734   0.000  0.00  0.00    +0.000 A 
ATOM     25  C   UNL     1       7.809   7.146   0.000  0.00  0.00    +0.000 A 
ATOM     26  C   UNL     1       8.523   6.734   0.000  0.00  0.00    +0.000 A 
ATOM     27  C   UNL     1       8.523   5.909   0.000  0.00  0.00    +0.000 A 
ATOM     28 CL   UNL     1       9.238   5.496   0.000  0.00  0.00    +0.000 Cl
ENDBRANCH  18  19
ENDBRANCH   5  18
TORSDOF 4
