REMARK  Name = 7X5
REMARK  4 active torsions:
REMARK  status: ('A' for Active; 'I' for Inactive)
REMARK    1  A    between atoms: N_1  and  C_27
REMARK    2  A    between atoms: C_6  and  N_7
REMARK    3  A    between atoms: N_7  and  C_8
REMARK    4  A    between atoms: S_20  and  C_23
REMARK                            x       y       z     vdW  Elec       q    Type
REMARK                         _______ _______ _______ _____ _____    ______ ____
ROOT
ATOM      1  N   UNL     1       6.013   2.072   0.000  0.00  0.00    +0.000 NA
ATOM      2  C   UNL     1       6.013   2.897   0.000  0.00  0.00    +0.000 A 
ATOM      3  N   UNL     1       5.298   3.309   0.000  0.00  0.00    +0.000 NA
ATOM      4  C   UNL     1       5.298   4.135   0.000  0.00  0.00    +0.000 A 
ATOM      5  C   UNL     1       6.013   4.547   0.000  0.00  0.00    +0.000 A 
ATOM      6  C   UNL     1       6.727   4.135   0.000  0.00  0.00    +0.000 A 
ATOM      7  N   UNL     1       6.727   3.309   0.000  0.00  0.00    +0.000 NA
ENDROOT
BRANCH   1  12
ATOM      8  C   UNL     1       4.584   0.422   0.000  0.00  0.00    +0.000 A 
ATOM      9  C   UNL     1       3.869   0.835   0.000  0.00  0.00    +0.000 A 
ATOM     10  C   UNL     1       3.869   1.659   0.000  0.00  0.00    +0.000 A 
ATOM     11  C   UNL     1       4.584   2.072   0.000  0.00  0.00    +0.000 A 
ATOM     12  C   UNL     1       5.298   1.659   0.000  0.00  0.00    +0.000 A 
ATOM     13  C   UNL     1       5.298   0.835   0.000  0.00  0.00    +0.000 A 
BRANCH   8  15
ATOM     14  C   UNL     1       4.584  -1.228   0.000  0.00  0.00    +0.000 C 
ATOM     15  S   UNL     1       4.584  -0.403   0.000  0.00  0.00    +0.000 S 
ATOM     16  O   UNL     1       3.759  -0.403   0.000  0.00  0.00    +0.000 OA
ATOM     17  O   UNL     1       5.409  -0.403   0.000  0.00  0.00    +0.000 OA
ENDBRANCH   8  15
ENDBRANCH   1  12
BRANCH   6  18
ATOM     18  N   UNL     1       7.442   4.547   0.000  0.00  0.00    +0.000 NA
BRANCH  18  19
ATOM     19  C   UNL     1       7.442   5.372   0.000  0.00  0.00    +0.000 A 
ATOM     20  C   UNL     1       6.727   5.785   0.000  0.00  0.00    +0.000 A 
ATOM     21  O   UNL     1       5.943   5.530   0.000  0.00  0.00    +0.000 OA
ATOM     22  C   UNL     1       5.458   6.197   0.000  0.00  0.00    +0.000 C 
ATOM     23  O   UNL     1       5.943   6.864   0.000  0.00  0.00    +0.000 OA
ATOM     24  C   UNL     1       6.727   6.609   0.000  0.00  0.00    +0.000 A 
ATOM     25  C   UNL     1       7.442   7.022   0.000  0.00  0.00    +0.000 A 
ATOM     26  C   UNL     1       8.156   6.609   0.000  0.00  0.00    +0.000 A 
ATOM     27  C   UNL     1       8.156   5.785   0.000  0.00  0.00    +0.000 A 
ATOM     28 CL   UNL     1       8.871   5.372   0.000  0.00  0.00    +0.000 Cl
ENDBRANCH  18  19
ENDBRANCH   6  18
TORSDOF 4
