REMARK  Name = 7X6
REMARK  5 active torsions:
REMARK  status: ('A' for Active; 'I' for Inactive)
REMARK    1  A    between atoms: N_1  and  C_28
REMARK    2  A    between atoms: C_6  and  N_7
REMARK    3  A    between atoms: N_7  and  C_8
REMARK    4  A    between atoms: S_20  and  N_23
REMARK    5  A    between atoms: N_23  and  C_24
REMARK                            x       y       z     vdW  Elec       q    Type
REMARK                         _______ _______ _______ _____ _____    ______ ____
ROOT
ATOM      1  N   UNL     1       5.810   2.312   0.000  0.00  0.00    +0.000 NA
ATOM      2  C   UNL     1       5.810   3.137   0.000  0.00  0.00    +0.000 A 
ATOM      3  N   UNL     1       5.096   3.549   0.000  0.00  0.00    +0.000 NA
ATOM      4  C   UNL     1       5.096   4.374   0.000  0.00  0.00    +0.000 A 
ATOM      5  C   UNL     1       5.810   4.787   0.000  0.00  0.00    +0.000 A 
ATOM      6  C   UNL     1       6.524   4.374   0.000  0.00  0.00    +0.000 A 
ATOM      7  N   UNL     1       6.524   3.549   0.000  0.00  0.00    +0.000 NA
ENDROOT
BRANCH   1  12
ATOM      8  C   UNL     1       4.381   0.662   0.000  0.00  0.00    +0.000 A 
ATOM      9  C   UNL     1       3.667   1.074   0.000  0.00  0.00    +0.000 A 
ATOM     10  C   UNL     1       3.667   1.899   0.000  0.00  0.00    +0.000 A 
ATOM     11  C   UNL     1       4.381   2.312   0.000  0.00  0.00    +0.000 A 
ATOM     12  C   UNL     1       5.096   1.899   0.000  0.00  0.00    +0.000 A 
ATOM     13  C   UNL     1       5.096   1.074   0.000  0.00  0.00    +0.000 A 
BRANCH   8  14
ATOM     14  N   UNL     1       4.381  -0.163   0.000  0.00  0.00    +0.000 NA
BRANCH  14  16
ATOM     15  C   UNL     1       5.810  -0.988   0.000  0.00  0.00    +0.000 C 
ATOM     16  S   UNL     1       5.096  -0.576   0.000  0.00  0.00    +0.000 S 
ATOM     17  O   UNL     1       4.683  -1.290   0.000  0.00  0.00    +0.000 OA
ATOM     18  O   UNL     1       5.508   0.139   0.000  0.00  0.00    +0.000 OA
ENDBRANCH  14  16
ENDBRANCH   8  14
ENDBRANCH   1  12
BRANCH   6  19
ATOM     19  N   UNL     1       7.239   4.787   0.000  0.00  0.00    +0.000 NA
BRANCH  19  20
ATOM     20  C   UNL     1       7.239   5.612   0.000  0.00  0.00    +0.000 A 
ATOM     21  C   UNL     1       6.524   6.024   0.000  0.00  0.00    +0.000 A 
ATOM     22  O   UNL     1       5.740   5.769   0.000  0.00  0.00    +0.000 OA
ATOM     23  C   UNL     1       5.255   6.437   0.000  0.00  0.00    +0.000 C 
ATOM     24  O   UNL     1       5.740   7.104   0.000  0.00  0.00    +0.000 OA
ATOM     25  C   UNL     1       6.524   6.849   0.000  0.00  0.00    +0.000 A 
ATOM     26  C   UNL     1       7.239   7.262   0.000  0.00  0.00    +0.000 A 
ATOM     27  C   UNL     1       7.953   6.849   0.000  0.00  0.00    +0.000 A 
ATOM     28  C   UNL     1       7.953   6.024   0.000  0.00  0.00    +0.000 A 
ATOM     29 CL   UNL     1       8.668   5.612   0.000  0.00  0.00    +0.000 Cl
ENDBRANCH  19  20
ENDBRANCH   6  19
TORSDOF 5
