REMARK  Name = 7X7
REMARK  3 active torsions:
REMARK  status: ('A' for Active; 'I' for Inactive)
REMARK    1  A    between atoms: C_10  and  N_11
REMARK    2  A    between atoms: N_17  and  C_18
REMARK    3  A    between atoms: C_22  and  N_24
REMARK                            x       y       z     vdW  Elec       q    Type
REMARK                         _______ _______ _______ _____ _____    ______ ____
ROOT
ATOM      1  N   UNL     1       8.317   2.093   0.000  0.00  0.00    +0.000 NA
ATOM      2  C   UNL     1       7.602   2.506   0.000  0.00  0.00    +0.000 A 
ATOM      3  C   UNL     1       6.888   2.093   0.000  0.00  0.00    +0.000 A 
ATOM      4  C   UNL     1       6.173   2.506   0.000  0.00  0.00    +0.000 A 
ATOM      5  N   UNL     1       6.173   3.331   0.000  0.00  0.00    +0.000 NA
ATOM      6  C   UNL     1       6.888   3.743   0.000  0.00  0.00    +0.000 A 
ATOM      7  N   UNL     1       6.888   4.568   0.000  0.00  0.00    +0.000 NA
ATOM      8  N   UNL     1       7.602   3.331   0.000  0.00  0.00    +0.000 NA
ENDROOT
BRANCH   1  18
ATOM      9 CL   UNL     1       9.746   1.268   0.000  0.00  0.00    +0.000 Cl
ATOM     10  C   UNL     1       9.031   0.856   0.000  0.00  0.00    +0.000 A 
ATOM     11  C   UNL     1       9.031   0.031   0.000  0.00  0.00    +0.000 A 
ATOM     12  C   UNL     1       8.317  -0.382   0.000  0.00  0.00    +0.000 A 
ATOM     13  C   UNL     1       7.602   0.031   0.000  0.00  0.00    +0.000 A 
ATOM     14  O   UNL     1       6.818  -0.224   0.000  0.00  0.00    +0.000 OA
ATOM     15  C   UNL     1       6.333   0.443   0.000  0.00  0.00    +0.000 C 
ATOM     16  O   UNL     1       6.818   1.111   0.000  0.00  0.00    +0.000 OA
ATOM     17  C   UNL     1       7.602   0.856   0.000  0.00  0.00    +0.000 A 
ATOM     18  C   UNL     1       8.317   1.268   0.000  0.00  0.00    +0.000 A 
ENDBRANCH   1  18
BRANCH   7  19
ATOM     19  C   UNL     1       6.173   4.981   0.000  0.00  0.00    +0.000 A 
ATOM     20  C   UNL     1       5.459   4.568   0.000  0.00  0.00    +0.000 A 
ATOM     21  C   UNL     1       4.744   4.981   0.000  0.00  0.00    +0.000 A 
ATOM     22  C   UNL     1       4.744   5.806   0.000  0.00  0.00    +0.000 A 
ATOM     23  C   UNL     1       5.459   6.218   0.000  0.00  0.00    +0.000 A 
ATOM     24  C   UNL     1       6.173   5.806   0.000  0.00  0.00    +0.000 A 
BRANCH  23  25
ATOM     25  N   UNL     1       5.459   7.043   0.000  0.00  0.00    +0.000 N 
ATOM     26  C   UNL     1       4.744   7.456   0.000  0.00  0.00    +0.000 C 
ATOM     27  C   UNL     1       4.744   8.281   0.000  0.00  0.00    +0.000 C 
ATOM     28  O   UNL     1       5.459   8.693   0.000  0.00  0.00    +0.000 OA
ATOM     29  C   UNL     1       6.173   8.281   0.000  0.00  0.00    +0.000 C 
ATOM     30  C   UNL     1       6.173   7.456   0.000  0.00  0.00    +0.000 C 
ENDBRANCH  23  25
ENDBRANCH   7  19
TORSDOF 3
