REMARK  Name = 7X8
REMARK  4 active torsions:
REMARK  status: ('A' for Active; 'I' for Inactive)
REMARK    1  A    between atoms: N_1  and  C_26
REMARK    2  A    between atoms: C_6  and  N_7
REMARK    3  A    between atoms: N_7  and  C_8
REMARK    4  A    between atoms: C_20  and  C_22
REMARK                            x       y       z     vdW  Elec       q    Type
REMARK                         _______ _______ _______ _____ _____    ______ ____
ROOT
ATOM      1  N   UNL     1       5.950   1.812   0.000  0.00  0.00    +0.000 NA
ATOM      2  C   UNL     1       5.950   2.636   0.000  0.00  0.00    +0.000 A 
ATOM      3  N   UNL     1       5.235   3.049   0.000  0.00  0.00    +0.000 NA
ATOM      4  C   UNL     1       5.235   3.874   0.000  0.00  0.00    +0.000 A 
ATOM      5  C   UNL     1       5.950   4.287   0.000  0.00  0.00    +0.000 A 
ATOM      6  C   UNL     1       6.664   3.874   0.000  0.00  0.00    +0.000 A 
ATOM      7  N   UNL     1       6.664   3.049   0.000  0.00  0.00    +0.000 NA
ENDROOT
BRANCH   1  12
ATOM      8  C   UNL     1       4.521   0.162   0.000  0.00  0.00    +0.000 A 
ATOM      9  C   UNL     1       3.806   0.574   0.000  0.00  0.00    +0.000 A 
ATOM     10  C   UNL     1       3.806   1.399   0.000  0.00  0.00    +0.000 A 
ATOM     11  C   UNL     1       4.521   1.812   0.000  0.00  0.00    +0.000 A 
ATOM     12  C   UNL     1       5.235   1.399   0.000  0.00  0.00    +0.000 A 
ATOM     13  C   UNL     1       5.235   0.574   0.000  0.00  0.00    +0.000 A 
BRANCH   8  15
ATOM     14  N   UNL     1       5.235  -1.076   0.000  0.00  0.00    +0.000 NA
ATOM     15  C   UNL     1       4.521  -0.663   0.000  0.00  0.00    +0.000 C 
ATOM     16  O   UNL     1       3.806  -1.076   0.000  0.00  0.00    +0.000 OA
ENDBRANCH   8  15
ENDBRANCH   1  12
BRANCH   6  17
ATOM     17  N   UNL     1       7.378   4.287   0.000  0.00  0.00    +0.000 NA
BRANCH  17  18
ATOM     18  C   UNL     1       7.378   5.112   0.000  0.00  0.00    +0.000 A 
ATOM     19  C   UNL     1       6.664   5.524   0.000  0.00  0.00    +0.000 A 
ATOM     20  O   UNL     1       5.880   5.269   0.000  0.00  0.00    +0.000 OA
ATOM     21  C   UNL     1       5.394   5.936   0.000  0.00  0.00    +0.000 C 
ATOM     22  O   UNL     1       5.880   6.604   0.000  0.00  0.00    +0.000 OA
ATOM     23  C   UNL     1       6.664   6.349   0.000  0.00  0.00    +0.000 A 
ATOM     24  C   UNL     1       7.378   6.761   0.000  0.00  0.00    +0.000 A 
ATOM     25  C   UNL     1       8.093   6.349   0.000  0.00  0.00    +0.000 A 
ATOM     26  C   UNL     1       8.093   5.524   0.000  0.00  0.00    +0.000 A 
ATOM     27 CL   UNL     1       8.807   5.112   0.000  0.00  0.00    +0.000 Cl
ENDBRANCH  17  18
ENDBRANCH   6  17
TORSDOF 4
