REMARK  Name = 800
REMARK  1 active torsions:
REMARK  status: ('A' for Active; 'I' for Inactive)
REMARK    1  A    between atoms: C_6  and  C_12
REMARK                            x       y       z     vdW  Elec       q    Type
REMARK                         _______ _______ _______ _____ _____    ______ ____
ROOT
ATOM      1 CL   UNL     1       1.650   0.311   0.000  0.00  0.00    +0.000 Cl
ATOM      2  O   UNL     1       3.286  -2.108   0.000  0.00  0.00    +0.000 OA
ATOM      3  O   UNL     1       1.763  -1.375   0.000  0.00  0.00    +0.000 OA
ATOM      4  N   UNL     1       4.262   1.867   0.000  0.00  0.00    +0.000 NA
ATOM      5  C   UNL     1       4.593   0.418   0.000  0.00  0.00    +0.000 C 
ATOM      6  C   UNL     1       3.850   0.060   0.000  0.00  0.00    +0.000 A 
ATOM      7  C   UNL     1       4.777   1.222   0.000  0.00  0.00    +0.000 C 
ATOM      8  C   UNL     1       3.107   0.418   0.000  0.00  0.00    +0.000 A 
ATOM      9  C   UNL     1       2.923   1.222   0.000  0.00  0.00    +0.000 C 
ATOM     10  C   UNL     1       3.437   1.867   0.000  0.00  0.00    +0.000 C 
ATOM     11  C   UNL     1       3.927  -0.796   0.000  0.00  0.00    +0.000 A 
ATOM     12  C   UNL     1       2.389  -0.055   0.000  0.00  0.00    +0.000 A 
ATOM     13  C   UNL     1       3.221  -1.286   0.000  0.00  0.00    +0.000 A 
ATOM     14  C   UNL     1       2.447  -0.913   0.000  0.00  0.00    +0.000 A 
ENDROOT
BRANCH   5  16
ATOM     15  O   UNL     1       7.173  -1.640   0.000  0.00  0.00    +0.000 OA
ATOM     16  C   UNL     1       5.238  -0.097   0.000  0.00  0.00    +0.000 A 
ATOM     17  C   UNL     1       6.006   0.205   0.000  0.00  0.00    +0.000 A 
ATOM     18  C   UNL     1       5.115  -0.912   0.000  0.00  0.00    +0.000 A 
ATOM     19  C   UNL     1       6.651  -0.309   0.000  0.00  0.00    +0.000 A 
ATOM     20  C   UNL     1       5.760  -1.427   0.000  0.00  0.00    +0.000 A 
ATOM     21  C   UNL     1       6.528  -1.125   0.000  0.00  0.00    +0.000 A 
ENDBRANCH   5  16
TORSDOF 1
