REMARK  Name = 801
REMARK  3 active torsions:
REMARK  status: ('A' for Active; 'I' for Inactive)
REMARK    1  A    between atoms: N_6  and  C_10
REMARK    2  A    between atoms: C_10  and  C_17
REMARK    3  A    between atoms: C_11  and  C_16
REMARK                            x       y       z     vdW  Elec       q    Type
REMARK                         _______ _______ _______ _____ _____    ______ ____
ROOT
ATOM      1 CL   UNL     1       4.027  -2.399   0.000  0.00  0.00    +0.000 Cl
ATOM      2  O   UNL     1       4.240   2.399   0.000  0.00  0.00    +0.000 OA
ATOM      3  N   UNL     1       3.664   0.931   0.000  0.00  0.00    +0.000 N 
ATOM      4  N   UNL     1       5.518   0.931   0.000  0.00  0.00    +0.000 NA
ATOM      5  C   UNL     1       3.848   0.127   0.000  0.00  0.00    +0.000 A 
ATOM      6  C   UNL     1       4.591  -0.231   0.000  0.00  0.00    +0.000 A 
ATOM      7  C   UNL     1       5.334   0.127   0.000  0.00  0.00    +0.000 C 
ATOM      8  C   UNL     1       4.178   1.576   0.000  0.00  0.00    +0.000 C 
ATOM      9  C   UNL     1       5.003   1.576   0.000  0.00  0.00    +0.000 C 
ATOM     10  C   UNL     1       3.130  -0.346   0.000  0.00  0.00    +0.000 A 
ATOM     11  C   UNL     1       4.668  -1.087   0.000  0.00  0.00    +0.000 A 
ATOM     12  C   UNL     1       3.188  -1.204   0.000  0.00  0.00    +0.000 A 
ATOM     13  C   UNL     1       3.962  -1.577   0.000  0.00  0.00    +0.000 A 
ENDROOT
BRANCH   7  14
ATOM     14  C   UNL     1       5.979  -0.388   0.000  0.00  0.00    +0.000 A 
ATOM     15  C   UNL     1       6.747  -0.086   0.000  0.00  0.00    +0.000 A 
ATOM     16  C   UNL     1       5.856  -1.203   0.000  0.00  0.00    +0.000 A 
ATOM     17  C   UNL     1       7.392  -0.600   0.000  0.00  0.00    +0.000 A 
ATOM     18  C   UNL     1       6.501  -1.718   0.000  0.00  0.00    +0.000 A 
ATOM     19  C   UNL     1       7.269  -1.416   0.000  0.00  0.00    +0.000 A 
ENDBRANCH   7  14
BRANCH   3  20
ATOM     20  C   UNL     1       2.860   1.115   0.000  0.00  0.00    +0.000 C 
BRANCH  20  24
ATOM     21  F   UNL     1       2.816   2.281   0.000  0.00  0.00    +0.000 F 
ATOM     22  F   UNL     1       1.694   1.071   0.000  0.00  0.00    +0.000 F 
ATOM     23  F   UNL     1       1.650   2.237   0.000  0.00  0.00    +0.000 F 
ATOM     24  C   UNL     1       2.255   1.676   0.000  0.00  0.00    +0.000 C 
ENDBRANCH  20  24
ENDBRANCH   3  20
TORSDOF 3
