REMARK  Name = 802
REMARK  2 active torsions:
REMARK  status: ('A' for Active; 'I' for Inactive)
REMARK    1  A    between atoms: C_1  and  C_7
REMARK    2  A    between atoms: C_12  and  C_13
REMARK                            x       y       z     vdW  Elec       q    Type
REMARK                         _______ _______ _______ _____ _____    ______ ____
ROOT
ATOM      1  C   UNL     1       2.143   0.221   0.000  0.00  0.00    +0.000 A 
ATOM      2  C   UNL     1       2.143  -0.604   0.000  0.00  0.00    +0.000 A 
ATOM      3  C   UNL     1       1.429  -1.016   0.000  0.00  0.00    +0.000 A 
ATOM      4  C   UNL     1       0.715  -0.604   0.000  0.00  0.00    +0.000 A 
ATOM      5  C   UNL     1       0.715   0.221   0.000  0.00  0.00    +0.000 A 
ATOM      6  C   UNL     1       1.429   0.634   0.000  0.00  0.00    +0.000 A 
ATOM      7  N   UNL     1      -0.070  -0.859   0.000  0.00  0.00    +0.000 NA
ATOM      8  N   UNL     1      -0.070   0.476   0.000  0.00  0.00    +0.000 NA
ATOM      9  C   UNL     1      -0.555  -0.191   0.000  0.00  0.00    +0.000 A 
ENDROOT
BRANCH   9  10
ATOM     10  C   UNL     1      -1.380  -0.191   0.000  0.00  0.00    +0.000 A 
ATOM     11  C   UNL     1      -1.792  -0.906   0.000  0.00  0.00    +0.000 A 
ATOM     12  C   UNL     1      -2.618  -0.906   0.000  0.00  0.00    +0.000 A 
ATOM     13  F   UNL     1      -3.030  -1.620   0.000  0.00  0.00    +0.000 F 
ATOM     14  C   UNL     1      -3.030  -0.191   0.000  0.00  0.00    +0.000 A 
ATOM     15  C   UNL     1      -2.618   0.523   0.000  0.00  0.00    +0.000 A 
ATOM     16  C   UNL     1      -1.792   0.523   0.000  0.00  0.00    +0.000 A 
ATOM     17  O   UNL     1      -1.380   1.238   0.000  0.00  0.00    +0.000 OA
ENDBRANCH   9  10
BRANCH   1  18
ATOM     18  C   UNL     1       2.858   0.634   0.000  0.00  0.00    +0.000 C 
ATOM     19  N   UNL     1       3.572   0.221   0.000  0.00  0.00    +0.000 NA
ATOM     20  N   UNL     1       2.858   1.459   0.000  0.00  0.00    +0.000 NA
ENDBRANCH   1  18
TORSDOF 2
