REMARK  Name = 804
REMARK  8 active torsions:
REMARK  status: ('A' for Active; 'I' for Inactive)
REMARK    1  A    between atoms: O_1  and  C_16
REMARK    2  A    between atoms: O_1  and  C_17
REMARK    3  A    between atoms: N_3  and  C_18
REMARK    4  A    between atoms: N_3  and  C_19
REMARK    5  A    between atoms: N_3  and  C_20
REMARK    6  A    between atoms: C_4  and  C_5
REMARK    7  A    between atoms: C_4  and  C_16
REMARK    8  A    between atoms: C_17  and  C_18
REMARK                            x       y       z     vdW  Elec       q    Type
REMARK                         _______ _______ _______ _____ _____    ______ ____
ROOT
ATOM      1  C   UNL     1       5.775  -0.961   0.000  0.00  0.00    +0.000 C 
ATOM      2  C   UNL     1       5.061  -1.374   0.000  0.00  0.00    +0.000 C 
ATOM      3  C   UNL     1       6.490  -1.374   0.000  0.00  0.00    +0.000 C 
ATOM      4  C   UNL     1       5.061  -2.199   0.000  0.00  0.00    +0.000 C 
ATOM      5  C   UNL     1       6.490  -2.199   0.000  0.00  0.00    +0.000 C 
ATOM      6  C   UNL     1       5.775  -2.611   0.000  0.00  0.00    +0.000 C 
ENDROOT
BRANCH   1   7
ATOM      7  C   UNL     1       6.407  -0.431   0.000  0.00  0.00    +0.000 C 
ATOM      8  C   UNL     1       6.264   0.382   0.000  0.00  0.00    +0.000 C 
ATOM      9  C   UNL     1       7.182  -0.713   0.000  0.00  0.00    +0.000 C 
ATOM     10  C   UNL     1       6.896   0.912   0.000  0.00  0.00    +0.000 C 
ATOM     11  C   UNL     1       7.814  -0.183   0.000  0.00  0.00    +0.000 C 
ATOM     12  C   UNL     1       7.671   0.630   0.000  0.00  0.00    +0.000 C 
ENDBRANCH   1   7
BRANCH   1  14
ATOM     13  O   UNL     1       5.506   0.566   0.000  0.00  0.00    +0.000 OA
ATOM     14  C   UNL     1       5.363  -0.247   0.000  0.00  0.00    +0.000 C 
BRANCH  14  15
ATOM     15  O   UNL     1       4.538  -0.247   0.000  0.00  0.00    +0.000 OA
BRANCH  15  16
ATOM     16  C   UNL     1       4.125   0.468   0.000  0.00  0.00    +0.000 C 
BRANCH  16  17
ATOM     17  C   UNL     1       3.300   0.468   0.000  0.00  0.00    +0.000 C 
BRANCH  17  18
ATOM     18  N   UNL     1       2.888   1.182   0.000  0.00  0.00    +0.000 NA
BRANCH  18  19
ATOM     19  C   UNL     1       3.300   1.897   0.000  0.00  0.00    +0.000 C 
ATOM     20  C   UNL     1       2.888   2.611   0.000  0.00  0.00    +0.000 C 
ENDBRANCH  18  19
BRANCH  18  21
ATOM     21  C   UNL     1       2.062   1.182   0.000  0.00  0.00    +0.000 C 
ATOM     22  C   UNL     1       1.650   1.897   0.000  0.00  0.00    +0.000 C 
ENDBRANCH  18  21
ENDBRANCH  17  18
ENDBRANCH  16  17
ENDBRANCH  15  16
ENDBRANCH  14  15
ENDBRANCH   1  14
TORSDOF 8
