REMARK  Name = 805
REMARK  4 active torsions:
REMARK  status: ('A' for Active; 'I' for Inactive)
REMARK    1  A    between atoms: N_2  and  C_8
REMARK    2  A    between atoms: N_3  and  C_11
REMARK    3  A    between atoms: C_8  and  C_11
REMARK    4  A    between atoms: C_15  and  C_17
REMARK                            x       y       z     vdW  Elec       q    Type
REMARK                         _______ _______ _______ _____ _____    ______ ____
ROOT
ATOM      1  N   UNL     1       3.079   0.412   0.000  0.00  0.00    +0.000 NA
ATOM      2  N   UNL     1       4.508   0.412   0.000  0.00  0.00    +0.000 NA
ATOM      3  N   UNL     1       5.222   0.825   0.000  0.00  0.00    +0.000 NA
ATOM      4  C   UNL     1       3.793   0.825   0.000  0.00  0.00    +0.000 A 
ATOM      5  C   UNL     1       3.793   1.650   0.000  0.00  0.00    +0.000 A 
ATOM      6  C   UNL     1       4.508   2.062   0.000  0.00  0.00    +0.000 A 
ATOM      7  C   UNL     1       5.222   1.650   0.000  0.00  0.00    +0.000 A 
ATOM      8  C   UNL     1       3.079   2.062   0.000  0.00  0.00    +0.000 C 
ENDROOT
BRANCH   7   9
ATOM      9  C   UNL     1       5.937   2.062   0.000  0.00  0.00    +0.000 A 
ATOM     10  C   UNL     1       5.937   2.888   0.000  0.00  0.00    +0.000 A 
ATOM     11  C   UNL     1       6.652   1.650   0.000  0.00  0.00    +0.000 A 
ATOM     12  C   UNL     1       6.652   3.300   0.000  0.00  0.00    +0.000 A 
ATOM     13  C   UNL     1       7.366   2.062   0.000  0.00  0.00    +0.000 A 
ATOM     14  C   UNL     1       7.366   2.888   0.000  0.00  0.00    +0.000 A 
ENDBRANCH   7   9
BRANCH   1  15
ATOM     15  C   UNL     1       3.079  -0.412   0.000  0.00  0.00    +0.000 C 
BRANCH  15  16
ATOM     16  C   UNL     1       2.365  -0.825   0.000  0.00  0.00    +0.000 C 
BRANCH  16  18
ATOM     17  O   UNL     1       2.365  -3.300   0.000  0.00  0.00    +0.000 OA
ATOM     18  N   UNL     1       2.365  -1.650   0.000  0.00  0.00    +0.000 NA
ATOM     19  C   UNL     1       1.650  -2.062   0.000  0.00  0.00    +0.000 C 
ATOM     20  C   UNL     1       3.079  -2.062   0.000  0.00  0.00    +0.000 C 
ATOM     21  C   UNL     1       1.650  -2.888   0.000  0.00  0.00    +0.000 C 
ATOM     22  C   UNL     1       3.079  -2.888   0.000  0.00  0.00    +0.000 C 
ENDBRANCH  16  18
ENDBRANCH  15  16
ENDBRANCH   1  15
TORSDOF 4
