REMARK  Name = 806
REMARK  5 active torsions:
REMARK  status: ('A' for Active; 'I' for Inactive)
REMARK    1  A    between atoms: N_4  and  C_8
REMARK    2  A    between atoms: C_8  and  C_9
REMARK    3  A    between atoms: C_9  and  C_10
REMARK    4  A    between atoms: C_10  and  C_15
REMARK    5  A    between atoms: C_15  and  C_19
REMARK                            x       y       z     vdW  Elec       q    Type
REMARK                         _______ _______ _______ _____ _____    ______ ____
ROOT
ATOM      1  O   UNL     1       6.652   1.650   0.000  0.00  0.00    +0.000 OA
ATOM      2  O   UNL     1       5.222  -0.825   0.000  0.00  0.00    +0.000 OA
ATOM      3  N   UNL     1       5.937   0.412   0.000  0.00  0.00    +0.000 N 
ATOM      4  N   UNL     1       6.652  -0.825   0.000  0.00  0.00    +0.000 N 
ATOM      5  N   UNL     1       8.147   0.664   0.000  0.00  0.00    +0.000 N 
ATOM      6  N   UNL     1       8.147  -0.664   0.000  0.00  0.00    +0.000 NA
ATOM      7  C   UNL     1       7.366   0.412   0.000  0.00  0.00    +0.000 A 
ATOM      8  C   UNL     1       6.652   0.825   0.000  0.00  0.00    +0.000 A 
ATOM      9  C   UNL     1       7.366  -0.412   0.000  0.00  0.00    +0.000 A 
ATOM     10  C   UNL     1       5.937  -0.412   0.000  0.00  0.00    +0.000 A 
ATOM     11  C   UNL     1       8.628   0.000   0.000  0.00  0.00    +0.000 A 
ATOM     12  C   UNL     1       6.652  -1.650   0.000  0.00  0.00    +0.000 C 
ATOM     13  C   UNL     1       8.403   1.448   0.000  0.00  0.00    +0.000 C 
ENDROOT
BRANCH   3  14
ATOM     14  C   UNL     1       5.222   0.825   0.000  0.00  0.00    +0.000 C 
BRANCH  14  15
ATOM     15  C   UNL     1       4.508   0.412   0.000  0.00  0.00    +0.000 C 
BRANCH  15  16
ATOM     16  C   UNL     1       3.793   0.825   0.000  0.00  0.00    +0.000 C 
BRANCH  16  17
ATOM     17  C   UNL     1       3.079   0.412   0.000  0.00  0.00    +0.000 C 
BRANCH  17  19
ATOM     18  O   UNL     1       2.365   1.650   0.000  0.00  0.00    +0.000 OA
ATOM     19  C   UNL     1       2.365   0.825   0.000  0.00  0.00    +0.000 C 
ATOM     20  C   UNL     1       1.650   0.412   0.000  0.00  0.00    +0.000 C 
ENDBRANCH  17  19
ENDBRANCH  16  17
ENDBRANCH  15  16
ENDBRANCH  14  15
ENDBRANCH   3  14
TORSDOF 5
