REMARK  Name = 807
REMARK  10 active torsions:
REMARK  status: ('A' for Active; 'I' for Inactive)
REMARK    1  A    between atoms: O_1  and  C_9
REMARK    2  A    between atoms: O_1  and  C_13
REMARK    3  A    between atoms: O_2  and  C_14
REMARK    4  A    between atoms: O_2  and  C_18
REMARK    5  A    between atoms: N_4  and  C_6
REMARK    6  A    between atoms: N_4  and  C_7
REMARK    7  A    between atoms: N_4  and  C_8
REMARK    8  A    between atoms: C_6  and  C_9
REMARK    9  A    between atoms: C_12  and  C_13
REMARK   10  A    between atoms: C_18  and  C_20
REMARK                            x       y       z     vdW  Elec       q    Type
REMARK                         _______ _______ _______ _____ _____    ______ ____
ROOT
ATOM      1  N   UNL     1       5.222   2.966   0.000  0.00  0.00    +0.000 NA
ATOM      2  C   UNL     1       5.937   0.903   0.000  0.00  0.00    +0.000 A 
ATOM      3  C   UNL     1       4.508   1.728   0.000  0.00  0.00    +0.000 A 
ATOM      4  C   UNL     1       5.222   2.141   0.000  0.00  0.00    +0.000 A 
ATOM      5  C   UNL     1       5.937   1.728   0.000  0.00  0.00    +0.000 A 
ATOM      6  C   UNL     1       5.222   0.491   0.000  0.00  0.00    +0.000 A 
ATOM      7  C   UNL     1       4.508   0.903   0.000  0.00  0.00    +0.000 A 
ENDROOT
BRANCH   2   9
ATOM      8  O   UNL     1       7.366   0.903   0.000  0.00  0.00    +0.000 OA
ATOM      9  C   UNL     1       6.652   0.491   0.000  0.00  0.00    +0.000 C 
BRANCH   9  10
ATOM     10  O   UNL     1       6.652  -0.334   0.000  0.00  0.00    +0.000 OA
BRANCH  10  11
ATOM     11  C   UNL     1       7.366  -0.747   0.000  0.00  0.00    +0.000 C 
BRANCH  11  12
ATOM     12  C   UNL     1       7.366  -1.572   0.000  0.00  0.00    +0.000 C 
BRANCH  12  13
ATOM     13  N   UNL     1       8.080  -1.984   0.000  0.00  0.00    +0.000 NA
BRANCH  13  14
ATOM     14  C   UNL     1       8.795  -1.572   0.000  0.00  0.00    +0.000 C 
ATOM     15  C   UNL     1       9.509  -1.984   0.000  0.00  0.00    +0.000 C 
ENDBRANCH  13  14
BRANCH  13  16
ATOM     16  C   UNL     1       8.080  -2.809   0.000  0.00  0.00    +0.000 C 
ATOM     17  C   UNL     1       8.795  -3.222   0.000  0.00  0.00    +0.000 C 
ENDBRANCH  13  16
ENDBRANCH  12  13
ENDBRANCH  11  12
ENDBRANCH  10  11
ENDBRANCH   9  10
ENDBRANCH   2   9
BRANCH   3  18
ATOM     18  O   UNL     1       3.793   2.141   0.000  0.00  0.00    +0.000 OA
BRANCH  18  19
ATOM     19  C   UNL     1       3.079   1.728   0.000  0.00  0.00    +0.000 C 
BRANCH  19  20
ATOM     20  C   UNL     1       2.365   2.141   0.000  0.00  0.00    +0.000 C 
ATOM     21  C   UNL     1       1.650   1.728   0.000  0.00  0.00    +0.000 C 
ENDBRANCH  19  20
ENDBRANCH  18  19
ENDBRANCH   3  18
TORSDOF 10
