REMARK  Name = 808
REMARK  3 active torsions:
REMARK  status: ('A' for Active; 'I' for Inactive)
REMARK    1  A    between atoms: S_2  and  C_21
REMARK    2  A    between atoms: N_6  and  N_7
REMARK    3  A    between atoms: C_18  and  C_19
REMARK                            x       y       z     vdW  Elec       q    Type
REMARK                         _______ _______ _______ _____ _____    ______ ____
ROOT
ATOM      1  O   UNL     1       5.474  -0.961   0.000  0.00  0.00    +0.000 OA
ATOM      2  N   UNL     1       4.116  -0.517   0.000  0.00  0.00    +0.000 NA
ATOM      3  C   UNL     1       4.923  -0.347   0.000  0.00  0.00    +0.000 C 
ENDROOT
BRANCH   2   4
ATOM      4  N   UNL     1       3.860  -1.301   0.000  0.00  0.00    +0.000 N 
ATOM      5  C   UNL     1       4.341  -1.965   0.000  0.00  0.00    +0.000 C 
ATOM      6  C   UNL     1       3.860  -2.629   0.000  0.00  0.00    +0.000 C 
ATOM      7  C   UNL     1       3.079  -2.377   0.000  0.00  0.00    +0.000 A 
ATOM      8  C   UNL     1       3.079  -1.552   0.000  0.00  0.00    +0.000 A 
ATOM      9  C   UNL     1       5.166  -1.965   0.000  0.00  0.00    +0.000 C 
ATOM     10  C   UNL     1       2.365  -2.790   0.000  0.00  0.00    +0.000 A 
ATOM     11  C   UNL     1       2.365  -1.140   0.000  0.00  0.00    +0.000 A 
ATOM     12  C   UNL     1       1.650  -2.377   0.000  0.00  0.00    +0.000 A 
ATOM     13  C   UNL     1       1.650  -1.552   0.000  0.00  0.00    +0.000 A 
ENDBRANCH   2   4
BRANCH   3  15
ATOM     14 CL   UNL     1       5.948   2.790   0.000  0.00  0.00    +0.000 Cl
ATOM     15  C   UNL     1       5.179   0.437   0.000  0.00  0.00    +0.000 A 
ATOM     16  C   UNL     1       5.987   0.608   0.000  0.00  0.00    +0.000 A 
ATOM     17  C   UNL     1       6.243   1.392   0.000  0.00  0.00    +0.000 A 
ATOM     18  C   UNL     1       4.628   1.052   0.000  0.00  0.00    +0.000 A 
ATOM     19  C   UNL     1       5.692   2.006   0.000  0.00  0.00    +0.000 A 
ATOM     20  C   UNL     1       4.885   1.836   0.000  0.00  0.00    +0.000 A 
BRANCH  17  21
ATOM     21  S   UNL     1       7.050   1.562   0.000  0.00  0.00    +0.000 S 
ATOM     22  O   UNL     1       6.880   2.369   0.000  0.00  0.00    +0.000 OA
ATOM     23  O   UNL     1       7.221   0.755   0.000  0.00  0.00    +0.000 OA
ATOM     24  N   UNL     1       7.858   1.732   0.000  0.00  0.00    +0.000 NA
ENDBRANCH  17  21
ENDBRANCH   3  15
TORSDOF 3
