REMARK  Name = 809
REMARK  3 active torsions:
REMARK  status: ('A' for Active; 'I' for Inactive)
REMARK    1  A    between atoms: C_9  and  C_10
REMARK    2  A    between atoms: C_10  and  C_11
REMARK    3  A    between atoms: C_18  and  C_19
REMARK                            x       y       z     vdW  Elec       q    Type
REMARK                         _______ _______ _______ _____ _____    ______ ____
ROOT
ATOM      1  O   UNL     1       0.650  -2.295   0.000  0.00  0.00    +0.000 OA
ATOM      2  C   UNL     1       0.822  -1.488   0.000  0.00  0.00    +0.000 C 
ATOM      3  N   UNL     1       1.575  -1.152   0.000  0.00  0.00    +0.000 NA
ATOM      4  C   UNL     1       1.489  -0.332   0.000  0.00  0.00    +0.000 C 
ATOM      5  O   UNL     1       2.102   0.221   0.000  0.00  0.00    +0.000 OA
ATOM      6  C   UNL     1       0.682  -0.160   0.000  0.00  0.00    +0.000 A 
ATOM      7  C   UNL     1       0.270  -0.874   0.000  0.00  0.00    +0.000 A 
ATOM      8  C   UNL     1      -0.555  -0.874   0.000  0.00  0.00    +0.000 A 
ATOM      9  C   UNL     1      -1.108  -1.488   0.000  0.00  0.00    +0.000 A 
ATOM     10  C   UNL     1      -1.861  -1.152   0.000  0.00  0.00    +0.000 A 
ATOM     11  N   UNL     1      -1.775  -0.332   0.000  0.00  0.00    +0.000 N 
ATOM     12  C   UNL     1      -2.388   0.221   0.000  0.00  0.00    +0.000 C 
ATOM     13  C   UNL     1      -0.968  -0.160   0.000  0.00  0.00    +0.000 A 
ATOM     14  C   UNL     1      -0.555   0.554   0.000  0.00  0.00    +0.000 A 
ATOM     15  C   UNL     1       0.270   0.554   0.000  0.00  0.00    +0.000 A 
ENDROOT
BRANCH  15  16
ATOM     16  C   UNL     1       0.682   1.269   0.000  0.00  0.00    +0.000 A 
ATOM     17  C   UNL     1       0.270   1.984   0.000  0.00  0.00    +0.000 A 
ATOM     18  C   UNL     1       1.507   1.269   0.000  0.00  0.00    +0.000 A 
ATOM     19 CL   UNL     1       1.919   0.554   0.000  0.00  0.00    +0.000 Cl
ATOM     20  C   UNL     1       1.919   1.984   0.000  0.00  0.00    +0.000 A 
ATOM     21  C   UNL     1       1.507   2.698   0.000  0.00  0.00    +0.000 A 
ATOM     22  C   UNL     1       0.682   2.698   0.000  0.00  0.00    +0.000 A 
ENDBRANCH  15  16
BRANCH   9  23
ATOM     23  C   UNL     1      -0.936  -2.295   0.000  0.00  0.00    +0.000 C 
BRANCH  23  24
ATOM     24  C   UNL     1      -1.549  -2.846   0.000  0.00  0.00    +0.000 C 
ATOM     25  O   UNL     1      -1.378  -3.654   0.000  0.00  0.00    +0.000 OA
ENDBRANCH  23  24
ENDBRANCH   9  23
TORSDOF 3
