REMARK  Name = 809
REMARK  6 active torsions:
REMARK  status: ('A' for Active; 'I' for Inactive)
REMARK    1  A    between atoms: N_3  and  C_7
REMARK    2  A    between atoms: N_3  and  C_9
REMARK    3  A    between atoms: C_5  and  C_6
REMARK    4  A    between atoms: C_5  and  C_8
REMARK    5  A    between atoms: C_5  and  C_10
REMARK    6  A    between atoms: C_7  and  C_11
REMARK                            x       y       z     vdW  Elec       q    Type
REMARK                         _______ _______ _______ _____ _____    ______ ____
ROOT
ATOM      1  O   UNL     1       4.237  -0.825   0.000  0.00  0.00    +0.000 OA
ATOM      2  N   UNL     1       3.522   0.412   0.000  0.00  0.00    +0.000 N 
ATOM      3  C   UNL     1       3.522  -0.412   0.000  0.00  0.00    +0.000 C 
ENDROOT
BRANCH   2   4
ATOM      4  C   UNL     1       2.808   0.825   0.000  0.00  0.00    +0.000 C 
ATOM      5  C   UNL     1       2.808   1.650   0.000  0.00  0.00    +0.000 C 
ENDBRANCH   2   4
BRANCH   2   6
ATOM      6  C   UNL     1       4.237   0.825   0.000  0.00  0.00    +0.000 C 
BRANCH   6   8
ATOM      7  N   UNL     1       4.237   3.300   0.000  0.00  0.00    +0.000 NA
ATOM      8  C   UNL     1       4.237   1.650   0.000  0.00  0.00    +0.000 A 
ATOM      9  C   UNL     1       4.951   2.062   0.000  0.00  0.00    +0.000 A 
ATOM     10  C   UNL     1       3.522   2.062   0.000  0.00  0.00    +0.000 A 
ATOM     11  C   UNL     1       4.951   2.888   0.000  0.00  0.00    +0.000 A 
ATOM     12  C   UNL     1       3.522   2.888   0.000  0.00  0.00    +0.000 A 
ENDBRANCH   6   8
ENDBRANCH   2   6
BRANCH   3  13
ATOM     13  C   UNL     1       2.808  -0.825   0.000  0.00  0.00    +0.000 C 
BRANCH  13  14
ATOM     14  C   UNL     1       2.808  -1.650   0.000  0.00  0.00    +0.000 A 
ATOM     15  C   UNL     1       3.522  -2.062   0.000  0.00  0.00    +0.000 A 
ATOM     16  C   UNL     1       2.093  -2.062   0.000  0.00  0.00    +0.000 A 
ATOM     17  C   UNL     1       3.522  -2.888   0.000  0.00  0.00    +0.000 A 
ATOM     18  C   UNL     1       2.093  -2.888   0.000  0.00  0.00    +0.000 A 
ATOM     19  C   UNL     1       2.808  -3.300   0.000  0.00  0.00    +0.000 A 
ENDBRANCH  13  14
BRANCH  13  21
ATOM     20  O   UNL     1       2.093   0.412   0.000  0.00  0.00    +0.000 OA
ATOM     21  C   UNL     1       2.093  -0.412   0.000  0.00  0.00    +0.000 C 
ENDBRANCH  13  21
ENDBRANCH   3  13
TORSDOF 6
