REMARK  Name = 80A
REMARK  6 active torsions:
REMARK  status: ('A' for Active; 'I' for Inactive)
REMARK    1  A    between atoms: C_3  and  O_15
REMARK    2  A    between atoms: C_6  and  C_7
REMARK    3  A    between atoms: C_7  and  C_9
REMARK    4  A    between atoms: O_15  and  C_16
REMARK    5  A    between atoms: C_16  and  C_17
REMARK    6  A    between atoms: C_17  and  N_18
REMARK                            x       y       z     vdW  Elec       q    Type
REMARK                         _______ _______ _______ _____ _____    ______ ____
ROOT
ATOM      1  C   UNL     1       0.357   1.211   0.000  0.00  0.00    +0.000 A 
ATOM      2  C   UNL     1       0.185   0.404   0.000  0.00  0.00    +0.000 A 
ATOM      3  C   UNL     1       0.798  -0.148   0.000  0.00  0.00    +0.000 A 
ATOM      4  C   UNL     1       1.583   0.107   0.000  0.00  0.00    +0.000 A 
ATOM      5  C   UNL     1       1.755   0.914   0.000  0.00  0.00    +0.000 A 
ATOM      6  C   UNL     1       1.142   1.466   0.000  0.00  0.00    +0.000 A 
ENDROOT
BRANCH   6   7
ATOM      7  C   UNL     1       1.313   2.273   0.000  0.00  0.00    +0.000 C 
ATOM      8  O   UNL     1       0.700   2.825   0.000  0.00  0.00    +0.000 OA
BRANCH   7   9
ATOM      9  C   UNL     1       2.098   2.528   0.000  0.00  0.00    +0.000 A 
ATOM     10  C   UNL     1       2.711   1.976   0.000  0.00  0.00    +0.000 A 
ATOM     11  C   UNL     1       3.495   2.231   0.000  0.00  0.00    +0.000 A 
ATOM     12  N   UNL     1       3.667   3.038   0.000  0.00  0.00    +0.000 NA
ATOM     13  C   UNL     1       3.054   3.590   0.000  0.00  0.00    +0.000 A 
ATOM     14  C   UNL     1       2.269   3.335   0.000  0.00  0.00    +0.000 A 
ENDBRANCH   7   9
ENDBRANCH   6   7
BRANCH   3  15
ATOM     15  O   UNL     1       0.627  -0.955   0.000  0.00  0.00    +0.000 OA
BRANCH  15  16
ATOM     16  C   UNL     1      -0.158  -1.210   0.000  0.00  0.00    +0.000 C 
BRANCH  16  17
ATOM     17  C   UNL     1      -0.329  -2.017   0.000  0.00  0.00    +0.000 C 
BRANCH  17  18
ATOM     18  N   UNL     1      -1.114  -2.272   0.000  0.00  0.00    +0.000 NA
ATOM     19  C   UNL     1      -1.369  -3.057   0.000  0.00  0.00    +0.000 C 
ATOM     20  C   UNL     1      -2.194  -3.057   0.000  0.00  0.00    +0.000 C 
ATOM     21  C   UNL     1      -2.449  -2.272   0.000  0.00  0.00    +0.000 C 
ATOM     22  C   UNL     1      -1.781  -1.787   0.000  0.00  0.00    +0.000 C 
ENDBRANCH  17  18
ENDBRANCH  16  17
ENDBRANCH  15  16
ENDBRANCH   3  15
TORSDOF 6
