REMARK  Name = 811
REMARK  3 active torsions:
REMARK  status: ('A' for Active; 'I' for Inactive)
REMARK    1  A    between atoms: N_6  and  C1*_13
REMARK    2  A    between atoms: C4*_12  and  C5*_14
REMARK    3  A    between atoms: C_16  and  C_17
REMARK                            x       y       z     vdW  Elec       q    Type
REMARK                         _______ _______ _______ _____ _____    ______ ____
ROOT
ATOM      1  O4* UNL     1       4.150  -1.248   0.000  0.00  0.00    +0.000 OA
ATOM      2  O2* UNL     1       2.030  -0.993   0.000  0.00  0.00    +0.000 OA
ATOM      3  O3* UNL     1       2.585  -2.700   0.000  0.00  0.00    +0.000 OA
ATOM      4  C3* UNL     1       3.070  -2.032   0.000  0.00  0.00    +0.000 C 
ATOM      5  C2* UNL     1       2.815  -1.248   0.000  0.00  0.00    +0.000 C 
ATOM      6  C4* UNL     1       3.895  -2.032   0.000  0.00  0.00    +0.000 C 
ATOM      7  C1* UNL     1       3.482  -0.763   0.000  0.00  0.00    +0.000 C 
ENDROOT
BRANCH   7   8
ATOM      8  N   UNL     1       3.482   0.062   0.000  0.00  0.00    +0.000 N 
ATOM      9  N   UNL     1       4.150   0.547   0.000  0.00  0.00    +0.000 NA
ATOM     10  N   UNL     1       3.070   1.332   0.000  0.00  0.00    +0.000 NA
ATOM     11  C   UNL     1       2.815   0.547   0.000  0.00  0.00    +0.000 A 
ATOM     12  C   UNL     1       3.895   1.332   0.000  0.00  0.00    +0.000 A 
BRANCH  12  15
ATOM     13  O   UNL     1       5.200   1.913   0.000  0.00  0.00    +0.000 OA
ATOM     14  N   UNL     1       4.044   2.753   0.000  0.00  0.00    +0.000 NA
ATOM     15  C   UNL     1       4.380   1.999   0.000  0.00  0.00    +0.000 C 
ENDBRANCH  12  15
ENDBRANCH   7   8
BRANCH   6  17
ATOM     16  O5* UNL     1       5.200  -2.613   0.000  0.00  0.00    +0.000 OA
ATOM     17  C5* UNL     1       4.380  -2.700   0.000  0.00  0.00    +0.000 C 
ENDBRANCH   6  17
TORSDOF 3
