REMARK  Name = 812
REMARK  6 active torsions:
REMARK  status: ('A' for Active; 'I' for Inactive)
REMARK    1  A    between atoms: C_5  and  C_6
REMARK    2  A    between atoms: C_6  and  O_7
REMARK    3  A    between atoms: O_7  and  C_8
REMARK    4  A    between atoms: C_11  and  N_14
REMARK    5  A    between atoms: N_14  and  C_15
REMARK    6  A    between atoms: C_15  and  C_16
REMARK                            x       y       z     vdW  Elec       q    Type
REMARK                         _______ _______ _______ _____ _____    ______ ____
ROOT
ATOM      1  C   UNL     1       0.191   0.868   0.000  0.00  0.00    +0.000 A 
ATOM      2  C   UNL     1      -0.630   0.954   0.000  0.00  0.00    +0.000 A 
ATOM      3  C   UNL     1      -1.115   0.287   0.000  0.00  0.00    +0.000 A 
ATOM      4  C   UNL     1      -0.779  -0.467   0.000  0.00  0.00    +0.000 A 
ATOM      5  C   UNL     1       0.041  -0.553   0.000  0.00  0.00    +0.000 A 
ATOM      6  C   UNL     1       0.526   0.115   0.000  0.00  0.00    +0.000 A 
ENDROOT
BRANCH   1   7
ATOM      7  O   UNL     1       0.675   1.536   0.000  0.00  0.00    +0.000 OA
BRANCH   7   8
ATOM      8  C   UNL     1       1.496   1.449   0.000  0.00  0.00    +0.000 C 
BRANCH   8  13
ATOM      9  C   UNL     1       2.393   3.386   0.000  0.00  0.00    +0.000 C 
ATOM     10  N   UNL     1       1.726   2.901   0.000  0.00  0.00    +0.000 NA
ATOM     11  C   UNL     1       3.061   2.901   0.000  0.00  0.00    +0.000 C 
ATOM     12  C   UNL     1       2.806   2.117   0.000  0.00  0.00    +0.000 C 
ATOM     13  C   UNL     1       1.981   2.117   0.000  0.00  0.00    +0.000 C 
ENDBRANCH   8  13
ENDBRANCH   7   8
ENDBRANCH   1   7
BRANCH   4  14
ATOM     14  N   UNL     1      -1.264  -1.134   0.000  0.00  0.00    +0.000 NA
BRANCH  14  15
ATOM     15  C   UNL     1      -0.929  -1.888   0.000  0.00  0.00    +0.000 C 
BRANCH  15  16
ATOM     16  C   UNL     1      -1.414  -2.555   0.000  0.00  0.00    +0.000 A 
ATOM     17  C   UNL     1      -1.078  -3.309   0.000  0.00  0.00    +0.000 A 
ATOM     18  C   UNL     1      -1.563  -3.976   0.000  0.00  0.00    +0.000 A 
ATOM     19  C   UNL     1      -2.384  -3.890   0.000  0.00  0.00    +0.000 A 
ATOM     20  C   UNL     1      -2.719  -3.136   0.000  0.00  0.00    +0.000 A 
ATOM     21  C   UNL     1      -2.234  -2.469   0.000  0.00  0.00    +0.000 A 
ENDBRANCH  15  16
ENDBRANCH  14  15
ENDBRANCH   4  14
TORSDOF 6
