REMARK  Name = 812
REMARK  5 active torsions:
REMARK  status: ('A' for Active; 'I' for Inactive)
REMARK    1  A    between atoms: N_3  and  C_11
REMARK    2  A    between atoms: N_4  and  C_12
REMARK    3  A    between atoms: C_5  and  C_6
REMARK    4  A    between atoms: C_6  and  C_9
REMARK    5  A    between atoms: C_9  and  C_10
REMARK                            x       y       z     vdW  Elec       q    Type
REMARK                         _______ _______ _______ _____ _____    ______ ____
ROOT
ATOM      1  O   UNL     1       3.999   1.119   0.000  0.00  0.00    +0.000 OA
ATOM      2  O   UNL     1       1.650  -0.588   0.000  0.00  0.00    +0.000 OA
ATOM      3  N   UNL     1       3.769  -0.334   0.000  0.00  0.00    +0.000 N 
ATOM      4  N   UNL     1       3.102  -0.818   0.000  0.00  0.00    +0.000 N 
ATOM      5  C   UNL     1       2.690   0.451   0.000  0.00  0.00    +0.000 C 
ATOM      6  C   UNL     1       3.515   0.451   0.000  0.00  0.00    +0.000 C 
ATOM      7  C   UNL     1       2.435  -0.334   0.000  0.00  0.00    +0.000 C 
ENDROOT
BRANCH   3   8
ATOM      8  C   UNL     1       4.554  -0.588   0.000  0.00  0.00    +0.000 A 
ATOM      9  C   UNL     1       5.167  -0.036   0.000  0.00  0.00    +0.000 A 
ATOM     10  C   UNL     1       4.726  -1.395   0.000  0.00  0.00    +0.000 A 
ATOM     11  C   UNL     1       5.952  -0.291   0.000  0.00  0.00    +0.000 A 
ATOM     12  C   UNL     1       5.510  -1.650   0.000  0.00  0.00    +0.000 A 
ATOM     13  C   UNL     1       6.123  -1.098   0.000  0.00  0.00    +0.000 A 
ENDBRANCH   3   8
BRANCH   4  14
ATOM     14  C   UNL     1       3.102  -1.643   0.000  0.00  0.00    +0.000 A 
ATOM     15  C   UNL     1       3.817  -2.056   0.000  0.00  0.00    +0.000 A 
ATOM     16  C   UNL     1       2.388  -2.056   0.000  0.00  0.00    +0.000 A 
ATOM     17  C   UNL     1       3.817  -2.881   0.000  0.00  0.00    +0.000 A 
ATOM     18  C   UNL     1       2.388  -2.881   0.000  0.00  0.00    +0.000 A 
ATOM     19  C   UNL     1       3.102  -3.293   0.000  0.00  0.00    +0.000 A 
ENDBRANCH   4  14
BRANCH   5  20
ATOM     20  C   UNL     1       2.205   1.119   0.000  0.00  0.00    +0.000 C 
BRANCH  20  21
ATOM     21  C   UNL     1       2.540   1.872   0.000  0.00  0.00    +0.000 C 
BRANCH  21  22
ATOM     22  C   UNL     1       2.055   2.540   0.000  0.00  0.00    +0.000 C 
ATOM     23  C   UNL     1       2.391   3.293   0.000  0.00  0.00    +0.000 C 
ENDBRANCH  21  22
ENDBRANCH  20  21
ENDBRANCH   5  20
TORSDOF 5
