REMARK  Name = 815
REMARK  5 active torsions:
REMARK  status: ('A' for Active; 'I' for Inactive)
REMARK    1  A    between atoms: C_6  and  C_31
REMARK    2  A    between atoms: C_18  and  S_26
REMARK    3  A    between atoms: N_20  and  C_31
REMARK    4  A    between atoms: C_22  and  N_25
REMARK    5  A    between atoms: N_25  and  S_26
REMARK                            x       y       z     vdW  Elec       q    Type
REMARK                         _______ _______ _______ _____ _____    ______ ____
ROOT
ATOM      1  N   UNL     1      -1.461   0.207   0.000  0.00  0.00    +0.000 N 
ATOM      2  C   UNL     1      -1.289   1.014   0.000  0.00  0.00    +0.000 C 
ATOM      3  C   UNL     1      -0.469   1.100   0.000  0.00  0.00    +0.000 C 
ATOM      4  C   UNL     1      -0.133   0.346   0.000  0.00  0.00    +0.000 C 
ATOM      5  C   UNL     1      -0.746  -0.206   0.000  0.00  0.00    +0.000 C 
ATOM      6  O   UNL     1      -1.841   1.627   0.000  0.00  0.00    +0.000 OA
ENDROOT
BRANCH   3   7
ATOM      7  N   UNL     1      -0.056   1.814   0.000  0.00  0.00    +0.000 NA
BRANCH   7   8
ATOM      8  S   UNL     1       0.769   1.814   0.000  0.00  0.00    +0.000 S 
ATOM      9  O   UNL     1       0.769   0.989   0.000  0.00  0.00    +0.000 OA
ATOM     10  O   UNL     1       0.769   2.639   0.000  0.00  0.00    +0.000 OA
BRANCH   8  18
ATOM     11  C   UNL     1       2.863   2.227   0.000  0.00  0.00    +0.000 A 
ATOM     12  C   UNL     1       3.578   2.639   0.000  0.00  0.00    +0.000 A 
ATOM     13  C   UNL     1       4.292   2.227   0.000  0.00  0.00    +0.000 A 
ATOM     14  C   UNL     1       4.292   1.402   0.000  0.00  0.00    +0.000 A 
ATOM     15  N   UNL     1       3.578   0.989   0.000  0.00  0.00    +0.000 NA
ATOM     16  C   UNL     1       2.863   1.402   0.000  0.00  0.00    +0.000 A 
ATOM     17  C   UNL     1       2.079   1.147   0.000  0.00  0.00    +0.000 A 
ATOM     18  C   UNL     1       1.594   1.814   0.000  0.00  0.00    +0.000 A 
ATOM     19  S   UNL     1       2.079   2.482   0.000  0.00  0.00    +0.000 S 
ENDBRANCH   8  18
ENDBRANCH   7   8
ENDBRANCH   3   7
BRANCH   1  20
ATOM     20  C   UNL     1      -2.214  -0.129   0.000  0.00  0.00    +0.000 C 
BRANCH  20  26
ATOM     21  C   UNL     1      -3.054  -1.285   0.000  0.00  0.00    +0.000 A 
ATOM     22  C   UNL     1      -3.141  -2.106   0.000  0.00  0.00    +0.000 A 
ATOM     23  C   UNL     1      -2.473  -2.590   0.000  0.00  0.00    +0.000 A 
ATOM     24  C   UNL     1      -1.719  -2.255   0.000  0.00  0.00    +0.000 A 
ATOM     25  C   UNL     1      -1.633  -1.434   0.000  0.00  0.00    +0.000 A 
ATOM     26  C   UNL     1      -2.301  -0.950   0.000  0.00  0.00    +0.000 A 
ATOM     27  C   UNL     1      -2.559  -3.411   0.000  0.00  0.00    +0.000 A 
ATOM     28  C   UNL     1      -1.892  -3.896   0.000  0.00  0.00    +0.000 A 
ATOM     29  N   UNL     1      -1.138  -3.560   0.000  0.00  0.00    +0.000 NA
ATOM     30  C   UNL     1      -1.052  -2.740   0.000  0.00  0.00    +0.000 A 
ATOM     31  N   UNL     1      -0.298  -2.404   0.000  0.00  0.00    +0.000 NA
ENDBRANCH  20  26
ENDBRANCH   1  20
TORSDOF 5
