REMARK  Name = 817
REMARK  4 active torsions:
REMARK  status: ('A' for Active; 'I' for Inactive)
REMARK    1  A    between atoms: C_2  and  S_12
REMARK    2  A    between atoms: C_5  and  C_13
REMARK    3  A    between atoms: C_8  and  C_15
REMARK    4  A    between atoms: S_12  and  C_13
REMARK                            x       y       z     vdW  Elec       q    Type
REMARK                         _______ _______ _______ _____ _____    ______ ____
ROOT
ATOM      1  C   UNL     1       1.077  -0.375   0.000  0.00  0.00    +0.000 A 
ATOM      2  C   UNL     1       1.792  -1.613   0.000  0.00  0.00    +0.000 A 
ATOM      3  C   UNL     1       2.506  -1.200   0.000  0.00  0.00    +0.000 A 
ATOM      4  C   UNL     1       1.792   0.037   0.000  0.00  0.00    +0.000 A 
ATOM      5  C   UNL     1       1.077  -1.200   0.000  0.00  0.00    +0.000 A 
ATOM      6  C   UNL     1       2.506  -0.375   0.000  0.00  0.00    +0.000 A 
ENDROOT
BRANCH   6   7
ATOM      7  C   UNL     1       3.220   0.037   0.000  0.00  0.00    +0.000 C 
ATOM      8  F   UNL     1       3.935   0.450   0.000  0.00  0.00    +0.000 F 
ATOM      9  F   UNL     1       3.633  -0.677   0.000  0.00  0.00    +0.000 F 
ATOM     10  F   UNL     1       2.808   0.752   0.000  0.00  0.00    +0.000 F 
ENDBRANCH   6   7
BRANCH   1  11
ATOM     11  C   UNL     1       0.363   0.037   0.000  0.00  0.00    +0.000 C 
BRANCH  11  12
ATOM     12  S   UNL     1      -0.352  -0.375   0.000  0.00  0.00    +0.000 S 
BRANCH  12  14
ATOM     13  N   UNL     1      -3.210  -0.375   0.000  0.00  0.00    +0.000 NA
ATOM     14  C   UNL     1      -1.066   0.037   0.000  0.00  0.00    +0.000 C 
ATOM     15  N   UNL     1      -2.495   0.863   0.000  0.00  0.00    +0.000 NA
ATOM     16  N   UNL     1      -1.781  -0.375   0.000  0.00  0.00    +0.000 NA
ATOM     17  C   UNL     1      -2.495   0.037   0.000  0.00  0.00    +0.000 C 
ATOM     18  N   UNL     1      -1.066   0.863   0.000  0.00  0.00    +0.000 NA
ENDBRANCH  12  14
ENDBRANCH  11  12
ENDBRANCH   1  11
TORSDOF 4
