REMARK  Name = 817
REMARK  3 active torsions:
REMARK  status: ('A' for Active; 'I' for Inactive)
REMARK    1  A    between atoms: N_4  and  C_8
REMARK    2  A    between atoms: C_10  and  C_16
REMARK    3  A    between atoms: C_13  and  C_18
REMARK                            x       y       z     vdW  Elec       q    Type
REMARK                         _______ _______ _______ _____ _____    ______ ____
ROOT
ATOM      1  O   UNL     1       4.236   1.868   0.000  0.00  0.00    +0.000 OA
ATOM      2  N   UNL     1       4.236  -0.608   0.000  0.00  0.00    +0.000 N 
ATOM      3  C   UNL     1       4.951  -0.195   0.000  0.00  0.00    +0.000 A 
ATOM      4  C   UNL     1       4.951   0.630   0.000  0.00  0.00    +0.000 A 
ATOM      5  C   UNL     1       5.688  -0.636   0.000  0.00  0.00    +0.000 A 
ATOM      6  C   UNL     1       6.436  -0.212   0.000  0.00  0.00    +0.000 A 
ATOM      7  C   UNL     1       3.522  -0.195   0.000  0.00  0.00    +0.000 A 
ATOM      8  C   UNL     1       4.236   1.043   0.000  0.00  0.00    +0.000 A 
ATOM      9  C   UNL     1       3.522   0.630   0.000  0.00  0.00    +0.000 A 
ATOM     10  C   UNL     1       5.688   1.071   0.000  0.00  0.00    +0.000 A 
ATOM     11  C   UNL     1       6.436   0.647   0.000  0.00  0.00    +0.000 A 
ENDROOT
BRANCH   6  13
ATOM     12  N   UNL     1       8.575  -1.458   0.000  0.00  0.00    +0.000 NA
ATOM     13  C   UNL     1       7.149  -0.627   0.000  0.00  0.00    +0.000 A 
ATOM     14  C   UNL     1       7.865  -0.218   0.000  0.00  0.00    +0.000 A 
ATOM     15  C   UNL     1       7.146  -1.452   0.000  0.00  0.00    +0.000 A 
ATOM     16  C   UNL     1       8.578  -0.633   0.000  0.00  0.00    +0.000 A 
ATOM     17  C   UNL     1       7.859  -1.868   0.000  0.00  0.00    +0.000 A 
ENDBRANCH   6  13
BRANCH   9  20
ATOM     18  O   UNL     1       2.093   0.630   0.000  0.00  0.00    +0.000 OA
ATOM     19  O   UNL     1       2.808   1.868   0.000  0.00  0.00    +0.000 OA
ATOM     20  C   UNL     1       2.808   1.043   0.000  0.00  0.00    +0.000 C 
ENDBRANCH   9  20
BRANCH   2  21
ATOM     21  C   UNL     1       4.236  -1.433   0.000  0.00  0.00    +0.000 C 
ATOM     22  C   UNL     1       3.522  -1.845   0.000  0.00  0.00    +0.000 C 
ENDBRANCH   2  21
TORSDOF 3
