REMARK  Name = 818
REMARK  2 active torsions:
REMARK  status: ('A' for Active; 'I' for Inactive)
REMARK    1  A    between atoms: C_2  and  C_4
REMARK    2  A    between atoms: C_3  and  C_5
REMARK                            x       y       z     vdW  Elec       q    Type
REMARK                         _______ _______ _______ _____ _____    ______ ____
ROOT
ATOM      1  O   UNL     1       3.793   1.110   0.000  0.00  0.00    +0.000 OA
ATOM      2  C   UNL     1       4.508  -0.128   0.000  0.00  0.00    +0.000 A 
ATOM      3  C   UNL     1       3.079  -0.128   0.000  0.00  0.00    +0.000 A 
ATOM      4  C   UNL     1       3.793   0.285   0.000  0.00  0.00    +0.000 A 
ATOM      5  C   UNL     1       4.508  -0.953   0.000  0.00  0.00    +0.000 A 
ATOM      6  C   UNL     1       3.079  -0.953   0.000  0.00  0.00    +0.000 A 
ATOM      7  C   UNL     1       3.793  -1.365   0.000  0.00  0.00    +0.000 A 
ENDROOT
BRANCH   2   8
ATOM      8  C   UNL     1       5.222   0.285   0.000  0.00  0.00    +0.000 C 
ATOM      9  C   UNL     1       5.937  -0.128   0.000  0.00  0.00    +0.000 C 
ATOM     10  C   UNL     1       5.222   1.110   0.000  0.00  0.00    +0.000 C 
ENDBRANCH   2   8
BRANCH   3  11
ATOM     11  C   UNL     1       2.365   0.285   0.000  0.00  0.00    +0.000 C 
ATOM     12  C   UNL     1       1.650  -0.128   0.000  0.00  0.00    +0.000 C 
ATOM     13  C   UNL     1       2.365   1.110   0.000  0.00  0.00    +0.000 C 
ENDBRANCH   3  11
TORSDOF 2
