REMARK  Name = 819
REMARK  1 active torsions:
REMARK  status: ('A' for Active; 'I' for Inactive)
REMARK    1  A    between atoms: S_1  and  C_10
REMARK                            x       y       z     vdW  Elec       q    Type
REMARK                         _______ _______ _______ _____ _____    ______ ____
ROOT
ATOM      1  S   UNL     1       4.500  -0.517   0.000  0.00  0.00    +0.000 S 
ATOM      2  O   UNL     1       2.606   1.072   0.000  0.00  0.00    +0.000 OA
ATOM      3  N   UNL     1       3.048  -0.287   0.000  0.00  0.00    +0.000 NA
ATOM      4  N   UNL     1       4.912   0.752   0.000  0.00  0.00    +0.000 NA
ATOM      5  N   UNL     1       4.087   0.752   0.000  0.00  0.00    +0.000 NA
ATOM      6  C   UNL     1       5.167  -0.032   0.000  0.00  0.00    +0.000 A 
ATOM      7  C   UNL     1       3.832  -0.032   0.000  0.00  0.00    +0.000 A 
ATOM      8  C   UNL     1       2.435   0.265   0.000  0.00  0.00    +0.000 C 
ATOM      9  C   UNL     1       1.650   0.010   0.000  0.00  0.00    +0.000 C 
ENDROOT
BRANCH   6  10
ATOM     10  S   UNL     1       5.952  -0.287   0.000  0.00  0.00    +0.000 S 
ATOM     11  O   UNL     1       5.697  -1.072   0.000  0.00  0.00    +0.000 OA
ATOM     12  O   UNL     1       6.207   0.497   0.000  0.00  0.00    +0.000 OA
ATOM     13  N   UNL     1       6.737  -0.542   0.000  0.00  0.00    +0.000 NA
ENDBRANCH   6  10
TORSDOF 1
