REMARK  Name = 820
REMARK  1 active torsions:
REMARK  status: ('A' for Active; 'I' for Inactive)
REMARK    1  A    between atoms: C_9  and  C_16
REMARK                            x       y       z     vdW  Elec       q    Type
REMARK                         _______ _______ _______ _____ _____    ______ ____
ROOT
ATOM      1  O   UNL     1       7.291   0.526   0.000  0.00  0.00    +0.000 OA
ATOM      2  O   UNL     1       4.383   2.205   0.000  0.00  0.00    +0.000 OA
ATOM      3  N   UNL     1       5.116   0.941   0.000  0.00  0.00    +0.000 N 
ATOM      4  N   UNL     1       3.793  -0.847   0.000  0.00  0.00    +0.000 NA
ATOM      5  N   UNL     1       6.588   1.806   0.000  0.00  0.00    +0.000 N 
ATOM      6  C   UNL     1       5.830   0.529   0.000  0.00  0.00    +0.000 C 
ATOM      7  C   UNL     1       4.402   0.529   0.000  0.00  0.00    +0.000 C 
ATOM      8  C   UNL     1       5.830  -0.296   0.000  0.00  0.00    +0.000 C 
ATOM      9  C   UNL     1       4.402  -0.296   0.000  0.00  0.00    +0.000 A 
ATOM     10  C   UNL     1       5.116  -0.709   0.000  0.00  0.00    +0.000 A 
ATOM     11  C   UNL     1       6.581   0.947   0.000  0.00  0.00    +0.000 C 
ATOM     12  C   UNL     1       4.943  -1.510   0.000  0.00  0.00    +0.000 A 
ATOM     13  C   UNL     1       5.103   1.800   0.000  0.00  0.00    +0.000 C 
ATOM     14  C   UNL     1       5.844   2.236   0.000  0.00  0.00    +0.000 C 
ATOM     15  C   UNL     1       4.128  -1.595   0.000  0.00  0.00    +0.000 A 
ATOM     16  C   UNL     1       5.455  -2.194   0.000  0.00  0.00    +0.000 A 
ATOM     17  C   UNL     1       3.768  -2.370   0.000  0.00  0.00    +0.000 A 
ATOM     18  C   UNL     1       7.304   2.216   0.000  0.00  0.00    +0.000 C 
ATOM     19  C   UNL     1       5.113  -2.977   0.000  0.00  0.00    +0.000 A 
ATOM     20  C   UNL     1       4.264  -3.066   0.000  0.00  0.00    +0.000 A 
ENDROOT
BRANCH   7  23
ATOM     21  O   UNL     1       2.800   2.981   0.000  0.00  0.00    +0.000 OA
ATOM     22  O   UNL     1       1.650   2.317   0.000  0.00  0.00    +0.000 OA
ATOM     23  C   UNL     1       3.687   0.941   0.000  0.00  0.00    +0.000 A 
ATOM     24  C   UNL     1       3.687   1.766   0.000  0.00  0.00    +0.000 A 
ATOM     25  C   UNL     1       2.973   0.529   0.000  0.00  0.00    +0.000 A 
ATOM     26  C   UNL     1       2.973   2.179   0.000  0.00  0.00    +0.000 A 
ATOM     27  C   UNL     1       2.258   0.941   0.000  0.00  0.00    +0.000 A 
ATOM     28  C   UNL     1       2.258   1.766   0.000  0.00  0.00    +0.000 A 
ATOM     29  C   UNL     1       1.984   3.066   0.000  0.00  0.00    +0.000 C 
ENDBRANCH   7  23
TORSDOF 1
