REMARK  Name = 821
REMARK  2 active torsions:
REMARK  status: ('A' for Active; 'I' for Inactive)
REMARK    1  A    between atoms: C_8  and  C_10
REMARK    2  A    between atoms: C_10  and  C_18
REMARK                            x       y       z     vdW  Elec       q    Type
REMARK                         _______ _______ _______ _____ _____    ______ ____
ROOT
ATOM      1 CL   UNL     1       1.584  -1.378   0.000  0.00  0.00    +0.000 Cl
ATOM      2  N   UNL     1       3.859   0.887   0.000  0.00  0.00    +0.000 NA
ATOM      3  C   UNL     1       4.255  -0.332   0.000  0.00  0.00    +0.000 A 
ATOM      4  C   UNL     1       4.500   0.422   0.000  0.00  0.00    +0.000 A 
ATOM      5  C   UNL     1       3.463  -0.332   0.000  0.00  0.00    +0.000 A 
ATOM      6  C   UNL     1       5.861  -0.003   0.000  0.00  0.00    +0.000 A 
ATOM      7  C   UNL     1       3.218   0.422   0.000  0.00  0.00    +0.000 A 
ATOM      8  C   UNL     1       5.304   0.606   0.000  0.00  0.00    +0.000 A 
ATOM      9  C   UNL     1       4.797  -0.953   0.000  0.00  0.00    +0.000 A 
ATOM     10  C   UNL     1       5.606  -0.788   0.000  0.00  0.00    +0.000 A 
ATOM     11  C   UNL     1       2.920  -0.953   0.000  0.00  0.00    +0.000 A 
ATOM     12  C   UNL     1       2.414   0.606   0.000  0.00  0.00    +0.000 A 
ATOM     13  C   UNL     1       2.112  -0.788   0.000  0.00  0.00    +0.000 A 
ATOM     14  C   UNL     1       1.857  -0.003   0.000  0.00  0.00    +0.000 A 
ENDROOT
BRANCH   6  15
ATOM     15  C   UNL     1       6.635   0.165   0.000  0.00  0.00    +0.000 C 
ATOM     16  C   UNL     1       6.877   0.919   0.000  0.00  0.00    +0.000 C 
BRANCH  15  19
ATOM     17  O   UNL     1       7.941  -0.254   0.000  0.00  0.00    +0.000 OA
ATOM     18  O   UNL     1       6.925  -1.176   0.000  0.00  0.00    +0.000 OA
ATOM     19  C   UNL     1       7.167  -0.422   0.000  0.00  0.00    +0.000 C 
ENDBRANCH  15  19
ENDBRANCH   6  15
TORSDOF 2
