REMARK  Name = 822
REMARK  9 active torsions:
REMARK  status: ('A' for Active; 'I' for Inactive)
REMARK    1  A    between atoms: S_1  and  S_2
REMARK    2  A    between atoms: S_1  and  C_15
REMARK    3  A    between atoms: S_2  and  C_16
REMARK    4  A    between atoms: N_5  and  C_7
REMARK    5  A    between atoms: N_5  and  C_8
REMARK    6  A    between atoms: N_5  and  C_15
REMARK    7  A    between atoms: N_6  and  C_9
REMARK    8  A    between atoms: N_6  and  C_10
REMARK    9  A    between atoms: N_6  and  C_16
REMARK                            x       y       z     vdW  Elec       q    Type
REMARK                         _______ _______ _______ _____ _____    ______ ____
ROOT
ATOM      1  S   UNL     1       5.222   0.206   0.000  0.00  0.00    +0.000 S 
ENDROOT
BRANCH   1   3
ATOM      2  S   UNL     1       5.936  -1.031   0.000  0.00  0.00    +0.000 S 
ATOM      3  C   UNL     1       5.936  -0.206   0.000  0.00  0.00    +0.000 C 
BRANCH   3   4
ATOM      4  N   UNL     1       6.651   0.206   0.000  0.00  0.00    +0.000 N 
BRANCH   4   5
ATOM      5  C   UNL     1       7.365  -0.206   0.000  0.00  0.00    +0.000 C 
ATOM      6  C   UNL     1       8.080   0.206   0.000  0.00  0.00    +0.000 C 
ENDBRANCH   4   5
BRANCH   4   7
ATOM      7  C   UNL     1       6.651   1.031   0.000  0.00  0.00    +0.000 C 
ATOM      8  C   UNL     1       7.365   1.444   0.000  0.00  0.00    +0.000 C 
ENDBRANCH   4   7
ENDBRANCH   3   4
ENDBRANCH   1   3
BRANCH   1   9
ATOM      9  S   UNL     1       4.508  -0.206   0.000  0.00  0.00    +0.000 S 
BRANCH   9  11
ATOM     10  S   UNL     1       3.793   1.031   0.000  0.00  0.00    +0.000 S 
ATOM     11  C   UNL     1       3.793   0.206   0.000  0.00  0.00    +0.000 C 
BRANCH  11  12
ATOM     12  N   UNL     1       3.079  -0.206   0.000  0.00  0.00    +0.000 N 
BRANCH  12  13
ATOM     13  C   UNL     1       2.364   0.206   0.000  0.00  0.00    +0.000 C 
ATOM     14  C   UNL     1       1.650  -0.206   0.000  0.00  0.00    +0.000 C 
ENDBRANCH  12  13
BRANCH  12  15
ATOM     15  C   UNL     1       3.079  -1.031   0.000  0.00  0.00    +0.000 C 
ATOM     16  C   UNL     1       2.364  -1.444   0.000  0.00  0.00    +0.000 C 
ENDBRANCH  12  15
ENDBRANCH  11  12
ENDBRANCH   9  11
ENDBRANCH   1   9
TORSDOF 9
