REMARK  Name = 8226
REMARK  4 active torsions:
REMARK  status: ('A' for Active; 'I' for Inactive)
REMARK    1  A    between atoms: N_5  and  CA_22
REMARK    2  A    between atoms: C_9  and  C_17
REMARK    3  A    between atoms: CA_22  and  C_23
REMARK    4  A    between atoms: CA_22  and  C_24
REMARK                            x       y       z     vdW  Elec       q    Type
REMARK                         _______ _______ _______ _____ _____    ______ ____
ROOT
ATOM      1  N   UNL     1       5.999   0.257   0.000  0.00  0.00    +0.000 NA
ATOM      2  N   UNL     1       6.814  -3.200   0.000  0.00  0.00    +0.000 NA
ATOM      3  C   UNL     1       5.986  -0.602   0.000  0.00  0.00    +0.000 C 
ATOM      4  C   UNL     1       5.271  -1.015   0.000  0.00  0.00    +0.000 C 
ATOM      5  C   UNL     1       6.700  -1.015   0.000  0.00  0.00    +0.000 C 
ATOM      6  C   UNL     1       4.514   0.263   0.000  0.00  0.00    +0.000 C 
ATOM      7  C   UNL     1       5.258   0.693   0.000  0.00  0.00    +0.000 C 
ATOM      8  C   UNL     1       6.700  -1.840   0.000  0.00  0.00    +0.000 A 
ATOM      9  C   UNL     1       5.271  -1.840   0.000  0.00  0.00    +0.000 A 
ATOM     10  C   UNL     1       5.986  -2.252   0.000  0.00  0.00    +0.000 A 
ATOM     11  C   UNL     1       4.521  -0.597   0.000  0.00  0.00    +0.000 C 
ATOM     12  C   UNL     1       5.999  -3.111   0.000  0.00  0.00    +0.000 A 
ATOM     13  C   UNL     1       6.718   0.661   0.000  0.00  0.00    +0.000 C 
ATOM     14  C   UNL     1       7.210  -2.482   0.000  0.00  0.00    +0.000 A 
ATOM     15  C   UNL     1       4.521  -2.258   0.000  0.00  0.00    +0.000 A 
ATOM     16  C   UNL     1       5.258  -3.547   0.000  0.00  0.00    +0.000 A 
ATOM     17  C   UNL     1       4.514  -3.117   0.000  0.00  0.00    +0.000 A 
ENDROOT
BRANCH   6  20
ATOM     18  O   UNL     1       3.085   0.257   0.000  0.00  0.00    +0.000 OA
ATOM     19  N   UNL     1       3.795   1.498   0.000  0.00  0.00    +0.000 NA
ATOM     20  C   UNL     1       3.798   0.673   0.000  0.00  0.00    +0.000 C 
BRANCH  19  21
ATOM     21  CA  UNL     1       3.079   1.907   0.000  0.00  0.00    +0.000 C 
BRANCH  21  23
ATOM     22  O   UNL     1       2.360   3.142   0.000  0.00  0.00    +0.000 OA
ATOM     23  C   UNL     1       3.076   2.732   0.000  0.00  0.00    +0.000 C 
ENDBRANCH  21  23
BRANCH  21  24
ATOM     24  C   UNL     1       2.366   1.492   0.000  0.00  0.00    +0.000 C 
ATOM     25  C   UNL     1       1.650   1.902   0.000  0.00  0.00    +0.000 C 
ENDBRANCH  21  24
ENDBRANCH  19  21
ENDBRANCH   6  20
TORSDOF 4
