REMARK  Name = 823
REMARK  5 active torsions:
REMARK  status: ('A' for Active; 'I' for Inactive)
REMARK    1  A    between atoms: O_1  and  C_9
REMARK    2  A    between atoms: O_1  and  C_24
REMARK    3  A    between atoms: O_2  and  C_23
REMARK    4  A    between atoms: O_2  and  C_27
REMARK    5  A    between atoms: C_9  and  C_21
REMARK                            x       y       z     vdW  Elec       q    Type
REMARK                         _______ _______ _______ _____ _____    ______ ____
ROOT
ATOM      1  C   UNL     1       7.528   0.124   0.000  0.00  0.00    +0.000 C 
ATOM      2  C   UNL     1       7.528  -0.701   0.000  0.00  0.00    +0.000 C 
ATOM      3  C   UNL     1       6.814  -1.114   0.000  0.00  0.00    +0.000 C 
ATOM      4  C   UNL     1       6.099  -0.701   0.000  0.00  0.00    +0.000 C 
ATOM      5  C   UNL     1       8.309   0.375   0.000  0.00  0.00    +0.000 C 
ATOM      6  C   UNL     1       6.814   0.536   0.000  0.00  0.00    +0.000 C 
ATOM      7  C   UNL     1       8.309  -0.953   0.000  0.00  0.00    +0.000 C 
ATOM      8  C   UNL     1       6.099   0.124   0.000  0.00  0.00    +0.000 C 
ATOM      9  C   UNL     1       5.349  -1.119   0.000  0.00  0.00    +0.000 C 
ATOM     10  C   UNL     1       8.791  -0.289   0.000  0.00  0.00    +0.000 C 
ATOM     11  C   UNL     1       6.827  -1.973   0.000  0.00  0.00    +0.000 C 
ATOM     12  C   UNL     1       7.528   0.949   0.000  0.00  0.00    +0.000 C 
ATOM     13  C   UNL     1       5.342  -1.979   0.000  0.00  0.00    +0.000 C 
ATOM     14  C   UNL     1       6.086  -2.408   0.000  0.00  0.00    +0.000 C 
ATOM     15  C   UNL     1       4.584  -0.654   0.000  0.00  0.00    +0.000 C 
ATOM     16  C   UNL     1       3.802  -1.089   0.000  0.00  0.00    +0.000 C 
ATOM     17  C   UNL     1       4.570  -2.432   0.000  0.00  0.00    +0.000 C 
ATOM     18  C   UNL     1       3.795  -1.985   0.000  0.00  0.00    +0.000 C 
ENDROOT
BRANCH   5  19
ATOM     19  C   UNL     1       8.056   1.160   0.000  0.00  0.00    +0.000 C 
ATOM     20  C   UNL     1       7.802   1.945   0.000  0.00  0.00    +0.000 C 
ENDBRANCH   5  19
BRANCH   5  21
ATOM     21  O   UNL     1       8.977   0.859   0.000  0.00  0.00    +0.000 OA
BRANCH  21  23
ATOM     22  O   UNL     1       9.815  -0.298   0.000  0.00  0.00    +0.000 OA
ATOM     23  C   UNL     1       9.730   0.522   0.000  0.00  0.00    +0.000 C 
ATOM     24  C   UNL     1      10.399   1.006   0.000  0.00  0.00    +0.000 C 
ENDBRANCH  21  23
ENDBRANCH   5  21
BRANCH  18  25
ATOM     25  O   UNL     1       3.079  -2.394   0.000  0.00  0.00    +0.000 OA
BRANCH  25  27
ATOM     26  O   UNL     1       2.369  -1.154   0.000  0.00  0.00    +0.000 OA
ATOM     27  C   UNL     1       2.366  -1.979   0.000  0.00  0.00    +0.000 C 
ATOM     28  C   UNL     1       1.650  -2.389   0.000  0.00  0.00    +0.000 C 
ENDBRANCH  25  27
ENDBRANCH  18  25
TORSDOF 5
