REMARK  Name = 824
REMARK  1 active torsions:
REMARK  status: ('A' for Active; 'I' for Inactive)
REMARK    1  A    between atoms: C_18  and  C_20
REMARK                            x       y       z     vdW  Elec       q    Type
REMARK                         _______ _______ _______ _____ _____    ______ ____
ROOT
ATOM      1  O   UNL     1       2.568   2.657   0.000  0.00  0.00    +0.000 OA
ATOM      2  C   UNL     1       2.325   1.868   0.000  0.00  0.00    +0.000 A 
ATOM      3  C   UNL     1       2.886   1.264   0.000  0.00  0.00    +0.000 A 
ATOM      4  C   UNL     1       2.643   0.475   0.000  0.00  0.00    +0.000 A 
ATOM      5  C   UNL     1       1.839   0.292   0.000  0.00  0.00    +0.000 A 
ATOM      6  C   UNL     1       1.278   0.896   0.000  0.00  0.00    +0.000 A 
ATOM      7  C   UNL     1       1.521   1.685   0.000  0.00  0.00    +0.000 A 
ATOM      8  C   UNL     1       0.529   0.549   0.000  0.00  0.00    +0.000 A 
ATOM      9  C   UNL     1       0.628  -0.270   0.000  0.00  0.00    +0.000 A 
ATOM     10  N   UNL     1       1.437  -0.429   0.000  0.00  0.00    +0.000 NA
ATOM     11  C   UNL     1      -0.230   0.873   0.000  0.00  0.00    +0.000 A 
ATOM     12  C   UNL     1      -0.496   1.654   0.000  0.00  0.00    +0.000 C 
ATOM     13  O   UNL     1      -0.022   2.329   0.000  0.00  0.00    +0.000 OA
ATOM     14  C   UNL     1      -0.890   0.378   0.000  0.00  0.00    +0.000 A 
ATOM     15  C   UNL     1      -1.564   0.853   0.000  0.00  0.00    +0.000 C 
ATOM     16  O   UNL     1      -2.345   0.586   0.000  0.00  0.00    +0.000 OA
ATOM     17  N   UNL     1      -1.321   1.641   0.000  0.00  0.00    +0.000 NA
ATOM     18  C   UNL     1      -0.791  -0.441   0.000  0.00  0.00    +0.000 A 
ATOM     19  C   UNL     1      -0.032  -0.765   0.000  0.00  0.00    +0.000 A 
ENDROOT
BRANCH  18  20
ATOM     20  C   UNL     1      -1.451  -0.936   0.000  0.00  0.00    +0.000 A 
ATOM     21  C   UNL     1      -1.352  -1.755   0.000  0.00  0.00    +0.000 A 
ATOM     22  C   UNL     1      -2.012  -2.250   0.000  0.00  0.00    +0.000 A 
ATOM     23  C   UNL     1      -2.771  -1.926   0.000  0.00  0.00    +0.000 A 
ATOM     24  C   UNL     1      -2.870  -1.107   0.000  0.00  0.00    +0.000 A 
ATOM     25  C   UNL     1      -2.210  -0.612   0.000  0.00  0.00    +0.000 A 
ENDBRANCH  18  20
TORSDOF 1
