REMARK  Name = 824
REMARK  2 active torsions:
REMARK  status: ('A' for Active; 'I' for Inactive)
REMARK    1  A    between atoms: N_3  and  C_7
REMARK    2  A    between atoms: C_7  and  C_9
REMARK                            x       y       z     vdW  Elec       q    Type
REMARK                         _______ _______ _______ _____ _____    ______ ____
ROOT
ATOM      1  O   UNL     1       1.650  -0.206   0.000  0.00  0.00    +0.000 OA
ATOM      2  O   UNL     1       3.079   2.269   0.000  0.00  0.00    +0.000 OA
ATOM      3  N   UNL     1       3.079  -0.206   0.000  0.00  0.00    +0.000 N 
ATOM      4  N   UNL     1       2.365   1.031   0.000  0.00  0.00    +0.000 NA
ATOM      5  N   UNL     1       4.574   1.283   0.000  0.00  0.00    +0.000 NA
ATOM      6  N   UNL     1       4.574  -0.045   0.000  0.00  0.00    +0.000 NA
ATOM      7  C   UNL     1       3.793   0.206   0.000  0.00  0.00    +0.000 A 
ATOM      8  C   UNL     1       3.793   1.031   0.000  0.00  0.00    +0.000 A 
ATOM      9  C   UNL     1       2.365   0.206   0.000  0.00  0.00    +0.000 A 
ATOM     10  C   UNL     1       3.079   1.444   0.000  0.00  0.00    +0.000 A 
ATOM     11  C   UNL     1       5.056   0.619   0.000  0.00  0.00    +0.000 A 
ENDROOT
BRANCH   3  12
ATOM     12  C   UNL     1       3.079  -1.031   0.000  0.00  0.00    +0.000 C 
BRANCH  12  13
ATOM     13  C   UNL     1       2.365  -1.444   0.000  0.00  0.00    +0.000 C 
ATOM     14  C   UNL     1       2.365  -2.269   0.000  0.00  0.00    +0.000 C 
ENDBRANCH  12  13
ENDBRANCH   3  12
TORSDOF 2
