REMARK  Name = 825
REMARK  7 active torsions:
REMARK  status: ('A' for Active; 'I' for Inactive)
REMARK    1  A    between atoms: C_2  and  C_3
REMARK    2  A    between atoms: C_2  and  C_9
REMARK    3  A    between atoms: C_9  and  C_10
REMARK    4  A    between atoms: C_9  and  C_16
REMARK    5  A    between atoms: C_16  and  C_17
REMARK    6  A    between atoms: C_21  and  C_24
REMARK    7  A    between atoms: C_24  and  P_27
REMARK                            x       y       z     vdW  Elec       q    Type
REMARK                         _______ _______ _______ _____ _____    ______ ____
ROOT
ATOM      1  C   UNL     1      -0.422  -0.743   0.000  0.00  0.00    +0.000 C 
ENDROOT
BRANCH   1   2
ATOM      2  C   UNL     1      -1.137  -0.330   0.000  0.00  0.00    +0.000 A 
ATOM      3  C   UNL     1      -1.137   0.495   0.000  0.00  0.00    +0.000 A 
ATOM      4  C   UNL     1      -1.851   0.907   0.000  0.00  0.00    +0.000 A 
ATOM      5  C   UNL     1      -1.851  -0.743   0.000  0.00  0.00    +0.000 A 
ATOM      6  C   UNL     1      -2.566  -0.330   0.000  0.00  0.00    +0.000 A 
ATOM      7  C   UNL     1      -2.566   0.495   0.000  0.00  0.00    +0.000 A 
ENDBRANCH   1   2
BRANCH   1   9
ATOM      8  O   UNL     1       0.292  -1.980   0.000  0.00  0.00    +0.000 OA
ATOM      9  C   UNL     1      -0.422  -1.567   0.000  0.00  0.00    +0.000 C 
BRANCH   9  10
ATOM     10  C   UNL     1      -1.137  -1.980   0.000  0.00  0.00    +0.000 A 
ATOM     11  C   UNL     1      -1.851  -1.567   0.000  0.00  0.00    +0.000 A 
ATOM     12  C   UNL     1      -2.566  -1.980   0.000  0.00  0.00    +0.000 A 
ATOM     13  C   UNL     1      -2.566  -2.805   0.000  0.00  0.00    +0.000 A 
ATOM     14  C   UNL     1      -1.851  -3.217   0.000  0.00  0.00    +0.000 A 
ATOM     15  C   UNL     1      -1.137  -2.805   0.000  0.00  0.00    +0.000 A 
ENDBRANCH   9  10
ENDBRANCH   1   9
BRANCH   1  16
ATOM     16  C   UNL     1       0.292  -0.330   0.000  0.00  0.00    +0.000 C 
BRANCH  16  17
ATOM     17  C   UNL     1       0.292   0.495   0.000  0.00  0.00    +0.000 A 
ATOM     18  C   UNL     1       1.007   0.907   0.000  0.00  0.00    +0.000 A 
ATOM     19  C   UNL     1       1.007   1.732   0.000  0.00  0.00    +0.000 A 
ATOM     20 BR   UNL     1       1.721   2.145   0.000  0.00  0.00    +0.000 Br
ATOM     21  C   UNL     1       0.292   2.145   0.000  0.00  0.00    +0.000 A 
ATOM     22  C   UNL     1      -0.422   1.732   0.000  0.00  0.00    +0.000 A 
ATOM     23  C   UNL     1      -0.422   0.907   0.000  0.00  0.00    +0.000 A 
BRANCH  21  24
ATOM     24  C   UNL     1       0.292   2.970   0.000  0.00  0.00    +0.000 C 
ATOM     25  F   UNL     1      -0.533   2.970   0.000  0.00  0.00    +0.000 F 
ATOM     26  F   UNL     1       1.117   2.970   0.000  0.00  0.00    +0.000 F 
BRANCH  24  27
ATOM     27  P   UNL     1       0.292   3.795   0.000  0.00  0.00    +0.000 P 
ATOM     28  O   UNL     1       0.292   4.620   0.000  0.00  0.00    +0.000 OA
ATOM     29  O   UNL     1      -0.533   3.795   0.000  0.00  0.00    +0.000 OA
ATOM     30  O   UNL     1       1.117   3.795   0.000  0.00  0.00    +0.000 OA
ENDBRANCH  24  27
ENDBRANCH  21  24
ENDBRANCH  16  17
ENDBRANCH   1  16
TORSDOF 7
