REMARK  Name = 826
REMARK  3 active torsions:
REMARK  status: ('A' for Active; 'I' for Inactive)
REMARK    1  A    between atoms: C_5  and  C_8
REMARK    2  A    between atoms: N_16  and  C_23
REMARK    3  A    between atoms: C_23  and  C_24
REMARK                            x       y       z     vdW  Elec       q    Type
REMARK                         _______ _______ _______ _____ _____    ______ ____
ROOT
ATOM      1  C   UNL     1       4.302   0.534   0.000  0.00  0.00    +0.000 C 
ATOM      2  O   UNL     1       4.557   1.319   0.000  0.00  0.00    +0.000 OA
ATOM      3  N   UNL     1       3.495   0.363   0.000  0.00  0.00    +0.000 N 
ATOM      4  C   UNL     1       3.240  -0.422   0.000  0.00  0.00    +0.000 C 
ATOM      5  C   UNL     1       2.433  -0.593   0.000  0.00  0.00    +0.000 C 
ATOM      6  C   UNL     1       1.881   0.020   0.000  0.00  0.00    +0.000 A 
ATOM      7  C   UNL     1       2.136   0.804   0.000  0.00  0.00    +0.000 A 
ATOM      8  C   UNL     1       2.943   0.976   0.000  0.00  0.00    +0.000 C 
ATOM      9  N   UNL     1       1.469   1.289   0.000  0.00  0.00    +0.000 N 
ATOM     10  C   UNL     1       0.801   0.804   0.000  0.00  0.00    +0.000 A 
ATOM     11  C   UNL     1       1.056   0.020   0.000  0.00  0.00    +0.000 A 
ATOM     12  C   UNL     1       0.504  -0.593   0.000  0.00  0.00    +0.000 A 
ATOM     13  C   UNL     1      -0.302  -0.422   0.000  0.00  0.00    +0.000 A 
ATOM     14  C   UNL     1      -0.557   0.363   0.000  0.00  0.00    +0.000 A 
ATOM     15  C   UNL     1      -0.005   0.976   0.000  0.00  0.00    +0.000 A 
ENDROOT
BRANCH   1  20
ATOM     16  O   UNL     1       6.511  -1.918   0.000  0.00  0.00    +0.000 OA
ATOM     17  C   UNL     1       5.958  -1.305   0.000  0.00  0.00    +0.000 A 
ATOM     18  C   UNL     1       5.152  -1.476   0.000  0.00  0.00    +0.000 A 
ATOM     19  C   UNL     1       4.599  -0.863   0.000  0.00  0.00    +0.000 A 
ATOM     20  C   UNL     1       4.854  -0.079   0.000  0.00  0.00    +0.000 A 
ATOM     21  C   UNL     1       5.661   0.093   0.000  0.00  0.00    +0.000 A 
ATOM     22  C   UNL     1       6.213  -0.520   0.000  0.00  0.00    +0.000 A 
ENDBRANCH   1  20
BRANCH   9  23
ATOM     23  C   UNL     1       1.469   2.114   0.000  0.00  0.00    +0.000 C 
BRANCH  23  24
ATOM     24  C   UNL     1       2.183   2.527   0.000  0.00  0.00    +0.000 A 
ATOM     25  C   UNL     1       2.183   3.352   0.000  0.00  0.00    +0.000 A 
ATOM     26  C   UNL     1       2.898   3.764   0.000  0.00  0.00    +0.000 A 
ATOM     27  C   UNL     1       3.612   3.352   0.000  0.00  0.00    +0.000 A 
ATOM     28  O   UNL     1       4.327   3.764   0.000  0.00  0.00    +0.000 OA
ATOM     29  C   UNL     1       3.612   2.527   0.000  0.00  0.00    +0.000 A 
ATOM     30  C   UNL     1       2.898   2.114   0.000  0.00  0.00    +0.000 A 
ENDBRANCH  23  24
ENDBRANCH   9  23
TORSDOF 3
