REMARK  Name = 827
REMARK  2 active torsions:
REMARK  status: ('A' for Active; 'I' for Inactive)
REMARK    1  A    between atoms: N_6  and  C_14
REMARK    2  A    between atoms: C_16  and  C_19
REMARK                            x       y       z     vdW  Elec       q    Type
REMARK                         _______ _______ _______ _____ _____    ______ ____
ROOT
ATOM      1  O   UNL     1       7.216  -0.454   0.000  0.00  0.00    +0.000 OA
ATOM      2  O   UNL     1       7.216   0.874   0.000  0.00  0.00    +0.000 OA
ATOM      3  O   UNL     1       4.278   1.889   0.000  0.00  0.00    +0.000 OA
ATOM      4  N   UNL     1       4.269  -0.643   0.000  0.00  0.00    +0.000 N 
ATOM      5  N   UNL     1       3.521  -0.219   0.000  0.00  0.00    +0.000 NA
ATOM      6  C   UNL     1       5.006  -0.202   0.000  0.00  0.00    +0.000 A 
ATOM      7  C   UNL     1       5.006   0.623   0.000  0.00  0.00    +0.000 A 
ATOM      8  C   UNL     1       6.435  -0.202   0.000  0.00  0.00    +0.000 A 
ATOM      9  C   UNL     1       5.721  -0.615   0.000  0.00  0.00    +0.000 A 
ATOM     10  C   UNL     1       6.435   0.623   0.000  0.00  0.00    +0.000 A 
ATOM     11  C   UNL     1       5.721   1.035   0.000  0.00  0.00    +0.000 A 
ATOM     12  C   UNL     1       4.269   1.064   0.000  0.00  0.00    +0.000 A 
ATOM     13  C   UNL     1       3.521   0.640   0.000  0.00  0.00    +0.000 A 
ATOM     14  C   UNL     1       7.697   0.210   0.000  0.00  0.00    +0.000 C 
ENDROOT
BRANCH  13  17
ATOM     15  O   UNL     1       2.092   0.646   0.000  0.00  0.00    +0.000 OA
ATOM     16  O   UNL     1       2.811   1.880   0.000  0.00  0.00    +0.000 OA
ATOM     17  C   UNL     1       2.808   1.055   0.000  0.00  0.00    +0.000 C 
ENDBRANCH  13  17
BRANCH   4  18
ATOM     18  C   UNL     1       4.278  -1.468   0.000  0.00  0.00    +0.000 C 
ATOM     19  C   UNL     1       3.568  -1.889   0.000  0.00  0.00    +0.000 C 
ENDBRANCH   4  18
TORSDOF 2
