REMARK  Name = 829
REMARK  1 active torsions:
REMARK  status: ('A' for Active; 'I' for Inactive)
REMARK    1  A    between atoms: C_7  and  C_10
REMARK                            x       y       z     vdW  Elec       q    Type
REMARK                         _______ _______ _______ _____ _____    ______ ____
ROOT
ATOM      1 CL   UNL     1       2.817  -2.359   0.000  0.00  0.00    +0.000 Cl
ATOM      2  O   UNL     1       2.611   2.359   0.000  0.00  0.00    +0.000 OA
ATOM      3  N   UNL     1       2.454   0.971   0.000  0.00  0.00    +0.000 N 
ATOM      4  N   UNL     1       4.308   0.971   0.000  0.00  0.00    +0.000 NA
ATOM      5  C   UNL     1       3.381  -0.191   0.000  0.00  0.00    +0.000 A 
ATOM      6  C   UNL     1       2.638   0.167   0.000  0.00  0.00    +0.000 A 
ATOM      7  C   UNL     1       4.124   0.167   0.000  0.00  0.00    +0.000 C 
ATOM      8  C   UNL     1       3.794   1.616   0.000  0.00  0.00    +0.000 C 
ATOM      9  C   UNL     1       2.969   1.616   0.000  0.00  0.00    +0.000 C 
ATOM     10  C   UNL     1       3.459  -1.047   0.000  0.00  0.00    +0.000 A 
ATOM     11  C   UNL     1       1.921  -0.306   0.000  0.00  0.00    +0.000 A 
ATOM     12  C   UNL     1       1.650   1.155   0.000  0.00  0.00    +0.000 C 
ATOM     13  C   UNL     1       2.752  -1.537   0.000  0.00  0.00    +0.000 A 
ATOM     14  C   UNL     1       1.978  -1.164   0.000  0.00  0.00    +0.000 A 
ENDROOT
BRANCH   7  15
ATOM     15  C   UNL     1       4.769  -0.348   0.000  0.00  0.00    +0.000 A 
ATOM     16  C   UNL     1       5.537  -0.046   0.000  0.00  0.00    +0.000 A 
ATOM     17  C   UNL     1       4.646  -1.164   0.000  0.00  0.00    +0.000 A 
ATOM     18  C   UNL     1       6.182  -0.561   0.000  0.00  0.00    +0.000 A 
ATOM     19  C   UNL     1       5.292  -1.678   0.000  0.00  0.00    +0.000 A 
ATOM     20  C   UNL     1       6.059  -1.377   0.000  0.00  0.00    +0.000 A 
ENDBRANCH   7  15
TORSDOF 1
