REMARK  Name = 82A
REMARK  6 active torsions:
REMARK  status: ('A' for Active; 'I' for Inactive)
REMARK    1  A    between atoms: C_2  and  C_23
REMARK    2  A    between atoms: C_5  and  C_6
REMARK    3  A    between atoms: C_12  and  CA_17
REMARK    4  A    between atoms: C_16  and  CA_17
REMARK    5  A    between atoms: CA_17  and  N_18
REMARK    6  A    between atoms: C_19  and  CA_21
REMARK                            x       y       z     vdW  Elec       q    Type
REMARK                         _______ _______ _______ _____ _____    ______ ____
ROOT
ATOM      1  C   UNL     1       2.920  -0.506   0.000  0.00  0.00    +0.000 A 
ATOM      2  CA  UNL     1       4.000   0.278   0.000  0.00  0.00    +0.000 A 
ATOM      3  C   UNL     1       4.255  -0.506   0.000  0.00  0.00    +0.000 A 
ATOM      4  C   UNL     1       3.588  -0.991   0.000  0.00  0.00    +0.000 A 
ATOM      5  N   UNL     1       3.175   0.278   0.000  0.00  0.00    +0.000 NA
ENDROOT
BRANCH   4   6
ATOM      6  C   UNL     1       3.588  -1.816   0.000  0.00  0.00    +0.000 A 
ATOM      7  N   UNL     1       4.000  -3.086   0.000  0.00  0.00    +0.000 NA
ATOM      8  C   UNL     1       3.175  -3.086   0.000  0.00  0.00    +0.000 A 
ATOM      9  C   UNL     1       2.920  -2.301   0.000  0.00  0.00    +0.000 A 
ATOM     10  N   UNL     1       4.255  -2.301   0.000  0.00  0.00    +0.000 NA
BRANCH   9  11
ATOM     11  C   UNL     1       2.136  -2.046   0.000  0.00  0.00    +0.000 A 
ATOM     12  C   UNL     1       1.964  -1.239   0.000  0.00  0.00    +0.000 A 
ATOM     13  C   UNL     1       1.179  -0.985   0.000  0.00  0.00    +0.000 A 
ATOM     14  C   UNL     1       0.566  -1.536   0.000  0.00  0.00    +0.000 A 
ATOM     15  C   UNL     1       0.738  -2.344   0.000  0.00  0.00    +0.000 A 
ATOM     16  C   UNL     1       1.523  -2.598   0.000  0.00  0.00    +0.000 A 
ATOM     17 CL   UNL     1       0.125  -2.896   0.000  0.00  0.00    +0.000 Cl
ENDBRANCH   9  11
ENDBRANCH   4   6
BRANCH   2  19
ATOM     18  N   UNL     1       5.306   0.859   0.000  0.00  0.00    +0.000 NA
ATOM     19  C   UNL     1       4.485   0.946   0.000  0.00  0.00    +0.000 C 
ATOM     20  O   UNL     1       4.150   1.699   0.000  0.00  0.00    +0.000 OA
BRANCH  18  21
ATOM     21  CA  UNL     1       5.641   0.106   0.000  0.00  0.00    +0.000 C 
BRANCH  21  22
ATOM     22  C   UNL     1       6.462   0.019   0.000  0.00  0.00    +0.000 A 
ATOM     23  C   UNL     1       7.618  -0.821   0.000  0.00  0.00    +0.000 A 
ATOM     24  C   UNL     1       8.103  -0.153   0.000  0.00  0.00    +0.000 A 
ATOM     25  C   UNL     1       6.797  -0.734   0.000  0.00  0.00    +0.000 A 
ATOM     26  F   UNL     1       8.923  -0.239   0.000  0.00  0.00    +0.000 F 
ATOM     27  C   UNL     1       7.767   0.601   0.000  0.00  0.00    +0.000 A 
ATOM     28 CL   UNL     1       8.252   1.268   0.000  0.00  0.00    +0.000 Cl
ATOM     29  C   UNL     1       6.947   0.687   0.000  0.00  0.00    +0.000 A 
ENDBRANCH  21  22
BRANCH  21  31
ATOM     30  O   UNL     1       5.492  -1.315   0.000  0.00  0.00    +0.000 OA
ATOM     31  C   UNL     1       5.156  -0.562   0.000  0.00  0.00    +0.000 C 
ENDBRANCH  21  31
ENDBRANCH  18  21
ENDBRANCH   2  19
TORSDOF 6
