REMARK  Name = 830
REMARK  1 active torsions:
REMARK  status: ('A' for Active; 'I' for Inactive)
REMARK    1  A    between atoms: C_4  and  C_7
REMARK                            x       y       z     vdW  Elec       q    Type
REMARK                         _______ _______ _______ _____ _____    ______ ____
ROOT
ATOM      1  O   UNL     1       4.508   0.462   0.000  0.00  0.00    +0.000 OA
ATOM      2  N   UNL     1       4.508  -1.188   0.000  0.00  0.00    +0.000 NA
ATOM      3  C   UNL     1       3.793  -0.775   0.000  0.00  0.00    +0.000 C 
ATOM      4  C   UNL     1       3.793   0.050   0.000  0.00  0.00    +0.000 C 
ATOM      5  C   UNL     1       5.222  -0.775   0.000  0.00  0.00    +0.000 C 
ATOM      6  C   UNL     1       5.222   0.050   0.000  0.00  0.00    +0.000 C 
ATOM      7  C   UNL     1       3.079  -1.188   0.000  0.00  0.00    +0.000 C 
ENDROOT
BRANCH   4   8
ATOM      8  C   UNL     1       3.079   0.462   0.000  0.00  0.00    +0.000 A 
ATOM      9  C   UNL     1       2.365   0.050   0.000  0.00  0.00    +0.000 A 
ATOM     10  C   UNL     1       3.079   1.287   0.000  0.00  0.00    +0.000 A 
ATOM     11  C   UNL     1       1.650   0.462   0.000  0.00  0.00    +0.000 A 
ATOM     12  C   UNL     1       2.365   1.700   0.000  0.00  0.00    +0.000 A 
ATOM     13  C   UNL     1       1.650   1.287   0.000  0.00  0.00    +0.000 A 
ENDBRANCH   4   8
TORSDOF 1
