REMARK  Name = 831
REMARK  5 active torsions:
REMARK  status: ('A' for Active; 'I' for Inactive)
REMARK    1  A    between atoms: N_5  and  C_10
REMARK    2  A    between atoms: N_7  and  C_14
REMARK    3  A    between atoms: C_10  and  C_13
REMARK    4  A    between atoms: C_13  and  C_14
REMARK    5  A    between atoms: C_22  and  C_28
REMARK                            x       y       z     vdW  Elec       q    Type
REMARK                         _______ _______ _______ _____ _____    ______ ____
ROOT
ATOM      1  S   UNL     1       5.222  -2.667   0.000  0.00  0.00    +0.000 S 
ATOM      2  N   UNL     1       5.222  -1.017   0.000  0.00  0.00    +0.000 N 
ATOM      3  C   UNL     1       5.936  -1.429   0.000  0.00  0.00    +0.000 A 
ATOM      4  C   UNL     1       4.507  -1.429   0.000  0.00  0.00    +0.000 A 
ATOM      5  C   UNL     1       5.936  -2.254   0.000  0.00  0.00    +0.000 A 
ATOM      6  C   UNL     1       4.507  -2.254   0.000  0.00  0.00    +0.000 A 
ATOM      7  C   UNL     1       6.673  -0.988   0.000  0.00  0.00    +0.000 A 
ATOM      8  C   UNL     1       3.770  -0.988   0.000  0.00  0.00    +0.000 A 
ATOM      9  C   UNL     1       7.421  -1.412   0.000  0.00  0.00    +0.000 A 
ATOM     10  C   UNL     1       6.673  -2.695   0.000  0.00  0.00    +0.000 A 
ATOM     11  C   UNL     1       3.770  -2.695   0.000  0.00  0.00    +0.000 A 
ATOM     12  C   UNL     1       7.421  -2.271   0.000  0.00  0.00    +0.000 A 
ATOM     13  C   UNL     1       3.022  -1.412   0.000  0.00  0.00    +0.000 A 
ATOM     14  C   UNL     1       3.022  -2.271   0.000  0.00  0.00    +0.000 A 
ENDROOT
BRANCH   9  18
ATOM     15  F   UNL     1       7.718  -0.284   0.000  0.00  0.00    +0.000 F 
ATOM     16  F   UNL     1       8.549  -1.710   0.000  0.00  0.00    +0.000 F 
ATOM     17  F   UNL     1       8.846  -0.582   0.000  0.00  0.00    +0.000 F 
ATOM     18  C   UNL     1       8.134  -0.997   0.000  0.00  0.00    +0.000 C 
ENDBRANCH   9  18
BRANCH   2  19
ATOM     19  C   UNL     1       5.222  -0.192   0.000  0.00  0.00    +0.000 C 
BRANCH  19  20
ATOM     20  C   UNL     1       4.507   0.221   0.000  0.00  0.00    +0.000 C 
BRANCH  20  21
ATOM     21  C   UNL     1       4.507   1.045   0.000  0.00  0.00    +0.000 C 
BRANCH  21  22
ATOM     22  N   UNL     1       3.793   1.458   0.000  0.00  0.00    +0.000 NA
ATOM     23  N   UNL     1       2.364   2.283   0.000  0.00  0.00    +0.000 NA
ATOM     24  C   UNL     1       3.793   2.283   0.000  0.00  0.00    +0.000 C 
ATOM     25  C   UNL     1       3.079   1.045   0.000  0.00  0.00    +0.000 C 
ATOM     26  C   UNL     1       3.079   2.695   0.000  0.00  0.00    +0.000 C 
ATOM     27  C   UNL     1       2.364   1.458   0.000  0.00  0.00    +0.000 C 
ATOM     28  C   UNL     1       1.650   2.695   0.000  0.00  0.00    +0.000 C 
ENDBRANCH  21  22
ENDBRANCH  20  21
ENDBRANCH  19  20
ENDBRANCH   2  19
TORSDOF 5
