REMARK  Name = 832
REMARK  1 active torsions:
REMARK  status: ('A' for Active; 'I' for Inactive)
REMARK    1  A    between atoms: C_4  and  C_7
REMARK                            x       y       z     vdW  Elec       q    Type
REMARK                         _______ _______ _______ _____ _____    ______ ____
ROOT
ATOM      1  O   UNL     1       1.650   0.499   0.000  0.00  0.00    +0.000 OA
ATOM      2  O   UNL     1       3.999   2.206   0.000  0.00  0.00    +0.000 OA
ATOM      3  N   UNL     1       2.690   1.539   0.000  0.00  0.00    +0.000 N 
ATOM      4  C   UNL     1       3.102   0.269   0.000  0.00  0.00    +0.000 C 
ATOM      5  C   UNL     1       3.769   0.754   0.000  0.00  0.00    +0.000 C 
ATOM      6  C   UNL     1       2.435   0.754   0.000  0.00  0.00    +0.000 C 
ATOM      7  C   UNL     1       3.515   1.539   0.000  0.00  0.00    +0.000 C 
ATOM      8  C   UNL     1       2.205   2.206   0.000  0.00  0.00    +0.000 C 
ENDROOT
BRANCH   4   9
ATOM      9  C   UNL     1       3.102  -0.556   0.000  0.00  0.00    +0.000 A 
ATOM     10  C   UNL     1       3.817  -0.969   0.000  0.00  0.00    +0.000 A 
ATOM     11  C   UNL     1       2.388  -0.969   0.000  0.00  0.00    +0.000 A 
ATOM     12  C   UNL     1       3.817  -1.794   0.000  0.00  0.00    +0.000 A 
ATOM     13  C   UNL     1       2.388  -1.794   0.000  0.00  0.00    +0.000 A 
ATOM     14  C   UNL     1       3.102  -2.206   0.000  0.00  0.00    +0.000 A 
ENDBRANCH   4   9
TORSDOF 1
