REMARK  Name = 836
REMARK  7 active torsions:
REMARK  status: ('A' for Active; 'I' for Inactive)
REMARK    1  A    between atoms: N_4  and  C_11
REMARK    2  A    between atoms: C_6  and  C_14
REMARK    3  A    between atoms: C_11  and  C_12
REMARK    4  A    between atoms: C_12  and  C_13
REMARK    5  A    between atoms: C_13  and  C_15
REMARK    6  A    between atoms: C_13  and  C_16
REMARK    7  A    between atoms: C_13  and  C_17
REMARK                            x       y       z     vdW  Elec       q    Type
REMARK                         _______ _______ _______ _____ _____    ______ ____
ROOT
ATOM      1  C   UNL     1       4.125  -2.048   0.000  0.00  0.00    +0.000 C 
ENDROOT
BRANCH   1   2
ATOM      2  C   UNL     1       4.125  -2.873   0.000  0.00  0.00    +0.000 A 
ATOM      3  C   UNL     1       4.840  -3.285   0.000  0.00  0.00    +0.000 A 
ATOM      4  C   UNL     1       3.411  -3.285   0.000  0.00  0.00    +0.000 A 
ATOM      5  C   UNL     1       4.840  -4.110   0.000  0.00  0.00    +0.000 A 
ATOM      6  C   UNL     1       3.411  -4.110   0.000  0.00  0.00    +0.000 A 
ATOM      7  C   UNL     1       4.125  -4.523   0.000  0.00  0.00    +0.000 A 
ENDBRANCH   1   2
BRANCH   1   8
ATOM      8  C   UNL     1       3.300  -2.048   0.000  0.00  0.00    +0.000 A 
ATOM      9  C   UNL     1       2.888  -2.762   0.000  0.00  0.00    +0.000 A 
ATOM     10  C   UNL     1       2.888  -1.333   0.000  0.00  0.00    +0.000 A 
ATOM     11  C   UNL     1       2.062  -2.762   0.000  0.00  0.00    +0.000 A 
ATOM     12  C   UNL     1       2.062  -1.333   0.000  0.00  0.00    +0.000 A 
ATOM     13  C   UNL     1       1.650  -2.048   0.000  0.00  0.00    +0.000 A 
ENDBRANCH   1   8
BRANCH   1  16
ATOM     14  O   UNL     1       5.363  -1.333   0.000  0.00  0.00    +0.000 OA
ATOM     15  N   UNL     1       5.725  -2.330   0.000  0.00  0.00    +0.000 N 
ATOM     16  C   UNL     1       4.950  -2.048   0.000  0.00  0.00    +0.000 C 
ATOM     17  C   UNL     1       6.357  -1.800   0.000  0.00  0.00    +0.000 C 
ATOM     18  C   UNL     1       5.869  -3.142   0.000  0.00  0.00    +0.000 C 
ENDBRANCH   1  16
BRANCH   1  19
ATOM     19  C   UNL     1       4.125  -1.223   0.000  0.00  0.00    +0.000 C 
BRANCH  19  20
ATOM     20  C   UNL     1       4.840  -0.810   0.000  0.00  0.00    +0.000 C 
BRANCH  20  22
ATOM     21  O   UNL     1       4.427   2.379   0.000  0.00  0.00    +0.000 OA
ATOM     22  N   UNL     1       4.840   0.015   0.000  0.00  0.00    +0.000 NA
ATOM     23  C   UNL     1       4.840   1.665   0.000  0.00  0.00    +0.000 C 
ATOM     24  C   UNL     1       4.125   1.252   0.000  0.00  0.00    +0.000 C 
ATOM     25  C   UNL     1       5.554   1.252   0.000  0.00  0.00    +0.000 C 
ATOM     26  C   UNL     1       4.125   0.427   0.000  0.00  0.00    +0.000 C 
ATOM     27  C   UNL     1       5.554   0.427   0.000  0.00  0.00    +0.000 C 
BRANCH  23  29
ATOM     28 CL   UNL     1       6.490   4.523   0.000  0.00  0.00    +0.000 Cl
ATOM     29  C   UNL     1       5.252   2.379   0.000  0.00  0.00    +0.000 A 
ATOM     30  C   UNL     1       4.840   3.094   0.000  0.00  0.00    +0.000 A 
ATOM     31  C   UNL     1       6.077   2.379   0.000  0.00  0.00    +0.000 A 
ATOM     32  C   UNL     1       5.252   3.808   0.000  0.00  0.00    +0.000 A 
ATOM     33  C   UNL     1       6.490   3.094   0.000  0.00  0.00    +0.000 A 
ATOM     34  C   UNL     1       6.077   3.808   0.000  0.00  0.00    +0.000 A 
ENDBRANCH  23  29
ENDBRANCH  20  22
ENDBRANCH  19  20
ENDBRANCH   1  19
TORSDOF 7
