REMARK  Name = 839
REMARK  4 active torsions:
REMARK  status: ('A' for Active; 'I' for Inactive)
REMARK    1  A    between atoms: C_2  and  C_4
REMARK    2  A    between atoms: C_4  and  C_5
REMARK    3  A    between atoms: C_5  and  N_6
REMARK    4  A    between atoms: C_23  and  C_25
REMARK                            x       y       z     vdW  Elec       q    Type
REMARK                         _______ _______ _______ _____ _____    ______ ____
ROOT
ATOM      1  N   UNL     1       0.618  -2.923   0.000  0.00  0.00    +0.000 N 
ATOM      2  C   UNL     1      -0.191  -3.082   0.000  0.00  0.00    +0.000 A 
ATOM      3  C   UNL     1       1.020  -3.644   0.000  0.00  0.00    +0.000 A 
ATOM      4  C   UNL     1       1.824  -3.828   0.000  0.00  0.00    +0.000 A 
ATOM      5  C   UNL     1       2.067  -4.616   0.000  0.00  0.00    +0.000 A 
ATOM      6  C   UNL     1       1.506  -5.221   0.000  0.00  0.00    +0.000 A 
ATOM      7  O   UNL     1       1.749  -6.009   0.000  0.00  0.00    +0.000 OA
ATOM      8  C   UNL     1       0.702  -5.037   0.000  0.00  0.00    +0.000 A 
ATOM      9  C   UNL     1       0.459  -4.248   0.000  0.00  0.00    +0.000 A 
ATOM     10  C   UNL     1      -0.290  -3.901   0.000  0.00  0.00    +0.000 A 
ATOM     11  C   UNL     1      -1.049  -4.226   0.000  0.00  0.00    +0.000 A 
ATOM     12  C   UNL     1      -1.315  -5.006   0.000  0.00  0.00    +0.000 C 
ATOM     13  O   UNL     1      -0.841  -5.681   0.000  0.00  0.00    +0.000 OA
ATOM     14  C   UNL     1      -1.708  -3.731   0.000  0.00  0.00    +0.000 A 
ATOM     15  C   UNL     1      -2.383  -4.205   0.000  0.00  0.00    +0.000 C 
ATOM     16  O   UNL     1      -3.164  -3.938   0.000  0.00  0.00    +0.000 OA
ATOM     17  N   UNL     1      -2.140  -4.994   0.000  0.00  0.00    +0.000 NA
ATOM     18  C   UNL     1      -1.610  -2.912   0.000  0.00  0.00    +0.000 A 
ATOM     19  C   UNL     1      -0.851  -2.587   0.000  0.00  0.00    +0.000 A 
ENDROOT
BRANCH  18  20
ATOM     20  C   UNL     1      -2.270  -2.417   0.000  0.00  0.00    +0.000 A 
ATOM     21  C   UNL     1      -3.029  -2.740   0.000  0.00  0.00    +0.000 A 
ATOM     22  C   UNL     1      -3.688  -2.245   0.000  0.00  0.00    +0.000 A 
ATOM     23  C   UNL     1      -3.590  -1.426   0.000  0.00  0.00    +0.000 A 
ATOM     24  C   UNL     1      -2.831  -1.102   0.000  0.00  0.00    +0.000 A 
ATOM     25  C   UNL     1      -2.171  -1.597   0.000  0.00  0.00    +0.000 A 
ENDBRANCH  18  20
BRANCH   1  26
ATOM     26  C   UNL     1       0.965  -2.175   0.000  0.00  0.00    +0.000 C 
BRANCH  26  27
ATOM     27  C   UNL     1       1.787  -2.101   0.000  0.00  0.00    +0.000 C 
BRANCH  27  29
ATOM     28  O   UNL     1       2.956  -1.279   0.000  0.00  0.00    +0.000 OA
ATOM     29  C   UNL     1       2.134  -1.353   0.000  0.00  0.00    +0.000 C 
ATOM     30  O   UNL     1       1.659  -0.678   0.000  0.00  0.00    +0.000 OA
ENDBRANCH  27  29
ENDBRANCH  26  27
ENDBRANCH   1  26
TORSDOF 4
