REMARK  Name = 839
REMARK  3 active torsions:
REMARK  status: ('A' for Active; 'I' for Inactive)
REMARK    1  A    between atoms: S_1  and  N_7
REMARK    2  A    between atoms: S_1  and  C_15
REMARK    3  A    between atoms: N_5  and  N_6
REMARK                            x       y       z     vdW  Elec       q    Type
REMARK                         _______ _______ _______ _____ _____    ______ ____
ROOT
ATOM      1  O   UNL     1       4.508   0.334   0.000  0.00  0.00    +0.000 OA
ATOM      2  N   UNL     1       5.937   0.334   0.000  0.00  0.00    +0.000 NA
ATOM      3  N   UNL     1       5.222  -0.904   0.000  0.00  0.00    +0.000 NA
ATOM      4  C   UNL     1       5.222  -0.079   0.000  0.00  0.00    +0.000 C 
ENDROOT
BRANCH   2   5
ATOM      5  N   UNL     1       5.937   1.159   0.000  0.00  0.00    +0.000 NA
ATOM      6  C   UNL     1       5.524   2.966   0.000  0.00  0.00    +0.000 C 
ATOM      7  C   UNL     1       6.349   2.966   0.000  0.00  0.00    +0.000 C 
ATOM      8  C   UNL     1       5.010   2.321   0.000  0.00  0.00    +0.000 C 
ATOM      9  C   UNL     1       6.864   2.321   0.000  0.00  0.00    +0.000 C 
ATOM     10  C   UNL     1       5.194   1.517   0.000  0.00  0.00    +0.000 C 
ATOM     11  C   UNL     1       6.680   1.517   0.000  0.00  0.00    +0.000 C 
ENDBRANCH   2   5
BRANCH   3  12
ATOM     12  S   UNL     1       4.508  -1.316   0.000  0.00  0.00    +0.000 S 
ATOM     13  O   UNL     1       4.096  -0.602   0.000  0.00  0.00    +0.000 OA
ATOM     14  O   UNL     1       4.920  -2.031   0.000  0.00  0.00    +0.000 OA
BRANCH  12  15
ATOM     15  C   UNL     1       3.793  -1.729   0.000  0.00  0.00    +0.000 A 
ATOM     16  C   UNL     1       3.079  -1.316   0.000  0.00  0.00    +0.000 A 
ATOM     17  C   UNL     1       3.793  -2.554   0.000  0.00  0.00    +0.000 A 
ATOM     18  C   UNL     1       2.365  -2.554   0.000  0.00  0.00    +0.000 A 
ATOM     19  C   UNL     1       2.365  -1.729   0.000  0.00  0.00    +0.000 A 
ATOM     20  C   UNL     1       3.079  -2.966   0.000  0.00  0.00    +0.000 A 
ATOM     21  C   UNL     1       1.650  -2.966   0.000  0.00  0.00    +0.000 C 
ENDBRANCH  12  15
ENDBRANCH   3  12
TORSDOF 3
