REMARK  Name = 84098
REMARK  6 active torsions:
REMARK  status: ('A' for Active; 'I' for Inactive)
REMARK    1  A    between atoms: S_1  and  C_18
REMARK    2  A    between atoms: S_1  and  C_23
REMARK    3  A    between atoms: C_10  and  C_13
REMARK    4  A    between atoms: C_14  and  C_15
REMARK    5  A    between atoms: C_15  and  C_17
REMARK    6  A    between atoms: C_21  and  C_24
REMARK                            x       y       z     vdW  Elec       q    Type
REMARK                         _______ _______ _______ _____ _____    ______ ____
ROOT
ATOM      1  C   UNL     1       4.556  -0.055   0.000  0.00  0.00    +0.000 A 
ATOM      2  C   UNL     1       5.271   0.357   0.000  0.00  0.00    +0.000 A 
ATOM      3  C   UNL     1       4.556  -0.880   0.000  0.00  0.00    +0.000 A 
ATOM      4  C   UNL     1       5.985  -0.055   0.000  0.00  0.00    +0.000 A 
ATOM      5  C   UNL     1       5.985  -0.880   0.000  0.00  0.00    +0.000 A 
ATOM      6  C   UNL     1       5.271  -1.293   0.000  0.00  0.00    +0.000 A 
ENDROOT
BRANCH   2   7
ATOM      7  S   UNL     1       5.271   1.182   0.000  0.00  0.00    +0.000 S 
ATOM      8  O   UNL     1       6.096   1.182   0.000  0.00  0.00    +0.000 OA
ATOM      9  O   UNL     1       4.446   1.182   0.000  0.00  0.00    +0.000 OA
ATOM     10  C   UNL     1       5.271   2.007   0.000  0.00  0.00    +0.000 C 
ENDBRANCH   2   7
BRANCH   5  14
ATOM     11  F   UNL     1       7.414  -1.705   0.000  0.00  0.00    +0.000 F 
ATOM     12  F   UNL     1       6.287  -2.007   0.000  0.00  0.00    +0.000 F 
ATOM     13  F   UNL     1       7.112  -0.578   0.000  0.00  0.00    +0.000 F 
ATOM     14  C   UNL     1       6.700  -1.293   0.000  0.00  0.00    +0.000 C 
ENDBRANCH   5  14
BRANCH   1  16
ATOM     15  O   UNL     1       3.842   1.182   0.000  0.00  0.00    +0.000 OA
ATOM     16  C   UNL     1       3.842   0.357   0.000  0.00  0.00    +0.000 C 
BRANCH  16  20
ATOM     17  O   UNL     1       1.822  -0.333   0.000  0.00  0.00    +0.000 OA
ATOM     18  N   UNL     1       2.234  -1.047   0.000  0.00  0.00    +0.000 NA
ATOM     19  C   UNL     1       2.374   0.280   0.000  0.00  0.00    +0.000 A 
ATOM     20  C   UNL     1       3.127  -0.055   0.000  0.00  0.00    +0.000 A 
ATOM     21  C   UNL     1       3.041  -0.876   0.000  0.00  0.00    +0.000 A 
BRANCH  19  22
ATOM     22  C   UNL     1       2.202   1.087   0.000  0.00  0.00    +0.000 C 
ATOM     23  C   UNL     1       2.457   1.872   0.000  0.00  0.00    +0.000 C 
ATOM     24  C   UNL     1       1.650   1.700   0.000  0.00  0.00    +0.000 C 
ENDBRANCH  19  22
ENDBRANCH  16  20
ENDBRANCH   1  16
TORSDOF 5
