REMARK  Name = 841
REMARK  7 active torsions:
REMARK  status: ('A' for Active; 'I' for Inactive)
REMARK    1  A    between atoms: N_4  and  C_5
REMARK    2  A    between atoms: N_4  and  C_8
REMARK    3  A    between atoms: C_5  and  C_6
REMARK    4  A    between atoms: C_6  and  C_7
REMARK    5  A    between atoms: C_7  and  C_11
REMARK    6  A    between atoms: C_8  and  C_10
REMARK    7  A    between atoms: C_10  and  C_12
REMARK                            x       y       z     vdW  Elec       q    Type
REMARK                         _______ _______ _______ _____ _____    ______ ____
ROOT
ATOM      1  N   UNL     1       5.665   0.128   0.000  0.00  0.00    +0.000 NA
ENDROOT
BRANCH   1   2
ATOM      2  C   UNL     1       5.665  -0.697   0.000  0.00  0.00    +0.000 C 
ATOM      3  C   UNL     1       4.951  -1.110   0.000  0.00  0.00    +0.000 C 
BRANCH   2   4
ATOM      4  C   UNL     1       6.380  -1.110   0.000  0.00  0.00    +0.000 C 
BRANCH   4   5
ATOM      5  C   UNL     1       6.380  -1.935   0.000  0.00  0.00    +0.000 C 
BRANCH   5   7
ATOM      6  O   UNL     1       9.238  -3.585   0.000  0.00  0.00    +0.000 OA
ATOM      7  C   UNL     1       7.094  -2.347   0.000  0.00  0.00    +0.000 A 
ATOM      8  C   UNL     1       7.809  -1.935   0.000  0.00  0.00    +0.000 A 
ATOM      9  C   UNL     1       7.094  -3.172   0.000  0.00  0.00    +0.000 A 
ATOM     10  C   UNL     1       8.523  -2.347   0.000  0.00  0.00    +0.000 A 
ATOM     11  C   UNL     1       7.809  -3.585   0.000  0.00  0.00    +0.000 A 
ATOM     12  C   UNL     1       8.523  -3.172   0.000  0.00  0.00    +0.000 A 
ENDBRANCH   5   7
ENDBRANCH   4   5
ENDBRANCH   2   4
ENDBRANCH   1   2
BRANCH   1  13
ATOM     13  C   UNL     1       4.951   0.540   0.000  0.00  0.00    +0.000 C 
BRANCH  13  14
ATOM     14  C   UNL     1       4.951   1.365   0.000  0.00  0.00    +0.000 C 
BRANCH  14  17
ATOM     15  O   UNL     1       3.522   3.841   0.000  0.00  0.00    +0.000 OA
ATOM     16  O   UNL     1       2.093   3.015   0.000  0.00  0.00    +0.000 OA
ATOM     17  C   UNL     1       4.237   1.778   0.000  0.00  0.00    +0.000 A 
ATOM     18  C   UNL     1       4.237   2.603   0.000  0.00  0.00    +0.000 A 
ATOM     19  C   UNL     1       3.522   1.365   0.000  0.00  0.00    +0.000 A 
ATOM     20  C   UNL     1       3.522   3.015   0.000  0.00  0.00    +0.000 A 
ATOM     21  C   UNL     1       2.808   1.778   0.000  0.00  0.00    +0.000 A 
ATOM     22  C   UNL     1       2.808   2.603   0.000  0.00  0.00    +0.000 A 
ENDBRANCH  14  17
ENDBRANCH  13  14
ENDBRANCH   1  13
TORSDOF 7
