REMARK  Name = 843
REMARK  6 active torsions:
REMARK  status: ('A' for Active; 'I' for Inactive)
REMARK    1  A    between atoms: O_2  and  C_20
REMARK    2  A    between atoms: O_3  and  C_21
REMARK    3  A    between atoms: N_4  and  C_16
REMARK    4  A    between atoms: C_5  and  C_6
REMARK    5  A    between atoms: C_6  and  C_7
REMARK    6  A    between atoms: C_16  and  C_19
REMARK                            x       y       z     vdW  Elec       q    Type
REMARK                         _______ _______ _______ _____ _____    ______ ____
ROOT
ATOM      1  C   UNL     1       5.881   0.961   0.000  0.00  0.00    +0.000 C 
ENDROOT
BRANCH   1   3
ATOM      2  O   UNL     1       4.830   2.409   0.000  0.00  0.00    +0.000 OA
ATOM      3  C   UNL     1       5.056   0.961   0.000  0.00  0.00    +0.000 C 
ATOM      4  C   UNL     1       4.574   0.297   0.000  0.00  0.00    +0.000 C 
ATOM      5  C   UNL     1       4.574   1.625   0.000  0.00  0.00    +0.000 C 
ATOM      6  C   UNL     1       3.793   0.549   0.000  0.00  0.00    +0.000 A 
ATOM      7  C   UNL     1       3.793   1.374   0.000  0.00  0.00    +0.000 A 
ATOM      8  C   UNL     1       3.079   0.136   0.000  0.00  0.00    +0.000 A 
ATOM      9  C   UNL     1       3.079   1.786   0.000  0.00  0.00    +0.000 A 
ATOM     10  C   UNL     1       2.365   0.549   0.000  0.00  0.00    +0.000 A 
ATOM     11  C   UNL     1       2.365   1.374   0.000  0.00  0.00    +0.000 A 
BRANCH  11  12
ATOM     12  O   UNL     1       1.650   1.786   0.000  0.00  0.00    +0.000 OA
ATOM     13  C   UNL     1       1.650   2.611   0.000  0.00  0.00    +0.000 C 
ENDBRANCH  11  12
BRANCH  10  14
ATOM     14  O   UNL     1       1.650   0.136   0.000  0.00  0.00    +0.000 OA
ATOM     15  C   UNL     1       1.650  -0.689   0.000  0.00  0.00    +0.000 C 
ENDBRANCH  10  14
ENDBRANCH   1   3
BRANCH   1  17
ATOM     16  N   UNL     1       7.118  -1.182   0.000  0.00  0.00    +0.000 NA
ATOM     17  C   UNL     1       6.293   0.247   0.000  0.00  0.00    +0.000 C 
ATOM     18  C   UNL     1       7.118   0.247   0.000  0.00  0.00    +0.000 C 
ATOM     19  C   UNL     1       5.881  -0.468   0.000  0.00  0.00    +0.000 C 
ATOM     20  C   UNL     1       7.531  -0.468   0.000  0.00  0.00    +0.000 C 
ATOM     21  C   UNL     1       6.293  -1.182   0.000  0.00  0.00    +0.000 C 
BRANCH  16  22
ATOM     22  C   UNL     1       7.531  -1.897   0.000  0.00  0.00    +0.000 C 
BRANCH  22  23
ATOM     23  C   UNL     1       8.356  -1.897   0.000  0.00  0.00    +0.000 A 
ATOM     24  C   UNL     1       8.768  -1.182   0.000  0.00  0.00    +0.000 A 
ATOM     25  C   UNL     1       8.768  -2.611   0.000  0.00  0.00    +0.000 A 
ATOM     26  C   UNL     1       9.593  -1.182   0.000  0.00  0.00    +0.000 A 
ATOM     27  C   UNL     1       9.593  -2.611   0.000  0.00  0.00    +0.000 A 
ATOM     28  C   UNL     1      10.006  -1.897   0.000  0.00  0.00    +0.000 A 
ENDBRANCH  22  23
ENDBRANCH  16  22
ENDBRANCH   1  17
TORSDOF 6
