REMARK  Name = 847
REMARK  1 active torsions:
REMARK  status: ('A' for Active; 'I' for Inactive)
REMARK    1  A    between atoms: C_3  and  C_4
REMARK                            x       y       z     vdW  Elec       q    Type
REMARK                         _______ _______ _______ _____ _____    ______ ____
ROOT
ATOM      1  N   UNL     1       2.093   0.050   0.000  0.00  0.00    +0.000 NA
ATOM      2  C   UNL     1       2.808   0.462   0.000  0.00  0.00    +0.000 C 
ENDROOT
BRANCH   2   4
ATOM      3  S   UNL     1       4.237   0.462   0.000  0.00  0.00    +0.000 S 
ATOM      4  C   UNL     1       3.522   0.050   0.000  0.00  0.00    +0.000 C 
ENDBRANCH   2   4
TORSDOF 1
