REMARK  Name = 848
REMARK  1 active torsions:
REMARK  status: ('A' for Active; 'I' for Inactive)
REMARK    1  A    between atoms: C_5  and  C_9
REMARK                            x       y       z     vdW  Elec       q    Type
REMARK                         _______ _______ _______ _____ _____    ______ ____
ROOT
ATOM      1  S   UNL     1       6.175  -0.664   0.000  0.00  0.00    +0.000 S 
ATOM      2  N   UNL     1       5.395   0.412   0.000  0.00  0.00    +0.000 N 
ATOM      3  N   UNL     1       4.610  -0.667   0.000  0.00  0.00    +0.000 NA
ATOM      4  C   UNL     1       4.610   0.667   0.000  0.00  0.00    +0.000 C 
ATOM      5  C   UNL     1       4.125   0.000   0.000  0.00  0.00    +0.000 C 
ATOM      6  C   UNL     1       6.175   0.664   0.000  0.00  0.00    +0.000 C 
ATOM      7  C   UNL     1       5.395  -0.412   0.000  0.00  0.00    +0.000 C 
ATOM      8  C   UNL     1       6.657   0.000   0.000  0.00  0.00    +0.000 C 
ENDROOT
BRANCH   5   9
ATOM      9  C   UNL     1       3.300   0.000   0.000  0.00  0.00    +0.000 A 
ATOM     10  C   UNL     1       2.888  -0.715   0.000  0.00  0.00    +0.000 A 
ATOM     11  C   UNL     1       2.888   0.715   0.000  0.00  0.00    +0.000 A 
ATOM     12  C   UNL     1       2.062  -0.715   0.000  0.00  0.00    +0.000 A 
ATOM     13  C   UNL     1       2.062   0.715   0.000  0.00  0.00    +0.000 A 
ATOM     14  C   UNL     1       1.650   0.000   0.000  0.00  0.00    +0.000 A 
ENDBRANCH   5   9
TORSDOF 1
