REMARK  Name = 850
REMARK  6 active torsions:
REMARK  status: ('A' for Active; 'I' for Inactive)
REMARK    1  A    between atoms: N_4  and  C_11
REMARK    2  A    between atoms: N_5  and  C_13
REMARK    3  A    between atoms: N_6  and  C_14
REMARK    4  A    between atoms: C_11  and  C_12
REMARK    5  A    between atoms: C_12  and  C_14
REMARK    6  A    between atoms: C_13  and  C_15
REMARK                            x       y       z     vdW  Elec       q    Type
REMARK                         _______ _______ _______ _____ _____    ______ ____
ROOT
ATOM      1 CL   UNL     1       8.848  -1.871   0.000  0.00  0.00    +0.000 Cl
ATOM      2  S   UNL     1       5.936  -3.541   0.000  0.00  0.00    +0.000 S 
ATOM      3  N   UNL     1       5.936  -1.891   0.000  0.00  0.00    +0.000 N 
ATOM      4  C   UNL     1       6.650  -2.304   0.000  0.00  0.00    +0.000 A 
ATOM      5  C   UNL     1       5.222  -2.304   0.000  0.00  0.00    +0.000 A 
ATOM      6  C   UNL     1       6.650  -3.129   0.000  0.00  0.00    +0.000 A 
ATOM      7  C   UNL     1       5.222  -3.129   0.000  0.00  0.00    +0.000 A 
ATOM      8  C   UNL     1       7.388  -1.863   0.000  0.00  0.00    +0.000 A 
ATOM      9  C   UNL     1       4.484  -1.863   0.000  0.00  0.00    +0.000 A 
ATOM     10  C   UNL     1       7.388  -3.570   0.000  0.00  0.00    +0.000 A 
ATOM     11  C   UNL     1       4.484  -3.570   0.000  0.00  0.00    +0.000 A 
ATOM     12  C   UNL     1       8.135  -2.287   0.000  0.00  0.00    +0.000 A 
ATOM     13  C   UNL     1       3.737  -2.287   0.000  0.00  0.00    +0.000 A 
ATOM     14  C   UNL     1       8.135  -3.146   0.000  0.00  0.00    +0.000 A 
ATOM     15  C   UNL     1       3.737  -3.146   0.000  0.00  0.00    +0.000 A 
ENDROOT
BRANCH   3  16
ATOM     16  C   UNL     1       5.936  -1.066   0.000  0.00  0.00    +0.000 C 
BRANCH  16  17
ATOM     17  C   UNL     1       5.222  -0.654   0.000  0.00  0.00    +0.000 C 
BRANCH  17  18
ATOM     18  C   UNL     1       5.222   0.171   0.000  0.00  0.00    +0.000 C 
BRANCH  18  19
ATOM     19  N   UNL     1       4.507   0.583   0.000  0.00  0.00    +0.000 NA
ATOM     20  N   UNL     1       3.079   1.408   0.000  0.00  0.00    +0.000 NA
ATOM     21  C   UNL     1       3.793   0.171   0.000  0.00  0.00    +0.000 C 
ATOM     22  C   UNL     1       4.507   1.408   0.000  0.00  0.00    +0.000 C 
ATOM     23  C   UNL     1       3.079   0.583   0.000  0.00  0.00    +0.000 C 
ATOM     24  C   UNL     1       3.793   1.821   0.000  0.00  0.00    +0.000 C 
BRANCH  20  25
ATOM     25  C   UNL     1       2.364   1.821   0.000  0.00  0.00    +0.000 C 
BRANCH  25  27
ATOM     26  O   UNL     1       1.650   3.058   0.000  0.00  0.00    +0.000 OA
ATOM     27  C   UNL     1       2.364   2.646   0.000  0.00  0.00    +0.000 C 
ENDBRANCH  25  27
ENDBRANCH  20  25
ENDBRANCH  18  19
ENDBRANCH  17  18
ENDBRANCH  16  17
ENDBRANCH   3  16
TORSDOF 6
