REMARK  Name = 853
REMARK  1 active torsions:
REMARK  status: ('A' for Active; 'I' for Inactive)
REMARK    1  A    between atoms: C_10  and  C_14
REMARK                            x       y       z     vdW  Elec       q    Type
REMARK                         _______ _______ _______ _____ _____    ______ ____
ROOT
ATOM      1  O   UNL     1       3.079   1.877   0.000  0.00  0.00    +0.000 OA
ATOM      2  N   UNL     1       3.793   0.640   0.000  0.00  0.00    +0.000 N 
ATOM      3  N   UNL     1       2.365   0.640   0.000  0.00  0.00    +0.000 N 
ATOM      4  N   UNL     1       5.056   0.227   0.000  0.00  0.00    +0.000 NA
ATOM      5  N   UNL     1       3.079  -0.598   0.000  0.00  0.00    +0.000 NA
ATOM      6  N   UNL     1       2.365  -0.185   0.000  0.00  0.00    +0.000 NA
ATOM      7  C   UNL     1       3.793  -0.185   0.000  0.00  0.00    +0.000 A 
ATOM      8  C   UNL     1       4.574  -0.437   0.000  0.00  0.00    +0.000 A 
ATOM      9  C   UNL     1       3.079   1.052   0.000  0.00  0.00    +0.000 A 
ATOM     10  C   UNL     1       4.574   0.891   0.000  0.00  0.00    +0.000 A 
ATOM     11  C   UNL     1       1.650   1.052   0.000  0.00  0.00    +0.000 C 
ENDROOT
BRANCH   8  14
ATOM     12  O   UNL     1       4.279  -1.835   0.000  0.00  0.00    +0.000 OA
ATOM     13  N   UNL     1       5.638  -1.391   0.000  0.00  0.00    +0.000 NA
ATOM     14  C   UNL     1       4.830  -1.221   0.000  0.00  0.00    +0.000 C 
ENDBRANCH   8  14
TORSDOF 1
