REMARK  Name = 854
REMARK  0 active torsions:
REMARK  status: ('A' for Active; 'I' for Inactive)
REMARK                            x       y       z     vdW  Elec       q    Type
REMARK                         _______ _______ _______ _____ _____    ______ ____
ROOT
ATOM      1  O   UNL     1       2.010  -0.376   0.000  0.00  0.00    +0.000 OA
ATOM      2  N   UNL     1       4.930   0.694   0.000  0.00  0.00    +0.000 NA
ATOM      3  C   UNL     1       4.806  -0.356   0.000  0.00  0.00    +0.000 C 
ATOM      4  C   UNL     1       5.492   0.040   0.000  0.00  0.00    +0.000 C 
ATOM      5  C   UNL     1       5.492   0.832   0.000  0.00  0.00    +0.000 C 
ATOM      6  C   UNL     1       4.646  -0.063   0.000  0.00  0.00    +0.000 C 
ATOM      7  C   UNL     1       4.794  -1.181   0.000  0.00  0.00    +0.000 C 
ATOM      8  C   UNL     1       6.213  -0.362   0.000  0.00  0.00    +0.000 C 
ATOM      9  C   UNL     1       4.120   0.040   0.000  0.00  0.00    +0.000 A 
ATOM     10  C   UNL     1       4.806   1.228   0.000  0.00  0.00    +0.000 C 
ATOM     11  C   UNL     1       4.579   0.388   0.000  0.00  0.00    +0.000 C 
ATOM     12  C   UNL     1       5.505  -1.599   0.000  0.00  0.00    +0.000 C 
ATOM     13  C   UNL     1       6.220  -1.187   0.000  0.00  0.00    +0.000 C 
ATOM     14  C   UNL     1       4.120   0.832   0.000  0.00  0.00    +0.000 A 
ATOM     15  C   UNL     1       3.412  -0.384   0.000  0.00  0.00    +0.000 A 
ATOM     16  C   UNL     1       4.493   1.144   0.000  0.00  0.00    +0.000 C 
ATOM     17  C   UNL     1       3.412   1.255   0.000  0.00  0.00    +0.000 A 
ATOM     18  C   UNL     1       2.695   0.023   0.000  0.00  0.00    +0.000 A 
ATOM     19  C   UNL     1       2.695   0.848   0.000  0.00  0.00    +0.000 A 
ENDROOT
TORSDOF 0
