REMARK  Name = 855
REMARK  3 active torsions:
REMARK  status: ('A' for Active; 'I' for Inactive)
REMARK    1  A    between atoms: C_6  and  C_8
REMARK    2  A    between atoms: C_10  and  N_24
REMARK    3  A    between atoms: C_11  and  N_24
REMARK                            x       y       z     vdW  Elec       q    Type
REMARK                         _______ _______ _______ _____ _____    ______ ____
ROOT
ATOM      1  C   UNL     1      -0.624  -0.560   0.000  0.00  0.00    +0.000 A 
ATOM      2  N   UNL     1      -0.624   0.265   0.000  0.00  0.00    +0.000 NA
ATOM      3  C   UNL     1       0.090   0.678   0.000  0.00  0.00    +0.000 A 
ATOM      4  C   UNL     1       0.805   0.265   0.000  0.00  0.00    +0.000 A 
ATOM      5  C   UNL     1       1.519   0.678   0.000  0.00  0.00    +0.000 A 
ATOM      6  C   UNL     1       2.234   0.265   0.000  0.00  0.00    +0.000 A 
ATOM      7  C   UNL     1       2.234  -0.560   0.000  0.00  0.00    +0.000 A 
ATOM      8  C   UNL     1       1.519  -0.972   0.000  0.00  0.00    +0.000 A 
ATOM      9  C   UNL     1       0.805  -0.560   0.000  0.00  0.00    +0.000 A 
ATOM     10  N   UNL     1       0.090  -0.972   0.000  0.00  0.00    +0.000 NA
ENDROOT
BRANCH   1  16
ATOM     11  C   UNL     1      -2.053  -3.035   0.000  0.00  0.00    +0.000 C 
ATOM     12  C   UNL     1      -2.053  -2.210   0.000  0.00  0.00    +0.000 A 
ATOM     13  C   UNL     1      -2.767  -1.797   0.000  0.00  0.00    +0.000 A 
ATOM     14  C   UNL     1      -2.767  -0.972   0.000  0.00  0.00    +0.000 A 
ATOM     15  C   UNL     1      -2.053  -0.560   0.000  0.00  0.00    +0.000 A 
ATOM     16  C   UNL     1      -1.339  -0.972   0.000  0.00  0.00    +0.000 A 
ATOM     17  N   UNL     1      -1.339  -1.797   0.000  0.00  0.00    +0.000 NA
ENDBRANCH   1  16
BRANCH   3  18
ATOM     18  N   UNL     1       0.090   1.503   0.000  0.00  0.00    +0.000 NA
BRANCH  18  19
ATOM     19  C   UNL     1       0.805   1.915   0.000  0.00  0.00    +0.000 A 
ATOM     20  C   UNL     1       0.805   2.740   0.000  0.00  0.00    +0.000 A 
ATOM     21  C   UNL     1       1.519   3.153   0.000  0.00  0.00    +0.000 A 
ATOM     22  N   UNL     1       2.234   2.740   0.000  0.00  0.00    +0.000 NA
ATOM     23  C   UNL     1       2.234   1.915   0.000  0.00  0.00    +0.000 A 
ATOM     24  C   UNL     1       1.519   1.503   0.000  0.00  0.00    +0.000 A 
ENDBRANCH  18  19
ENDBRANCH   3  18
TORSDOF 3
