REMARK  Name = 856
REMARK  4 active torsions:
REMARK  status: ('A' for Active; 'I' for Inactive)
REMARK    1  A    between atoms: O_2  and  C_6
REMARK    2  A    between atoms: O_2  and  C_8
REMARK    3  A    between atoms: C_5  and  C_6
REMARK    4  A    between atoms: C_5  and  C_7
REMARK                            x       y       z     vdW  Elec       q    Type
REMARK                         _______ _______ _______ _____ _____    ______ ____
ROOT
ATOM      1 CL   UNL     1       2.365  -3.015   0.000  0.00  0.00    +0.000 Cl
ATOM      2  C   UNL     1       2.365  -0.540   0.000  0.00  0.00    +0.000 A 
ATOM      3  C   UNL     1       3.079  -0.953   0.000  0.00  0.00    +0.000 A 
ATOM      4  C   UNL     1       1.650  -0.953   0.000  0.00  0.00    +0.000 A 
ATOM      5  C   UNL     1       3.079  -1.778   0.000  0.00  0.00    +0.000 A 
ATOM      6  C   UNL     1       1.650  -1.778   0.000  0.00  0.00    +0.000 A 
ATOM      7  C   UNL     1       2.365  -2.190   0.000  0.00  0.00    +0.000 A 
ENDROOT
BRANCH   2   8
ATOM      8  O   UNL     1       2.365   0.285   0.000  0.00  0.00    +0.000 OA
BRANCH   8   9
ATOM      9  C   UNL     1       3.079   0.697   0.000  0.00  0.00    +0.000 C 
BRANCH   9  11
ATOM     10  O   UNL     1       2.365   1.935   0.000  0.00  0.00    +0.000 OA
ATOM     11  C   UNL     1       3.079   1.522   0.000  0.00  0.00    +0.000 C 
BRANCH  11  13
ATOM     12  O   UNL     1       3.793   2.760   0.000  0.00  0.00    +0.000 OA
ATOM     13  C   UNL     1       3.793   1.935   0.000  0.00  0.00    +0.000 C 
ENDBRANCH  11  13
ENDBRANCH   9  11
ENDBRANCH   8   9
ENDBRANCH   2   8
TORSDOF 4
