REMARK  Name = 859
REMARK  3 active torsions:
REMARK  status: ('A' for Active; 'I' for Inactive)
REMARK    1  A    between atoms: N_7  and  C_8
REMARK    2  A    between atoms: C_9  and  C_22
REMARK    3  A    between atoms: N_14  and  C_15
REMARK                            x       y       z     vdW  Elec       q    Type
REMARK                         _______ _______ _______ _____ _____    ______ ____
ROOT
ATOM      1  C   UNL     1       2.862   0.273   0.000  0.00  0.00    +0.000 A 
ATOM      2  N   UNL     1       2.148  -0.139   0.000  0.00  0.00    +0.000 NA
ATOM      3  C   UNL     1       2.148  -0.964   0.000  0.00  0.00    +0.000 A 
ATOM      4  C   UNL     1       2.862  -1.377   0.000  0.00  0.00    +0.000 A 
ATOM      5  C   UNL     1       3.576  -0.964   0.000  0.00  0.00    +0.000 A 
ATOM      6  N   UNL     1       3.576  -0.139   0.000  0.00  0.00    +0.000 NA
ATOM      7  N   UNL     1       1.433  -1.377   0.000  0.00  0.00    +0.000 NA
ATOM      8  N   UNL     1       2.862   1.098   0.000  0.00  0.00    +0.000 NA
ENDROOT
BRANCH   8   9
ATOM      9  C   UNL     1       2.148   1.511   0.000  0.00  0.00    +0.000 A 
ATOM     10  C   UNL     1       2.148   2.336   0.000  0.00  0.00    +0.000 A 
ATOM     11  C   UNL     1       1.433   2.748   0.000  0.00  0.00    +0.000 A 
ATOM     12  C   UNL     1       0.719   2.336   0.000  0.00  0.00    +0.000 A 
ATOM     13  C   UNL     1       0.719   1.511   0.000  0.00  0.00    +0.000 A 
ATOM     14  C   UNL     1       1.433   1.098   0.000  0.00  0.00    +0.000 A 
ATOM     15  O   UNL     1       0.004   1.098   0.000  0.00  0.00    +0.000 OA
ENDBRANCH   8   9
BRANCH   7  16
ATOM     16  C   UNL     1       1.433  -2.202   0.000  0.00  0.00    +0.000 A 
ATOM     17  C   UNL     1       0.719  -2.614   0.000  0.00  0.00    +0.000 A 
ATOM     18  C   UNL     1       0.719  -3.439   0.000  0.00  0.00    +0.000 A 
ATOM     19  C   UNL     1       1.433  -3.852   0.000  0.00  0.00    +0.000 A 
ATOM     20  C   UNL     1       2.148  -3.439   0.000  0.00  0.00    +0.000 A 
ATOM     21  C   UNL     1       2.148  -2.614   0.000  0.00  0.00    +0.000 A 
BRANCH  17  22
ATOM     22  C   UNL     1       0.004  -2.202   0.000  0.00  0.00    +0.000 C 
ATOM     23  N   UNL     1       0.004  -1.377   0.000  0.00  0.00    +0.000 NA
ATOM     24  O   UNL     1      -0.710  -2.614   0.000  0.00  0.00    +0.000 OA
ENDBRANCH  17  22
ENDBRANCH   7  16
TORSDOF 3
