REMARK  Name = 861
REMARK  2 active torsions:
REMARK  status: ('A' for Active; 'I' for Inactive)
REMARK    1  A    between atoms: C_6  and  C_7
REMARK    2  A    between atoms: C_10  and  C_18
REMARK                            x       y       z     vdW  Elec       q    Type
REMARK                         _______ _______ _______ _____ _____    ______ ____
ROOT
ATOM      1  O   UNL     1       4.237  -2.760   0.000  0.00  0.00    +0.000 OA
ATOM      2  C   UNL     1       4.237  -0.285   0.000  0.00  0.00    +0.000 A 
ATOM      3  C   UNL     1       3.522  -0.697   0.000  0.00  0.00    +0.000 A 
ATOM      4  C   UNL     1       4.951  -0.697   0.000  0.00  0.00    +0.000 A 
ATOM      5  C   UNL     1       3.522  -1.522   0.000  0.00  0.00    +0.000 A 
ATOM      6  C   UNL     1       4.237  -1.935   0.000  0.00  0.00    +0.000 A 
ATOM      7  C   UNL     1       4.951  -1.522   0.000  0.00  0.00    +0.000 A 
ENDROOT
BRANCH   2  10
ATOM      8  F   UNL     1       5.665   0.540   0.000  0.00  0.00    +0.000 F 
ATOM      9  F   UNL     1       4.237   3.015   0.000  0.00  0.00    +0.000 F 
ATOM     10  C   UNL     1       4.237   0.540   0.000  0.00  0.00    +0.000 A 
ATOM     11  C   UNL     1       4.951   0.953   0.000  0.00  0.00    +0.000 A 
ATOM     12  C   UNL     1       3.522   0.953   0.000  0.00  0.00    +0.000 A 
ATOM     13  C   UNL     1       4.951   1.778   0.000  0.00  0.00    +0.000 A 
ATOM     14  C   UNL     1       3.522   1.778   0.000  0.00  0.00    +0.000 A 
ATOM     15  C   UNL     1       4.237   2.190   0.000  0.00  0.00    +0.000 A 
ENDBRANCH   2  10
BRANCH   5  18
ATOM     16  O   UNL     1       2.093  -1.522   0.000  0.00  0.00    +0.000 OA
ATOM     17  O   UNL     1       2.808  -2.760   0.000  0.00  0.00    +0.000 OA
ATOM     18  C   UNL     1       2.808  -1.935   0.000  0.00  0.00    +0.000 C 
ENDBRANCH   5  18
TORSDOF 2
