REMARK  Name = 864
REMARK  11 active torsions:
REMARK  status: ('A' for Active; 'I' for Inactive)
REMARK    1  A    between atoms: C_1  and  C_2
REMARK    2  A    between atoms: C_1  and  C_3
REMARK    3  A    between atoms: C_1  and  C_13
REMARK    4  A    between atoms: C_7  and  C_9
REMARK    5  A    between atoms: C_13  and  P_14
REMARK    6  A    between atoms: P_14  and  C_15
REMARK    7  A    between atoms: C_15  and  C_16
REMARK    8  A    between atoms: C_15  and  N_19
REMARK    9  A    between atoms: C_20  and  O_22
REMARK   10  A    between atoms: O_22  and  C_23
REMARK   11  A    between atoms: C_23  and  C_26
REMARK                            x       y       z     vdW  Elec       q    Type
REMARK                         _______ _______ _______ _____ _____    ______ ____
ROOT
ATOM      1  P   UNL     1       0.249  -0.055   0.000  0.00  0.00    +0.000 P 
ATOM      2  O   UNL     1       0.719   0.623   0.000  0.00  0.00    +0.000 OA
ATOM      3  O   UNL     1      -0.220  -0.733   0.000  0.00  0.00    +0.000 OA
ENDROOT
BRANCH   1   4
ATOM      4  C   UNL     1       0.928  -0.525   0.000  0.00  0.00    +0.000 C 
BRANCH   4   5
ATOM      5  C   UNL     1       1.674  -0.172   0.000  0.00  0.00    +0.000 C 
BRANCH   5   6
ATOM      6  C   UNL     1       2.352  -0.642   0.000  0.00  0.00    +0.000 A 
ATOM      7  C   UNL     1       2.284  -1.464   0.000  0.00  0.00    +0.000 A 
ATOM      8  C   UNL     1       2.962  -1.934   0.000  0.00  0.00    +0.000 A 
ATOM      9  C   UNL     1       3.708  -1.582   0.000  0.00  0.00    +0.000 A 
ATOM     10  C   UNL     1       3.776  -0.760   0.000  0.00  0.00    +0.000 A 
ATOM     11  C   UNL     1       3.098  -0.290   0.000  0.00  0.00    +0.000 A 
BRANCH  10  12
ATOM     12  C   UNL     1       4.522  -0.407   0.000  0.00  0.00    +0.000 C 
ATOM     13  N   UNL     1       5.200  -0.877   0.000  0.00  0.00    +0.000 NA
ENDBRANCH  10  12
ENDBRANCH   5   6
BRANCH   5  14
ATOM     14  C   UNL     1       1.741   0.650   0.000  0.00  0.00    +0.000 C 
ATOM     15  O   UNL     1       2.487   1.002   0.000  0.00  0.00    +0.000 OA
ATOM     16  O   UNL     1       1.063   1.120   0.000  0.00  0.00    +0.000 OA
ENDBRANCH   5  14
ENDBRANCH   4   5
ENDBRANCH   1   4
BRANCH   1  17
ATOM     17  C   UNL     1      -0.429   0.415   0.000  0.00  0.00    +0.000 C 
BRANCH  17  18
ATOM     18  C   UNL     1      -0.361   1.237   0.000  0.00  0.00    +0.000 C 
ATOM     19  C   UNL     1      -1.039   1.707   0.000  0.00  0.00    +0.000 C 
ATOM     20  C   UNL     1       0.385   1.589   0.000  0.00  0.00    +0.000 C 
ENDBRANCH  17  18
BRANCH  17  21
ATOM     21  N   UNL     1      -1.175   0.063   0.000  0.00  0.00    +0.000 NA
ATOM     22  C   UNL     1      -1.853   0.532   0.000  0.00  0.00    +0.000 C 
ATOM     23  O   UNL     1      -1.785   1.355   0.000  0.00  0.00    +0.000 OA
BRANCH  22  24
ATOM     24  O   UNL     1      -2.599   0.180   0.000  0.00  0.00    +0.000 OA
BRANCH  24  25
ATOM     25  C   UNL     1      -3.277   0.650   0.000  0.00  0.00    +0.000 C 
BRANCH  25  26
ATOM     26  C   UNL     1      -4.023   0.297   0.000  0.00  0.00    +0.000 A 
ATOM     27  C   UNL     1      -4.701   0.767   0.000  0.00  0.00    +0.000 A 
ATOM     28  C   UNL     1      -5.447   0.415   0.000  0.00  0.00    +0.000 A 
ATOM     29  C   UNL     1      -5.515  -0.407   0.000  0.00  0.00    +0.000 A 
ATOM     30  C   UNL     1      -4.837  -0.877   0.000  0.00  0.00    +0.000 A 
ATOM     31  C   UNL     1      -4.091  -0.525   0.000  0.00  0.00    +0.000 A 
ENDBRANCH  25  26
ENDBRANCH  24  25
ENDBRANCH  22  24
ENDBRANCH  17  21
ENDBRANCH   1  17
TORSDOF 11
