REMARK  Name = 866
REMARK  8 active torsions:
REMARK  status: ('A' for Active; 'I' for Inactive)
REMARK    1  A    between atoms: O_1  and  C_7
REMARK    2  A    between atoms: O_1  and  C_10
REMARK    3  A    between atoms: N_3  and  C_5
REMARK    4  A    between atoms: N_3  and  C_6
REMARK    5  A    between atoms: C_4  and  C_5
REMARK    6  A    between atoms: C_4  and  C_7
REMARK    7  A    between atoms: C_11  and  C_12
REMARK    8  A    between atoms: C_12  and  C_17
REMARK                            x       y       z     vdW  Elec       q    Type
REMARK                         _______ _______ _______ _____ _____    ______ ____
ROOT
ATOM      1  O   UNL     1       4.508  -0.619   0.000  0.00  0.00    +0.000 OA
ENDROOT
BRANCH   1   2
ATOM      2  C   UNL     1       4.508  -1.444   0.000  0.00  0.00    +0.000 A 
ATOM      3  C   UNL     1       3.793  -1.856   0.000  0.00  0.00    +0.000 A 
ATOM      4  C   UNL     1       5.222  -1.856   0.000  0.00  0.00    +0.000 A 
ATOM      5  C   UNL     1       3.793  -2.681   0.000  0.00  0.00    +0.000 A 
ATOM      6  C   UNL     1       5.222  -2.681   0.000  0.00  0.00    +0.000 A 
ATOM      7  C   UNL     1       4.508  -3.094   0.000  0.00  0.00    +0.000 A 
BRANCH   3   8
ATOM      8  C   UNL     1       3.079  -1.444   0.000  0.00  0.00    +0.000 C 
BRANCH   8   9
ATOM      9  C   UNL     1       2.365  -1.856   0.000  0.00  0.00    +0.000 C 
ATOM     10  C   UNL     1       1.650  -1.444   0.000  0.00  0.00    +0.000 C 
ENDBRANCH   8   9
ENDBRANCH   3   8
ENDBRANCH   1   2
BRANCH   1  11
ATOM     11  C   UNL     1       5.222  -0.206   0.000  0.00  0.00    +0.000 C 
BRANCH  11  13
ATOM     12  O   UNL     1       4.508   1.031   0.000  0.00  0.00    +0.000 OA
ATOM     13  C   UNL     1       5.222   0.619   0.000  0.00  0.00    +0.000 C 
BRANCH  13  14
ATOM     14  C   UNL     1       5.937   1.031   0.000  0.00  0.00    +0.000 C 
BRANCH  14  15
ATOM     15  N   UNL     1       5.937   1.856   0.000  0.00  0.00    +0.000 NA
BRANCH  15  16
ATOM     16  C   UNL     1       6.652   2.269   0.000  0.00  0.00    +0.000 C 
ATOM     17  C   UNL     1       7.366   1.856   0.000  0.00  0.00    +0.000 C 
ATOM     18  C   UNL     1       6.652   3.094   0.000  0.00  0.00    +0.000 C 
ENDBRANCH  15  16
ENDBRANCH  14  15
ENDBRANCH  13  14
ENDBRANCH  11  13
ENDBRANCH   1  11
TORSDOF 8
