REMARK  Name = 870
REMARK  4 active torsions:
REMARK  status: ('A' for Active; 'I' for Inactive)
REMARK    1  A    between atoms: C_5  and  S_7
REMARK    2  A    between atoms: S_7  and  N_10
REMARK    3  A    between atoms: C_15  and  O_22
REMARK    4  A    between atoms: C_17  and  C_28
REMARK                            x       y       z     vdW  Elec       q    Type
REMARK                         _______ _______ _______ _____ _____    ______ ____
ROOT
ATOM      1  N   UNL     1      -2.087   0.288   0.000  0.00  0.00    +0.000 NA
ATOM      2  C   UNL     1      -1.262   0.288   0.000  0.00  0.00    +0.000 A 
ATOM      3  N   UNL     1      -0.777   0.956   0.000  0.00  0.00    +0.000 NA
ATOM      4  C   UNL     1       0.007   0.701   0.000  0.00  0.00    +0.000 A 
ATOM      5  C   UNL     1       0.722   1.113   0.000  0.00  0.00    +0.000 A 
ATOM      6  C   UNL     1       1.437   0.701   0.000  0.00  0.00    +0.000 A 
ATOM      7  C   UNL     1       1.437  -0.124   0.000  0.00  0.00    +0.000 A 
ATOM      8  C   UNL     1       0.722  -0.536   0.000  0.00  0.00    +0.000 A 
ATOM      9  C   UNL     1       0.007  -0.124   0.000  0.00  0.00    +0.000 A 
ATOM     10  O   UNL     1      -0.777  -0.379   0.000  0.00  0.00    +0.000 OA
ENDROOT
BRANCH   8  15
ATOM     11  C   UNL     1       1.437  -2.599   0.000  0.00  0.00    +0.000 A 
ATOM     12  C   UNL     1       0.722  -3.011   0.000  0.00  0.00    +0.000 A 
ATOM     13  C   UNL     1       0.007  -2.599   0.000  0.00  0.00    +0.000 A 
ATOM     14  C   UNL     1       0.007  -1.774   0.000  0.00  0.00    +0.000 A 
ATOM     15  C   UNL     1       0.722  -1.361   0.000  0.00  0.00    +0.000 A 
ATOM     16  C   UNL     1       1.437  -1.774   0.000  0.00  0.00    +0.000 A 
ATOM     17  N   UNL     1      -0.707  -3.011   0.000  0.00  0.00    +0.000 NA
ENDBRANCH   8  15
BRANCH   1  18
ATOM     18  S   UNL     1      -2.499   1.003   0.000  0.00  0.00    +0.000 S 
ATOM     19  O   UNL     1      -3.214   0.591   0.000  0.00  0.00    +0.000 OA
ATOM     20  O   UNL     1      -1.785   1.415   0.000  0.00  0.00    +0.000 OA
BRANCH  18  25
ATOM     21  C   UNL     1      -4.149   2.432   0.000  0.00  0.00    +0.000 A 
ATOM     22  C   UNL     1      -3.737   3.146   0.000  0.00  0.00    +0.000 A 
ATOM     23  C   UNL     1      -2.912   3.146   0.000  0.00  0.00    +0.000 A 
ATOM     24  C   UNL     1      -2.499   2.432   0.000  0.00  0.00    +0.000 A 
ATOM     25  C   UNL     1      -2.912   1.717   0.000  0.00  0.00    +0.000 A 
ATOM     26  C   UNL     1      -3.737   1.717   0.000  0.00  0.00    +0.000 A 
ATOM     27 CL   UNL     1      -2.499   3.861   0.000  0.00  0.00    +0.000 Cl
ATOM     28 CL   UNL     1      -4.149   1.003   0.000  0.00  0.00    +0.000 Cl
ENDBRANCH  18  25
ENDBRANCH   1  18
BRANCH   6  29
ATOM     29  O   UNL     1       2.151   1.113   0.000  0.00  0.00    +0.000 OA
ATOM     30  C   UNL     1       2.865   0.701   0.000  0.00  0.00    +0.000 C 
ENDBRANCH   6  29
TORSDOF 4
