REMARK  Name = 870
REMARK  4 active torsions:
REMARK  status: ('A' for Active; 'I' for Inactive)
REMARK    1  A    between atoms: C_5  and  C_6
REMARK    2  A    between atoms: C_5  and  C_13
REMARK    3  A    between atoms: C_9  and  C_14
REMARK    4  A    between atoms: C_14  and  C_15
REMARK                            x       y       z     vdW  Elec       q    Type
REMARK                         _______ _______ _______ _____ _____    ______ ____
ROOT
ATOM      1  C   UNL     1       3.079  -0.781   0.000  0.00  0.00    +0.000 A 
ATOM      2  C   UNL     1       2.365  -0.368   0.000  0.00  0.00    +0.000 A 
ATOM      3  C   UNL     1       3.793  -0.368   0.000  0.00  0.00    +0.000 A 
ATOM      4  C   UNL     1       3.079   0.869   0.000  0.00  0.00    +0.000 A 
ATOM      5  C   UNL     1       2.365   0.457   0.000  0.00  0.00    +0.000 A 
ATOM      6  C   UNL     1       3.793   0.457   0.000  0.00  0.00    +0.000 A 
ENDROOT
BRANCH   4   8
ATOM      7  O   UNL     1       2.365   2.107   0.000  0.00  0.00    +0.000 OA
ATOM      8  C   UNL     1       3.079   1.694   0.000  0.00  0.00    +0.000 C 
BRANCH   8  10
ATOM      9  S   UNL     1       3.880   2.927   0.000  0.00  0.00    +0.000 S 
ATOM     10  C   UNL     1       3.793   2.107   0.000  0.00  0.00    +0.000 A 
ATOM     11  C   UNL     1       4.547   1.771   0.000  0.00  0.00    +0.000 A 
ATOM     12  C   UNL     1       5.099   2.385   0.000  0.00  0.00    +0.000 A 
ATOM     13  C   UNL     1       4.687   3.099   0.000  0.00  0.00    +0.000 A 
ENDBRANCH   8  10
ENDBRANCH   4   8
BRANCH   1  14
ATOM     14  C   UNL     1       3.079  -1.606   0.000  0.00  0.00    +0.000 C 
ATOM     15  C   UNL     1       3.793  -2.018   0.000  0.00  0.00    +0.000 C 
BRANCH  14  18
ATOM     16  O   UNL     1       2.365  -2.843   0.000  0.00  0.00    +0.000 OA
ATOM     17  O   UNL     1       1.650  -1.606   0.000  0.00  0.00    +0.000 OA
ATOM     18  C   UNL     1       2.365  -2.018   0.000  0.00  0.00    +0.000 C 
ENDBRANCH  14  18
ENDBRANCH   1  14
TORSDOF 4
