REMARK  Name = 871
REMARK  4 active torsions:
REMARK  status: ('A' for Active; 'I' for Inactive)
REMARK    1  A    between atoms: N_4  and  C_5
REMARK    2  A    between atoms: N_4  and  C_6
REMARK    3  A    between atoms: C_6  and  C_7
REMARK    4  A    between atoms: C_7  and  C_11
REMARK                            x       y       z     vdW  Elec       q    Type
REMARK                         _______ _______ _______ _____ _____    ______ ____
ROOT
ATOM      1  O   UNL     1       2.365   0.724   0.000  0.00  0.00    +0.000 OA
ATOM      2  C   UNL     1       3.079   0.311   0.000  0.00  0.00    +0.000 C 
ENDROOT
BRANCH   2   5
ATOM      3  O   UNL     1       1.650  -2.164   0.000  0.00  0.00    +0.000 OA
ATOM      4  O   UNL     1       4.508  -2.164   0.000  0.00  0.00    +0.000 OA
ATOM      5  C   UNL     1       3.079  -0.514   0.000  0.00  0.00    +0.000 A 
ATOM      6  C   UNL     1       3.793  -0.926   0.000  0.00  0.00    +0.000 A 
ATOM      7  C   UNL     1       2.365  -0.926   0.000  0.00  0.00    +0.000 A 
ATOM      8  C   UNL     1       2.365  -1.752   0.000  0.00  0.00    +0.000 A 
ATOM      9  C   UNL     1       3.793  -1.752   0.000  0.00  0.00    +0.000 A 
ATOM     10  C   UNL     1       3.079  -2.164   0.000  0.00  0.00    +0.000 A 
ENDBRANCH   2   5
BRANCH   2  11
ATOM     11  C   UNL     1       3.793   0.724   0.000  0.00  0.00    +0.000 C 
BRANCH  11  12
ATOM     12  N   UNL     1       3.793   1.549   0.000  0.00  0.00    +0.000 NA
BRANCH  12  13
ATOM     13  C   UNL     1       4.508   1.961   0.000  0.00  0.00    +0.000 C 
ATOM     14  C   UNL     1       5.222   2.374   0.000  0.00  0.00    +0.000 C 
ATOM     15  C   UNL     1       4.096   2.675   0.000  0.00  0.00    +0.000 C 
ATOM     16  C   UNL     1       4.920   1.247   0.000  0.00  0.00    +0.000 C 
ENDBRANCH  12  13
ENDBRANCH  11  12
ENDBRANCH   2  11
TORSDOF 4
