REMARK  Name = 872
REMARK  4 active torsions:
REMARK  status: ('A' for Active; 'I' for Inactive)
REMARK    1  A    between atoms: N_6  and  C_23
REMARK    2  A    between atoms: C_14  and  C_17
REMARK    3  A    between atoms: C_26  and  C_28
REMARK    4  A    between atoms: C_27  and  C_29
REMARK                            x       y       z     vdW  Elec       q    Type
REMARK                         _______ _______ _______ _____ _____    ______ ____
ROOT
ATOM      1  C   UNL     1       3.723  -0.073   0.000  0.00  0.00    +0.000 A 
ATOM      2  C   UNL     1       3.365   0.670   0.000  0.00  0.00    +0.000 A 
ATOM      3  C   UNL     1       4.545  -0.135   0.000  0.00  0.00    +0.000 A 
ATOM      4  C   UNL     1       4.652   1.290   0.000  0.00  0.00    +0.000 A 
ATOM      5  C   UNL     1       3.830   1.352   0.000  0.00  0.00    +0.000 A 
ATOM      6  C   UNL     1       5.010   0.547   0.000  0.00  0.00    +0.000 A 
ENDROOT
BRANCH   1  18
ATOM      7  O   UNL     1       2.435  -0.693   0.000  0.00  0.00    +0.000 OA
ATOM      8  N   UNL     1       3.616  -1.498   0.000  0.00  0.00    +0.000 N 
ATOM      9  N   UNL     1       5.337  -3.542   0.000  0.00  0.00    +0.000 NA
ATOM     10  N   UNL     1       4.141  -4.118   0.000  0.00  0.00    +0.000 NA
ATOM     11  C   UNL     1       4.955  -2.143   0.000  0.00  0.00    +0.000 C 
ATOM     12  C   UNL     1       4.441  -1.498   0.000  0.00  0.00    +0.000 C 
ATOM     13  C   UNL     1       4.772  -2.947   0.000  0.00  0.00    +0.000 A 
ATOM     14  C   UNL     1       4.029  -3.305   0.000  0.00  0.00    +0.000 A 
ATOM     15  C   UNL     1       3.102  -2.143   0.000  0.00  0.00    +0.000 A 
ATOM     16  C   UNL     1       3.285  -2.947   0.000  0.00  0.00    +0.000 A 
ATOM     17  C   UNL     1       4.948  -4.263   0.000  0.00  0.00    +0.000 A 
ATOM     18  C   UNL     1       3.258  -0.755   0.000  0.00  0.00    +0.000 C 
ATOM     19  C   UNL     1       2.284  -1.877   0.000  0.00  0.00    +0.000 A 
ATOM     20  C   UNL     1       2.664  -3.542   0.000  0.00  0.00    +0.000 A 
ATOM     21  C   UNL     1       1.650  -2.457   0.000  0.00  0.00    +0.000 A 
ATOM     22  C   UNL     1       1.841  -3.295   0.000  0.00  0.00    +0.000 A 
ATOM     23  C   UNL     1       5.306  -5.007   0.000  0.00  0.00    +0.000 C 
ENDBRANCH   1  18
BRANCH   4  25
ATOM     24  O   UNL     1       3.936   2.777   0.000  0.00  0.00    +0.000 OA
ATOM     25  N   UNL     1       5.117   1.972   0.000  0.00  0.00    +0.000 NA
ATOM     26  C   UNL     1       4.759   2.715   0.000  0.00  0.00    +0.000 C 
BRANCH  26  27
ATOM     27  C   UNL     1       5.224   3.397   0.000  0.00  0.00    +0.000 A 
ATOM     28  C   UNL     1       4.866   4.140   0.000  0.00  0.00    +0.000 A 
ATOM     29  C   UNL     1       6.046   3.335   0.000  0.00  0.00    +0.000 A 
ATOM     30  C   UNL     1       5.331   4.822   0.000  0.00  0.00    +0.000 A 
ATOM     31  C   UNL     1       6.511   4.017   0.000  0.00  0.00    +0.000 A 
ATOM     32  C   UNL     1       6.153   4.760   0.000  0.00  0.00    +0.000 A 
BRANCH  28  33
ATOM     33  C   UNL     1       4.043   4.202   0.000  0.00  0.00    +0.000 A 
ATOM     34  C   UNL     1       3.578   3.520   0.000  0.00  0.00    +0.000 A 
ATOM     35  C   UNL     1       3.685   4.945   0.000  0.00  0.00    +0.000 A 
ATOM     36  C   UNL     1       2.756   3.582   0.000  0.00  0.00    +0.000 A 
ATOM     37  C   UNL     1       2.862   5.007   0.000  0.00  0.00    +0.000 A 
ATOM     38  C   UNL     1       2.398   4.325   0.000  0.00  0.00    +0.000 A 
ENDBRANCH  28  33
ENDBRANCH  26  27
ENDBRANCH   4  25
TORSDOF 4
