REMARK  Name = 877
REMARK  8 active torsions:
REMARK  status: ('A' for Active; 'I' for Inactive)
REMARK    1  A    between atoms: C_2  and  O_19
REMARK    2  A    between atoms: C_3  and  C_7
REMARK    3  A    between atoms: C_5  and  O_17
REMARK    4  A    between atoms: C_7  and  C_8
REMARK    5  A    between atoms: N_9  and  C_10
REMARK    6  A    between atoms: C_13  and  O_23
REMARK    7  A    between atoms: C_14  and  C_22
REMARK    8  A    between atoms: O_23  and  C_24
REMARK                            x       y       z     vdW  Elec       q    Type
REMARK                         _______ _______ _______ _____ _____    ______ ____
ROOT
ATOM      1  C   UNL     1       0.519   0.732   0.000  0.00  0.00    +0.000 C 
ATOM      2  N   UNL     1       1.234   0.320   0.000  0.00  0.00    +0.000 NA
ATOM      3  O   UNL     1      -0.195   0.320   0.000  0.00  0.00    +0.000 OA
ENDROOT
BRANCH   2   4
ATOM      4  C   UNL     1       1.234  -0.505   0.000  0.00  0.00    +0.000 A 
ATOM      5  N   UNL     1       1.948  -0.918   0.000  0.00  0.00    +0.000 NA
ATOM      6  C   UNL     1       1.948  -1.743   0.000  0.00  0.00    +0.000 A 
ATOM      7  C   UNL     1       1.234  -2.155   0.000  0.00  0.00    +0.000 A 
ATOM      8  C   UNL     1       0.519  -1.743   0.000  0.00  0.00    +0.000 A 
ATOM      9  C   UNL     1       0.519  -0.918   0.000  0.00  0.00    +0.000 A 
ATOM     10  N   UNL     1      -0.195  -2.155   0.000  0.00  0.00    +0.000 NA
BRANCH   7  11
ATOM     11  C   UNL     1       1.234  -2.981   0.000  0.00  0.00    +0.000 C 
ATOM     12  N   UNL     1       1.234  -3.805   0.000  0.00  0.00    +0.000 NA
ENDBRANCH   7  11
BRANCH   6  13
ATOM     13  O   UNL     1       2.663  -2.155   0.000  0.00  0.00    +0.000 OA
BRANCH  13  14
ATOM     14  C   UNL     1       2.663  -2.981   0.000  0.00  0.00    +0.000 C 
ATOM     15  C   UNL     1       3.377  -3.393   0.000  0.00  0.00    +0.000 C 
ENDBRANCH  13  14
ENDBRANCH   6  13
ENDBRANCH   2   4
BRANCH   1  16
ATOM     16  C   UNL     1       0.519   1.557   0.000  0.00  0.00    +0.000 C 
BRANCH  16  19
ATOM     17  C   UNL     1      -0.909   3.207   0.000  0.00  0.00    +0.000 A 
ATOM     18  C   UNL     1      -0.195   2.795   0.000  0.00  0.00    +0.000 A 
ATOM     19  C   UNL     1      -0.195   1.970   0.000  0.00  0.00    +0.000 A 
ATOM     20  C   UNL     1      -0.909   1.557   0.000  0.00  0.00    +0.000 A 
ATOM     21  C   UNL     1      -1.624   1.970   0.000  0.00  0.00    +0.000 A 
ATOM     22  C   UNL     1      -1.624   2.795   0.000  0.00  0.00    +0.000 A 
ATOM     23 BR   UNL     1      -2.338   3.207   0.000  0.00  0.00    +0.000 Br
BRANCH  21  24
ATOM     24  O   UNL     1      -2.338   1.557   0.000  0.00  0.00    +0.000 OA
ATOM     25  C   UNL     1      -3.053   1.970   0.000  0.00  0.00    +0.000 C 
ENDBRANCH  21  24
BRANCH  18  26
ATOM     26  O   UNL     1       0.519   3.207   0.000  0.00  0.00    +0.000 OA
ATOM     27  C   UNL     1       1.234   2.795   0.000  0.00  0.00    +0.000 C 
ENDBRANCH  18  26
ENDBRANCH  16  19
ENDBRANCH   1  16
TORSDOF 8
