REMARK  Name = 878
REMARK  3 active torsions:
REMARK  status: ('A' for Active; 'I' for Inactive)
REMARK    1  A    between atoms: C_3  and  N_10
REMARK    2  A    between atoms: C_4  and  C_7
REMARK    3  A    between atoms: C_11  and  C_13
REMARK                            x       y       z     vdW  Elec       q    Type
REMARK                         _______ _______ _______ _____ _____    ______ ____
ROOT
ATOM      1  C   UNL     1       0.646   1.422   0.000  0.00  0.00    +0.000 A 
ATOM      2  C   UNL     1       0.646   0.597   0.000  0.00  0.00    +0.000 A 
ATOM      3  C   UNL     1      -0.069   0.185   0.000  0.00  0.00    +0.000 A 
ATOM      4  C   UNL     1      -0.783   0.597   0.000  0.00  0.00    +0.000 A 
ATOM      5  C   UNL     1      -0.783   1.422   0.000  0.00  0.00    +0.000 A 
ATOM      6  C   UNL     1      -0.069   1.835   0.000  0.00  0.00    +0.000 A 
ATOM      7  I   UNL     1      -0.069   2.660   0.000  0.00  0.00    +0.000 I 
ENDROOT
BRANCH   4   8
ATOM      8  C   UNL     1      -1.498   0.185   0.000  0.00  0.00    +0.000 C 
ATOM      9  O   UNL     1      -2.212   0.597   0.000  0.00  0.00    +0.000 OA
ATOM     10  O   UNL     1      -1.498  -0.640   0.000  0.00  0.00    +0.000 OA
ENDBRANCH   4   8
BRANCH   3  11
ATOM     11  N   UNL     1      -0.069  -0.640   0.000  0.00  0.00    +0.000 NA
ATOM     12  C   UNL     1       0.646  -1.053   0.000  0.00  0.00    +0.000 C 
ATOM     13  O   UNL     1       1.360  -0.640   0.000  0.00  0.00    +0.000 OA
BRANCH  12  14
ATOM     14  C   UNL     1       0.646  -1.878   0.000  0.00  0.00    +0.000 C 
ATOM     15  O   UNL     1      -0.069  -2.290   0.000  0.00  0.00    +0.000 OA
ATOM     16  O   UNL     1       1.360  -2.290   0.000  0.00  0.00    +0.000 OA
ENDBRANCH  12  14
ENDBRANCH   3  11
TORSDOF 3
