REMARK  Name = 879
REMARK  0 active torsions:
REMARK  status: ('A' for Active; 'I' for Inactive)
REMARK                            x       y       z     vdW  Elec       q    Type
REMARK                         _______ _______ _______ _____ _____    ______ ____
ROOT
ATOM      1  F   UNL     1       4.508   2.249   0.000  0.00  0.00    +0.000 F 
ATOM      2  O   UNL     1       1.650   0.599   0.000  0.00  0.00    +0.000 OA
ATOM      3  N   UNL     1       3.079   0.599   0.000  0.00  0.00    +0.000 NA
ATOM      4  N   UNL     1       2.365   1.837   0.000  0.00  0.00    +0.000 NA
ATOM      5  N   UNL     1       3.079   3.074   0.000  0.00  0.00    +0.000 NA
ATOM      6  C   UNL     1       3.793   1.012   0.000  0.00  0.00    +0.000 A 
ATOM      7  C   UNL     1       2.365   1.012   0.000  0.00  0.00    +0.000 A 
ATOM      8  C   UNL     1       3.793   1.837   0.000  0.00  0.00    +0.000 A 
ATOM      9  C   UNL     1       3.079   2.249   0.000  0.00  0.00    +0.000 A 
ENDROOT
TORSDOF 0
