REMARK  Name = 87Y
REMARK  4 active torsions:
REMARK  status: ('A' for Active; 'I' for Inactive)
REMARK    1  A    between atoms: CA_6  and  C_7
REMARK    2  A    between atoms: C_9  and  C_10
REMARK    3  A    between atoms: C_10  and  C_17
REMARK    4  A    between atoms: C_17  and  C_18
REMARK                            x       y       z     vdW  Elec       q    Type
REMARK                         _______ _______ _______ _____ _____    ______ ____
ROOT
ATOM      1  N   UNL     1      -3.070   0.117   0.000  0.00  0.00    +0.000 NA
ATOM      2  C   UNL     1      -2.356   0.530   0.000  0.00  0.00    +0.000 A 
ATOM      3  O   UNL     1      -2.356   1.355   0.000  0.00  0.00    +0.000 OA
ATOM      4  C   UNL     1      -1.641   0.117   0.000  0.00  0.00    +0.000 A 
ATOM      5  N   UNL     1      -0.927   0.530   0.000  0.00  0.00    +0.000 NA
ATOM      6  CA  UNL     1      -0.212   0.117   0.000  0.00  0.00    +0.000 C 
ATOM      7  C   UNL     1      -0.212  -0.708   0.000  0.00  0.00    +0.000 C 
ATOM      8  C   UNL     1       0.070  -1.483   0.000  0.00  0.00    +0.000 C 
ATOM      9  N   UNL     1      -0.927  -1.120   0.000  0.00  0.00    +0.000 NA
ATOM     10  C   UNL     1      -1.641  -0.708   0.000  0.00  0.00    +0.000 A 
ATOM     11  N   UNL     1      -2.356  -1.120   0.000  0.00  0.00    +0.000 NA
ATOM     12  C   UNL     1      -3.070  -0.708   0.000  0.00  0.00    +0.000 A 
ATOM     13  N   UNL     1      -3.785  -1.120   0.000  0.00  0.00    +0.000 NA
ENDROOT
BRANCH   6  14
ATOM     14  C   UNL     1       0.502   0.530   0.000  0.00  0.00    +0.000 C 
ATOM     15  O   UNL     1       0.502   1.355   0.000  0.00  0.00    +0.000 OA
ENDBRANCH   6  14
BRANCH   7  16
ATOM     16  C   UNL     1       0.600  -0.564   0.000  0.00  0.00    +0.000 C 
BRANCH  16  17
ATOM     17  C   UNL     1       0.882   0.211   0.000  0.00  0.00    +0.000 C 
BRANCH  17  18
ATOM     18  C   UNL     1       1.695   0.354   0.000  0.00  0.00    +0.000 A 
ATOM     19  C   UNL     1       1.977   1.129   0.000  0.00  0.00    +0.000 A 
ATOM     20  C   UNL     1       2.789   1.273   0.000  0.00  0.00    +0.000 A 
ATOM     21  C   UNL     1       3.320   0.641   0.000  0.00  0.00    +0.000 A 
ATOM     22  C   UNL     1       3.038  -0.134   0.000  0.00  0.00    +0.000 A 
ATOM     23  C   UNL     1       2.225  -0.278   0.000  0.00  0.00    +0.000 A 
ENDBRANCH  17  18
ENDBRANCH  16  17
ENDBRANCH   7  16
TORSDOF 4
