REMARK  Name = 880
REMARK  1 active torsions:
REMARK  status: ('A' for Active; 'I' for Inactive)
REMARK    1  A    between atoms: S_3  and  C_13
REMARK                            x       y       z     vdW  Elec       q    Type
REMARK                         _______ _______ _______ _____ _____    ______ ____
ROOT
ATOM      1 CL   UNL     1       2.808   1.017   0.000  0.00  0.00    +0.000 Cl
ATOM      2  S   UNL     1       5.689  -0.662   0.000  0.00  0.00    +0.000 S 
ATOM      3  O   UNL     1       6.093  -1.381   0.000  0.00  0.00    +0.000 OA
ATOM      4  O   UNL     1       5.268  -1.371   0.000  0.00  0.00    +0.000 OA
ATOM      5  N   UNL     1       5.689   1.046   0.000  0.00  0.00    +0.000 NA
ATOM      6  N   UNL     1       6.436  -0.238   0.000  0.00  0.00    +0.000 NA
ATOM      7  C   UNL     1       4.951  -0.221   0.000  0.00  0.00    +0.000 A 
ATOM      8  C   UNL     1       4.951   0.605   0.000  0.00  0.00    +0.000 A 
ATOM      9  C   UNL     1       3.522  -0.221   0.000  0.00  0.00    +0.000 A 
ATOM     10  C   UNL     1       4.237  -0.633   0.000  0.00  0.00    +0.000 A 
ATOM     11  C   UNL     1       4.237   1.017   0.000  0.00  0.00    +0.000 A 
ATOM     12  C   UNL     1       3.522   0.605   0.000  0.00  0.00    +0.000 A 
ATOM     13  C   UNL     1       6.436   0.622   0.000  0.00  0.00    +0.000 C 
ENDROOT
BRANCH   9  14
ATOM     14  S   UNL     1       2.808  -0.633   0.000  0.00  0.00    +0.000 S 
ATOM     15  O   UNL     1       3.220  -1.347   0.000  0.00  0.00    +0.000 OA
ATOM     16  O   UNL     1       2.395   0.081   0.000  0.00  0.00    +0.000 OA
ATOM     17  N   UNL     1       2.093  -1.046   0.000  0.00  0.00    +0.000 NA
ENDBRANCH   9  14
TORSDOF 1
