REMARK  Name = 881
REMARK  10 active torsions:
REMARK  status: ('A' for Active; 'I' for Inactive)
REMARK    1  A    between atoms: O_4  and  C_24
REMARK    2  A    between atoms: O_4  and  C_28
REMARK    3  A    between atoms: N_7  and  C_13
REMARK    4  A    between atoms: N_7  and  C_15
REMARK    5  A    between atoms: C_8  and  C_16
REMARK    6  A    between atoms: C_13  and  C_14
REMARK    7  A    between atoms: C_15  and  C_17
REMARK    8  A    between atoms: C_15  and  C_24
REMARK    9  A    between atoms: C_17  and  C_21
REMARK   10  A    between atoms: C_21  and  C_25
REMARK                            x       y       z     vdW  Elec       q    Type
REMARK                         _______ _______ _______ _____ _____    ______ ____
ROOT
ATOM      1  C   UNK A   1       3.793   0.285   0.000  0.00  0.00    +0.000 C 
ATOM      2  C   UNK A   1       4.508  -0.128   0.000  0.00  0.00    +0.000 C 
ENDROOT
BRANCH   1  10
ATOM      3  O   UNK A   1       3.079   1.522   0.000  0.00  0.00    +0.000 OA
ATOM      4  N   UNK A   1       4.508   1.522   0.000  0.00  0.00    +0.000 N 
ATOM      5  C   UNK A   1       4.508   2.347   0.000  0.00  0.00    +0.000 C 
ATOM      6  C   UNK A   1       5.222   2.760   0.000  0.00  0.00    +0.000 C 
ATOM      7  C   UNK A   1       5.222   1.110   0.000  0.00  0.00    +0.000 C 
ATOM      8  C   UNK A   1       5.937   2.347   0.000  0.00  0.00    +0.000 A 
ATOM      9  C   UNK A   1       5.937   1.522   0.000  0.00  0.00    +0.000 A 
ATOM     10  C   UNK A   1       3.793   1.110   0.000  0.00  0.00    +0.000 C 
ATOM     11  C   UNK A   1       6.674   2.788   0.000  0.00  0.00    +0.000 A 
ATOM     12  C   UNK A   1       6.674   1.081   0.000  0.00  0.00    +0.000 A 
ATOM     13  C   UNK A   1       7.422   2.364   0.000  0.00  0.00    +0.000 A 
ATOM     14  C   UNK A   1       7.422   1.505   0.000  0.00  0.00    +0.000 A 
BRANCH   5  17
ATOM     15  O   UNK A   1       3.793   3.585   0.000  0.00  0.00    +0.000 OA
ATOM     16  O   UNK A   1       3.079   2.347   0.000  0.00  0.00    +0.000 OA
ATOM     17  C   UNK A   1       3.793   2.760   0.000  0.00  0.00    +0.000 C 
ENDBRANCH   5  17
ENDBRANCH   1  10
BRANCH   1  18
ATOM     18  N   UNK A   1       3.079  -0.128   0.000  0.00  0.00    +0.000 NA
BRANCH  18  19
ATOM     19  C   UNK A   0       3.079  -0.953   0.000  0.00  0.00    +0.000 C 
BRANCH  19  21
ATOM     20  O   UNK A   0       1.650  -0.953   0.000  0.00  0.00    +0.000 OA
ATOM     21  C   UNK A   0       2.365  -1.365   0.000  0.00  0.00    +0.000 C 
BRANCH  21  22
ATOM     22  O   UNK A   0       2.365  -2.190   0.000  0.00  0.00    +0.000 OA
BRANCH  22  23
ATOM     23  C   UNK A   0       1.650  -2.603   0.000  0.00  0.00    +0.000 C 
ATOM     24  C   UNK A   0       1.650  -3.428   0.000  0.00  0.00    +0.000 C 
ENDBRANCH  22  23
ENDBRANCH  21  22
ENDBRANCH  19  21
BRANCH  19  25
ATOM     25  C   UNK A   0       3.793  -1.365   0.000  0.00  0.00    +0.000 C 
BRANCH  25  26
ATOM     26  C   UNK A   0       3.793  -2.190   0.000  0.00  0.00    +0.000 C 
BRANCH  26  27
ATOM     27  C   UNK A   0       4.508  -2.603   0.000  0.00  0.00    +0.000 A 
ATOM     28  C   UNK A   0       5.222  -2.190   0.000  0.00  0.00    +0.000 A 
ATOM     29  C   UNK A   0       4.508  -3.428   0.000  0.00  0.00    +0.000 A 
ATOM     30  C   UNK A   0       5.937  -2.603   0.000  0.00  0.00    +0.000 A 
ATOM     31  C   UNK A   0       5.222  -3.840   0.000  0.00  0.00    +0.000 A 
ATOM     32  C   UNK A   0       5.937  -3.428   0.000  0.00  0.00    +0.000 A 
ENDBRANCH  26  27
ENDBRANCH  25  26
ENDBRANCH  19  25
ENDBRANCH  18  19
ENDBRANCH   1  18
TORSDOF 10
