REMARK  Name = 884
REMARK  4 active torsions:
REMARK  status: ('A' for Active; 'I' for Inactive)
REMARK    1  A    between atoms: P_1  and  C_11
REMARK    2  A    between atoms: P_2  and  C_11
REMARK    3  A    between atoms: C_11  and  C_12
REMARK    4  A    between atoms: C_12  and  C_13
REMARK                            x       y       z     vdW  Elec       q    Type
REMARK                         _______ _______ _______ _____ _____    ______ ____
ROOT
ATOM      1  O   UNL     1       3.632  -0.016   0.000  0.00  0.00    +0.000 OA
ATOM      2  C   UNL     1       3.220   0.699   0.000  0.00  0.00    +0.000 C 
ENDROOT
BRANCH   2   3
ATOM      3  P   UNL     1       2.808   1.413   0.000  0.00  0.00    +0.000 P 
ATOM      4  O   UNL     1       2.395   2.128   0.000  0.00  0.00    +0.000 OA
ATOM      5  O   UNL     1       2.093   1.001   0.000  0.00  0.00    +0.000 OA
ATOM      6  O   UNL     1       3.090   2.189   0.000  0.00  0.00    +0.000 OA
ENDBRANCH   2   3
BRANCH   2   7
ATOM      7  P   UNL     1       3.934   1.111   0.000  0.00  0.00    +0.000 P 
ATOM      8  O   UNL     1       4.649   1.524   0.000  0.00  0.00    +0.000 OA
ATOM      9  O   UNL     1       4.347   0.397   0.000  0.00  0.00    +0.000 OA
ATOM     10  O   UNL     1       4.078   1.924   0.000  0.00  0.00    +0.000 OA
ENDBRANCH   2   7
BRANCH   2  11
ATOM     11  C   UNL     1       2.505   0.286   0.000  0.00  0.00    +0.000 C 
BRANCH  11  13
ATOM     12  N   UNL     1       1.791  -1.776   0.000  0.00  0.00    +0.000 NA
ATOM     13  C   UNL     1       2.505  -0.539   0.000  0.00  0.00    +0.000 A 
ATOM     14  C   UNL     1       3.220  -0.951   0.000  0.00  0.00    +0.000 A 
ATOM     15  C   UNL     1       1.791  -0.951   0.000  0.00  0.00    +0.000 A 
ATOM     16  C   UNL     1       3.220  -1.776   0.000  0.00  0.00    +0.000 A 
ATOM     17  C   UNL     1       2.505  -2.189   0.000  0.00  0.00    +0.000 A 
ENDBRANCH  11  13
ENDBRANCH   2  11
TORSDOF 4
