REMARK  Name = 885
REMARK  3 active torsions:
REMARK  status: ('A' for Active; 'I' for Inactive)
REMARK    1  A    between atoms: C_4  and  S_10
REMARK    2  A    between atoms: S_10  and  N_13
REMARK    3  A    between atoms: C_17  and  C_18
REMARK                            x       y       z     vdW  Elec       q    Type
REMARK                         _______ _______ _______ _____ _____    ______ ____
ROOT
ATOM      1  S   UNL     1       0.084  -0.180   0.000  0.00  0.00    +0.000 S 
ATOM      2  O   UNL     1      -0.171   0.605   0.000  0.00  0.00    +0.000 OA
ATOM      3  O   UNL     1       0.339  -0.965   0.000  0.00  0.00    +0.000 OA
ENDROOT
BRANCH   1   7
ATOM      4  C   UNL     1       2.879  -0.774   0.000  0.00  0.00    +0.000 C 
ATOM      5  C   UNL     1       2.266  -0.222   0.000  0.00  0.00    +0.000 A 
ATOM      6  C   UNL     1       1.482  -0.477   0.000  0.00  0.00    +0.000 A 
ATOM      7  C   UNL     1       0.869   0.075   0.000  0.00  0.00    +0.000 A 
ATOM      8  C   UNL     1       1.040   0.882   0.000  0.00  0.00    +0.000 A 
ATOM      9  C   UNL     1       1.825   1.137   0.000  0.00  0.00    +0.000 A 
ATOM     10  C   UNL     1       2.438   0.585   0.000  0.00  0.00    +0.000 A 
ATOM     11 CL   UNL     1       3.222   0.840   0.000  0.00  0.00    +0.000 Cl
ATOM     12  N   UNL     1       0.427   1.434   0.000  0.00  0.00    +0.000 NA
ENDBRANCH   1   7
BRANCH   1  13
ATOM     13  N   UNL     1      -0.701  -0.435   0.000  0.00  0.00    +0.000 NA
ATOM     14  C   UNL     1      -0.956  -1.220   0.000  0.00  0.00    +0.000 C 
ATOM     15  C   UNL     1      -1.781  -1.220   0.000  0.00  0.00    +0.000 C 
ATOM     16  C   UNL     1      -2.036  -0.435   0.000  0.00  0.00    +0.000 C 
ATOM     17  C   UNL     1      -1.368   0.050   0.000  0.00  0.00    +0.000 C 
BRANCH  17  18
ATOM     18  C   UNL     1      -1.368   0.875   0.000  0.00  0.00    +0.000 C 
ATOM     19  O   UNL     1      -2.083   1.287   0.000  0.00  0.00    +0.000 OA
ATOM     20  O   UNL     1      -0.654   1.287   0.000  0.00  0.00    +0.000 OA
ENDBRANCH  17  18
ENDBRANCH   1  13
TORSDOF 3
