REMARK  Name = 885
REMARK  1 active torsions:
REMARK  status: ('A' for Active; 'I' for Inactive)
REMARK    1  A    between atoms: C_11  and  C_17
REMARK                            x       y       z     vdW  Elec       q    Type
REMARK                         _______ _______ _______ _____ _____    ______ ____
ROOT
ATOM      1  O   UNL     1       4.385  -1.347   0.000  0.00  0.00    +0.000 OA
ATOM      2  N   UNL     1       5.099  -0.110   0.000  0.00  0.00    +0.000 N 
ATOM      3  N   UNL     1       4.385   1.128   0.000  0.00  0.00    +0.000 NA
ATOM      4  C   UNL     1       5.099   0.715   0.000  0.00  0.00    +0.000 A 
ATOM      5  C   UNL     1       5.837   1.157   0.000  0.00  0.00    +0.000 A 
ATOM      6  C   UNL     1       4.385  -0.522   0.000  0.00  0.00    +0.000 A 
ATOM      7  C   UNL     1       3.670  -0.110   0.000  0.00  0.00    +0.000 A 
ATOM      8  C   UNL     1       5.837  -0.551   0.000  0.00  0.00    +0.000 A 
ATOM      9  C   UNL     1       6.584   0.733   0.000  0.00  0.00    +0.000 A 
ATOM     10  C   UNL     1       3.670   0.715   0.000  0.00  0.00    +0.000 A 
ATOM     11  C   UNL     1       6.584  -0.127   0.000  0.00  0.00    +0.000 A 
ATOM     12  C   UNL     1       5.827   1.981   0.000  0.00  0.00    +0.000 C 
ENDROOT
BRANCH   7  17
ATOM     13  N   UNL     1       2.869  -1.343   0.000  0.00  0.00    +0.000 NA
ATOM     14  N   UNL     1       2.202  -0.186   0.000  0.00  0.00    +0.000 NA
ATOM     15  N   UNL     1       2.062  -1.514   0.000  0.00  0.00    +0.000 NA
ATOM     16  N   UNL     1       1.650  -0.800   0.000  0.00  0.00    +0.000 NA
ATOM     17  C   UNL     1       2.956  -0.522   0.000  0.00  0.00    +0.000 A 
ENDBRANCH   7  17
TORSDOF 1
