REMARK  Name = 887
REMARK  6 active torsions:
REMARK  status: ('A' for Active; 'I' for Inactive)
REMARK    1  A    between atoms: C_1  and  O_11
REMARK    2  A    between atoms: C_10  and  C_26
REMARK    3  A    between atoms: O_11  and  C_12
REMARK    4  A    between atoms: C_19  and  O_22
REMARK    5  A    between atoms: C_20  and  O_23
REMARK    6  A    between atoms: N_27  and  C_28
REMARK                            x       y       z     vdW  Elec       q    Type
REMARK                         _______ _______ _______ _____ _____    ______ ____
ROOT
ATOM      1  C   UNL     1       0.239   0.783   0.000  0.00  0.00    +0.000 A 
ATOM      2  C   UNL     1       0.239   1.608   0.000  0.00  0.00    +0.000 A 
ATOM      3  C   UNL     1      -0.475   2.020   0.000  0.00  0.00    +0.000 A 
ATOM      4  C   UNL     1      -1.190   1.608   0.000  0.00  0.00    +0.000 A 
ATOM      5  C   UNL     1      -1.190   0.783   0.000  0.00  0.00    +0.000 A 
ATOM      6  C   UNL     1      -0.475   0.370   0.000  0.00  0.00    +0.000 A 
ATOM      7  C   UNL     1      -0.475   2.845   0.000  0.00  0.00    +0.000 A 
ATOM      8  C   UNL     1      -1.190   3.258   0.000  0.00  0.00    +0.000 A 
ATOM      9  C   UNL     1      -1.904   2.845   0.000  0.00  0.00    +0.000 A 
ATOM     10  C   UNL     1      -1.904   2.020   0.000  0.00  0.00    +0.000 A 
ENDROOT
BRANCH  10  11
ATOM     11  C   UNL     1      -2.619   1.608   0.000  0.00  0.00    +0.000 C 
ATOM     12  N   UNL     1      -2.619   0.783   0.000  0.00  0.00    +0.000 NA
ATOM     13  O   UNL     1      -3.333   2.020   0.000  0.00  0.00    +0.000 OA
BRANCH  12  14
ATOM     14  C   UNL     1      -3.333   0.370   0.000  0.00  0.00    +0.000 C 
ATOM     15  C   UNL     1      -3.746  -0.344   0.000  0.00  0.00    +0.000 C 
ATOM     16  C   UNL     1      -4.158   0.370   0.000  0.00  0.00    +0.000 C 
ENDBRANCH  12  14
ENDBRANCH  10  11
BRANCH   1  17
ATOM     17  O   UNL     1       0.954   0.370   0.000  0.00  0.00    +0.000 OA
BRANCH  17  18
ATOM     18  C   UNL     1       0.954  -0.455   0.000  0.00  0.00    +0.000 A 
ATOM     19  C   UNL     1       1.668  -0.867   0.000  0.00  0.00    +0.000 A 
ATOM     20  C   UNL     1       1.668  -1.692   0.000  0.00  0.00    +0.000 A 
ATOM     21  N   UNL     1       0.954  -2.105   0.000  0.00  0.00    +0.000 NA
ATOM     22  C   UNL     1       0.239  -1.692   0.000  0.00  0.00    +0.000 A 
ATOM     23  C   UNL     1       0.239  -0.867   0.000  0.00  0.00    +0.000 A 
ATOM     24  C   UNL     1       2.382  -0.455   0.000  0.00  0.00    +0.000 A 
ATOM     25  C   UNL     1       3.097  -0.867   0.000  0.00  0.00    +0.000 A 
ATOM     26  C   UNL     1       3.097  -1.692   0.000  0.00  0.00    +0.000 A 
ATOM     27  C   UNL     1       2.382  -2.105   0.000  0.00  0.00    +0.000 A 
BRANCH  26  28
ATOM     28  O   UNL     1       3.811  -2.105   0.000  0.00  0.00    +0.000 OA
ATOM     29  C   UNL     1       3.811  -2.930   0.000  0.00  0.00    +0.000 C 
ENDBRANCH  26  28
BRANCH  25  30
ATOM     30  O   UNL     1       3.811  -0.455   0.000  0.00  0.00    +0.000 OA
ATOM     31  C   UNL     1       4.526  -0.867   0.000  0.00  0.00    +0.000 C 
ENDBRANCH  25  30
ENDBRANCH  17  18
ENDBRANCH   1  17
TORSDOF 6
