REMARK  Name = 887
REMARK  8 active torsions:
REMARK  status: ('A' for Active; 'I' for Inactive)
REMARK    1  A    between atoms: S_1  and  C_13
REMARK    2  A    between atoms: O_2  and  C_12
REMARK    3  A    between atoms: O_2  and  C_19
REMARK    4  A    between atoms: N_7  and  C_9
REMARK    5  A    between atoms: N_7  and  C_11
REMARK    6  A    between atoms: C_9  and  C_10
REMARK    7  A    between atoms: C_10  and  C_14
REMARK    8  A    between atoms: C_16  and  C_20
REMARK                            x       y       z     vdW  Elec       q    Type
REMARK                         _______ _______ _______ _____ _____    ______ ____
ROOT
ATOM      1  C   UNL     1       4.840   0.215   0.000  0.00  0.00    +0.000 A 
ATOM      2  C   UNL     1       4.840   1.040   0.000  0.00  0.00    +0.000 A 
ATOM      3  C   UNL     1       5.554   1.452   0.000  0.00  0.00    +0.000 A 
ATOM      4  C   UNL     1       5.554  -0.198   0.000  0.00  0.00    +0.000 A 
ATOM      5  C   UNL     1       6.268   0.215   0.000  0.00  0.00    +0.000 A 
ATOM      6  C   UNL     1       6.268   1.040   0.000  0.00  0.00    +0.000 A 
ENDROOT
BRANCH   3   7
ATOM      7  S   UNL     1       5.554   2.277   0.000  0.00  0.00    +0.000 S 
ATOM      8  O   UNL     1       4.729   2.277   0.000  0.00  0.00    +0.000 OA
ATOM      9  O   UNL     1       6.379   2.277   0.000  0.00  0.00    +0.000 OA
ATOM     10  N   UNL     1       5.554   3.102   0.000  0.00  0.00    +0.000 NA
ENDBRANCH   3   7
BRANCH   5  13
ATOM     11  O   UNL     1       6.983  -1.023   0.000  0.00  0.00    +0.000 OA
ATOM     12  O   UNL     1       7.697   0.215   0.000  0.00  0.00    +0.000 OA
ATOM     13  C   UNL     1       6.983  -0.198   0.000  0.00  0.00    +0.000 C 
ENDBRANCH   5  13
BRANCH   1  14
ATOM     14  N   UNL     1       4.427  -0.500   0.000  0.00  0.00    +0.000 NA
BRANCH  14  15
ATOM     15  C   UNL     1       4.840  -1.214   0.000  0.00  0.00    +0.000 C 
BRANCH  15  16
ATOM     16  C   UNL     1       4.427  -1.929   0.000  0.00  0.00    +0.000 C 
BRANCH  16  17
ATOM     17  C   UNL     1       4.840  -2.643   0.000  0.00  0.00    +0.000 C 
ATOM     18  C   UNL     1       4.427  -3.358   0.000  0.00  0.00    +0.000 C 
ENDBRANCH  16  17
ENDBRANCH  15  16
ENDBRANCH  14  15
ENDBRANCH   1  14
BRANCH   2  19
ATOM     19  O   UNL     1       4.125   1.452   0.000  0.00  0.00    +0.000 OA
BRANCH  19  20
ATOM     20  C   UNL     1       3.300   1.452   0.000  0.00  0.00    +0.000 A 
ATOM     21  C   UNL     1       2.888   0.738   0.000  0.00  0.00    +0.000 A 
ATOM     22  C   UNL     1       2.888   2.167   0.000  0.00  0.00    +0.000 A 
ATOM     23  C   UNL     1       2.062   0.738   0.000  0.00  0.00    +0.000 A 
ATOM     24  C   UNL     1       2.062   2.167   0.000  0.00  0.00    +0.000 A 
ATOM     25  C   UNL     1       1.650   1.452   0.000  0.00  0.00    +0.000 A 
ENDBRANCH  19  20
ENDBRANCH   2  19
TORSDOF 8
