REMARK  Name = 888
REMARK  4 active torsions:
REMARK  status: ('A' for Active; 'I' for Inactive)
REMARK    1  A    between atoms: C_9  and  C_11
REMARK    2  A    between atoms: N_15  and  C_23
REMARK    3  A    between atoms: C_23  and  C_24
REMARK    4  A    between atoms: C_24  and  C_25
REMARK                            x       y       z     vdW  Elec       q    Type
REMARK                         _______ _______ _______ _____ _____    ______ ____
ROOT
ATOM      1  C   UNL     1      -0.408  -0.308   0.000  0.00  0.00    +0.000 A 
ATOM      2  C   UNL     1       0.307  -0.720   0.000  0.00  0.00    +0.000 A 
ATOM      3  C   UNL     1       1.021  -0.308   0.000  0.00  0.00    +0.000 A 
ATOM      4  C   UNL     1       1.021   0.517   0.000  0.00  0.00    +0.000 A 
ATOM      5  N   UNL     1       0.307   0.930   0.000  0.00  0.00    +0.000 N 
ATOM      6  C   UNL     1      -0.408   0.517   0.000  0.00  0.00    +0.000 A 
ATOM      7  C   UNL     1       1.736  -0.720   0.000  0.00  0.00    +0.000 A 
ATOM      8  C   UNL     1       2.450  -0.308   0.000  0.00  0.00    +0.000 A 
ATOM      9  C   UNL     1       2.450   0.517   0.000  0.00  0.00    +0.000 A 
ATOM     10  C   UNL     1       1.736   0.930   0.000  0.00  0.00    +0.000 A 
ATOM     11  O   UNL     1       0.307  -1.545   0.000  0.00  0.00    +0.000 OA
ATOM     12  O   UNL     1      -1.122   0.930   0.000  0.00  0.00    +0.000 OA
ENDROOT
BRANCH   1  21
ATOM     13  C   UNL     1      -1.837  -1.958   0.000  0.00  0.00    +0.000 A 
ATOM     14  C   UNL     1      -1.837  -2.783   0.000  0.00  0.00    +0.000 A 
ATOM     15  C   UNL     1      -2.551  -3.195   0.000  0.00  0.00    +0.000 A 
ATOM     16  C   UNL     1      -3.266  -2.783   0.000  0.00  0.00    +0.000 A 
ATOM     17  C   UNL     1      -3.266  -1.958   0.000  0.00  0.00    +0.000 A 
ATOM     18  C   UNL     1      -2.551  -1.545   0.000  0.00  0.00    +0.000 A 
ATOM     19  S   UNL     1      -2.551  -0.720   0.000  0.00  0.00    +0.000 S 
ATOM     20  N   UNL     1      -1.837  -0.308   0.000  0.00  0.00    +0.000 NA
ATOM     21  C   UNL     1      -1.122  -0.720   0.000  0.00  0.00    +0.000 C 
ATOM     22  N   UNL     1      -1.122  -1.545   0.000  0.00  0.00    +0.000 NA
ATOM     23  O   UNL     1      -3.376  -0.691   0.000  0.00  0.00    +0.000 OA
ATOM     24  O   UNL     1      -2.988  -0.020   0.000  0.00  0.00    +0.000 OA
ENDBRANCH   1  21
BRANCH   5  25
ATOM     25  C   UNL     1       0.307   1.755   0.000  0.00  0.00    +0.000 C 
BRANCH  25  26
ATOM     26  C   UNL     1      -0.408   2.167   0.000  0.00  0.00    +0.000 C 
BRANCH  26  27
ATOM     27  C   UNL     1      -0.408   2.992   0.000  0.00  0.00    +0.000 C 
ATOM     28  C   UNL     1      -1.122   3.405   0.000  0.00  0.00    +0.000 C 
ATOM     29  C   UNL     1       0.307   3.405   0.000  0.00  0.00    +0.000 C 
ENDBRANCH  26  27
ENDBRANCH  25  26
ENDBRANCH   5  25
TORSDOF 4
