REMARK  Name = 888
REMARK  4 active torsions:
REMARK  status: ('A' for Active; 'I' for Inactive)
REMARK    1  A    between atoms: N_3  and  C_4
REMARK    2  A    between atoms: N_3  and  C_5
REMARK    3  A    between atoms: C_4  and  C_7
REMARK    4  A    between atoms: C_5  and  C_8
REMARK                            x       y       z     vdW  Elec       q    Type
REMARK                         _______ _______ _______ _____ _____    ______ ____
ROOT
ATOM      1  N   UNL     1       3.793   0.206   0.000  0.00  0.00    +0.000 NA
ATOM      2  C   UNL     1       3.793  -0.619   0.000  0.00  0.00    +0.000 C 
ENDROOT
BRANCH   1   3
ATOM      3  C   UNL     1       4.508   0.619   0.000  0.00  0.00    +0.000 C 
BRANCH   3   5
ATOM      4 CL   UNL     1       5.937   0.619   0.000  0.00  0.00    +0.000 Cl
ATOM      5  C   UNL     1       5.222   0.206   0.000  0.00  0.00    +0.000 C 
ENDBRANCH   3   5
ENDBRANCH   1   3
BRANCH   1   6
ATOM      6  C   UNL     1       3.079   0.619   0.000  0.00  0.00    +0.000 C 
BRANCH   6   8
ATOM      7 CL   UNL     1       1.650   0.619   0.000  0.00  0.00    +0.000 Cl
ATOM      8  C   UNL     1       2.365   0.206   0.000  0.00  0.00    +0.000 C 
ENDBRANCH   6   8
ENDBRANCH   1   6
TORSDOF 4
