REMARK  Name = 893
REMARK  8 active torsions:
REMARK  status: ('A' for Active; 'I' for Inactive)
REMARK    1  A    between atoms: C_2  and  O_18
REMARK    2  A    between atoms: C_3  and  C_7
REMARK    3  A    between atoms: C_5  and  O_16
REMARK    4  A    between atoms: C_7  and  N_8
REMARK    5  A    between atoms: C_9  and  C_10
REMARK    6  A    between atoms: C_12  and  O_22
REMARK    7  A    between atoms: C_13  and  C_20
REMARK    8  A    between atoms: O_22  and  C_23
REMARK                            x       y       z     vdW  Elec       q    Type
REMARK                         _______ _______ _______ _____ _____    ______ ____
ROOT
ATOM      1  N   UNL     1      -0.402   0.420   0.000  0.00  0.00    +0.000 NA
ATOM      2  C   UNL     1       0.313   0.007   0.000  0.00  0.00    +0.000 C 
ATOM      3  O   UNL     1       1.027   0.420   0.000  0.00  0.00    +0.000 OA
ENDROOT
BRANCH   2   4
ATOM      4  C   UNL     1       0.313  -0.818   0.000  0.00  0.00    +0.000 A 
ATOM      5  N   UNL     1       1.027  -1.230   0.000  0.00  0.00    +0.000 NA
ATOM      6  C   UNL     1       1.027  -2.055   0.000  0.00  0.00    +0.000 A 
ATOM      7  C   UNL     1       0.313  -2.468   0.000  0.00  0.00    +0.000 A 
ATOM      8  C   UNL     1      -0.402  -2.055   0.000  0.00  0.00    +0.000 A 
ATOM      9  C   UNL     1      -0.402  -1.230   0.000  0.00  0.00    +0.000 A 
BRANCH   7  10
ATOM     10  C   UNL     1       0.313  -3.293   0.000  0.00  0.00    +0.000 C 
ATOM     11  N   UNL     1       0.313  -4.118   0.000  0.00  0.00    +0.000 NA
ENDBRANCH   7  10
BRANCH   6  12
ATOM     12  O   UNL     1       1.742  -2.468   0.000  0.00  0.00    +0.000 OA
BRANCH  12  13
ATOM     13  C   UNL     1       2.456  -2.055   0.000  0.00  0.00    +0.000 C 
ATOM     14  C   UNL     1       3.171  -2.468   0.000  0.00  0.00    +0.000 C 
ENDBRANCH  12  13
ENDBRANCH   6  12
ENDBRANCH   2   4
BRANCH   1  15
ATOM     15  C   UNL     1      -0.402   1.245   0.000  0.00  0.00    +0.000 C 
BRANCH  15  18
ATOM     16  C   UNL     1      -1.831   2.895   0.000  0.00  0.00    +0.000 A 
ATOM     17  C   UNL     1      -1.116   2.482   0.000  0.00  0.00    +0.000 A 
ATOM     18  C   UNL     1      -1.116   1.657   0.000  0.00  0.00    +0.000 A 
ATOM     19  C   UNL     1      -1.831   1.245   0.000  0.00  0.00    +0.000 A 
ATOM     20  C   UNL     1      -2.545   1.657   0.000  0.00  0.00    +0.000 A 
ATOM     21  C   UNL     1      -2.545   2.482   0.000  0.00  0.00    +0.000 A 
BRANCH  20  22
ATOM     22  O   UNL     1      -3.260   1.245   0.000  0.00  0.00    +0.000 OA
ATOM     23  C   UNL     1      -3.974   1.657   0.000  0.00  0.00    +0.000 C 
ENDBRANCH  20  22
BRANCH  17  24
ATOM     24  O   UNL     1      -0.402   2.895   0.000  0.00  0.00    +0.000 OA
ATOM     25  C   UNL     1       0.313   2.482   0.000  0.00  0.00    +0.000 C 
ENDBRANCH  17  24
ENDBRANCH  15  18
ENDBRANCH   1  15
TORSDOF 8
