REMARK  Name = 894
REMARK  7 active torsions:
REMARK  status: ('A' for Active; 'I' for Inactive)
REMARK    1  A    between atoms: C_5  and  C_6
REMARK    2  A    between atoms: C_6  and  C_28
REMARK    3  A    between atoms: S_7  and  N_10
REMARK    4  A    between atoms: S_7  and  C_28
REMARK    5  A    between atoms: N_10  and  C_11
REMARK    6  A    between atoms: N_16  and  C_17
REMARK    7  A    between atoms: C_17  and  C_19
REMARK                            x       y       z     vdW  Elec       q    Type
REMARK                         _______ _______ _______ _____ _____    ______ ____
ROOT
ATOM      1  C   UNL     1      -0.589  -2.682   0.000  0.00  0.00    +0.000 C 
ATOM      2  C   UNL     1      -0.925  -1.928   0.000  0.00  0.00    +0.000 C 
ATOM      3  C   UNL     1      -0.312  -1.376   0.000  0.00  0.00    +0.000 C 
ATOM      4  C   UNL     1       0.231  -2.596   0.000  0.00  0.00    +0.000 C 
ATOM      5  O   UNL     1       0.783  -3.209   0.000  0.00  0.00    +0.000 OA
ATOM      6  N   UNL     1       0.403  -1.789   0.000  0.00  0.00    +0.000 N 
ENDROOT
BRANCH   6   7
ATOM      7  C   UNL     1       1.157  -1.453   0.000  0.00  0.00    +0.000 C 
ATOM      8  C   UNL     1       1.824  -1.938   0.000  0.00  0.00    +0.000 C 
BRANCH   7   9
ATOM      9  C   UNL     1       1.243  -0.633   0.000  0.00  0.00    +0.000 C 
ATOM     10  O   UNL     1       0.575  -0.148   0.000  0.00  0.00    +0.000 OA
ATOM     11  N   UNL     1       1.996  -0.297   0.000  0.00  0.00    +0.000 N 
ATOM     12  C   UNL     1       2.083   0.523   0.000  0.00  0.00    +0.000 C 
ATOM     13  C   UNL     1       2.836   0.859   0.000  0.00  0.00    +0.000 C 
ATOM     14  O   UNL     1       3.504   0.374   0.000  0.00  0.00    +0.000 OA
ATOM     15  C   UNL     1       3.418  -0.446   0.000  0.00  0.00    +0.000 C 
ATOM     16  C   UNL     1       2.664  -0.782   0.000  0.00  0.00    +0.000 C 
ENDBRANCH   7   9
ENDBRANCH   6   7
BRANCH   1  17
ATOM     17  N   UNL     1      -1.002  -3.396   0.000  0.00  0.00    +0.000 NA
BRANCH  17  18
ATOM     18  S   UNL     1      -1.827  -3.396   0.000  0.00  0.00    +0.000 S 
ATOM     19  O   UNL     1      -1.827  -4.221   0.000  0.00  0.00    +0.000 OA
ATOM     20  O   UNL     1      -1.827  -2.571   0.000  0.00  0.00    +0.000 OA
BRANCH  18  21
ATOM     21  C   UNL     1      -2.652  -3.396   0.000  0.00  0.00    +0.000 C 
BRANCH  21  22
ATOM     22  C   UNL     1      -3.064  -4.111   0.000  0.00  0.00    +0.000 C 
BRANCH  22  27
ATOM     23 CL   UNL     1      -5.826  -3.213   0.000  0.00  0.00    +0.000 Cl
ATOM     24  C   UNL     1      -5.159  -3.698   0.000  0.00  0.00    +0.000 A 
ATOM     25  C   UNL     1      -5.159  -4.523   0.000  0.00  0.00    +0.000 A 
ATOM     26  C   UNL     1      -4.374  -4.778   0.000  0.00  0.00    +0.000 A 
ATOM     27  C   UNL     1      -3.889  -4.111   0.000  0.00  0.00    +0.000 A 
ATOM     28  S   UNL     1      -4.374  -3.443   0.000  0.00  0.00    +0.000 S 
ENDBRANCH  22  27
ENDBRANCH  21  22
ENDBRANCH  18  21
ENDBRANCH  17  18
ENDBRANCH   1  17
TORSDOF 7
