REMARK  Name = 894
REMARK  0 active torsions:
REMARK  status: ('A' for Active; 'I' for Inactive)
REMARK                            x       y       z     vdW  Elec       q    Type
REMARK                         _______ _______ _______ _____ _____    ______ ____
ROOT
ATOM      1  O   UNL     1       2.351  -2.261   0.000  0.00  0.00    +0.000 OA
ATOM      2  O   UNL     1       3.059  -3.471   0.000  0.00  0.00    +0.000 OA
ATOM      3  O   UNL     1       2.322   3.471   0.000  0.00  0.00    +0.000 OA
ATOM      4  C   UNL     1       3.050  -0.248   0.000  0.00  0.00    +0.000 C 
ATOM      5  C   UNL     1       2.364   0.148   0.000  0.00  0.00    +0.000 C 
ATOM      6  C   UNL     1       3.050  -1.040   0.000  0.00  0.00    +0.000 C 
ATOM      7  C   UNL     1       2.364  -1.437   0.000  0.00  0.00    +0.000 C 
ATOM      8  C   UNL     1       2.351   0.973   0.000  0.00  0.00    +0.000 C 
ATOM      9  C   UNL     1       1.678  -0.248   0.000  0.00  0.00    +0.000 C 
ATOM     10  C   UNL     1       1.678  -1.040   0.000  0.00  0.00    +0.000 C 
ATOM     11  C   UNL     1       3.771   0.153   0.000  0.00  0.00    +0.000 C 
ATOM     12  C   UNL     1       3.771  -1.442   0.000  0.00  0.00    +0.000 C 
ATOM     13  C   UNL     1       3.063   1.390   0.000  0.00  0.00    +0.000 C 
ATOM     14  C   UNL     1       3.777   0.978   0.000  0.00  0.00    +0.000 C 
ATOM     15  C   UNL     1       1.678  -1.833   0.000  0.00  0.00    +0.000 C 
ATOM     16  C   UNL     1       1.668   0.571   0.000  0.00  0.00    +0.000 C 
ATOM     17  C   UNL     1       1.597   1.385   0.000  0.00  0.00    +0.000 C 
ATOM     18  C   UNL     1       3.777  -2.267   0.000  0.00  0.00    +0.000 C 
ATOM     19  C   UNL     1       3.063  -2.679   0.000  0.00  0.00    +0.000 C 
ATOM     20  C   UNL     1       3.069   2.250   0.000  0.00  0.00    +0.000 C 
ATOM     21  C   UNL     1       1.584   2.244   0.000  0.00  0.00    +0.000 C 
ATOM     22  C   UNL     1       2.325   2.679   0.000  0.00  0.00    +0.000 C 
ENDROOT
TORSDOF 0
