REMARK  Name = 896
REMARK  8 active torsions:
REMARK  status: ('A' for Active; 'I' for Inactive)
REMARK    1  A    between atoms: C_2  and  C_9
REMARK    2  A    between atoms: N_3  and  C_4
REMARK    3  A    between atoms: N_3  and  C_6
REMARK    4  A    between atoms: C_11  and  O_16
REMARK    5  A    between atoms: O_16  and  C_17
REMARK    6  A    between atoms: C_17  and  C_18
REMARK    7  A    between atoms: C_18  and  N_20
REMARK    8  A    between atoms: N_20  and  C_21
REMARK                            x       y       z     vdW  Elec       q    Type
REMARK                         _______ _______ _______ _____ _____    ______ ____
ROOT
ATOM      1  C   UNL     1       1.589   0.277   0.000  0.00  0.00    +0.000 A 
ATOM      2  C   UNL     1       2.304  -0.135   0.000  0.00  0.00    +0.000 A 
ATOM      3  C   UNL     1       2.304  -0.960   0.000  0.00  0.00    +0.000 A 
ATOM      4  C   UNL     1       1.589  -1.373   0.000  0.00  0.00    +0.000 A 
ATOM      5  C   UNL     1       0.875  -0.960   0.000  0.00  0.00    +0.000 A 
ATOM      6  C   UNL     1       0.160  -1.373   0.000  0.00  0.00    +0.000 C 
ATOM      7  C   UNL     1       0.875  -0.135   0.000  0.00  0.00    +0.000 A 
ENDROOT
BRANCH   1   9
ATOM      8  O   UNL     1       2.304   1.515   0.000  0.00  0.00    +0.000 OA
ATOM      9  C   UNL     1       1.589   1.102   0.000  0.00  0.00    +0.000 C 
ATOM     10  N   UNL     1       0.875   1.515   0.000  0.00  0.00    +0.000 N 
BRANCH  10  11
ATOM     11  C   UNL     1       0.160   1.102   0.000  0.00  0.00    +0.000 C 
ATOM     12  C   UNL     1      -0.554   1.515   0.000  0.00  0.00    +0.000 C 
ATOM     13  C   UNL     1       0.160   0.277   0.000  0.00  0.00    +0.000 C 
ENDBRANCH  10  11
BRANCH  10  14
ATOM     14  C   UNL     1       0.875   2.340   0.000  0.00  0.00    +0.000 C 
ATOM     15  C   UNL     1       0.160   2.752   0.000  0.00  0.00    +0.000 C 
ENDBRANCH  10  14
ENDBRANCH   1   9
BRANCH   3  16
ATOM     16  O   UNL     1       3.018  -1.373   0.000  0.00  0.00    +0.000 OA
BRANCH  16  17
ATOM     17  C   UNL     1       3.733  -0.960   0.000  0.00  0.00    +0.000 C 
BRANCH  17  18
ATOM     18  C   UNL     1       4.447  -1.373   0.000  0.00  0.00    +0.000 C 
ATOM     19  C   UNL     1       4.447  -2.198   0.000  0.00  0.00    +0.000 C 
BRANCH  18  20
ATOM     20  N   UNL     1       5.162  -0.960   0.000  0.00  0.00    +0.000 NA
BRANCH  20  21
ATOM     21  C   UNL     1       5.876  -1.373   0.000  0.00  0.00    +0.000 A 
ATOM     22  C   UNL     1       6.591  -0.960   0.000  0.00  0.00    +0.000 A 
ATOM     23  C   UNL     1       7.305  -1.373   0.000  0.00  0.00    +0.000 A 
ATOM     24  N   UNL     1       7.305  -2.198   0.000  0.00  0.00    +0.000 NA
ATOM     25  C   UNL     1       6.591  -2.610   0.000  0.00  0.00    +0.000 A 
ATOM     26  C   UNL     1       5.876  -2.198   0.000  0.00  0.00    +0.000 A 
ENDBRANCH  20  21
ENDBRANCH  18  20
ENDBRANCH  17  18
ENDBRANCH  16  17
ENDBRANCH   3  16
TORSDOF 8
