REMARK  Name = 897
REMARK  1 active torsions:
REMARK  status: ('A' for Active; 'I' for Inactive)
REMARK    1  A    between atoms: C_10  and  C_14
REMARK                            x       y       z     vdW  Elec       q    Type
REMARK                         _______ _______ _______ _____ _____    ______ ____
ROOT
ATOM      1 CL   UNL     1       1.650  -0.232   0.000  0.00  0.00    +0.000 Cl
ATOM      2  N   UNL     1       4.816  -1.327   0.000  0.00  0.00    +0.000 N 
ATOM      3  N   UNL     1       5.228   0.480   0.000  0.00  0.00    +0.000 NA
ATOM      4  N   UNL     1       6.124  -1.563   0.000  0.00  0.00    +0.000 NA
ATOM      5  N   UNL     1       5.735  -2.285   0.000  0.00  0.00    +0.000 NA
ATOM      6  C   UNL     1       4.073  -0.969   0.000  0.00  0.00    +0.000 A 
ATOM      7  C   UNL     1       3.889  -0.165   0.000  0.00  0.00    +0.000 A 
ATOM      8  C   UNL     1       5.559  -0.969   0.000  0.00  0.00    +0.000 A 
ATOM      9  C   UNL     1       4.403   0.480   0.000  0.00  0.00    +0.000 C 
ATOM     10  C   UNL     1       5.743  -0.165   0.000  0.00  0.00    +0.000 C 
ATOM     11  C   UNL     1       4.928  -2.139   0.000  0.00  0.00    +0.000 A 
ATOM     12  C   UNL     1       3.452  -1.563   0.000  0.00  0.00    +0.000 A 
ATOM     13  C   UNL     1       3.072   0.101   0.000  0.00  0.00    +0.000 A 
ATOM     14  C   UNL     1       2.629  -1.316   0.000  0.00  0.00    +0.000 A 
ATOM     15  C   UNL     1       2.437  -0.478   0.000  0.00  0.00    +0.000 A 
ATOM     16  C   UNL     1       4.333  -2.710   0.000  0.00  0.00    +0.000 C 
ENDROOT
BRANCH   9  18
ATOM     17 CL   UNL     1       5.333   1.844   0.000  0.00  0.00    +0.000 Cl
ATOM     18  C   UNL     1       4.045   1.224   0.000  0.00  0.00    +0.000 A 
ATOM     19  C   UNL     1       4.510   1.905   0.000  0.00  0.00    +0.000 A 
ATOM     20  C   UNL     1       3.223   1.285   0.000  0.00  0.00    +0.000 A 
ATOM     21  C   UNL     1       4.152   2.649   0.000  0.00  0.00    +0.000 A 
ATOM     22  C   UNL     1       2.865   2.029   0.000  0.00  0.00    +0.000 A 
ATOM     23  C   UNL     1       3.330   2.710   0.000  0.00  0.00    +0.000 A 
ENDBRANCH   9  18
TORSDOF 1
