REMARK  Name = 899
REMARK  9 active torsions:
REMARK  status: ('A' for Active; 'I' for Inactive)
REMARK    1  A    between atoms: O_1  and  C_13
REMARK    2  A    between atoms: O_4  and  C_21
REMARK    3  A    between atoms: N_6  and  C_14
REMARK    4  A    between atoms: N_7  and  C_8
REMARK    5  A    between atoms: N_7  and  C_15
REMARK    6  A    between atoms: C_8  and  C_13
REMARK    7  A    between atoms: C_14  and  C_17
REMARK    8  A    between atoms: C_16  and  C_18
REMARK    9  A    between atoms: C_17  and  C_21
REMARK                            x       y       z     vdW  Elec       q    Type
REMARK                         _______ _______ _______ _____ _____    ______ ____
ROOT
ATOM      1  N   UNL     1       3.689  -0.610   0.000  0.00  0.00    +0.000 NA
ATOM      2  C   UNL     1       3.689   1.040   0.000  0.00  0.00    +0.000 C 
ATOM      3  C   UNL     1       2.975   0.628   0.000  0.00  0.00    +0.000 C 
ATOM      4  C   UNL     1       4.404   0.628   0.000  0.00  0.00    +0.000 C 
ATOM      5  C   UNL     1       2.975  -0.197   0.000  0.00  0.00    +0.000 C 
ATOM      6  C   UNL     1       4.404  -0.197   0.000  0.00  0.00    +0.000 C 
ENDROOT
BRANCH   2   8
ATOM      7  O   UNL     1       3.428   3.199   0.000  0.00  0.00    +0.000 OA
ATOM      8  N   UNL     1       4.102   1.755   0.000  0.00  0.00    +0.000 N 
ATOM      9  C   UNL     1       3.958   2.567   0.000  0.00  0.00    +0.000 C 
BRANCH   8  10
ATOM     10  C   UNL     1       4.927   1.755   0.000  0.00  0.00    +0.000 A 
ATOM     11  C   UNL     1       5.339   2.469   0.000  0.00  0.00    +0.000 A 
ATOM     12  C   UNL     1       5.339   1.040   0.000  0.00  0.00    +0.000 A 
ATOM     13  C   UNL     1       6.164   2.469   0.000  0.00  0.00    +0.000 A 
ATOM     14  C   UNL     1       6.164   1.040   0.000  0.00  0.00    +0.000 A 
ATOM     15  C   UNL     1       6.577   1.755   0.000  0.00  0.00    +0.000 A 
ENDBRANCH   8  10
BRANCH   9  16
ATOM     16  C   UNL     1       4.591   3.097   0.000  0.00  0.00    +0.000 C 
ATOM     17  C   UNL     1       4.447   3.910   0.000  0.00  0.00    +0.000 C 
ENDBRANCH   9  16
ENDBRANCH   2   8
BRANCH   2  19
ATOM     18  O   UNL     1       2.775   2.346   0.000  0.00  0.00    +0.000 OA
ATOM     19  C   UNL     1       3.057   1.571   0.000  0.00  0.00    +0.000 C 
BRANCH  19  20
ATOM     20  O   UNL     1       2.282   1.288   0.000  0.00  0.00    +0.000 OA
ATOM     21  C   UNL     1       1.650   1.819   0.000  0.00  0.00    +0.000 C 
ENDBRANCH  19  20
ENDBRANCH   2  19
BRANCH   1  22
ATOM     22  C   UNL     1       3.689  -1.435   0.000  0.00  0.00    +0.000 C 
BRANCH  22  23
ATOM     23  C   UNL     1       2.975  -1.847   0.000  0.00  0.00    +0.000 C 
BRANCH  23  25
ATOM     24  O   UNL     1       3.689  -3.085   0.000  0.00  0.00    +0.000 OA
ATOM     25  C   UNL     1       2.975  -2.672   0.000  0.00  0.00    +0.000 C 
BRANCH  25  26
ATOM     26  O   UNL     1       2.260  -3.085   0.000  0.00  0.00    +0.000 OA
ATOM     27  C   UNL     1       2.260  -3.910   0.000  0.00  0.00    +0.000 C 
ENDBRANCH  25  26
ENDBRANCH  23  25
ENDBRANCH  22  23
ENDBRANCH   1  22
TORSDOF 9
