REMARK  Name = 89I
REMARK  5 active torsions:
REMARK  status: ('A' for Active; 'I' for Inactive)
REMARK    1  A    between atoms: C_3  and  C_25
REMARK    2  A    between atoms: C_4  and  C_7
REMARK    3  A    between atoms: C_10  and  N_27
REMARK    4  A    between atoms: C_15  and  N_24
REMARK    5  A    between atoms: C_18  and  C_26
REMARK                            x       y       z     vdW  Elec       q    Type
REMARK                         _______ _______ _______ _____ _____    ______ ____
ROOT
ATOM      1  C   UNL     1       0.471   2.819   0.000  0.00  0.00    +0.000 A 
ATOM      2  N   UNL     1       1.185   2.407   0.000  0.00  0.00    +0.000 NA
ATOM      3  C   UNL     1       1.185   1.582   0.000  0.00  0.00    +0.000 A 
ATOM      4  C   UNL     1       0.471   1.169   0.000  0.00  0.00    +0.000 A 
ATOM      5  C   UNL     1      -0.243   1.582   0.000  0.00  0.00    +0.000 A 
ATOM      6  N   UNL     1      -0.243   2.407   0.000  0.00  0.00    +0.000 NA
ATOM      7  N   UNL     1      -0.958   1.169   0.000  0.00  0.00    +0.000 NA
ENDROOT
BRANCH   4   8
ATOM      8  C   UNL     1       0.471   0.344   0.000  0.00  0.00    +0.000 A 
ATOM      9  C   UNL     1      -0.243  -0.068   0.000  0.00  0.00    +0.000 A 
ATOM     10  C   UNL     1      -0.243  -0.893   0.000  0.00  0.00    +0.000 A 
ATOM     11  C   UNL     1       0.471  -1.306   0.000  0.00  0.00    +0.000 A 
ATOM     12  C   UNL     1       1.185  -0.893   0.000  0.00  0.00    +0.000 A 
ATOM     13  C   UNL     1       1.185  -0.068   0.000  0.00  0.00    +0.000 A 
BRANCH  11  14
ATOM     14  N   UNL     1       0.471  -2.131   0.000  0.00  0.00    +0.000 N 
ATOM     15  C   UNL     1       1.185  -2.543   0.000  0.00  0.00    +0.000 C 
ATOM     16  C   UNL     1      -0.243  -2.543   0.000  0.00  0.00    +0.000 C 
ENDBRANCH  11  14
ENDBRANCH   4   8
BRANCH   3  17
ATOM     17  C   UNL     1       1.900   1.169   0.000  0.00  0.00    +0.000 C 
ATOM     18  C   UNL     1       2.615   0.757   0.000  0.00  0.00    +0.000 C 
BRANCH  18  24
ATOM     19  C   UNL     1       4.043   0.757   0.000  0.00  0.00    +0.000 A 
ATOM     20  N   UNL     1       4.758   0.344   0.000  0.00  0.00    +0.000 NA
ATOM     21  C   UNL     1       4.758  -0.481   0.000  0.00  0.00    +0.000 A 
ATOM     22  C   UNL     1       4.043  -0.893   0.000  0.00  0.00    +0.000 A 
ATOM     23  C   UNL     1       3.329  -0.481   0.000  0.00  0.00    +0.000 A 
ATOM     24  C   UNL     1       3.329   0.344   0.000  0.00  0.00    +0.000 A 
BRANCH  21  30
ATOM     25  C   UNL     1       6.187  -0.481   0.000  0.00  0.00    +0.000 C 
ATOM     26  C   UNL     1       6.901  -0.893   0.000  0.00  0.00    +0.000 C 
ATOM     27  O   UNL     1       6.901  -1.718   0.000  0.00  0.00    +0.000 OA
ATOM     28  C   UNL     1       6.187  -2.131   0.000  0.00  0.00    +0.000 C 
ATOM     29  C   UNL     1       5.472  -1.718   0.000  0.00  0.00    +0.000 C 
ATOM     30  N   UNL     1       5.472  -0.893   0.000  0.00  0.00    +0.000 N 
ENDBRANCH  21  30
ENDBRANCH  18  24
ENDBRANCH   3  17
TORSDOF 5
