REMARK  Name = 8AP
REMARK  3 active torsions:
REMARK  status: ('A' for Active; 'I' for Inactive)
REMARK    1  A    between atoms: C_7  and  N_8
REMARK    2  A    between atoms: N_8  and  C_9
REMARK    3  A    between atoms: C_9  and  C_10
REMARK                            x       y       z     vdW  Elec       q    Type
REMARK                         _______ _______ _______ _____ _____    ______ ____
ROOT
ATOM      1  N   UNL     1       0.916  -0.858   0.000  0.00  0.00    +0.000 NA
ENDROOT
BRANCH   1   8
ATOM      2  N   UNL     1       2.345  -0.033   0.000  0.00  0.00    +0.000 NA
ATOM      3  C   UNL     1       2.345  -0.858   0.000  0.00  0.00    +0.000 A 
ATOM      4  N   UNL     1       3.059  -1.270   0.000  0.00  0.00    +0.000 NA
ATOM      5  C   UNL     1       3.059  -2.095   0.000  0.00  0.00    +0.000 A 
ATOM      6  C   UNL     1       2.345  -2.508   0.000  0.00  0.00    +0.000 A 
ATOM      7  C   UNL     1       1.631  -2.095   0.000  0.00  0.00    +0.000 A 
ATOM      8  C   UNL     1       1.631  -1.270   0.000  0.00  0.00    +0.000 A 
ENDBRANCH   1   8
BRANCH   1   9
ATOM      9  C   UNL     1       0.202  -1.270   0.000  0.00  0.00    +0.000 C 
BRANCH   9  10
ATOM     10  C   UNL     1      -0.513  -0.858   0.000  0.00  0.00    +0.000 A 
ATOM     11  C   UNL     1      -1.227  -1.270   0.000  0.00  0.00    +0.000 A 
ATOM     12  C   UNL     1      -1.942  -0.858   0.000  0.00  0.00    +0.000 A 
ATOM     13  C   UNL     1      -1.942  -0.033   0.000  0.00  0.00    +0.000 A 
ATOM     14  C   UNL     1      -1.227   0.380   0.000  0.00  0.00    +0.000 A 
ATOM     15  C   UNL     1      -0.513  -0.033   0.000  0.00  0.00    +0.000 A 
ENDBRANCH   9  10
ENDBRANCH   1   9
TORSDOF 3
