REMARK  Name = 8BD
REMARK  6 active torsions:
REMARK  status: ('A' for Active; 'I' for Inactive)
REMARK    1  A    between atoms: O_2  and  C_3
REMARK    2  A    between atoms: C_8  and  C_9
REMARK    3  A    between atoms: N_10  and  O_11
REMARK    4  A    between atoms: O_11  and  C_12
REMARK    5  A    between atoms: C_12  and  C_13
REMARK    6  A    between atoms: C_13  and  C_14
REMARK                            x       y       z     vdW  Elec       q    Type
REMARK                         _______ _______ _______ _____ _____    ______ ____
ROOT
ATOM      1  C   UNL     1      -0.484   0.629   0.000  0.00  0.00    +0.000 A 
ATOM      2  C   UNL     1      -0.484   1.454   0.000  0.00  0.00    +0.000 A 
ATOM      3  C   UNL     1      -1.198   1.866   0.000  0.00  0.00    +0.000 A 
ATOM      4  C   UNL     1      -1.913   1.454   0.000  0.00  0.00    +0.000 A 
ATOM      5  C   UNL     1      -1.913   0.629   0.000  0.00  0.00    +0.000 A 
ATOM      6  C   UNL     1      -1.198   0.216   0.000  0.00  0.00    +0.000 A 
ENDROOT
BRANCH   6   7
ATOM      7  C   UNL     1      -1.198  -0.609   0.000  0.00  0.00    +0.000 C 
ATOM      8  N   UNL     1      -0.484  -1.021   0.000  0.00  0.00    +0.000 NA
BRANCH   8   9
ATOM      9  O   UNL     1       0.230  -0.609   0.000  0.00  0.00    +0.000 OA
BRANCH   9  10
ATOM     10  C   UNL     1       0.945  -1.021   0.000  0.00  0.00    +0.000 C 
BRANCH  10  11
ATOM     11  C   UNL     1       1.659  -0.609   0.000  0.00  0.00    +0.000 C 
BRANCH  11  12
ATOM     12  C   UNL     1       2.374  -1.021   0.000  0.00  0.00    +0.000 C 
ATOM     13  O   UNL     1       2.374  -1.846   0.000  0.00  0.00    +0.000 OA
ATOM     14  O   UNL     1       3.088  -0.609   0.000  0.00  0.00    +0.000 OA
ENDBRANCH  11  12
ENDBRANCH  10  11
ENDBRANCH   9  10
ENDBRANCH   8   9
ENDBRANCH   6   7
BRANCH   1  16
ATOM     15  C   UNL     1       0.945   0.629   0.000  0.00  0.00    +0.000 C 
ATOM     16  O   UNL     1       0.230   0.216   0.000  0.00  0.00    +0.000 OA
ENDBRANCH   1  16
TORSDOF 6
