REMARK  Name = 8CA
REMARK  3 active torsions:
REMARK  status: ('A' for Active; 'I' for Inactive)
REMARK    1  A    between atoms: C_2  and  C_4
REMARK    2  A    between atoms: N_15  and  C_17
REMARK    3  A    between atoms: C_17  and  C_18
REMARK                            x       y       z     vdW  Elec       q    Type
REMARK                         _______ _______ _______ _____ _____    ______ ____
ROOT
ATOM      1  C   UNL     1      -1.703   0.009   0.000  0.00  0.00    +0.000 A 
ATOM      2  C   UNL     1      -2.255   0.622   0.000  0.00  0.00    +0.000 A 
ATOM      3  C   UNL     1      -2.000   1.406   0.000  0.00  0.00    +0.000 A 
ATOM      4  C   UNL     1      -1.193   1.578   0.000  0.00  0.00    +0.000 A 
ATOM      5  C   UNL     1      -0.641   0.965   0.000  0.00  0.00    +0.000 A 
ATOM      6  C   UNL     1       0.184   0.965   0.000  0.00  0.00    +0.000 A 
ATOM      7  C   UNL     1       0.736   1.578   0.000  0.00  0.00    +0.000 C 
ATOM      8  C   UNL     1       1.543   1.406   0.000  0.00  0.00    +0.000 C 
ATOM      9  C   UNL     1       1.798   0.622   0.000  0.00  0.00    +0.000 C 
ATOM     10  C   UNL     1       1.246   0.009   0.000  0.00  0.00    +0.000 C 
ATOM     11  C   UNL     1       0.439   0.180   0.000  0.00  0.00    +0.000 A 
ATOM     12  N   UNL     1      -0.228  -0.305   0.000  0.00  0.00    +0.000 N 
ATOM     13  C   UNL     1      -0.896   0.180   0.000  0.00  0.00    +0.000 A 
ENDROOT
BRANCH   1  15
ATOM     14  O   UNL     1      -1.406  -1.389   0.000  0.00  0.00    +0.000 OA
ATOM     15  C   UNL     1      -1.958  -0.776   0.000  0.00  0.00    +0.000 C 
ATOM     16  O   UNL     1      -2.765  -0.948   0.000  0.00  0.00    +0.000 OA
ENDBRANCH   1  15
BRANCH  12  17
ATOM     17  C   UNL     1      -0.228  -1.130   0.000  0.00  0.00    +0.000 C 
BRANCH  17  18
ATOM     18  C   UNL     1       0.486  -1.542   0.000  0.00  0.00    +0.000 A 
ATOM     19  C   UNL     1       1.201  -1.130   0.000  0.00  0.00    +0.000 A 
ATOM     20  C   UNL     1       1.915  -1.542   0.000  0.00  0.00    +0.000 A 
ATOM     21  C   UNL     1       1.915  -2.367   0.000  0.00  0.00    +0.000 A 
ATOM     22  C   UNL     1       1.201  -2.780   0.000  0.00  0.00    +0.000 A 
ATOM     23  C   UNL     1       0.486  -2.367   0.000  0.00  0.00    +0.000 A 
ENDBRANCH  17  18
ENDBRANCH  12  17
TORSDOF 3
