REMARK  Name = 8IN
REMARK  9 active torsions:
REMARK  status: ('A' for Active; 'I' for Inactive)
REMARK    1  A    between atoms: C_6  and  O_22
REMARK    2  A    between atoms: N_7  and  C_15
REMARK    3  A    between atoms: C_9  and  C_10
REMARK    4  A    between atoms: C_10  and  C_11
REMARK    5  A    between atoms: C_15  and  C_16
REMARK    6  A    between atoms: O_22  and  C_23
REMARK    7  A    between atoms: C_23  and  C_24
REMARK    8  A    between atoms: C_24  and  C_25
REMARK    9  A    between atoms: C_25  and  P_26
REMARK                            x       y       z     vdW  Elec       q    Type
REMARK                         _______ _______ _______ _____ _____    ______ ____
ROOT
ATOM      1  C   UNL     1       1.193  -0.381   0.000  0.00  0.00    +0.000 A 
ATOM      2  C   UNL     1       0.479  -0.794   0.000  0.00  0.00    +0.000 A 
ATOM      3  C   UNL     1      -0.236  -0.381   0.000  0.00  0.00    +0.000 A 
ATOM      4  C   UNL     1      -0.236   0.444   0.000  0.00  0.00    +0.000 A 
ATOM      5  C   UNL     1       0.479   0.856   0.000  0.00  0.00    +0.000 A 
ATOM      6  C   UNL     1       1.193   0.444   0.000  0.00  0.00    +0.000 A 
ATOM      7  N   UNL     1      -1.020  -0.636   0.000  0.00  0.00    +0.000 N 
ATOM      8  C   UNL     1      -1.505   0.031   0.000  0.00  0.00    +0.000 A 
ATOM      9  C   UNL     1      -1.020   0.699   0.000  0.00  0.00    +0.000 A 
ATOM     10  C   UNL     1      -2.330   0.031   0.000  0.00  0.00    +0.000 C 
ENDROOT
BRANCH   9  11
ATOM     11  C   UNL     1      -1.275   1.483   0.000  0.00  0.00    +0.000 C 
BRANCH  11  12
ATOM     12  C   UNL     1      -2.082   1.655   0.000  0.00  0.00    +0.000 C 
ATOM     13  O   UNL     1      -2.634   1.042   0.000  0.00  0.00    +0.000 OA
ATOM     14  N   UNL     1      -2.337   2.439   0.000  0.00  0.00    +0.000 NA
ENDBRANCH  11  12
ENDBRANCH   9  11
BRANCH   7  15
ATOM     15  C   UNL     1      -1.275  -1.421   0.000  0.00  0.00    +0.000 C 
BRANCH  15  16
ATOM     16  C   UNL     1      -2.082  -1.592   0.000  0.00  0.00    +0.000 A 
ATOM     17  C   UNL     1      -2.337  -2.377   0.000  0.00  0.00    +0.000 A 
ATOM     18  C   UNL     1      -3.144  -2.548   0.000  0.00  0.00    +0.000 A 
ATOM     19  C   UNL     1      -3.696  -1.935   0.000  0.00  0.00    +0.000 A 
ATOM     20  C   UNL     1      -3.441  -1.151   0.000  0.00  0.00    +0.000 A 
ATOM     21  C   UNL     1      -2.634  -0.979   0.000  0.00  0.00    +0.000 A 
ENDBRANCH  15  16
ENDBRANCH   7  15
BRANCH   6  22
ATOM     22  O   UNL     1       1.908   0.856   0.000  0.00  0.00    +0.000 OA
BRANCH  22  23
ATOM     23  C   UNL     1       2.622   0.444   0.000  0.00  0.00    +0.000 C 
BRANCH  23  24
ATOM     24  C   UNL     1       3.337   0.856   0.000  0.00  0.00    +0.000 C 
BRANCH  24  25
ATOM     25  C   UNL     1       4.051   0.444   0.000  0.00  0.00    +0.000 C 
BRANCH  25  26
ATOM     26  P   UNL     1       4.766   0.856   0.000  0.00  0.00    +0.000 P 
ATOM     27  O   UNL     1       5.480   1.269   0.000  0.00  0.00    +0.000 OA
ATOM     28  O   UNL     1       5.178   0.142   0.000  0.00  0.00    +0.000 OA
ATOM     29  O   UNL     1       4.353   1.571   0.000  0.00  0.00    +0.000 OA
ENDBRANCH  25  26
ENDBRANCH  24  25
ENDBRANCH  23  24
ENDBRANCH  22  23
ENDBRANCH   6  22
TORSDOF 9
