REMARK  Name = 8IP
REMARK  4 active torsions:
REMARK  status: ('A' for Active; 'I' for Inactive)
REMARK    1  A    between atoms: C_7  and  N_8
REMARK    2  A    between atoms: N_8  and  C_9
REMARK    3  A    between atoms: C_9  and  C_10
REMARK    4  A    between atoms: C_14  and  C_16
REMARK                            x       y       z     vdW  Elec       q    Type
REMARK                         _______ _______ _______ _____ _____    ______ ____
ROOT
ATOM      1  C   UNL     1       1.573  -0.173   0.000  0.00  0.00    +0.000 A 
ATOM      2  C   UNL     1       1.573   0.651   0.000  0.00  0.00    +0.000 A 
ATOM      3  C   UNL     1       0.858   1.064   0.000  0.00  0.00    +0.000 A 
ATOM      4  C   UNL     1       0.144   0.651   0.000  0.00  0.00    +0.000 A 
ATOM      5  C   UNL     1       0.144  -0.173   0.000  0.00  0.00    +0.000 A 
ATOM      6  C   UNL     1       0.858  -0.586   0.000  0.00  0.00    +0.000 A 
ENDROOT
BRANCH   5   7
ATOM      7  C   UNL     1      -0.571  -0.586   0.000  0.00  0.00    +0.000 A 
ATOM      8  C   UNL     1      -1.285  -0.173   0.000  0.00  0.00    +0.000 A 
ATOM      9  C   UNL     1      -2.000  -0.586   0.000  0.00  0.00    +0.000 A 
ATOM     10  C   UNL     1      -2.000  -1.411   0.000  0.00  0.00    +0.000 A 
ATOM     11  N   UNL     1      -1.285  -1.823   0.000  0.00  0.00    +0.000 NA
ATOM     12  C   UNL     1      -0.571  -1.411   0.000  0.00  0.00    +0.000 A 
ENDBRANCH   5   7
BRANCH   1  13
ATOM     13  C   UNL     1       2.287  -0.586   0.000  0.00  0.00    +0.000 C 
BRANCH  13  14
ATOM     14  N   UNL     1       3.002  -0.173   0.000  0.00  0.00    +0.000 NA
BRANCH  14  21
ATOM     15  N   UNL     1       4.431   0.651   0.000  0.00  0.00    +0.000 NA
ATOM     16  C   UNL     1       4.431  -0.173   0.000  0.00  0.00    +0.000 A 
ATOM     17  N   UNL     1       5.145  -0.586   0.000  0.00  0.00    +0.000 NA
ATOM     18  C   UNL     1       5.145  -1.411   0.000  0.00  0.00    +0.000 A 
ATOM     19  C   UNL     1       4.431  -1.823   0.000  0.00  0.00    +0.000 A 
ATOM     20  C   UNL     1       3.716  -1.411   0.000  0.00  0.00    +0.000 A 
ATOM     21  C   UNL     1       3.716  -0.586   0.000  0.00  0.00    +0.000 A 
ENDBRANCH  14  21
ENDBRANCH  13  14
ENDBRANCH   1  13
TORSDOF 4
