REMARK  Name = 8MR
REMARK  6 active torsions:
REMARK  status: ('A' for Active; 'I' for Inactive)
REMARK    1  A    between atoms: O_2  and  C_3
REMARK    2  A    between atoms: C_8  and  S_9
REMARK    3  A    between atoms: S_9  and  C_12
REMARK    4  A    between atoms: C_12  and  C_13
REMARK    5  A    between atoms: C_12  and  C_16
REMARK    6  A    between atoms: C_16  and  C_17
REMARK                            x       y       z     vdW  Elec       q    Type
REMARK                         _______ _______ _______ _____ _____    ______ ____
ROOT
ATOM      1  S   UNL     1      -0.678   1.349   0.000  0.00  0.00    +0.000 S 
ATOM      2  O   UNL     1       0.147   1.349   0.000  0.00  0.00    +0.000 OA
ATOM      3  O   UNL     1      -1.503   1.349   0.000  0.00  0.00    +0.000 OA
ENDROOT
BRANCH   1   9
ATOM      4  C   UNL     1      -0.678  -1.126   0.000  0.00  0.00    +0.000 A 
ATOM      5  C   UNL     1       0.036  -0.714   0.000  0.00  0.00    +0.000 A 
ATOM      6  C   UNL     1       0.036   0.111   0.000  0.00  0.00    +0.000 A 
ATOM      7  C   UNL     1      -1.393  -0.714   0.000  0.00  0.00    +0.000 A 
ATOM      8  C   UNL     1      -1.393   0.111   0.000  0.00  0.00    +0.000 A 
ATOM      9  C   UNL     1      -0.678   0.524   0.000  0.00  0.00    +0.000 A 
BRANCH   4  11
ATOM     10  C   UNL     1      -1.393  -2.364   0.000  0.00  0.00    +0.000 C 
ATOM     11  O   UNL     1      -0.678  -1.951   0.000  0.00  0.00    +0.000 OA
ENDBRANCH   4  11
ENDBRANCH   1   9
BRANCH   1  12
ATOM     12  C   UNL     1      -0.678   2.174   0.000  0.00  0.00    +0.000 C 
BRANCH  12  13
ATOM     13  C   UNL     1       0.036   2.586   0.000  0.00  0.00    +0.000 C 
ATOM     14  F   UNL     1       0.751   2.174   0.000  0.00  0.00    +0.000 F 
ATOM     15  F   UNL     1       0.036   3.411   0.000  0.00  0.00    +0.000 F 
ENDBRANCH  12  13
BRANCH  12  16
ATOM     16  C   UNL     1      -1.393   2.586   0.000  0.00  0.00    +0.000 C 
BRANCH  16  17
ATOM     17  C   UNL     1      -1.393   3.411   0.000  0.00  0.00    +0.000 C 
ATOM     18  O   UNL     1      -2.107   3.824   0.000  0.00  0.00    +0.000 OA
ATOM     19  O   UNL     1      -0.678   3.824   0.000  0.00  0.00    +0.000 OA
ENDBRANCH  16  17
ENDBRANCH  12  16
ENDBRANCH   1  12
TORSDOF 6
