REMARK  Name = 8NH
REMARK  2 active torsions:
REMARK  status: ('A' for Active; 'I' for Inactive)
REMARK    1  A    between atoms: C_4  and  N_10
REMARK    2  A    between atoms: C_7  and  C_8
REMARK                            x       y       z     vdW  Elec       q    Type
REMARK                         _______ _______ _______ _____ _____    ______ ____
ROOT
ATOM      1  N   UNL     1       1.873   1.376   0.000  0.00  0.00    +0.000 N 
ATOM      2  C   UNL     1       2.358   2.043   0.000  0.00  0.00    +0.000 C 
ATOM      3  N   UNL     1       3.143   1.788   0.000  0.00  0.00    +0.000 N 
ATOM      4  C   UNL     1       3.143   0.963   0.000  0.00  0.00    +0.000 C 
ATOM      5  C   UNL     1       3.928   0.708   0.000  0.00  0.00    +0.000 C 
ATOM      6  C   UNL     1       4.413   1.376   0.000  0.00  0.00    +0.000 C 
ATOM      7  C   UNL     1       3.928   2.043   0.000  0.00  0.00    +0.000 C 
ATOM      8  O   UNL     1       4.183  -0.076   0.000  0.00  0.00    +0.000 OA
ATOM      9  C   UNL     1       2.358   0.708   0.000  0.00  0.00    +0.000 C 
ATOM     10  O   UNL     1       2.103  -0.076   0.000  0.00  0.00    +0.000 OA
ATOM     11  O   UNL     1       2.103   2.828   0.000  0.00  0.00    +0.000 OA
ENDROOT
BRANCH   1  15
ATOM     12 CL   UNL     1      -0.602  -0.053   0.000  0.00  0.00    +0.000 Cl
ATOM     13  C   UNL     1      -0.189   0.661   0.000  0.00  0.00    +0.000 A 
ATOM     14  C   UNL     1       0.636   0.661   0.000  0.00  0.00    +0.000 A 
ATOM     15  C   UNL     1       1.048   1.376   0.000  0.00  0.00    +0.000 A 
ATOM     16  C   UNL     1       0.636   2.090   0.000  0.00  0.00    +0.000 A 
ATOM     17  C   UNL     1      -0.189   2.090   0.000  0.00  0.00    +0.000 A 
ATOM     18  C   UNL     1      -0.602   1.376   0.000  0.00  0.00    +0.000 A 
ATOM     19  C   UNL     1       1.048  -0.053   0.000  0.00  0.00    +0.000 C 
BRANCH  18  20
ATOM     20  C   UNL     1      -1.427   1.376   0.000  0.00  0.00    +0.000 C 
ATOM     21  N   UNL     1      -2.252   1.376   0.000  0.00  0.00    +0.000 NA
ENDBRANCH  18  20
ENDBRANCH   1  15
TORSDOF 2
