REMARK  Name = 8PC
REMARK  4 active torsions:
REMARK  status: ('A' for Active; 'I' for Inactive)
REMARK    1  A    between atoms: C_6  and  O_9
REMARK    2  A    between atoms: O_9  and  C_10
REMARK    3  A    between atoms: C_13  and  C_17
REMARK    4  A    between atoms: C_17  and  C_18
REMARK                            x       y       z     vdW  Elec       q    Type
REMARK                         _______ _______ _______ _____ _____    ______ ____
ROOT
ATOM      1  C   UNL     1      -0.107   0.329   0.000  0.00  0.00    +0.000 A 
ATOM      2  C   UNL     1      -0.107  -0.496   0.000  0.00  0.00    +0.000 A 
ATOM      3  C   UNL     1       0.608  -0.909   0.000  0.00  0.00    +0.000 A 
ATOM      4  C   UNL     1       1.322  -0.496   0.000  0.00  0.00    +0.000 A 
ATOM      5  C   UNL     1       1.322   0.329   0.000  0.00  0.00    +0.000 A 
ATOM      6  C   UNL     1       0.608   0.741   0.000  0.00  0.00    +0.000 A 
ATOM      7  O   UNL     1       0.608   1.566   0.000  0.00  0.00    +0.000 OA
ENDROOT
BRANCH   1   8
ATOM      8  O   UNL     1      -0.821   0.741   0.000  0.00  0.00    +0.000 OA
BRANCH   8  14
ATOM      9 CL   UNL     1      -0.821   4.041   0.000  0.00  0.00    +0.000 Cl
ATOM     10  C   UNL     1      -0.821   3.216   0.000  0.00  0.00    +0.000 A 
ATOM     11  C   UNL     1      -1.536   2.804   0.000  0.00  0.00    +0.000 A 
ATOM     12  C   UNL     1      -1.536   1.979   0.000  0.00  0.00    +0.000 A 
ATOM     13 CL   UNL     1      -2.250   1.566   0.000  0.00  0.00    +0.000 Cl
ATOM     14  C   UNL     1      -0.821   1.566   0.000  0.00  0.00    +0.000 A 
ATOM     15  C   UNL     1      -0.107   1.979   0.000  0.00  0.00    +0.000 A 
ATOM     16  C   UNL     1      -0.107   2.804   0.000  0.00  0.00    +0.000 A 
ENDBRANCH   8  14
ENDBRANCH   1   8
BRANCH   4  17
ATOM     17  C   UNL     1       2.037  -0.909   0.000  0.00  0.00    +0.000 C 
BRANCH  17  18
ATOM     18  C   UNL     1       2.037  -1.734   0.000  0.00  0.00    +0.000 A 
ATOM     19  N   UNL     1       2.751  -2.146   0.000  0.00  0.00    +0.000 NA
ATOM     20  C   UNL     1       2.751  -2.971   0.000  0.00  0.00    +0.000 A 
ATOM     21  C   UNL     1       2.037  -3.384   0.000  0.00  0.00    +0.000 A 
ATOM     22  C   UNL     1       1.322  -2.971   0.000  0.00  0.00    +0.000 A 
ATOM     23  C   UNL     1       1.322  -2.146   0.000  0.00  0.00    +0.000 A 
ENDBRANCH  17  18
ENDBRANCH   4  17
TORSDOF 4
