REMARK  Name = 8ST
REMARK  5 active torsions:
REMARK  status: ('A' for Active; 'I' for Inactive)
REMARK    1  A    between atoms: C_7  and  N_8
REMARK    2  A    between atoms: C_9  and  C_11
REMARK    3  A    between atoms: C_12  and  N_17
REMARK    4  A    between atoms: N_17  and  C_18
REMARK    5  A    between atoms: C_18  and  C_19
REMARK                            x       y       z     vdW  Elec       q    Type
REMARK                         _______ _______ _______ _____ _____    ______ ____
ROOT
ATOM      1  C   UNL     1      -0.502  -0.901   0.000  0.00  0.00    +0.000 A 
ATOM      2  C   UNL     1       0.212  -1.313   0.000  0.00  0.00    +0.000 A 
ATOM      3  C   UNL     1       0.212  -2.139   0.000  0.00  0.00    +0.000 A 
ATOM      4  C   UNL     1      -0.502  -2.551   0.000  0.00  0.00    +0.000 A 
ATOM      5  C   UNL     1      -1.217  -2.139   0.000  0.00  0.00    +0.000 A 
ATOM      6  C   UNL     1      -1.217  -1.313   0.000  0.00  0.00    +0.000 A 
ENDROOT
BRANCH   1   8
ATOM      7  N   UNL     1      -1.217   0.337   0.000  0.00  0.00    +0.000 NA
ATOM      8  C   UNL     1      -0.502  -0.076   0.000  0.00  0.00    +0.000 C 
ATOM      9  O   UNL     1       0.212   0.337   0.000  0.00  0.00    +0.000 OA
BRANCH   7  16
ATOM     10 CL   UNL     1      -1.217   3.636   0.000  0.00  0.00    +0.000 Cl
ATOM     11  C   UNL     1      -1.217   2.812   0.000  0.00  0.00    +0.000 A 
ATOM     12  C   UNL     1      -1.931   2.399   0.000  0.00  0.00    +0.000 A 
ATOM     13  C   UNL     1      -1.931   1.574   0.000  0.00  0.00    +0.000 A 
ATOM     14  C   UNL     1      -0.502   2.399   0.000  0.00  0.00    +0.000 A 
ATOM     15  C   UNL     1      -0.502   1.574   0.000  0.00  0.00    +0.000 A 
ATOM     16  C   UNL     1      -1.217   1.161   0.000  0.00  0.00    +0.000 A 
ENDBRANCH   7  16
ENDBRANCH   1   8
BRANCH   2  17
ATOM     17  N   UNL     1       0.926  -0.901   0.000  0.00  0.00    +0.000 NA
BRANCH  17  18
ATOM     18  C   UNL     1       1.641  -1.313   0.000  0.00  0.00    +0.000 C 
BRANCH  18  19
ATOM     19  C   UNL     1       2.356  -0.901   0.000  0.00  0.00    +0.000 A 
ATOM     20  C   UNL     1       3.070  -1.313   0.000  0.00  0.00    +0.000 A 
ATOM     21  C   UNL     1       3.784  -0.901   0.000  0.00  0.00    +0.000 A 
ATOM     22  N   UNL     1       3.784  -0.076   0.000  0.00  0.00    +0.000 NA
ATOM     23  C   UNL     1       3.070   0.337   0.000  0.00  0.00    +0.000 A 
ATOM     24  C   UNL     1       2.356  -0.076   0.000  0.00  0.00    +0.000 A 
ENDBRANCH  18  19
ENDBRANCH  17  18
ENDBRANCH   2  17
TORSDOF 5
