REMARK  Name = 900
REMARK  2 active torsions:
REMARK  status: ('A' for Active; 'I' for Inactive)
REMARK    1  A    between atoms: N_4  and  C_8
REMARK    2  A    between atoms: C_11  and  C_12
REMARK                            x       y       z     vdW  Elec       q    Type
REMARK                         _______ _______ _______ _____ _____    ______ ____
ROOT
ATOM      1  O   UNL     1       2.365  -3.158   0.000  0.00  0.00    +0.000 OA
ATOM      2  N   UNL     1       3.860  -0.845   0.000  0.00  0.00    +0.000 N 
ATOM      3  N   UNL     1       2.365  -0.683   0.000  0.00  0.00    +0.000 NA
ATOM      4  N   UNL     1       3.860  -2.172   0.000  0.00  0.00    +0.000 NA
ATOM      5  N   UNL     1       1.650  -1.921   0.000  0.00  0.00    +0.000 NA
ATOM      6  C   UNL     1       3.079  -1.096   0.000  0.00  0.00    +0.000 A 
ATOM      7  C   UNL     1       4.341  -1.508   0.000  0.00  0.00    +0.000 A 
ATOM      8  C   UNL     1       3.079  -1.921   0.000  0.00  0.00    +0.000 A 
ATOM      9  C   UNL     1       2.365  -2.333   0.000  0.00  0.00    +0.000 A 
ATOM     10  C   UNL     1       1.650  -1.096   0.000  0.00  0.00    +0.000 A 
ENDROOT
BRANCH   2  12
ATOM     11  O   UNL     1       3.632   0.608   0.000  0.00  0.00    +0.000 OA
ATOM     12  C   UNL     1       4.116  -0.060   0.000  0.00  0.00    +0.000 C 
ATOM     13  C   UNL     1       4.901   0.193   0.000  0.00  0.00    +0.000 C 
ATOM     14  C   UNL     1       4.902   1.018   0.000  0.00  0.00    +0.000 C 
ATOM     15  C   UNL     1       4.118   1.274   0.000  0.00  0.00    +0.000 C 
BRANCH  15  17
ATOM     16  O   UNL     1       4.418   2.672   0.000  0.00  0.00    +0.000 OA
ATOM     17  C   UNL     1       3.865   2.060   0.000  0.00  0.00    +0.000 C 
ENDBRANCH  15  17
ENDBRANCH   2  12
TORSDOF 2
