REMARK  Name = 902
REMARK  2 active torsions:
REMARK  status: ('A' for Active; 'I' for Inactive)
REMARK    1  A    between atoms: N_3  and  C_8
REMARK    2  A    between atoms: C_4  and  C_8
REMARK                            x       y       z     vdW  Elec       q    Type
REMARK                         _______ _______ _______ _____ _____    ______ ____
ROOT
ATOM      1  S   UNL     1       3.696  -1.849   0.000  0.00  0.00    +0.000 S 
ATOM      2  N   UNL     1       3.696  -0.264   0.000  0.00  0.00    +0.000 N 
ATOM      3  C   UNL     1       4.382  -0.660   0.000  0.00  0.00    +0.000 A 
ATOM      4  C   UNL     1       3.010  -0.660   0.000  0.00  0.00    +0.000 A 
ATOM      5  C   UNL     1       4.382  -1.453   0.000  0.00  0.00    +0.000 A 
ATOM      6  C   UNL     1       3.010  -1.453   0.000  0.00  0.00    +0.000 A 
ATOM      7  C   UNL     1       5.090  -0.237   0.000  0.00  0.00    +0.000 A 
ATOM      8  C   UNL     1       2.302  -0.237   0.000  0.00  0.00    +0.000 A 
ATOM      9  C   UNL     1       5.090  -1.876   0.000  0.00  0.00    +0.000 A 
ATOM     10  C   UNL     1       2.302  -1.876   0.000  0.00  0.00    +0.000 A 
ATOM     11  C   UNL     1       5.808  -0.644   0.000  0.00  0.00    +0.000 A 
ATOM     12  C   UNL     1       1.584  -0.644   0.000  0.00  0.00    +0.000 A 
ATOM     13  C   UNL     1       5.808  -1.469   0.000  0.00  0.00    +0.000 A 
ATOM     14  C   UNL     1       1.584  -1.469   0.000  0.00  0.00    +0.000 A 
ENDROOT
BRANCH   2  15
ATOM     15  C   UNL     1       3.696   0.528   0.000  0.00  0.00    +0.000 C 
BRANCH  15  17
ATOM     16  N   UNL     1       5.636   1.190   0.000  0.00  0.00    +0.000 NA
ATOM     17  C   UNL     1       4.382   0.924   0.000  0.00  0.00    +0.000 C 
ATOM     18  C   UNL     1       4.465   1.712   0.000  0.00  0.00    +0.000 C 
ATOM     19  C   UNL     1       5.106   0.602   0.000  0.00  0.00    +0.000 C 
ATOM     20  C   UNL     1       5.240   1.876   0.000  0.00  0.00    +0.000 C 
ATOM     21  C   UNL     1       6.423   1.107   0.000  0.00  0.00    +0.000 C 
ENDBRANCH  15  17
ENDBRANCH   2  15
TORSDOF 2
