REMARK  Name = 903
REMARK  6 active torsions:
REMARK  status: ('A' for Active; 'I' for Inactive)
REMARK    1  A    between atoms: O_3  and  C_13
REMARK    2  A    between atoms: O_3  and  C_18
REMARK    3  A    between atoms: C_7  and  C_9
REMARK    4  A    between atoms: C_8  and  C_9
REMARK    5  A    between atoms: C_8  and  C_10
REMARK    6  A    between atoms: C_18  and  C_19
REMARK                            x       y       z     vdW  Elec       q    Type
REMARK                         _______ _______ _______ _____ _____    ______ ____
ROOT
ATOM      1 CL   UNL     1       1.650   1.081   0.000  0.00  0.00    +0.000 Cl
ATOM      2 CL   UNL     1       1.650  -0.569   0.000  0.00  0.00    +0.000 Cl
ATOM      3  C   UNL     1       3.079   1.081   0.000  0.00  0.00    +0.000 A 
ATOM      4  C   UNL     1       2.365   0.668   0.000  0.00  0.00    +0.000 A 
ATOM      5  C   UNL     1       3.793   0.668   0.000  0.00  0.00    +0.000 A 
ATOM      6  C   UNL     1       3.079  -0.569   0.000  0.00  0.00    +0.000 A 
ATOM      7  C   UNL     1       2.365  -0.157   0.000  0.00  0.00    +0.000 A 
ATOM      8  C   UNL     1       3.793  -0.157   0.000  0.00  0.00    +0.000 A 
ENDROOT
BRANCH   3  10
ATOM      9  O   UNL     1       2.365   2.318   0.000  0.00  0.00    +0.000 OA
ATOM     10  C   UNL     1       3.079   1.906   0.000  0.00  0.00    +0.000 C 
BRANCH  10  11
ATOM     11  C   UNL     1       3.793   2.318   0.000  0.00  0.00    +0.000 C 
ATOM     12  C   UNL     1       4.508   1.906   0.000  0.00  0.00    +0.000 C 
BRANCH  11  13
ATOM     13  C   UNL     1       3.793   3.143   0.000  0.00  0.00    +0.000 C 
ATOM     14  C   UNL     1       4.508   3.556   0.000  0.00  0.00    +0.000 C 
ENDBRANCH  11  13
ENDBRANCH  10  11
ENDBRANCH   3  10
BRANCH   6  15
ATOM     15  O   UNL     1       3.079  -1.394   0.000  0.00  0.00    +0.000 OA
BRANCH  15  16
ATOM     16  C   UNL     1       3.793  -1.807   0.000  0.00  0.00    +0.000 C 
BRANCH  16  19
ATOM     17  O   UNL     1       4.508  -3.044   0.000  0.00  0.00    +0.000 OA
ATOM     18  O   UNL     1       3.079  -3.044   0.000  0.00  0.00    +0.000 OA
ATOM     19  C   UNL     1       3.793  -2.632   0.000  0.00  0.00    +0.000 C 
ENDBRANCH  16  19
ENDBRANCH  15  16
ENDBRANCH   6  15
TORSDOF 6
