REMARK  Name = 904
REMARK  2 active torsions:
REMARK  status: ('A' for Active; 'I' for Inactive)
REMARK    1  A    between atoms: N_3  and  C_11
REMARK    2  A    between atoms: C_5  and  C_11
REMARK                            x       y       z     vdW  Elec       q    Type
REMARK                         _______ _______ _______ _____ _____    ______ ____
ROOT
ATOM      1  O   UNL     1       4.271  -1.275   0.000  0.00  0.00    +0.000 OA
ATOM      2  N   UNL     1       3.586   1.316   0.000  0.00  0.00    +0.000 N 
ATOM      3  C   UNL     1       5.333  -0.359   0.000  0.00  0.00    +0.000 C 
ATOM      4  C   UNL     1       5.588   0.425   0.000  0.00  0.00    +0.000 C 
ATOM      5  C   UNL     1       5.031   1.034   0.000  0.00  0.00    +0.000 C 
ATOM      6  C   UNL     1       4.227   0.850   0.000  0.00  0.00    +0.000 A 
ATOM      7  C   UNL     1       3.982   0.097   0.000  0.00  0.00    +0.000 A 
ATOM      8  C   UNL     1       4.525  -0.525   0.000  0.00  0.00    +0.000 C 
ATOM      9  C   UNL     1       3.190   0.097   0.000  0.00  0.00    +0.000 A 
ATOM     10  C   UNL     1       2.945   0.850   0.000  0.00  0.00    +0.000 A 
ATOM     11  C   UNL     1       3.586   2.108   0.000  0.00  0.00    +0.000 C 
ATOM     12  C   UNL     1       2.647  -0.525   0.000  0.00  0.00    +0.000 A 
ATOM     13  C   UNL     1       2.141   1.034   0.000  0.00  0.00    +0.000 A 
ATOM     14  C   UNL     1       1.839  -0.359   0.000  0.00  0.00    +0.000 A 
ATOM     15  C   UNL     1       1.584   0.425   0.000  0.00  0.00    +0.000 A 
ENDROOT
BRANCH   3  16
ATOM     16  C   UNL     1       5.861  -0.950   0.000  0.00  0.00    +0.000 C 
BRANCH  16  17
ATOM     17  N   UNL     1       6.636  -0.788   0.000  0.00  0.00    +0.000 N 
ATOM     18  N   UNL     1       7.910  -0.927   0.000  0.00  0.00    +0.000 NA
ATOM     19  C   UNL     1       7.223  -1.321   0.000  0.00  0.00    +0.000 A 
ATOM     20  C   UNL     1       6.961  -0.066   0.000  0.00  0.00    +0.000 A 
ATOM     21  C   UNL     1       7.749  -0.152   0.000  0.00  0.00    +0.000 A 
ATOM     22  C   UNL     1       7.137  -2.108   0.000  0.00  0.00    +0.000 C 
ENDBRANCH  16  17
ENDBRANCH   3  16
TORSDOF 2
