REMARK  Name = 906
REMARK  6 active torsions:
REMARK  status: ('A' for Active; 'I' for Inactive)
REMARK    1  A    between atoms: N_5  and  C_11
REMARK    2  A    between atoms: C_6  and  C_13
REMARK    3  A    between atoms: C_11  and  C_12
REMARK    4  A    between atoms: C_12  and  C_14
REMARK    5  A    between atoms: C_15  and  C_16
REMARK    6  A    between atoms: C_15  and  C_17
REMARK                            x       y       z     vdW  Elec       q    Type
REMARK                         _______ _______ _______ _____ _____    ______ ____
ROOT
ATOM      1  C   UNL     1       4.508  -1.143   0.000  0.00  0.00    +0.000 C 
ATOM      2  C   UNL     1       5.222  -1.556   0.000  0.00  0.00    +0.000 C 
ENDROOT
BRANCH   2   4
ATOM      3  S   UNL     1       6.023  -0.323   0.000  0.00  0.00    +0.000 S 
ATOM      4  C   UNL     1       5.937  -1.143   0.000  0.00  0.00    +0.000 A 
ATOM      5  C   UNL     1       6.691  -1.479   0.000  0.00  0.00    +0.000 A 
ATOM      6  C   UNL     1       7.243  -0.866   0.000  0.00  0.00    +0.000 A 
ATOM      7  C   UNL     1       6.862  -2.286   0.000  0.00  0.00    +0.000 C 
ATOM      8  C   UNL     1       6.830  -0.151   0.000  0.00  0.00    +0.000 A 
ENDBRANCH   2   4
BRANCH   2  10
ATOM      9  S   UNL     1       5.890  -2.866   0.000  0.00  0.00    +0.000 S 
ATOM     10  C   UNL     1       5.222  -2.381   0.000  0.00  0.00    +0.000 A 
ATOM     11  C   UNL     1       4.555  -2.866   0.000  0.00  0.00    +0.000 A 
ATOM     12  C   UNL     1       4.810  -3.650   0.000  0.00  0.00    +0.000 A 
ATOM     13  C   UNL     1       3.770  -2.611   0.000  0.00  0.00    +0.000 C 
ATOM     14  C   UNL     1       5.635  -3.650   0.000  0.00  0.00    +0.000 A 
ENDBRANCH   2  10
BRANCH   1  15
ATOM     15  C   UNL     1       4.508  -0.318   0.000  0.00  0.00    +0.000 C 
BRANCH  15  16
ATOM     16  C   UNL     1       3.793   0.094   0.000  0.00  0.00    +0.000 C 
BRANCH  16  17
ATOM     17  N   UNL     1       3.793   0.919   0.000  0.00  0.00    +0.000 NA
ATOM     18  C   UNL     1       3.079   2.157   0.000  0.00  0.00    +0.000 C 
ATOM     19  C   UNL     1       3.079   1.332   0.000  0.00  0.00    +0.000 C 
ATOM     20  C   UNL     1       3.793   2.569   0.000  0.00  0.00    +0.000 C 
ATOM     21  C   UNL     1       4.508   2.157   0.000  0.00  0.00    +0.000 C 
ATOM     22  C   UNL     1       4.508   1.332   0.000  0.00  0.00    +0.000 C 
BRANCH  18  25
ATOM     23  O   UNL     1       2.365   3.394   0.000  0.00  0.00    +0.000 OA
ATOM     24  O   UNL     1       1.650   2.157   0.000  0.00  0.00    +0.000 OA
ATOM     25  C   UNL     1       2.365   2.569   0.000  0.00  0.00    +0.000 C 
ENDBRANCH  18  25
ENDBRANCH  16  17
ENDBRANCH  15  16
ENDBRANCH   1  15
TORSDOF 6
