REMARK  Name = 907
REMARK  2 active torsions:
REMARK  status: ('A' for Active; 'I' for Inactive)
REMARK    1  A    between atoms: C_1  and  C_7
REMARK    2  A    between atoms: C_12  and  C_13
REMARK                            x       y       z     vdW  Elec       q    Type
REMARK                         _______ _______ _______ _____ _____    ______ ____
ROOT
ATOM      1  C   UNL     1       1.419   0.696   0.000  0.00  0.00    +0.000 A 
ATOM      2  C   UNL     1       1.419  -0.129   0.000  0.00  0.00    +0.000 A 
ATOM      3  C   UNL     1       0.705  -0.542   0.000  0.00  0.00    +0.000 A 
ATOM      4  C   UNL     1      -0.009  -0.129   0.000  0.00  0.00    +0.000 A 
ATOM      5  C   UNL     1      -0.009   0.696   0.000  0.00  0.00    +0.000 A 
ATOM      6  C   UNL     1       0.705   1.108   0.000  0.00  0.00    +0.000 A 
ATOM      7  N   UNL     1      -0.794  -0.384   0.000  0.00  0.00    +0.000 NA
ATOM      8  C   UNL     1      -0.794   0.951   0.000  0.00  0.00    +0.000 A 
ATOM      9  C   UNL     1      -1.279   0.283   0.000  0.00  0.00    +0.000 A 
ENDROOT
BRANCH   9  10
ATOM     10  C   UNL     1      -2.104   0.283   0.000  0.00  0.00    +0.000 A 
ATOM     11  C   UNL     1      -2.517  -0.431   0.000  0.00  0.00    +0.000 A 
ATOM     12  C   UNL     1      -3.341  -0.431   0.000  0.00  0.00    +0.000 A 
ATOM     13  C   UNL     1      -3.754  -1.146   0.000  0.00  0.00    +0.000 C 
ATOM     14  C   UNL     1      -3.754   0.283   0.000  0.00  0.00    +0.000 A 
ATOM     15  C   UNL     1      -3.341   0.998   0.000  0.00  0.00    +0.000 A 
ATOM     16  C   UNL     1      -2.517   0.998   0.000  0.00  0.00    +0.000 A 
ATOM     17  O   UNL     1      -2.104   1.712   0.000  0.00  0.00    +0.000 OA
ATOM     18 BR   UNL     1      -3.754   1.712   0.000  0.00  0.00    +0.000 Br
ENDBRANCH   9  10
BRANCH   1  19
ATOM     19  C   UNL     1       2.134   1.108   0.000  0.00  0.00    +0.000 C 
ATOM     20  N   UNL     1       2.848   0.696   0.000  0.00  0.00    +0.000 NA
ATOM     21  N   UNL     1       2.134   1.933   0.000  0.00  0.00    +0.000 NA
ENDBRANCH   1  19
TORSDOF 2
