REMARK  Name = 908
REMARK  4 active torsions:
REMARK  status: ('A' for Active; 'I' for Inactive)
REMARK    1  A    between atoms: O_2  and  C_22
REMARK    2  A    between atoms: C_6  and  C_12
REMARK    3  A    between atoms: C_8  and  C_13
REMARK    4  A    between atoms: C_12  and  C_14
REMARK                            x       y       z     vdW  Elec       q    Type
REMARK                         _______ _______ _______ _____ _____    ______ ____
ROOT
ATOM      1  O   UNL     1       6.899   0.016   0.000  0.00  0.00    +0.000 OA
ATOM      2  C   UNL     1       6.184   0.428   0.000  0.00  0.00    +0.000 C 
ENDROOT
BRANCH   2   4
ATOM      3  N   UNL     1       6.184   2.903   0.000  0.00  0.00    +0.000 NA
ATOM      4  C   UNL     1       6.184   1.253   0.000  0.00  0.00    +0.000 A 
ATOM      5  C   UNL     1       6.899   1.666   0.000  0.00  0.00    +0.000 A 
ATOM      6  C   UNL     1       5.470   1.666   0.000  0.00  0.00    +0.000 A 
ATOM      7  C   UNL     1       6.899   2.491   0.000  0.00  0.00    +0.000 A 
ATOM      8  C   UNL     1       7.636   1.225   0.000  0.00  0.00    +0.000 A 
ATOM      9  C   UNL     1       5.470   2.491   0.000  0.00  0.00    +0.000 A 
ATOM     10  C   UNL     1       7.636   2.932   0.000  0.00  0.00    +0.000 A 
ATOM     11  C   UNL     1       8.384   1.649   0.000  0.00  0.00    +0.000 A 
ATOM     12  C   UNL     1       8.384   2.508   0.000  0.00  0.00    +0.000 A 
BRANCH  11  13
ATOM     13  O   UNL     1       9.096   1.234   0.000  0.00  0.00    +0.000 OA
ATOM     14  C   UNL     1       9.812   1.643   0.000  0.00  0.00    +0.000 C 
ENDBRANCH  11  13
ENDBRANCH   2   4
BRANCH   2  17
ATOM     15  N   UNL     1       5.256  -1.606   0.000  0.00  0.00    +0.000 NA
ATOM     16  C   UNL     1       4.459  -1.393   0.000  0.00  0.00    +0.000 C 
ATOM     17  C   UNL     1       5.470   0.016   0.000  0.00  0.00    +0.000 C 
ATOM     18  C   UNL     1       4.673   0.229   0.000  0.00  0.00    +0.000 C 
ATOM     19  C   UNL     1       3.030  -2.217   0.000  0.00  0.00    +0.000 C 
ATOM     20  C   UNL     1       5.352  -2.840   0.000  0.00  0.00    +0.000 C 
ATOM     21  C   UNL     1       3.443  -2.932   0.000  0.00  0.00    +0.000 C 
ATOM     22  C   UNL     1       6.067  -2.427   0.000  0.00  0.00    +0.000 C 
BRANCH  19  23
ATOM     23  C   UNL     1       2.233  -2.004   0.000  0.00  0.00    +0.000 C 
ATOM     24  C   UNL     1       1.650  -2.587   0.000  0.00  0.00    +0.000 C 
ENDBRANCH  19  23
ENDBRANCH   2  17
TORSDOF 4
