REMARK  Name = 909
REMARK  2 active torsions:
REMARK  status: ('A' for Active; 'I' for Inactive)
REMARK    1  A    between atoms: S_1  and  C_7
REMARK    2  A    between atoms: C_7  and  C_8
REMARK                            x       y       z     vdW  Elec       q    Type
REMARK                         _______ _______ _______ _____ _____    ______ ____
ROOT
ATOM      1  O   UNL     1       3.860  -1.464   0.000  0.00  0.00    +0.000 OA
ATOM      2  N   UNL     1       4.341  -0.800   0.000  0.00  0.00    +0.000 NA
ATOM      3  C   UNL     1       3.860  -0.136   0.000  0.00  0.00    +0.000 A 
ATOM      4  C   UNL     1       3.079  -0.388   0.000  0.00  0.00    +0.000 A 
ATOM      5  C   UNL     1       3.079  -1.213   0.000  0.00  0.00    +0.000 A 
ATOM      6  C   UNL     1       2.365   0.025   0.000  0.00  0.00    +0.000 A 
ATOM      7  C   UNL     1       2.365  -1.625   0.000  0.00  0.00    +0.000 A 
ATOM      8  C   UNL     1       1.650  -0.388   0.000  0.00  0.00    +0.000 A 
ATOM      9  C   UNL     1       1.650  -1.213   0.000  0.00  0.00    +0.000 A 
ENDROOT
BRANCH   3  10
ATOM     10  C   UNL     1       4.116   0.648   0.000  0.00  0.00    +0.000 C 
BRANCH  10  11
ATOM     11  S   UNL     1       4.923   0.818   0.000  0.00  0.00    +0.000 S 
ATOM     12  O   UNL     1       4.753   1.625   0.000  0.00  0.00    +0.000 OA
ATOM     13  O   UNL     1       5.093   0.011   0.000  0.00  0.00    +0.000 OA
ATOM     14  N   UNL     1       5.730   0.988   0.000  0.00  0.00    +0.000 NA
ENDBRANCH  10  11
ENDBRANCH   3  10
TORSDOF 2
