REMARK  Name = 910
REMARK  8 active torsions:
REMARK  status: ('A' for Active; 'I' for Inactive)
REMARK    1  A    between atoms: C_2  and  C_6
REMARK    2  A    between atoms: C_3  and  O_16
REMARK    3  A    between atoms: C_5  and  C_9
REMARK    4  A    between atoms: C_11  and  N_21
REMARK    5  A    between atoms: O_16  and  C_17
REMARK    6  A    between atoms: C_17  and  C_18
REMARK    7  A    between atoms: N_21  and  C_22
REMARK    8  A    between atoms: C_22  and  C_23
REMARK                            x       y       z     vdW  Elec       q    Type
REMARK                         _______ _______ _______ _____ _____    ______ ____
ROOT
ATOM      1  S   UNL     1       0.148  -1.302   0.000  0.00  0.00    +0.000 S 
ATOM      2  C   UNL     1      -0.107  -2.086   0.000  0.00  0.00    +0.000 A 
ATOM      3  C   UNL     1      -0.932  -2.086   0.000  0.00  0.00    +0.000 A 
ATOM      4  C   UNL     1      -1.187  -1.302   0.000  0.00  0.00    +0.000 A 
ATOM      5  C   UNL     1      -0.520  -0.817   0.000  0.00  0.00    +0.000 A 
ATOM      6 BR   UNL     1      -1.972  -1.047   0.000  0.00  0.00    +0.000 Br
ENDROOT
BRANCH   5   7
ATOM      7  C   UNL     1      -0.520   0.008   0.000  0.00  0.00    +0.000 A 
ATOM      8  C   UNL     1      -1.234   0.421   0.000  0.00  0.00    +0.000 A 
ATOM      9  C   UNL     1      -1.234   1.246   0.000  0.00  0.00    +0.000 A 
ATOM     10  C   UNL     1      -0.520   1.658   0.000  0.00  0.00    +0.000 A 
ATOM     11  C   UNL     1       0.195   1.246   0.000  0.00  0.00    +0.000 A 
ATOM     12  C   UNL     1       0.195   0.421   0.000  0.00  0.00    +0.000 A 
BRANCH   9  13
ATOM     13  N   UNL     1      -1.949   1.658   0.000  0.00  0.00    +0.000 NA
BRANCH  13  14
ATOM     14  C   UNL     1      -1.949   2.483   0.000  0.00  0.00    +0.000 C 
BRANCH  14  15
ATOM     15  C   UNL     1      -1.234   2.896   0.000  0.00  0.00    +0.000 A 
ATOM     16  C   UNL     1      -1.234   3.721   0.000  0.00  0.00    +0.000 A 
ATOM     17  C   UNL     1      -0.520   4.133   0.000  0.00  0.00    +0.000 A 
ATOM     18  C   UNL     1       0.195   3.721   0.000  0.00  0.00    +0.000 A 
ATOM     19  C   UNL     1       0.195   2.896   0.000  0.00  0.00    +0.000 A 
ATOM     20  C   UNL     1      -0.520   2.483   0.000  0.00  0.00    +0.000 A 
ENDBRANCH  14  15
ENDBRANCH  13  14
ENDBRANCH   9  13
ENDBRANCH   5   7
BRANCH   2  21
ATOM     21  C   UNL     1       0.378  -2.754   0.000  0.00  0.00    +0.000 C 
ATOM     22  O   UNL     1       0.042  -3.507   0.000  0.00  0.00    +0.000 OA
ATOM     23  O   UNL     1       1.198  -2.667   0.000  0.00  0.00    +0.000 OA
ENDBRANCH   2  21
BRANCH   3  24
ATOM     24  O   UNL     1      -1.417  -2.754   0.000  0.00  0.00    +0.000 OA
BRANCH  24  25
ATOM     25  C   UNL     1      -1.082  -3.507   0.000  0.00  0.00    +0.000 C 
BRANCH  25  26
ATOM     26  C   UNL     1      -1.567  -4.175   0.000  0.00  0.00    +0.000 C 
ATOM     27  O   UNL     1      -1.231  -4.928   0.000  0.00  0.00    +0.000 OA
ATOM     28  O   UNL     1      -2.387  -4.088   0.000  0.00  0.00    +0.000 OA
ENDBRANCH  25  26
ENDBRANCH  24  25
ENDBRANCH   3  24
TORSDOF 8
