REMARK  Name = 911
REMARK  5 active torsions:
REMARK  status: ('A' for Active; 'I' for Inactive)
REMARK    1  A    between atoms: S_1  and  C_9
REMARK    2  A    between atoms: S_1  and  C_11
REMARK    3  A    between atoms: N_6  and  C_10
REMARK    4  A    between atoms: N_8  and  C_13
REMARK    5  A    between atoms: C_9  and  C_10
REMARK                            x       y       z     vdW  Elec       q    Type
REMARK                         _______ _______ _______ _____ _____    ______ ____
ROOT
ATOM      1  N   UNL     1       3.189   1.015   0.000  0.00  0.00    +0.000 N 
ATOM      2  N   UNL     1       2.777   2.285   0.000  0.00  0.00    +0.000 NA
ATOM      3  C   UNL     1       2.522   1.500   0.000  0.00  0.00    +0.000 A 
ATOM      4  C   UNL     1       3.857   1.500   0.000  0.00  0.00    +0.000 A 
ATOM      5  C   UNL     1       3.602   2.285   0.000  0.00  0.00    +0.000 A 
ATOM      6  C   UNL     1       1.738   1.245   0.000  0.00  0.00    +0.000 C 
ENDROOT
BRANCH   4   9
ATOM      7  O   UNL     1       5.255   1.797   0.000  0.00  0.00    +0.000 OA
ATOM      8  O   UNL     1       4.813   0.438   0.000  0.00  0.00    +0.000 OA
ATOM      9  N   UNL     1       4.642   1.245   0.000  0.00  0.00    +0.000 N 
ENDBRANCH   4   9
BRANCH   1  10
ATOM     10  C   UNL     1       3.189   0.190   0.000  0.00  0.00    +0.000 C 
BRANCH  10  11
ATOM     11  C   UNL     1       2.475  -0.222   0.000  0.00  0.00    +0.000 C 
BRANCH  11  12
ATOM     12  S   UNL     1       2.475  -1.047   0.000  0.00  0.00    +0.000 S 
ATOM     13  O   UNL     1       3.300  -1.047   0.000  0.00  0.00    +0.000 OA
ATOM     14  O   UNL     1       1.650  -1.047   0.000  0.00  0.00    +0.000 OA
BRANCH  12  15
ATOM     15  C   UNL     1       2.475  -1.872   0.000  0.00  0.00    +0.000 C 
ATOM     16  C   UNL     1       1.761  -2.285   0.000  0.00  0.00    +0.000 C 
ENDBRANCH  12  15
ENDBRANCH  11  12
ENDBRANCH  10  11
ENDBRANCH   1  10
TORSDOF 5
