REMARK  Name = 912
REMARK  10 active torsions:
REMARK  status: ('A' for Active; 'I' for Inactive)
REMARK    1  A    between atoms: O_2  and  C_28
REMARK    2  A    between atoms: O_2  and  C_32
REMARK    3  A    between atoms: N_5  and  C_13
REMARK    4  A    between atoms: N_6  and  C_12
REMARK    5  A    between atoms: C_12  and  C_14
REMARK    6  A    between atoms: C_12  and  C_15
REMARK    7  A    between atoms: C_15  and  C_16
REMARK    8  A    between atoms: C_23  and  C_24
REMARK    9  A    between atoms: C_24  and  C_25
REMARK   10  A    between atoms: C_30  and  C_31
REMARK                            x       y       z     vdW  Elec       q    Type
REMARK                         _______ _______ _______ _____ _____    ______ ____
ROOT
ATOM      1  C   UNL     1       5.937  -1.700   0.000  0.00  0.00    +0.000 C 
ENDROOT
BRANCH   1   3
ATOM      2  C   UNL     1       7.366  -1.700   0.000  0.00  0.00    +0.000 A 
ATOM      3  C   UNL     1       6.652  -1.287   0.000  0.00  0.00    +0.000 A 
ATOM      4  C   UNL     1       8.080  -1.287   0.000  0.00  0.00    +0.000 A 
ATOM      5  C   UNL     1       6.652  -0.462   0.000  0.00  0.00    +0.000 A 
ATOM      6  C   UNL     1       8.080  -0.462   0.000  0.00  0.00    +0.000 A 
ATOM      7  C   UNL     1       7.366  -0.050   0.000  0.00  0.00    +0.000 A 
BRANCH   2   8
ATOM      8  N   UNL     1       7.366  -2.525   0.000  0.00  0.00    +0.000 N 
ATOM      9  C   UNL     1       6.652  -2.937   0.000  0.00  0.00    +0.000 C 
ATOM     10  C   UNL     1       8.080  -2.937   0.000  0.00  0.00    +0.000 C 
ATOM     11  C   UNL     1       6.652  -3.762   0.000  0.00  0.00    +0.000 C 
ATOM     12  C   UNL     1       8.080  -3.762   0.000  0.00  0.00    +0.000 C 
ATOM     13  C   UNL     1       7.366  -4.175   0.000  0.00  0.00    +0.000 C 
ENDBRANCH   2   8
ENDBRANCH   1   3
BRANCH   1  15
ATOM     14  O   UNL     1       5.937  -0.050   0.000  0.00  0.00    +0.000 OA
ATOM     15  N   UNL     1       5.222  -1.287   0.000  0.00  0.00    +0.000 NA
ATOM     16  C   UNL     1       5.222  -0.462   0.000  0.00  0.00    +0.000 C 
BRANCH  16  17
ATOM     17  C   UNL     1       4.508  -0.050   0.000  0.00  0.00    +0.000 C 
BRANCH  17  18
ATOM     18  C   UNL     1       4.508   0.775   0.000  0.00  0.00    +0.000 A 
ATOM     19  C   UNL     1       3.793   1.188   0.000  0.00  0.00    +0.000 A 
ATOM     20  C   UNL     1       5.222   1.188   0.000  0.00  0.00    +0.000 A 
ATOM     21  C   UNL     1       3.793   2.013   0.000  0.00  0.00    +0.000 A 
ATOM     22  C   UNL     1       5.222   2.013   0.000  0.00  0.00    +0.000 A 
ATOM     23  C   UNL     1       4.508   2.426   0.000  0.00  0.00    +0.000 A 
BRANCH  23  26
ATOM     24  O   UNL     1       5.222   3.663   0.000  0.00  0.00    +0.000 OA
ATOM     25  O   UNL     1       3.793   3.663   0.000  0.00  0.00    +0.000 OA
ATOM     26  C   UNL     1       4.508   3.251   0.000  0.00  0.00    +0.000 C 
ENDBRANCH  23  26
BRANCH  21  27
ATOM     27  O   UNL     1       3.079   2.426   0.000  0.00  0.00    +0.000 OA
BRANCH  27  28
ATOM     28  C   UNL     1       2.365   2.013   0.000  0.00  0.00    +0.000 C 
ATOM     29  C   UNL     1       1.650   2.426   0.000  0.00  0.00    +0.000 C 
ENDBRANCH  27  28
ENDBRANCH  21  27
ENDBRANCH  17  18
ENDBRANCH  16  17
ENDBRANCH   1  15
BRANCH   1  30
ATOM     30  C   UNL     1       5.937  -2.525   0.000  0.00  0.00    +0.000 C 
BRANCH  30  31
ATOM     31  C   UNL     1       5.222  -2.937   0.000  0.00  0.00    +0.000 C 
ATOM     32  C   UNL     1       5.222  -3.762   0.000  0.00  0.00    +0.000 C 
ATOM     33  C   UNL     1       4.508  -2.525   0.000  0.00  0.00    +0.000 C 
ENDBRANCH  30  31
ENDBRANCH   1  30
TORSDOF 10
