REMARK  Name = 915
REMARK  5 active torsions:
REMARK  status: ('A' for Active; 'I' for Inactive)
REMARK    1  A    between atoms: C_1  and  S_9
REMARK    2  A    between atoms: S_9  and  N_10
REMARK    3  A    between atoms: N_10  and  C_11
REMARK    4  A    between atoms: C_11  and  C_12
REMARK    5  A    between atoms: C_11  and  C_18
REMARK                            x       y       z     vdW  Elec       q    Type
REMARK                         _______ _______ _______ _____ _____    ______ ____
ROOT
ATOM      1  N   UNL     1      -0.365  -0.077   0.000  0.00  0.00    +0.000 NA
ENDROOT
BRANCH   1   2
ATOM      2  S   UNL     1      -0.365   0.748   0.000  0.00  0.00    +0.000 S 
ATOM      3  O   UNL     1      -1.190   0.748   0.000  0.00  0.00    +0.000 OA
ATOM      4  O   UNL     1       0.460   0.748   0.000  0.00  0.00    +0.000 OA
BRANCH   2   5
ATOM      5  C   UNL     1      -0.365   1.573   0.000  0.00  0.00    +0.000 A 
ATOM      6  C   UNL     1      -1.079   1.986   0.000  0.00  0.00    +0.000 A 
ATOM      7  C   UNL     1      -1.079   2.811   0.000  0.00  0.00    +0.000 A 
ATOM      8  C   UNL     1      -0.365   3.223   0.000  0.00  0.00    +0.000 A 
ATOM      9  C   UNL     1       0.350   2.811   0.000  0.00  0.00    +0.000 A 
ATOM     10  C   UNL     1       0.350   1.986   0.000  0.00  0.00    +0.000 A 
ATOM     11  F   UNL     1      -0.365   4.048   0.000  0.00  0.00    +0.000 F 
ATOM     12  C   UNL     1      -1.794   3.223   0.000  0.00  0.00    +0.000 C 
ENDBRANCH   2   5
ENDBRANCH   1   2
BRANCH   1  13
ATOM     13  C   UNL     1       0.350  -0.489   0.000  0.00  0.00    +0.000 C 
BRANCH  13  14
ATOM     14  C   UNL     1       0.350  -1.314   0.000  0.00  0.00    +0.000 C 
ATOM     15  C   UNL     1       1.064  -1.727   0.000  0.00  0.00    +0.000 C 
ATOM     16  C   UNL     1       1.064  -2.552   0.000  0.00  0.00    +0.000 C 
ATOM     17  O   UNL     1       0.350  -2.964   0.000  0.00  0.00    +0.000 OA
ATOM     18  C   UNL     1      -0.365  -2.552   0.000  0.00  0.00    +0.000 C 
ATOM     19  C   UNL     1      -0.365  -1.727   0.000  0.00  0.00    +0.000 C 
ENDBRANCH  13  14
BRANCH  13  20
ATOM     20  C   UNL     1       1.064  -0.077   0.000  0.00  0.00    +0.000 C 
ATOM     21  N   UNL     1       1.064   0.748   0.000  0.00  0.00    +0.000 NA
ATOM     22  O   UNL     1       1.779   1.161   0.000  0.00  0.00    +0.000 OA
ATOM     23  O   UNL     1       1.779  -0.489   0.000  0.00  0.00    +0.000 OA
ENDBRANCH  13  20
ENDBRANCH   1  13
TORSDOF 5
