REMARK  Name = 915
REMARK  0 active torsions:
REMARK  status: ('A' for Active; 'I' for Inactive)
REMARK                            x       y       z     vdW  Elec       q    Type
REMARK                         _______ _______ _______ _____ _____    ______ ____
ROOT
ATOM      1  N   UNL     1       3.136   1.302   0.000  0.00  0.00    +0.000 NA
ATOM      2  C   UNL     1       3.136   0.448   0.000  0.00  0.00    +0.000 C 
ATOM      3  C   UNL     1       3.850  -0.788   0.000  0.00  0.00    +0.000 C 
ATOM      4  C   UNL     1       2.546  -1.160   0.000  0.00  0.00    +0.000 C 
ATOM      5  C   UNL     1       2.422  -0.788   0.000  0.00  0.00    +0.000 C 
ATOM      6  C   UNL     1       3.850   0.036   0.000  0.00  0.00    +0.000 C 
ATOM      7  C   UNL     1       2.546  -0.267   0.000  0.00  0.00    +0.000 C 
ATOM      8  C   UNL     1       2.422   0.036   0.000  0.00  0.00    +0.000 C 
ATOM      9  C   UNL     1       3.320  -1.567   0.000  0.00  0.00    +0.000 C 
ATOM     10  C   UNL     1       3.136  -1.047   0.000  0.00  0.00    +0.000 C 
ATOM     11  C   UNL     1       1.708  -1.201   0.000  0.00  0.00    +0.000 C 
ENDROOT
TORSDOF 0
