REMARK  Name = 916
REMARK  3 active torsions:
REMARK  status: ('A' for Active; 'I' for Inactive)
REMARK    1  A    between atoms: N_4  and  C_7
REMARK    2  A    between atoms: N_6  and  C_9
REMARK    3  A    between atoms: C_7  and  C_10
REMARK                            x       y       z     vdW  Elec       q    Type
REMARK                         _______ _______ _______ _____ _____    ______ ____
ROOT
ATOM      1  N   UNL     1       3.102   0.524   0.000  0.00  0.00    +0.000 N 
ATOM      2  N   UNL     1       2.690   1.794   0.000  0.00  0.00    +0.000 NA
ATOM      3  C   UNL     1       2.435   1.009   0.000  0.00  0.00    +0.000 A 
ATOM      4  C   UNL     1       3.770   1.009   0.000  0.00  0.00    +0.000 A 
ATOM      5  C   UNL     1       3.515   1.794   0.000  0.00  0.00    +0.000 A 
ATOM      6  C   UNL     1       1.650   0.754   0.000  0.00  0.00    +0.000 C 
ENDROOT
BRANCH   4   9
ATOM      7  O   UNL     1       5.167   1.306   0.000  0.00  0.00    +0.000 OA
ATOM      8  O   UNL     1       4.726  -0.053   0.000  0.00  0.00    +0.000 OA
ATOM      9  N   UNL     1       4.554   0.754   0.000  0.00  0.00    +0.000 N 
ENDBRANCH   4   9
BRANCH   1  10
ATOM     10  C   UNL     1       3.102  -0.301   0.000  0.00  0.00    +0.000 C 
BRANCH  10  12
ATOM     11  O   UNL     1       2.388  -1.538   0.000  0.00  0.00    +0.000 OA
ATOM     12  C   UNL     1       2.388  -0.713   0.000  0.00  0.00    +0.000 C 
ENDBRANCH  10  12
ENDBRANCH   1  10
TORSDOF 3
