REMARK  Name = 918
REMARK  6 active torsions:
REMARK  status: ('A' for Active; 'I' for Inactive)
REMARK    1  A    between atoms: S_1  and  N_4
REMARK    2  A    between atoms: S_1  and  C_11
REMARK    3  A    between atoms: N_6  and  C_21
REMARK    4  A    between atoms: C_11  and  C_12
REMARK    5  A    between atoms: C_15  and  C_18
REMARK    6  A    between atoms: C_18  and  C_21
REMARK                            x       y       z     vdW  Elec       q    Type
REMARK                         _______ _______ _______ _____ _____    ______ ____
ROOT
ATOM      1  N   UNL     1       7.309  -1.597   0.000  0.00  0.00    +0.000 NA
ATOM      2  C   UNL     1       5.099  -0.521   0.000  0.00  0.00    +0.000 A 
ATOM      3  C   UNL     1       6.528  -0.521   0.000  0.00  0.00    +0.000 A 
ATOM      4  C   UNL     1       5.814  -0.108   0.000  0.00  0.00    +0.000 A 
ATOM      5  C   UNL     1       7.309  -0.269   0.000  0.00  0.00    +0.000 A 
ATOM      6  C   UNL     1       6.528  -1.346   0.000  0.00  0.00    +0.000 A 
ATOM      7  C   UNL     1       5.099  -1.346   0.000  0.00  0.00    +0.000 A 
ATOM      8  C   UNL     1       5.814  -1.758   0.000  0.00  0.00    +0.000 A 
ATOM      9  C   UNL     1       7.790  -0.933   0.000  0.00  0.00    +0.000 A 
ENDROOT
BRANCH   2  10
ATOM     10  C   UNL     1       4.385  -0.108   0.000  0.00  0.00    +0.000 C 
BRANCH  10  11
ATOM     11  S   UNL     1       3.670  -0.521   0.000  0.00  0.00    +0.000 S 
ATOM     12  O   UNL     1       4.083  -1.235   0.000  0.00  0.00    +0.000 OA
ATOM     13  O   UNL     1       3.258   0.194   0.000  0.00  0.00    +0.000 OA
BRANCH  11  14
ATOM     14  N   UNL     1       2.956  -0.933   0.000  0.00  0.00    +0.000 NA
ATOM     15  C   UNL     1       2.869  -1.754   0.000  0.00  0.00    +0.000 C 
ATOM     16  C   UNL     1       2.202  -0.598   0.000  0.00  0.00    +0.000 C 
ATOM     17  C   UNL     1       2.062  -1.925   0.000  0.00  0.00    +0.000 C 
ATOM     18  C   UNL     1       1.650  -1.211   0.000  0.00  0.00    +0.000 C 
ENDBRANCH  11  14
ENDBRANCH  10  11
ENDBRANCH   2  10
BRANCH   5  19
ATOM     19  C   UNL     1       7.565   0.515   0.000  0.00  0.00    +0.000 C 
BRANCH  19  20
ATOM     20  C   UNL     1       8.372   0.685   0.000  0.00  0.00    +0.000 C 
BRANCH  20  21
ATOM     21  N   UNL     1       8.629   1.469   0.000  0.00  0.00    +0.000 NA
ATOM     22  C   UNL     1       8.078   2.083   0.000  0.00  0.00    +0.000 C 
ATOM     23  C   UNL     1       9.436   1.639   0.000  0.00  0.00    +0.000 C 
ENDBRANCH  20  21
ENDBRANCH  19  20
ENDBRANCH   5  19
TORSDOF 6
