REMARK  Name = 919
REMARK  2 active torsions:
REMARK  status: ('A' for Active; 'I' for Inactive)
REMARK    1  A    between atoms: N_8  and  C_12
REMARK    2  A    between atoms: N_9  and  C_14
REMARK                            x       y       z     vdW  Elec       q    Type
REMARK                         _______ _______ _______ _____ _____    ______ ____
ROOT
ATOM      1  O   UNL     1       5.068   0.710   0.000  0.00  0.00    +0.000 OA
ATOM      2  O   UNL     1       5.068  -0.874   0.000  0.00  0.00    +0.000 OA
ATOM      3  O   UNL     1       6.462  -0.901   0.000  0.00  0.00    +0.000 OA
ATOM      4  O   UNL     1       3.683  -1.693   0.000  0.00  0.00    +0.000 OA
ATOM      5  O   UNL     1       2.272   0.730   0.000  0.00  0.00    +0.000 OA
ATOM      6  O   UNL     1       5.754   1.107   0.000  0.00  0.00    +0.000 OA
ATOM      7  O   UNL     1       6.453   1.530   0.000  0.00  0.00    +0.000 OA
ATOM      8  C   UNL     1       4.382   0.314   0.000  0.00  0.00    +0.000 C 
ATOM      9  C   UNL     1       4.382  -0.478   0.000  0.00  0.00    +0.000 C 
ATOM     10  C   UNL     1       3.674   0.738   0.000  0.00  0.00    +0.000 C 
ATOM     11  C   UNL     1       3.674  -0.901   0.000  0.00  0.00    +0.000 C 
ATOM     12  C   UNL     1       2.956  -0.494   0.000  0.00  0.00    +0.000 C 
ATOM     13  C   UNL     1       2.956   0.331   0.000  0.00  0.00    +0.000 C 
ATOM     14  C   UNL     1       5.754   0.314   0.000  0.00  0.00    +0.000 C 
ATOM     15  C   UNL     1       5.754  -0.478   0.000  0.00  0.00    +0.000 C 
ATOM     16  C   UNL     1       6.462   0.738   0.000  0.00  0.00    +0.000 C 
ATOM     17  C   UNL     1       7.179  -0.494   0.000  0.00  0.00    +0.000 C 
ATOM     18  C   UNL     1       7.179   0.331   0.000  0.00  0.00    +0.000 C 
ATOM     19  C   UNL     1       7.864  -0.893   0.000  0.00  0.00    +0.000 C 
ENDROOT
BRANCH  10  20
ATOM     20  N   UNL     1       3.683   1.530   0.000  0.00  0.00    +0.000 NA
ATOM     21  C   UNL     1       3.002   1.934   0.000  0.00  0.00    +0.000 C 
ENDBRANCH  10  20
BRANCH  12  22
ATOM     22  N   UNL     1       2.272  -0.893   0.000  0.00  0.00    +0.000 NA
ATOM     23  C   UNL     1       1.584  -0.499   0.000  0.00  0.00    +0.000 C 
ENDBRANCH  12  22
TORSDOF 2
