REMARK  Name = 920
REMARK  0 active torsions:
REMARK  status: ('A' for Active; 'I' for Inactive)
REMARK                            x       y       z     vdW  Elec       q    Type
REMARK                         _______ _______ _______ _____ _____    ______ ____
ROOT
ATOM      1  S   UNL     1       1.972   1.608   0.000  0.00  0.00    +0.000 S 
ATOM      2  O   UNL     1       2.945   2.925   0.000  0.00  0.00    +0.000 OA
ATOM      3  N   UNL     1       3.716  -2.100   0.000  0.00  0.00    +0.000 NA
ATOM      4  C   UNL     1       3.716  -0.450   0.000  0.00  0.00    +0.000 C 
ATOM      5  C   UNL     1       4.430  -0.863   0.000  0.00  0.00    +0.000 C 
ATOM      6  C   UNL     1       3.001  -0.863   0.000  0.00  0.00    +0.000 C 
ATOM      7  C   UNL     1       4.430  -1.688   0.000  0.00  0.00    +0.000 C 
ATOM      8  C   UNL     1       3.001  -1.688   0.000  0.00  0.00    +0.000 C 
ATOM      9  C   UNL     1       3.716   0.375   0.000  0.00  0.00    +0.000 C 
ATOM     10  C   UNL     1       4.459   0.733   0.000  0.00  0.00    +0.000 A 
ATOM     11  C   UNL     1       2.972   0.733   0.000  0.00  0.00    +0.000 A 
ATOM     12  C   UNL     1       4.643   1.537   0.000  0.00  0.00    +0.000 A 
ATOM     13  C   UNL     1       3.716  -2.925   0.000  0.00  0.00    +0.000 C 
ATOM     14  C   UNL     1       2.789   1.537   0.000  0.00  0.00    +0.000 A 
ATOM     15  C   UNL     1       4.128   2.182   0.000  0.00  0.00    +0.000 C 
ATOM     16  C   UNL     1       3.303   2.182   0.000  0.00  0.00    +0.000 C 
ATOM     17  C   UNL     1       5.080   0.139   0.000  0.00  0.00    +0.000 A 
ATOM     18  C   UNL     1       2.267   0.314   0.000  0.00  0.00    +0.000 A 
ATOM     19  C   UNL     1       5.460   1.803   0.000  0.00  0.00    +0.000 A 
ATOM     20  C   UNL     1       1.650   0.854   0.000  0.00  0.00    +0.000 A 
ATOM     21  C   UNL     1       5.903   0.385   0.000  0.00  0.00    +0.000 A 
ATOM     22  C   UNL     1       6.094   1.223   0.000  0.00  0.00    +0.000 A 
ENDROOT
TORSDOF 0
