REMARK  Name = 922
REMARK  5 active torsions:
REMARK  status: ('A' for Active; 'I' for Inactive)
REMARK    1  A    between atoms: N_4  and  N_5
REMARK    2  A    between atoms: N_4  and  C_18
REMARK    3  A    between atoms: C_10  and  C_12
REMARK    4  A    between atoms: C_19  and  C_20
REMARK    5  A    between atoms: C_19  and  C_21
REMARK                            x       y       z     vdW  Elec       q    Type
REMARK                         _______ _______ _______ _____ _____    ______ ____
ROOT
ATOM      1  C   UNL     1       6.651  -0.363   0.000  0.00  0.00    +0.000 A 
ATOM      2  C   UNL     1       5.937  -0.775   0.000  0.00  0.00    +0.000 A 
ATOM      3  C   UNL     1       6.651   0.462   0.000  0.00  0.00    +0.000 A 
ATOM      4  C   UNL     1       5.222  -0.363   0.000  0.00  0.00    +0.000 A 
ATOM      5  C   UNL     1       5.937   0.875   0.000  0.00  0.00    +0.000 A 
ATOM      6  C   UNL     1       5.222   0.462   0.000  0.00  0.00    +0.000 A 
ENDROOT
BRANCH   1  12
ATOM      7  O   UNL     1       9.509  -2.013   0.000  0.00  0.00    +0.000 OA
ATOM      8  N   UNL     1       7.366  -1.601   0.000  0.00  0.00    +0.000 NA
ATOM      9  N   UNL     1       8.080  -2.013   0.000  0.00  0.00    +0.000 NA
ATOM     10  C   UNL     1       8.080  -0.363   0.000  0.00  0.00    +0.000 C 
ATOM     11  C   UNL     1       8.795  -0.775   0.000  0.00  0.00    +0.000 C 
ATOM     12  C   UNL     1       7.366  -0.775   0.000  0.00  0.00    +0.000 C 
ATOM     13  C   UNL     1       8.080   0.462   0.000  0.00  0.00    +0.000 C 
ATOM     14  C   UNL     1       8.795  -1.601   0.000  0.00  0.00    +0.000 C 
ENDBRANCH   1  12
BRANCH   6  15
ATOM     15  N   UNL     1       4.508   0.875   0.000  0.00  0.00    +0.000 NA
BRANCH  15  16
ATOM     16  N   UNL     1       3.793   0.462   0.000  0.00  0.00    +0.000 NA
ATOM     17  C   UNL     1       3.079   0.875   0.000  0.00  0.00    +0.000 C 
BRANCH  17  19
ATOM     18  N   UNL     1       3.079   2.525   0.000  0.00  0.00    +0.000 NA
ATOM     19  C   UNL     1       3.079   1.700   0.000  0.00  0.00    +0.000 C 
ENDBRANCH  17  19
BRANCH  17  21
ATOM     20  N   UNL     1       1.650   0.050   0.000  0.00  0.00    +0.000 NA
ATOM     21  C   UNL     1       2.364   0.462   0.000  0.00  0.00    +0.000 C 
ENDBRANCH  17  21
ENDBRANCH  15  16
ENDBRANCH   6  15
TORSDOF 5
