REMARK  Name = 923
REMARK  10 active torsions:
REMARK  status: ('A' for Active; 'I' for Inactive)
REMARK    1  A    between atoms: S_2  and  C_22
REMARK    2  A    between atoms: S_2  and  C_29
REMARK    3  A    between atoms: N_10  and  CA_17
REMARK    4  A    between atoms: N_11  and  C_34
REMARK    5  A    between atoms: CA_19  and  C_24
REMARK    6  A    between atoms: C_20  and  C_22
REMARK    7  A    between atoms: C_23  and  C_25
REMARK    8  A    between atoms: C_25  and  C_26
REMARK    9  A    between atoms: C_27  and  C_30
REMARK   10  A    between atoms: C_34  and  C_35
REMARK                            x       y       z     vdW  Elec       q    Type
REMARK                         _______ _______ _______ _____ _____    ______ ____
ROOT
ATOM      1  S   UNL     1       6.876  -0.302   0.000  0.00  0.00    +0.000 S 
ATOM      2  O   UNL     1       9.004   1.524   0.000  0.00  0.00    +0.000 OA
ATOM      3  N   UNL     1       7.590   0.936   0.000  0.00  0.00    +0.000 N 
ATOM      4  C   UNL     1       7.590   0.111   0.000  0.00  0.00    +0.000 C 
ATOM      5  CA  UNL     1       8.422   0.107   0.000  0.00  0.00    +0.000 C 
ATOM      6  C   UNL     1       8.422   0.939   0.000  0.00  0.00    +0.000 C 
ATOM      7  CA  UNL     1       6.876   1.348   0.000  0.00  0.00    +0.000 C 
ATOM      8  C   UNL     1       6.161   0.936   0.000  0.00  0.00    +0.000 C 
ATOM      9  C   UNL     1       6.161   0.111   0.000  0.00  0.00    +0.000 C 
ENDROOT
BRANCH   5  11
ATOM     10  O   UNL     1      10.017   0.531   0.000  0.00  0.00    +0.000 OA
ATOM     11  N   UNL     1       9.004  -0.477   0.000  0.00  0.00    +0.000 NA
ATOM     12  C   UNL     1       9.802  -0.265   0.000  0.00  0.00    +0.000 C 
BRANCH  12  13
ATOM     13  C   UNL     1      10.384  -0.850   0.000  0.00  0.00    +0.000 C 
BRANCH  13  14
ATOM     14  C   UNL     1      11.181  -0.638   0.000  0.00  0.00    +0.000 A 
ATOM     15  C   UNL     1      11.763  -1.222   0.000  0.00  0.00    +0.000 A 
ATOM     16  C   UNL     1      11.396   0.159   0.000  0.00  0.00    +0.000 A 
ATOM     17  C   UNL     1      12.561  -1.011   0.000  0.00  0.00    +0.000 A 
ATOM     18  C   UNL     1      12.194   0.370   0.000  0.00  0.00    +0.000 A 
ATOM     19  C   UNL     1      12.776  -0.214   0.000  0.00  0.00    +0.000 A 
BRANCH  15  21
ATOM     20  N   UNL     1      12.130  -2.604   0.000  0.00  0.00    +0.000 NA
ATOM     21  C   UNL     1      11.548  -2.019   0.000  0.00  0.00    +0.000 C 
ENDBRANCH  15  21
ENDBRANCH  13  14
ENDBRANCH  12  13
ENDBRANCH   5  11
BRANCH   7  24
ATOM     22  O   UNL     1       6.161   2.586   0.000  0.00  0.00    +0.000 OA
ATOM     23  OXT UNL     1       7.590   2.586   0.000  0.00  0.00    +0.000 OA
ATOM     24  C   UNL     1       6.876   2.173   0.000  0.00  0.00    +0.000 C 
ENDBRANCH   7  24
BRANCH   8  25
ATOM     25  C   UNL     1       5.447   1.348   0.000  0.00  0.00    +0.000 C 
BRANCH  25  26
ATOM     26  S   UNL     1       4.732   0.936   0.000  0.00  0.00    +0.000 S 
BRANCH  26  31
ATOM     27  N   UNL     1       3.264   1.013   0.000  0.00  0.00    +0.000 N 
ATOM     28  N   UNL     1       3.932   2.169   0.000  0.00  0.00    +0.000 NA
ATOM     29  N   UNL     1       2.712   1.626   0.000  0.00  0.00    +0.000 NA
ATOM     30  N   UNL     1       3.125   2.340   0.000  0.00  0.00    +0.000 NA
ATOM     31  C   UNL     1       4.018   1.348   0.000  0.00  0.00    +0.000 A 
BRANCH  27  32
ATOM     32  C   UNL     1       3.093   0.206   0.000  0.00  0.00    +0.000 C 
BRANCH  32  35
ATOM     33  O   UNL     1       2.136  -0.856   0.000  0.00  0.00    +0.000 OA
ATOM     34  O   UNL     1       1.695   0.503   0.000  0.00  0.00    +0.000 OA
ATOM     35  C   UNL     1       2.308  -0.049   0.000  0.00  0.00    +0.000 C 
ENDBRANCH  32  35
ENDBRANCH  27  32
ENDBRANCH  26  31
ENDBRANCH  25  26
ENDBRANCH   8  25
TORSDOF 10
