REMARK  Name = 925
REMARK  8 active torsions:
REMARK  status: ('A' for Active; 'I' for Inactive)
REMARK    1  A    between atoms: O_2  and  C_7
REMARK    2  A    between atoms: O_2  and  C_13
REMARK    3  A    between atoms: N_3  and  C_4
REMARK    4  A    between atoms: N_3  and  C_5
REMARK    5  A    between atoms: N_3  and  C_6
REMARK    6  A    between atoms: C_4  and  C_7
REMARK    7  A    between atoms: C_5  and  C_9
REMARK    8  A    between atoms: C_6  and  C_10
REMARK                            x       y       z     vdW  Elec       q    Type
REMARK                         _______ _______ _______ _____ _____    ______ ____
ROOT
ATOM      1  N   UNL     1       3.079  -0.412   0.000  0.00  0.00    +0.000 NA
ENDROOT
BRANCH   1   2
ATOM      2  C   UNL     1       3.079   0.412   0.000  0.00  0.00    +0.000 C 
ATOM      3  C   UNL     1       2.364   0.825   0.000  0.00  0.00    +0.000 C 
BRANCH   2   4
ATOM      4  C   UNL     1       3.793   0.825   0.000  0.00  0.00    +0.000 C 
BRANCH   4   5
ATOM      5  O   UNL     1       3.793   1.650   0.000  0.00  0.00    +0.000 OA
BRANCH   5   6
ATOM      6  C   UNL     1       4.508   2.062   0.000  0.00  0.00    +0.000 A 
ATOM      7  C   UNL     1       4.508   2.887   0.000  0.00  0.00    +0.000 A 
ATOM      8  C   UNL     1       5.222   1.650   0.000  0.00  0.00    +0.000 A 
ATOM      9  C   UNL     1       5.222   3.300   0.000  0.00  0.00    +0.000 A 
ATOM     10  C   UNL     1       5.936   2.062   0.000  0.00  0.00    +0.000 A 
ATOM     11  C   UNL     1       5.936   2.887   0.000  0.00  0.00    +0.000 A 
ENDBRANCH   5   6
ENDBRANCH   4   5
ENDBRANCH   2   4
ENDBRANCH   1   2
BRANCH   1  12
ATOM     12  C   UNL     1       3.793  -0.825   0.000  0.00  0.00    +0.000 C 
BRANCH  12  14
ATOM     13 CL   UNL     1       5.222  -0.825   0.000  0.00  0.00    +0.000 Cl
ATOM     14  C   UNL     1       4.508  -0.412   0.000  0.00  0.00    +0.000 C 
ENDBRANCH  12  14
ENDBRANCH   1  12
BRANCH   1  15
ATOM     15  C   UNL     1       2.364  -0.825   0.000  0.00  0.00    +0.000 C 
BRANCH  15  16
ATOM     16  C   UNL     1       2.364  -1.650   0.000  0.00  0.00    +0.000 A 
ATOM     17  C   UNL     1       3.079  -2.062   0.000  0.00  0.00    +0.000 A 
ATOM     18  C   UNL     1       1.650  -2.062   0.000  0.00  0.00    +0.000 A 
ATOM     19  C   UNL     1       3.079  -2.887   0.000  0.00  0.00    +0.000 A 
ATOM     20  C   UNL     1       1.650  -2.887   0.000  0.00  0.00    +0.000 A 
ATOM     21  C   UNL     1       2.364  -3.300   0.000  0.00  0.00    +0.000 A 
ENDBRANCH  15  16
ENDBRANCH   1  15
TORSDOF 8
