REMARK  Name = 926
REMARK  8 active torsions:
REMARK  status: ('A' for Active; 'I' for Inactive)
REMARK    1  A    between atoms: O_1  and  C_8
REMARK    2  A    between atoms: O_2  and  C_24
REMARK    3  A    between atoms: O_2  and  C_25
REMARK    4  A    between atoms: C_5  and  C_11
REMARK    5  A    between atoms: C_14  and  C_15
REMARK    6  A    between atoms: C_18  and  C_19
REMARK    7  A    between atoms: C_20  and  C_21
REMARK    8  A    between atoms: C_23  and  C_24
REMARK                            x       y       z     vdW  Elec       q    Type
REMARK                         _______ _______ _______ _____ _____    ______ ____
ROOT
ATOM      1  C   UNL     1       3.079  -1.444   0.000  0.00  0.00    +0.000 C 
ATOM      2  C   UNL     1       3.793  -1.031   0.000  0.00  0.00    +0.000 C 
ENDROOT
BRANCH   1   4
ATOM      3  C   UNL     1       2.365  -2.681   0.000  0.00  0.00    +0.000 A 
ATOM      4  C   UNL     1       3.079  -2.269   0.000  0.00  0.00    +0.000 A 
ATOM      5  C   UNL     1       2.365  -3.506   0.000  0.00  0.00    +0.000 A 
ATOM      6  C   UNL     1       3.793  -2.681   0.000  0.00  0.00    +0.000 A 
ATOM      7  C   UNL     1       3.079  -3.919   0.000  0.00  0.00    +0.000 A 
ATOM      8  C   UNL     1       3.793  -3.506   0.000  0.00  0.00    +0.000 A 
ATOM      9  C   UNL     1       1.650  -2.269   0.000  0.00  0.00    +0.000 C 
ATOM     10  C   UNL     1       1.650  -3.919   0.000  0.00  0.00    +0.000 C 
ATOM     11  C   UNL     1       4.508  -2.269   0.000  0.00  0.00    +0.000 C 
BRANCH   7  12
ATOM     12  O   UNL     1       3.079  -4.744   0.000  0.00  0.00    +0.000 OA
ATOM     13  C   UNL     1       3.793  -5.156   0.000  0.00  0.00    +0.000 C 
ENDBRANCH   7  12
ENDBRANCH   1   4
BRANCH   2  14
ATOM     14  C   UNL     1       3.793  -0.206   0.000  0.00  0.00    +0.000 C 
ATOM     15  C   UNL     1       3.079   0.206   0.000  0.00  0.00    +0.000 C 
ATOM     16  C   UNL     1       4.508   0.206   0.000  0.00  0.00    +0.000 C 
BRANCH  16  17
ATOM     17  C   UNL     1       4.508   1.031   0.000  0.00  0.00    +0.000 C 
ATOM     18  C   UNL     1       5.222   1.444   0.000  0.00  0.00    +0.000 C 
BRANCH  18  19
ATOM     19  C   UNL     1       5.222   2.269   0.000  0.00  0.00    +0.000 C 
ATOM     20  C   UNL     1       4.508   2.681   0.000  0.00  0.00    +0.000 C 
ATOM     21  C   UNL     1       5.937   2.681   0.000  0.00  0.00    +0.000 C 
BRANCH  21  23
ATOM     22  O   UNL     1       5.222   3.919   0.000  0.00  0.00    +0.000 OA
ATOM     23  C   UNL     1       5.937   3.506   0.000  0.00  0.00    +0.000 C 
BRANCH  23  24
ATOM     24  O   UNL     1       6.652   3.919   0.000  0.00  0.00    +0.000 OA
BRANCH  24  25
ATOM     25  C   UNL     1       6.652   4.744   0.000  0.00  0.00    +0.000 C 
ATOM     26  C   UNL     1       7.366   5.156   0.000  0.00  0.00    +0.000 C 
ENDBRANCH  24  25
ENDBRANCH  23  24
ENDBRANCH  21  23
ENDBRANCH  18  19
ENDBRANCH  16  17
ENDBRANCH   2  14
TORSDOF 8
