REMARK  Name = 928
REMARK  2 active torsions:
REMARK  status: ('A' for Active; 'I' for Inactive)
REMARK    1  A    between atoms: C_2  and  C_3
REMARK    2  A    between atoms: N_8  and  C_9
REMARK                            x       y       z     vdW  Elec       q    Type
REMARK                         _______ _______ _______ _____ _____    ______ ____
ROOT
ATOM      1  C   UNL     1       0.708   1.427   0.000  0.00  0.00    +0.000 A 
ATOM      2  C   UNL     1       1.376   0.942   0.000  0.00  0.00    +0.000 A 
ATOM      3  N   UNL     1       1.121   0.158   0.000  0.00  0.00    +0.000 NA
ATOM      4  C   UNL     1       0.041   0.942   0.000  0.00  0.00    +0.000 A 
ATOM      5  N   UNL     1      -0.744   1.197   0.000  0.00  0.00    +0.000 NA
ATOM      6  N   UNL     1       0.296   0.158   0.000  0.00  0.00    +0.000 N 
ENDROOT
BRANCH   6   7
ATOM      7  C   UNL     1      -0.189  -0.510   0.000  0.00  0.00    +0.000 A 
ATOM      8  C   UNL     1       0.146  -1.264   0.000  0.00  0.00    +0.000 A 
ATOM      9  C   UNL     1      -0.338  -1.931   0.000  0.00  0.00    +0.000 A 
ATOM     10  C   UNL     1      -1.159  -1.845   0.000  0.00  0.00    +0.000 A 
ATOM     11 CL   UNL     1      -1.644  -2.512   0.000  0.00  0.00    +0.000 Cl
ATOM     12  C   UNL     1      -1.494  -1.091   0.000  0.00  0.00    +0.000 A 
ATOM     13  C   UNL     1      -1.010  -0.424   0.000  0.00  0.00    +0.000 A 
ENDBRANCH   6   7
BRANCH   1  15
ATOM     14  N   UNL     1       0.708   3.077   0.000  0.00  0.00    +0.000 NA
ATOM     15  C   UNL     1       0.708   2.252   0.000  0.00  0.00    +0.000 C 
ENDBRANCH   1  15
TORSDOF 2
