REMARK  Name = 928
REMARK  2 active torsions:
REMARK  status: ('A' for Active; 'I' for Inactive)
REMARK    1  A    between atoms: N_6  and  C1*_13
REMARK    2  A    between atoms: C4*_12  and  C5*_14
REMARK                            x       y       z     vdW  Elec       q    Type
REMARK                         _______ _______ _______ _____ _____    ______ ____
ROOT
ATOM      1  O4* UNL     1       4.150  -1.061   0.000  0.00  0.00    +0.000 OA
ATOM      2  O2* UNL     1       2.030  -0.806   0.000  0.00  0.00    +0.000 OA
ATOM      3  O3* UNL     1       2.585  -2.513   0.000  0.00  0.00    +0.000 OA
ATOM      4  C2* UNL     1       2.815  -1.061   0.000  0.00  0.00    +0.000 C 
ATOM      5  C3* UNL     1       3.070  -1.845   0.000  0.00  0.00    +0.000 C 
ATOM      6  C4* UNL     1       3.895  -1.845   0.000  0.00  0.00    +0.000 C 
ATOM      7  C1* UNL     1       3.482  -0.576   0.000  0.00  0.00    +0.000 C 
ENDROOT
BRANCH   7   9
ATOM      8  O   UNL     1       2.053   0.249   0.000  0.00  0.00    +0.000 OA
ATOM      9  N   UNL     1       3.482   0.249   0.000  0.00  0.00    +0.000 N 
ATOM     10  N   UNL     1       2.768   1.487   0.000  0.00  0.00    +0.000 NA
ATOM     11  N   UNL     1       4.197   1.487   0.000  0.00  0.00    +0.000 NA
ATOM     12  N   UNL     1       3.482   2.724   0.000  0.00  0.00    +0.000 NA
ATOM     13  C   UNL     1       2.768   0.662   0.000  0.00  0.00    +0.000 A 
ATOM     14  C   UNL     1       4.197   0.662   0.000  0.00  0.00    +0.000 A 
ATOM     15  C   UNL     1       3.482   1.899   0.000  0.00  0.00    +0.000 A 
ENDBRANCH   7   9
BRANCH   6  17
ATOM     16  O5* UNL     1       5.200  -2.426   0.000  0.00  0.00    +0.000 OA
ATOM     17  C5* UNL     1       4.380  -2.513   0.000  0.00  0.00    +0.000 C 
ENDBRANCH   6  17
TORSDOF 2
