REMARK  Name = 929
REMARK  14 active torsions:
REMARK  status: ('A' for Active; 'I' for Inactive)
REMARK    1  A    between atoms: O_4  and  C_26
REMARK    2  A    between atoms: C_6  and  C_10
REMARK    3  A    between atoms: C_7  and  C_12
REMARK    4  A    between atoms: C_10  and  C_13
REMARK    5  A    between atoms: C_13  and  C_14
REMARK    6  A    between atoms: C_14  and  C_18
REMARK    7  A    between atoms: C_15  and  C_17
REMARK    8  A    between atoms: C_16  and  C_17
REMARK    9  A    between atoms: C_16  and  C_19
REMARK   10  A    between atoms: C_18  and  C_21
REMARK   11  A    between atoms: C_19  and  C_22
REMARK   12  A    between atoms: C_21  and  C_24
REMARK   13  A    between atoms: C_22  and  C_23
REMARK   14  A    between atoms: C_24  and  C_26
REMARK                            x       y       z     vdW  Elec       q    Type
REMARK                         _______ _______ _______ _____ _____    ______ ____
ROOT
ATOM      1  O   UNL     1      10.145  -1.736   0.000  0.00  0.00    +0.000 OA
ATOM      2  O   UNL     1       7.796  -3.443   0.000  0.00  0.00    +0.000 OA
ATOM      3  C   UNL     1       8.026  -1.992   0.000  0.00  0.00    +0.000 C 
ATOM      4  C   UNL     1       8.693  -1.507   0.000  0.00  0.00    +0.000 C 
ATOM      5  C   UNL     1       9.361  -1.992   0.000  0.00  0.00    +0.000 C 
ATOM      6  C   UNL     1       9.106  -2.776   0.000  0.00  0.00    +0.000 C 
ATOM      7  C   UNL     1       8.281  -2.776   0.000  0.00  0.00    +0.000 C 
ENDROOT
BRANCH   4   8
ATOM      8  C   UNL     1       8.693  -0.681   0.000  0.00  0.00    +0.000 C 
ATOM      9  C   UNL     1       9.408  -0.269   0.000  0.00  0.00    +0.000 C 
BRANCH   9  10
ATOM     10  C   UNL     1       9.408   0.556   0.000  0.00  0.00    +0.000 C 
BRANCH  10  12
ATOM     11  O   UNL     1       9.710   1.683   0.000  0.00  0.00    +0.000 OA
ATOM     12  C   UNL     1      10.122   0.969   0.000  0.00  0.00    +0.000 C 
ATOM     13  C   UNL     1      10.535   0.254   0.000  0.00  0.00    +0.000 C 
BRANCH  12  14
ATOM     14  C   UNL     1      10.837   1.381   0.000  0.00  0.00    +0.000 C 
BRANCH  14  15
ATOM     15  C   UNL     1      10.837   2.206   0.000  0.00  0.00    +0.000 C 
BRANCH  15  16
ATOM     16  C   UNL     1      11.551   2.619   0.000  0.00  0.00    +0.000 C 
ATOM     17  C   UNL     1      11.551   3.443   0.000  0.00  0.00    +0.000 C 
ENDBRANCH  15  16
ENDBRANCH  14  15
ENDBRANCH  12  14
ENDBRANCH  10  12
ENDBRANCH   9  10
ENDBRANCH   4   8
BRANCH   3  18
ATOM     18  C   UNL     1       7.241  -1.736   0.000  0.00  0.00    +0.000 C 
BRANCH  18  19
ATOM     19  C   UNL     1       6.628  -2.289   0.000  0.00  0.00    +0.000 C 
BRANCH  19  20
ATOM     20  C   UNL     1       5.843  -2.034   0.000  0.00  0.00    +0.000 C 
BRANCH  20  21
ATOM     21  C   UNL     1       5.230  -2.586   0.000  0.00  0.00    +0.000 C 
BRANCH  21  22
ATOM     22  C   UNL     1       4.446  -2.331   0.000  0.00  0.00    +0.000 C 
BRANCH  22  23
ATOM     23  C   UNL     1       3.833  -2.883   0.000  0.00  0.00    +0.000 C 
BRANCH  23  25
ATOM     24  O   UNL     1       2.876  -1.821   0.000  0.00  0.00    +0.000 OA
ATOM     25  C   UNL     1       3.048  -2.628   0.000  0.00  0.00    +0.000 C 
BRANCH  25  26
ATOM     26  O   UNL     1       2.435  -3.180   0.000  0.00  0.00    +0.000 OA
ATOM     27  C   UNL     1       1.650  -2.925   0.000  0.00  0.00    +0.000 C 
ENDBRANCH  25  26
ENDBRANCH  23  25
ENDBRANCH  22  23
ENDBRANCH  21  22
ENDBRANCH  20  21
ENDBRANCH  19  20
ENDBRANCH  18  19
ENDBRANCH   3  18
TORSDOF 14
