REMARK  Name = 92G
REMARK  1 active torsions:
REMARK  status: ('A' for Active; 'I' for Inactive)
REMARK    1  A    between atoms: C_7  and  C_8
REMARK                            x       y       z     vdW  Elec       q    Type
REMARK                         _______ _______ _______ _____ _____    ______ ____
ROOT
ATOM      1  O   UNL     1       0.114   2.746   0.000  0.00  0.00    +0.000 OA
ATOM      2  C   UNL     1       0.829   0.683   0.000  0.00  0.00    +0.000 A 
ATOM      3  C   UNL     1       0.829   1.508   0.000  0.00  0.00    +0.000 A 
ATOM      4  C   UNL     1       0.114   1.921   0.000  0.00  0.00    +0.000 A 
ATOM      5  C   UNL     1      -0.600   0.683   0.000  0.00  0.00    +0.000 A 
ATOM      6  C   UNL     1      -0.600   1.508   0.000  0.00  0.00    +0.000 A 
ATOM      7  C   UNL     1       0.114   0.271   0.000  0.00  0.00    +0.000 A 
ENDROOT
BRANCH   7   8
ATOM      8  C   UNL     1       0.114  -0.554   0.000  0.00  0.00    +0.000 A 
ATOM      9  C   UNL     1       0.527  -1.824   0.000  0.00  0.00    +0.000 A 
ATOM     10  C   UNL     1      -0.553  -1.039   0.000  0.00  0.00    +0.000 A 
ATOM     11  S   UNL     1      -0.298  -1.824   0.000  0.00  0.00    +0.000 S 
ATOM     12  N   UNL     1       0.781  -1.039   0.000  0.00  0.00    +0.000 NA
ATOM     13  N   UNL     1       1.012  -2.491   0.000  0.00  0.00    +0.000 NA
ENDBRANCH   7   8
TORSDOF 1
