REMARK  Name = 934
REMARK  4 active torsions:
REMARK  status: ('A' for Active; 'I' for Inactive)
REMARK    1  A    between atoms: N_1  and  C_16
REMARK    2  A    between atoms: C_2  and  C_8
REMARK    3  A    between atoms: C_8  and  C_11
REMARK    4  A    between atoms: C_11  and  C_16
REMARK                            x       y       z     vdW  Elec       q    Type
REMARK                         _______ _______ _______ _____ _____    ______ ____
ROOT
ATOM      1  C   UNL     1       4.595   0.791   0.000  0.00  0.00    +0.000 C 
ATOM      2  C   UNL     1       4.800   1.556   0.000  0.00  0.00    +0.000 C 
ATOM      3  C   UNL     1       3.821   2.228   0.000  0.00  0.00    +0.000 C 
ATOM      4  C   UNL     1       4.506   2.624   0.000  0.00  0.00    +0.000 C 
ATOM      5  C   UNL     1       6.046   0.190   0.000  0.00  0.00    +0.000 A 
ATOM      6  C   UNL     1       3.223  -0.001   0.000  0.00  0.00    +0.000 A 
ATOM      7  C   UNL     1       6.251   0.955   0.000  0.00  0.00    +0.000 A 
ATOM      8  C   UNL     1       2.827   0.685   0.000  0.00  0.00    +0.000 A 
ATOM      9  C   UNL     1       6.620  -0.402   0.000  0.00  0.00    +0.000 A 
ATOM     10  C   UNL     1       2.822  -0.722   0.000  0.00  0.00    +0.000 A 
ATOM     11  C   UNL     1       7.045   1.181   0.000  0.00  0.00    +0.000 A 
ATOM     12  C   UNL     1       2.002   0.698   0.000  0.00  0.00    +0.000 A 
ATOM     13  C   UNL     1       7.419  -0.195   0.000  0.00  0.00    +0.000 A 
ATOM     14  C   UNL     1       1.997  -0.728   0.000  0.00  0.00    +0.000 A 
ATOM     15  C   UNL     1       7.632   0.602   0.000  0.00  0.00    +0.000 A 
ATOM     16  C   UNL     1       1.584  -0.014   0.000  0.00  0.00    +0.000 A 
ENDROOT
BRANCH   1  17
ATOM     17  C   UNL     1       4.390   0.026   0.000  0.00  0.00    +0.000 C 
BRANCH  17  18
ATOM     18  C   UNL     1       4.950  -0.534   0.000  0.00  0.00    +0.000 C 
BRANCH  18  19
ATOM     19  C   UNL     1       4.745  -1.299   0.000  0.00  0.00    +0.000 C 
BRANCH  19  20
ATOM     20  N   UNL     1       5.305  -1.859   0.000  0.00  0.00    +0.000 NA
ATOM     21  C   UNL     1       5.100  -2.624   0.000  0.00  0.00    +0.000 C 
ENDBRANCH  19  20
ENDBRANCH  18  19
ENDBRANCH  17  18
ENDBRANCH   1  17
TORSDOF 4
