REMARK  Name = 935
REMARK  3 active torsions:
REMARK  status: ('A' for Active; 'I' for Inactive)
REMARK    1  A    between atoms: C_4  and  C_5
REMARK    2  A    between atoms: C_6  and  C_14
REMARK    3  A    between atoms: C_14  and  C_15
REMARK                            x       y       z     vdW  Elec       q    Type
REMARK                         _______ _______ _______ _____ _____    ______ ____
ROOT
ATOM      1  O   UNL     1       2.093   1.200   0.000  0.00  0.00    +0.000 OA
ATOM      2  C   UNL     1       3.522   1.200   0.000  0.00  0.00    +0.000 A 
ATOM      3  C   UNL     1       3.522  -0.450   0.000  0.00  0.00    +0.000 A 
ATOM      4  C   UNL     1       2.808   0.788   0.000  0.00  0.00    +0.000 A 
ATOM      5  C   UNL     1       2.808  -0.037   0.000  0.00  0.00    +0.000 A 
ATOM      6  C   UNL     1       4.237  -0.037   0.000  0.00  0.00    +0.000 A 
ATOM      7  C   UNL     1       4.237   0.788   0.000  0.00  0.00    +0.000 A 
ATOM      8  C   UNL     1       2.093  -0.450   0.000  0.00  0.00    +0.000 C 
ATOM      9  C   UNL     1       4.951  -0.450   0.000  0.00  0.00    +0.000 C 
ENDROOT
BRANCH   2  10
ATOM     10  C   UNL     1       3.522   2.025   0.000  0.00  0.00    +0.000 C 
ATOM     11  C   UNL     1       3.522   2.850   0.000  0.00  0.00    +0.000 C 
ATOM     12  C   UNL     1       4.347   2.025   0.000  0.00  0.00    +0.000 C 
ATOM     13  C   UNL     1       2.697   2.025   0.000  0.00  0.00    +0.000 C 
ENDBRANCH   2  10
BRANCH   3  14
ATOM     14  C   UNL     1       3.522  -1.275   0.000  0.00  0.00    +0.000 C 
BRANCH  14  17
ATOM     15  N   UNL     1       4.323  -2.508   0.000  0.00  0.00    +0.000 NA
ATOM     16  N   UNL     1       4.990  -1.352   0.000  0.00  0.00    +0.000 NA
ATOM     17  C   UNL     1       4.237  -1.687   0.000  0.00  0.00    +0.000 C 
ATOM     18  C   UNL     1       5.130  -2.679   0.000  0.00  0.00    +0.000 C 
ATOM     19  C   UNL     1       5.542  -1.965   0.000  0.00  0.00    +0.000 C 
ENDBRANCH  14  17
ENDBRANCH   3  14
TORSDOF 3
