REMARK  Name = 937
REMARK  5 active torsions:
REMARK  status: ('A' for Active; 'I' for Inactive)
REMARK    1  A    between atoms: N_2  and  C_3
REMARK    2  A    between atoms: N_2  and  C_4
REMARK    3  A    between atoms: N_2  and  C_5
REMARK    4  A    between atoms: C_3  and  C_6
REMARK    5  A    between atoms: C_6  and  C_10
REMARK                            x       y       z     vdW  Elec       q    Type
REMARK                         _______ _______ _______ _____ _____    ______ ____
ROOT
ATOM      1  O   UNL     1       1.650   0.412   0.000  0.00  0.00    +0.000 OA
ATOM      2  C   UNL     1       2.364   0.000   0.000  0.00  0.00    +0.000 C 
ENDROOT
BRANCH   2   3
ATOM      3  C   UNL     1       2.364  -0.825   0.000  0.00  0.00    +0.000 A 
ATOM      4  C   UNL     1       3.079  -1.238   0.000  0.00  0.00    +0.000 A 
ATOM      5  C   UNL     1       1.650  -1.238   0.000  0.00  0.00    +0.000 A 
ATOM      6  C   UNL     1       3.079  -2.062   0.000  0.00  0.00    +0.000 A 
ATOM      7  C   UNL     1       1.650  -2.062   0.000  0.00  0.00    +0.000 A 
ATOM      8  C   UNL     1       2.364  -2.475   0.000  0.00  0.00    +0.000 A 
ENDBRANCH   2   3
BRANCH   2   9
ATOM      9  C   UNL     1       3.079   0.412   0.000  0.00  0.00    +0.000 C 
ATOM     10  C   UNL     1       3.793   0.000   0.000  0.00  0.00    +0.000 C 
BRANCH   9  11
ATOM     11  N   UNL     1       3.079   1.238   0.000  0.00  0.00    +0.000 NA
BRANCH  11  12
ATOM     12  C   UNL     1       3.793   1.650   0.000  0.00  0.00    +0.000 C 
ATOM     13  C   UNL     1       3.793   2.475   0.000  0.00  0.00    +0.000 C 
ENDBRANCH  11  12
BRANCH  11  14
ATOM     14  C   UNL     1       2.364   1.650   0.000  0.00  0.00    +0.000 C 
ATOM     15  C   UNL     1       2.364   2.475   0.000  0.00  0.00    +0.000 C 
ENDBRANCH  11  14
ENDBRANCH   9  11
ENDBRANCH   2   9
TORSDOF 5
