REMARK  Name = 938
REMARK  16 active torsions:
REMARK  status: ('A' for Active; 'I' for Inactive)
REMARK    1  A    between atoms: O_1  and  C_12
REMARK    2  A    between atoms: O_1  and  C_16
REMARK    3  A    between atoms: N_5  and  C_10
REMARK    4  A    between atoms: N_5  and  C_11
REMARK    5  A    between atoms: C_6  and  C_7
REMARK    6  A    between atoms: C_6  and  C_8
REMARK    7  A    between atoms: C_7  and  C_9
REMARK    8  A    between atoms: C_8  and  C_10
REMARK    9  A    between atoms: C_9  and  C_12
REMARK   10  A    between atoms: C_11  and  C_13
REMARK   11  A    between atoms: C_13  and  C_17
REMARK   12  A    between atoms: C_14  and  C_15
REMARK   13  A    between atoms: C_14  and  C_16
REMARK   14  A    between atoms: C_15  and  C_18
REMARK   15  A    between atoms: C_18  and  C_20
REMARK   16  A    between atoms: C_22  and  C_27
REMARK                            x       y       z     vdW  Elec       q    Type
REMARK                         _______ _______ _______ _____ _____    ______ ____
ROOT
ATOM      1  C   UNL     1       6.380  -0.491   0.000  0.00  0.00    +0.000 C 
ENDROOT
BRANCH   1   2
ATOM      2  C   UNL     1       6.380   0.334   0.000  0.00  0.00    +0.000 C 
BRANCH   2   3
ATOM      3  C   UNL     1       7.094   0.747   0.000  0.00  0.00    +0.000 C 
BRANCH   3   4
ATOM      4  C   UNL     1       7.094   1.572   0.000  0.00  0.00    +0.000 C 
BRANCH   4   5
ATOM      5  O   UNL     1       7.809   1.984   0.000  0.00  0.00    +0.000 OA
BRANCH   5   6
ATOM      6  C   UNL     1       7.809   2.809   0.000  0.00  0.00    +0.000 C 
BRANCH   6   7
ATOM      7  C   UNL     1       8.523   3.222   0.000  0.00  0.00    +0.000 C 
BRANCH   7   8
ATOM      8  C   UNL     1       8.523   4.047   0.000  0.00  0.00    +0.000 C 
BRANCH   8   9
ATOM      9  C   UNL     1       9.238   4.459   0.000  0.00  0.00    +0.000 C 
BRANCH   9  10
ATOM     10  C   UNL     1       9.238   5.284   0.000  0.00  0.00    +0.000 A 
ATOM     11  C   UNL     1       8.523   5.697   0.000  0.00  0.00    +0.000 A 
ATOM     12  C   UNL     1       9.952   5.697   0.000  0.00  0.00    +0.000 A 
ATOM     13  C   UNL     1       8.523   6.522   0.000  0.00  0.00    +0.000 A 
ATOM     14  C   UNL     1       9.952   6.522   0.000  0.00  0.00    +0.000 A 
ATOM     15  C   UNL     1       9.238   6.934   0.000  0.00  0.00    +0.000 A 
ENDBRANCH   9  10
ENDBRANCH   8   9
ENDBRANCH   7   8
ENDBRANCH   6   7
ENDBRANCH   5   6
ENDBRANCH   4   5
ENDBRANCH   3   4
ENDBRANCH   2   3
ENDBRANCH   1   2
BRANCH   1  16
ATOM     16  C   UNL     1       5.665  -0.903   0.000  0.00  0.00    +0.000 C 
BRANCH  16  17
ATOM     17  C   UNL     1       5.665  -1.728   0.000  0.00  0.00    +0.000 C 
BRANCH  17  18
ATOM     18  N   UNL     1       4.951  -2.141   0.000  0.00  0.00    +0.000 NA
BRANCH  18  19
ATOM     19  C   UNL     1       4.951  -2.966   0.000  0.00  0.00    +0.000 C 
BRANCH  19  21
ATOM     20  O   UNL     1       3.522  -2.966   0.000  0.00  0.00    +0.000 OA
ATOM     21  C   UNL     1       4.237  -3.378   0.000  0.00  0.00    +0.000 C 
BRANCH  21  23
ATOM     22  O   UNL     1       4.237  -6.678   0.000  0.00  0.00    +0.000 OA
ATOM     23  C   UNL     1       4.237  -4.204   0.000  0.00  0.00    +0.000 A 
ATOM     24  C   UNL     1       3.522  -4.616   0.000  0.00  0.00    +0.000 A 
ATOM     25  C   UNL     1       4.951  -4.616   0.000  0.00  0.00    +0.000 A 
ATOM     26  C   UNL     1       3.522  -5.441   0.000  0.00  0.00    +0.000 A 
ATOM     27  C   UNL     1       4.951  -5.441   0.000  0.00  0.00    +0.000 A 
ATOM     28  C   UNL     1       4.237  -5.854   0.000  0.00  0.00    +0.000 A 
BRANCH  26  30
ATOM     29  O   UNL     1       2.093  -5.441   0.000  0.00  0.00    +0.000 OA
ATOM     30  C   UNL     1       2.808  -5.854   0.000  0.00  0.00    +0.000 C 
ENDBRANCH  26  30
ENDBRANCH  21  23
ENDBRANCH  19  21
ENDBRANCH  18  19
ENDBRANCH  17  18
ENDBRANCH  16  17
ENDBRANCH   1  16
TORSDOF 16
