REMARK  Name = 939
REMARK  3 active torsions:
REMARK  status: ('A' for Active; 'I' for Inactive)
REMARK    1  A    between atoms: N_5  and  C_6
REMARK    2  A    between atoms: N_5  and  C_7
REMARK    3  A    between atoms: C_10  and  C_19
REMARK                            x       y       z     vdW  Elec       q    Type
REMARK                         _______ _______ _______ _____ _____    ______ ____
ROOT
ATOM      1  N   UNL     1       3.079  -0.128   0.000  0.00  0.00    +0.000 NA
ENDROOT
BRANCH   1   4
ATOM      2 CL   UNL     1       1.650  -0.953   0.000  0.00  0.00    +0.000 Cl
ATOM      3 CL   UNL     1       4.508  -0.953   0.000  0.00  0.00    +0.000 Cl
ATOM      4  C   UNL     1       3.079  -0.953   0.000  0.00  0.00    +0.000 A 
ATOM      5  C   UNL     1       2.365  -2.190   0.000  0.00  0.00    +0.000 A 
ATOM      6  C   UNL     1       2.365  -1.365   0.000  0.00  0.00    +0.000 A 
ATOM      7  C   UNL     1       3.793  -1.365   0.000  0.00  0.00    +0.000 A 
ATOM      8  C   UNL     1       3.079  -2.603   0.000  0.00  0.00    +0.000 A 
ATOM      9  C   UNL     1       3.793  -2.190   0.000  0.00  0.00    +0.000 A 
ATOM     10  C   UNL     1       1.650  -2.603   0.000  0.00  0.00    +0.000 C 
ENDBRANCH   1   4
BRANCH   1  11
ATOM     11  C   UNL     1       3.793   0.285   0.000  0.00  0.00    +0.000 A 
ATOM     12  C   UNL     1       3.793   1.110   0.000  0.00  0.00    +0.000 A 
ATOM     13  C   UNL     1       4.508  -0.128   0.000  0.00  0.00    +0.000 A 
ATOM     14  C   UNL     1       4.508   1.522   0.000  0.00  0.00    +0.000 A 
ATOM     15  C   UNL     1       5.222   0.285   0.000  0.00  0.00    +0.000 A 
ATOM     16  C   UNL     1       5.222   1.110   0.000  0.00  0.00    +0.000 A 
BRANCH  12  19
ATOM     17  O   UNL     1       3.079   2.347   0.000  0.00  0.00    +0.000 OA
ATOM     18  O   UNL     1       2.365   1.110   0.000  0.00  0.00    +0.000 OA
ATOM     19  C   UNL     1       3.079   1.522   0.000  0.00  0.00    +0.000 C 
ENDBRANCH  12  19
ENDBRANCH   1  11
TORSDOF 3
