REMARK  Name = 942
REMARK  5 active torsions:
REMARK  status: ('A' for Active; 'I' for Inactive)
REMARK    1  A    between atoms: N_2  and  C_10
REMARK    2  A    between atoms: C_3  and  C_4
REMARK    3  A    between atoms: C_4  and  C_9
REMARK    4  A    between atoms: C_4  and  C_11
REMARK    5  A    between atoms: C_9  and  C_10
REMARK                            x       y       z     vdW  Elec       q    Type
REMARK                         _______ _______ _______ _____ _____    ______ ____
ROOT
ATOM      1  O   UNL     1       1.906   0.190   0.000  0.00  0.00    +0.000 OA
ATOM      2  C   UNL     1       2.731   0.190   0.000  0.00  0.00    +0.000 C 
ENDROOT
BRANCH   2   3
ATOM      3  C   UNL     1       2.731  -0.635   0.000  0.00  0.00    +0.000 A 
ATOM      4  C   UNL     1       3.445  -1.047   0.000  0.00  0.00    +0.000 A 
ATOM      5  C   UNL     1       2.016  -1.047   0.000  0.00  0.00    +0.000 A 
ATOM      6  C   UNL     1       3.445  -1.872   0.000  0.00  0.00    +0.000 A 
ATOM      7  C   UNL     1       2.016  -1.872   0.000  0.00  0.00    +0.000 A 
ATOM      8  C   UNL     1       2.731  -2.285   0.000  0.00  0.00    +0.000 A 
ENDBRANCH   2   3
BRANCH   2   9
ATOM      9  C   UNL     1       2.731   1.015   0.000  0.00  0.00    +0.000 C 
ATOM     10  C   UNL     1       2.063   1.500   0.000  0.00  0.00    +0.000 C 
ATOM     11  C   UNL     1       3.398   1.500   0.000  0.00  0.00    +0.000 C 
ATOM     12  C   UNL     1       2.318   2.285   0.000  0.00  0.00    +0.000 C 
ATOM     13  C   UNL     1       3.143   2.285   0.000  0.00  0.00    +0.000 C 
ENDBRANCH   2   9
BRANCH   2  14
ATOM     14  C   UNL     1       3.556   0.190   0.000  0.00  0.00    +0.000 C 
BRANCH  14  15
ATOM     15  C   UNL     1       3.968   0.905   0.000  0.00  0.00    +0.000 C 
BRANCH  15  16
ATOM     16  N   UNL     1       4.793   0.905   0.000  0.00  0.00    +0.000 NA
ATOM     17  C   UNL     1       5.206   1.619   0.000  0.00  0.00    +0.000 C 
ATOM     18  C   UNL     1       5.206   0.190   0.000  0.00  0.00    +0.000 C 
ATOM     19  C   UNL     1       6.031   1.619   0.000  0.00  0.00    +0.000 C 
ATOM     20  C   UNL     1       6.031   0.190   0.000  0.00  0.00    +0.000 C 
ATOM     21  C   UNL     1       6.443   0.905   0.000  0.00  0.00    +0.000 C 
ENDBRANCH  15  16
ENDBRANCH  14  15
ENDBRANCH   2  14
TORSDOF 5
