REMARK  Name = 947
REMARK  0 active torsions:
REMARK  status: ('A' for Active; 'I' for Inactive)
REMARK                            x       y       z     vdW  Elec       q    Type
REMARK                         _______ _______ _______ _____ _____    ______ ____
ROOT
ATOM      1  N   UNL     1       1.650   0.000   0.000  0.00  0.00    +0.000 NA
ATOM      2  N   UNL     1       2.475   0.000   0.000  0.00  0.00    +0.000 NA
ENDROOT
TORSDOF 0
