REMARK  Name = 948
REMARK  6 active torsions:
REMARK  status: ('A' for Active; 'I' for Inactive)
REMARK    1  A    between atoms: S_2  and  N_15
REMARK    2  A    between atoms: N_12  and  CA_19
REMARK    3  A    between atoms: N_13  and  CA_25
REMARK    4  A    between atoms: CA_18  and  C_23
REMARK    5  A    between atoms: C_24  and  CA_25
REMARK    6  A    between atoms: CA_25  and  C_26
REMARK                            x       y       z     vdW  Elec       q    Type
REMARK                         _______ _______ _______ _____ _____    ______ ____
ROOT
ATOM      1  CA  UNL     1       4.042  -0.265   0.000  0.00  0.00    +0.000 C 
ENDROOT
BRANCH   1   4
ATOM      2  O   UNL     1       2.878   0.904   0.000  0.00  0.00    +0.000 OA
ATOM      3  O   UNL     1       5.352   1.755   0.000  0.00  0.00    +0.000 OA
ATOM      4  N   UNL     1       4.257   0.531   0.000  0.00  0.00    +0.000 NA
ATOM      5  N   UNL     1       3.890   1.912   0.000  0.00  0.00    +0.000 N 
ATOM      6  N   UNL     1       4.620   3.030   0.000  0.00  0.00    +0.000 N 
ATOM      7  C   UNL     1       3.675   1.116   0.000  0.00  0.00    +0.000 C 
ATOM      8  C   UNL     1       3.372   2.554   0.000  0.00  0.00    +0.000 C 
ATOM      9  C   UNL     1       3.823   3.245   0.000  0.00  0.00    +0.000 C 
ATOM     10  C   UNL     1       4.661   2.206   0.000  0.00  0.00    +0.000 C 
BRANCH   6  11
ATOM     11  S   UNL     1       5.262   3.548   0.000  0.00  0.00    +0.000 S 
ATOM     12  O   UNL     1       5.780   2.906   0.000  0.00  0.00    +0.000 OA
ATOM     13  O   UNL     1       4.744   4.190   0.000  0.00  0.00    +0.000 OA
ATOM     14  C   UNL     1       5.904   4.066   0.000  0.00  0.00    +0.000 C 
ENDBRANCH   6  11
ENDBRANCH   1   4
BRANCH   1  15
ATOM     15  C   UNL     1       3.245  -0.477   0.000  0.00  0.00    +0.000 A 
ATOM     16  C   UNL     1       3.030  -1.274   0.000  0.00  0.00    +0.000 A 
ATOM     17  C   UNL     1       2.663   0.107   0.000  0.00  0.00    +0.000 A 
ATOM     18  C   UNL     1       2.232  -1.486   0.000  0.00  0.00    +0.000 A 
ATOM     19  C   UNL     1       1.865  -0.105   0.000  0.00  0.00    +0.000 A 
ATOM     20  C   UNL     1       1.650  -0.901   0.000  0.00  0.00    +0.000 A 
ENDBRANCH   1  15
BRANCH   1  23
ATOM     21  O   UNL     1       4.409  -1.646   0.000  0.00  0.00    +0.000 OA
ATOM     22  N   UNL     1       5.421  -0.638   0.000  0.00  0.00    +0.000 NA
ATOM     23  C   UNL     1       4.624  -0.850   0.000  0.00  0.00    +0.000 C 
BRANCH  22  30
ATOM     24  S   UNL     1       7.620  -0.971   0.000  0.00  0.00    +0.000 S 
ATOM     25  O   UNL     1       5.421  -2.639   0.000  0.00  0.00    +0.000 OA
ATOM     26  N   UNL     1       6.835  -2.051   0.000  0.00  0.00    +0.000 N 
ATOM     27  C   UNL     1       6.835  -1.226   0.000  0.00  0.00    +0.000 C 
ATOM     28  C   UNL     1       8.105  -1.639   0.000  0.00  0.00    +0.000 C 
ATOM     29  CA  UNL     1       7.620  -2.306   0.000  0.00  0.00    +0.000 C 
ATOM     30  CA  UNL     1       6.004  -1.223   0.000  0.00  0.00    +0.000 C 
ATOM     31  C   UNL     1       6.004  -2.054   0.000  0.00  0.00    +0.000 C 
ATOM     32  C   UNL     1       8.773  -1.154   0.000  0.00  0.00    +0.000 C 
ATOM     33  C   UNL     1       8.773  -2.123   0.000  0.00  0.00    +0.000 C 
BRANCH  29  36
ATOM     34  O   UNL     1       7.323  -3.704   0.000  0.00  0.00    +0.000 OA
ATOM     35  OXT UNL     1       8.682  -3.262   0.000  0.00  0.00    +0.000 OA
ATOM     36  C   UNL     1       7.875  -3.091   0.000  0.00  0.00    +0.000 C 
ENDBRANCH  29  36
ENDBRANCH  22  30
ENDBRANCH   1  23
TORSDOF 6
