REMARK  Name = 950
REMARK  5 active torsions:
REMARK  status: ('A' for Active; 'I' for Inactive)
REMARK    1  A    between atoms: C_1  and  C_8
REMARK    2  A    between atoms: C_13  and  C_14
REMARK    3  A    between atoms: C_18  and  O_21
REMARK    4  A    between atoms: O_21  and  C_22
REMARK    5  A    between atoms: C_22  and  C_23
REMARK                            x       y       z     vdW  Elec       q    Type
REMARK                         _______ _______ _______ _____ _____    ______ ____
ROOT
ATOM      1  C   UNL     1       3.683  -0.408   0.000  0.00  0.00    +0.000 A 
ATOM      2  C   UNL     1       3.683  -1.233   0.000  0.00  0.00    +0.000 A 
ATOM      3  F   UNL     1       4.397  -1.645   0.000  0.00  0.00    +0.000 F 
ATOM      4  C   UNL     1       2.969  -1.645   0.000  0.00  0.00    +0.000 A 
ATOM      5  C   UNL     1       2.254  -1.233   0.000  0.00  0.00    +0.000 A 
ATOM      6  C   UNL     1       2.254  -0.408   0.000  0.00  0.00    +0.000 A 
ATOM      7  C   UNL     1       2.969   0.005   0.000  0.00  0.00    +0.000 A 
ATOM      8  N   UNL     1       1.469  -1.488   0.000  0.00  0.00    +0.000 NA
ATOM      9  N   UNL     1       1.469  -0.153   0.000  0.00  0.00    +0.000 NA
ATOM     10  C   UNL     1       0.985  -0.820   0.000  0.00  0.00    +0.000 A 
ENDROOT
BRANCH  10  11
ATOM     11  C   UNL     1       0.160  -0.820   0.000  0.00  0.00    +0.000 A 
ATOM     12  C   UNL     1      -0.253  -1.535   0.000  0.00  0.00    +0.000 A 
ATOM     13  C   UNL     1      -1.078  -1.535   0.000  0.00  0.00    +0.000 A 
ATOM     14  C   UNL     1      -1.490  -0.820   0.000  0.00  0.00    +0.000 A 
ATOM     15  C   UNL     1      -1.078  -0.106   0.000  0.00  0.00    +0.000 A 
ATOM     16  C   UNL     1      -0.253  -0.106   0.000  0.00  0.00    +0.000 A 
ATOM     17  O   UNL     1       0.160   0.609   0.000  0.00  0.00    +0.000 OA
BRANCH  15  18
ATOM     18  O   UNL     1      -1.490   0.609   0.000  0.00  0.00    +0.000 OA
BRANCH  18  19
ATOM     19  C   UNL     1      -2.316   0.609   0.000  0.00  0.00    +0.000 C 
BRANCH  19  20
ATOM     20  C   UNL     1      -2.728   1.323   0.000  0.00  0.00    +0.000 C 
ATOM     21  C   UNL     1      -3.553   1.323   0.000  0.00  0.00    +0.000 C 
ATOM     22  C   UNL     1      -2.316   2.038   0.000  0.00  0.00    +0.000 C 
ENDBRANCH  19  20
ENDBRANCH  18  19
ENDBRANCH  15  18
ENDBRANCH  10  11
BRANCH   1  23
ATOM     23  C   UNL     1       4.397   0.005   0.000  0.00  0.00    +0.000 C 
ATOM     24  N   UNL     1       5.112  -0.408   0.000  0.00  0.00    +0.000 NA
ATOM     25  N   UNL     1       4.397   0.830   0.000  0.00  0.00    +0.000 NA
ENDBRANCH   1  23
TORSDOF 5
