REMARK  Name = 951
REMARK  1 active torsions:
REMARK  status: ('A' for Active; 'I' for Inactive)
REMARK    1  A    between atoms: C_5  and  C_8
REMARK                            x       y       z     vdW  Elec       q    Type
REMARK                         _______ _______ _______ _____ _____    ______ ____
ROOT
ATOM      1  N   UNL     1       2.364  -1.984   0.000  0.00  0.00    +0.000 NA
ATOM      2  C   UNL     1       2.364  -0.334   0.000  0.00  0.00    +0.000 A 
ATOM      3  C   UNL     1       3.079  -0.747   0.000  0.00  0.00    +0.000 A 
ATOM      4  C   UNL     1       1.650  -0.747   0.000  0.00  0.00    +0.000 A 
ATOM      5  C   UNL     1       3.079  -1.572   0.000  0.00  0.00    +0.000 A 
ATOM      6  C   UNL     1       1.650  -1.572   0.000  0.00  0.00    +0.000 A 
ENDROOT
BRANCH   2  10
ATOM      7  O   UNL     1       1.650   0.903   0.000  0.00  0.00    +0.000 OA
ATOM      8  N   UNL     1       3.079   0.903   0.000  0.00  0.00    +0.000 NA
ATOM      9  N   UNL     1       3.079   1.728   0.000  0.00  0.00    +0.000 NA
ATOM     10  C   UNL     1       2.364   0.491   0.000  0.00  0.00    +0.000 C 
ENDBRANCH   2  10
TORSDOF 1
