REMARK  Name = 952
REMARK  5 active torsions:
REMARK  status: ('A' for Active; 'I' for Inactive)
REMARK    1  A    between atoms: S_1  and  N_6
REMARK    2  A    between atoms: S_1  and  C_22
REMARK    3  A    between atoms: C_7  and  C_12
REMARK    4  A    between atoms: C_18  and  C_20
REMARK    5  A    between atoms: C_20  and  C_22
REMARK                            x       y       z     vdW  Elec       q    Type
REMARK                         _______ _______ _______ _____ _____    ______ ____
ROOT
ATOM      1  N   UNL     1       7.432  -1.989   0.000  0.00  0.00    +0.000 NA
ATOM      2  C   UNL     1       7.432  -0.661   0.000  0.00  0.00    +0.000 A 
ATOM      3  C   UNL     1       6.652  -0.913   0.000  0.00  0.00    +0.000 A 
ATOM      4  C   UNL     1       7.914  -1.325   0.000  0.00  0.00    +0.000 A 
ATOM      5  C   UNL     1       6.652  -1.738   0.000  0.00  0.00    +0.000 A 
ATOM      6  C   UNL     1       5.937  -0.500   0.000  0.00  0.00    +0.000 A 
ATOM      7  C   UNL     1       5.222  -0.913   0.000  0.00  0.00    +0.000 A 
ATOM      8  C   UNL     1       5.937  -2.150   0.000  0.00  0.00    +0.000 A 
ATOM      9  C   UNL     1       5.222  -1.738   0.000  0.00  0.00    +0.000 A 
ENDROOT
BRANCH   2  11
ATOM     10  N   UNL     1       8.201   1.691   0.000  0.00  0.00    +0.000 NA
ATOM     11  C   UNL     1       7.688   0.123   0.000  0.00  0.00    +0.000 C 
ATOM     12  C   UNL     1       8.496   0.293   0.000  0.00  0.00    +0.000 C 
ATOM     13  C   UNL     1       7.137   0.737   0.000  0.00  0.00    +0.000 C 
ATOM     14  C   UNL     1       8.752   1.077   0.000  0.00  0.00    +0.000 C 
ATOM     15  C   UNL     1       7.394   1.521   0.000  0.00  0.00    +0.000 C 
ATOM     16  C   UNL     1       8.457   2.475   0.000  0.00  0.00    +0.000 C 
ENDBRANCH   2  11
BRANCH   7  17
ATOM     17  C   UNL     1       4.508  -0.500   0.000  0.00  0.00    +0.000 C 
BRANCH  17  18
ATOM     18  C   UNL     1       3.793  -0.913   0.000  0.00  0.00    +0.000 C 
BRANCH  18  19
ATOM     19  S   UNL     1       3.079  -0.500   0.000  0.00  0.00    +0.000 S 
ATOM     20  O   UNL     1       3.492   0.214   0.000  0.00  0.00    +0.000 OA
ATOM     21  O   UNL     1       2.667  -1.215   0.000  0.00  0.00    +0.000 OA
BRANCH  19  22
ATOM     22  N   UNL     1       2.365  -0.088   0.000  0.00  0.00    +0.000 NA
ATOM     23  C   UNL     1       1.650  -0.500   0.000  0.00  0.00    +0.000 C 
ENDBRANCH  19  22
ENDBRANCH  18  19
ENDBRANCH  17  18
ENDBRANCH   7  17
TORSDOF 5
