REMARK  Name = 953
REMARK  5 active torsions:
REMARK  status: ('A' for Active; 'I' for Inactive)
REMARK    1  A    between atoms: N_2  and  C_10
REMARK    2  A    between atoms: N_3  and  C_16
REMARK    3  A    between atoms: C_6  and  C_8
REMARK    4  A    between atoms: C_8  and  C_10
REMARK    5  A    between atoms: C_13  and  C_16
REMARK                            x       y       z     vdW  Elec       q    Type
REMARK                         _______ _______ _______ _____ _____    ______ ____
ROOT
ATOM      1  N   UNL     1       6.594  -1.597   0.000  0.00  0.00    +0.000 NA
ATOM      2  C   UNL     1       6.594  -0.269   0.000  0.00  0.00    +0.000 A 
ATOM      3  C   UNL     1       5.814  -0.521   0.000  0.00  0.00    +0.000 A 
ATOM      4  C   UNL     1       5.814  -1.346   0.000  0.00  0.00    +0.000 A 
ATOM      5  C   UNL     1       5.099  -0.108   0.000  0.00  0.00    +0.000 A 
ATOM      6  C   UNL     1       7.076  -0.933   0.000  0.00  0.00    +0.000 A 
ATOM      7  C   UNL     1       4.385  -0.521   0.000  0.00  0.00    +0.000 A 
ATOM      8  C   UNL     1       5.099  -1.758   0.000  0.00  0.00    +0.000 A 
ATOM      9  C   UNL     1       4.385  -1.346   0.000  0.00  0.00    +0.000 A 
ENDROOT
BRANCH   2  10
ATOM     10  C   UNL     1       6.851   0.515   0.000  0.00  0.00    +0.000 C 
BRANCH  10  11
ATOM     11  C   UNL     1       7.658   0.685   0.000  0.00  0.00    +0.000 C 
BRANCH  11  12
ATOM     12  N   UNL     1       7.914   1.469   0.000  0.00  0.00    +0.000 NA
ATOM     13  C   UNL     1       7.363   2.083   0.000  0.00  0.00    +0.000 C 
ATOM     14  C   UNL     1       8.722   1.639   0.000  0.00  0.00    +0.000 C 
ENDBRANCH  11  12
ENDBRANCH  10  11
ENDBRANCH   2  10
BRANCH   7  15
ATOM     15  C   UNL     1       3.670  -0.108   0.000  0.00  0.00    +0.000 C 
BRANCH  15  16
ATOM     16  N   UNL     1       2.956  -0.521   0.000  0.00  0.00    +0.000 N 
ATOM     17  N   UNL     1       2.869  -1.341   0.000  0.00  0.00    +0.000 NA
ATOM     18  N   UNL     1       1.650  -0.798   0.000  0.00  0.00    +0.000 NA
ATOM     19  C   UNL     1       2.202  -0.185   0.000  0.00  0.00    +0.000 A 
ATOM     20  C   UNL     1       2.062  -1.513   0.000  0.00  0.00    +0.000 A 
ENDBRANCH  15  16
ENDBRANCH   7  15
TORSDOF 5
