REMARK  Name = 956
REMARK  1 active torsions:
REMARK  status: ('A' for Active; 'I' for Inactive)
REMARK    1  A    between atoms: O_3  and  C_20
REMARK                            x       y       z     vdW  Elec       q    Type
REMARK                         _______ _______ _______ _____ _____    ______ ____
ROOT
ATOM      1  O   UNL     1       1.936  -0.388   0.000  0.00  0.00    +0.000 OA
ATOM      2  O   UNL     1       1.735  -2.518   0.000  0.00  0.00    +0.000 OA
ATOM      3  N   UNL     1       5.344  -1.259   0.000  0.00  0.00    +0.000 NA
ATOM      4  C   UNL     1       3.201  -0.846   0.000  0.00  0.00    +0.000 C 
ATOM      5  C   UNL     1       3.915  -1.259   0.000  0.00  0.00    +0.000 C 
ATOM      6  C   UNL     1       4.630  -0.846   0.000  0.00  0.00    +0.000 C 
ATOM      7  C   UNL     1       2.486  -1.259   0.000  0.00  0.00    +0.000 C 
ATOM      8  C   UNL     1       3.677  -0.241   0.000  0.00  0.00    +0.000 C 
ATOM      9  C   UNL     1       3.201  -0.021   0.000  0.00  0.00    +0.000 A 
ATOM     10  C   UNL     1       3.915  -2.084   0.000  0.00  0.00    +0.000 C 
ATOM     11  C   UNL     1       4.630  -0.021   0.000  0.00  0.00    +0.000 C 
ATOM     12  C   UNL     1       4.851  -0.241   0.000  0.00  0.00    +0.000 C 
ATOM     13  C   UNL     1       3.915   0.391   0.000  0.00  0.00    +0.000 A 
ATOM     14  C   UNL     1       3.201  -2.496   0.000  0.00  0.00    +0.000 C 
ATOM     15  C   UNL     1       2.486  -2.084   0.000  0.00  0.00    +0.000 C 
ATOM     16  C   UNL     1       2.486   0.391   0.000  0.00  0.00    +0.000 A 
ATOM     17  C   UNL     1       5.935  -1.894   0.000  0.00  0.00    +0.000 C 
ATOM     18  C   UNL     1       3.915   1.216   0.000  0.00  0.00    +0.000 A 
ATOM     19  C   UNL     1       2.486   1.216   0.000  0.00  0.00    +0.000 A 
ATOM     20  C   UNL     1       3.201   1.629   0.000  0.00  0.00    +0.000 A 
ENDROOT
BRANCH  19  21
ATOM     21  O   UNL     1       1.735   1.650   0.000  0.00  0.00    +0.000 OA
ATOM     22  C   UNL     1       1.735   2.518   0.000  0.00  0.00    +0.000 C 
ENDBRANCH  19  21
TORSDOF 1
