REMARK  Name = 959
REMARK  5 active torsions:
REMARK  status: ('A' for Active; 'I' for Inactive)
REMARK    1  A    between atoms: C_2  and  C_4
REMARK    2  A    between atoms: C_4  and  N_5
REMARK    3  A    between atoms: C_6  and  O_8
REMARK    4  A    between atoms: O_8  and  C_9
REMARK    5  A    between atoms: C_9  and  C_10
REMARK                            x       y       z     vdW  Elec       q    Type
REMARK                         _______ _______ _______ _____ _____    ______ ____
ROOT
ATOM      1  O   UNL     1       0.092   0.128   0.000  0.00  0.00    +0.000 OA
ENDROOT
BRANCH   1   3
ATOM      2  N   UNL     1      -1.337   0.128   0.000  0.00  0.00    +0.000 NA
ATOM      3  C   UNL     1      -0.622   0.541   0.000  0.00  0.00    +0.000 C 
ATOM      4  O   UNL     1      -0.622   1.366   0.000  0.00  0.00    +0.000 OA
BRANCH   2   5
ATOM      5  C   UNL     1      -2.051   0.541   0.000  0.00  0.00    +0.000 C 
BRANCH   5   7
ATOM      6  O   UNL     1      -3.480   0.541   0.000  0.00  0.00    +0.000 OA
ATOM      7  C   UNL     1      -2.766   0.128   0.000  0.00  0.00    +0.000 C 
ATOM      8  C   UNL     1      -2.766  -0.697   0.000  0.00  0.00    +0.000 C 
ENDBRANCH   5   7
ENDBRANCH   2   5
ENDBRANCH   1   3
BRANCH   1   9
ATOM      9  C   UNL     1       0.807   0.541   0.000  0.00  0.00    +0.000 C 
BRANCH   9  10
ATOM     10  C   UNL     1       1.521   0.128   0.000  0.00  0.00    +0.000 A 
ATOM     11  C   UNL     1       2.236   0.541   0.000  0.00  0.00    +0.000 A 
ATOM     12  C   UNL     1       2.950   0.128   0.000  0.00  0.00    +0.000 A 
ATOM     13  C   UNL     1       2.950  -0.697   0.000  0.00  0.00    +0.000 A 
ATOM     14  C   UNL     1       2.236  -1.109   0.000  0.00  0.00    +0.000 A 
ATOM     15  C   UNL     1       1.521  -0.697   0.000  0.00  0.00    +0.000 A 
ENDBRANCH   9  10
ENDBRANCH   1   9
TORSDOF 5
