REMARK  Name = 960
REMARK  6 active torsions:
REMARK  status: ('A' for Active; 'I' for Inactive)
REMARK    1  A    between atoms: O_1  and  C_8
REMARK    2  A    between atoms: O_1  and  C_10
REMARK    3  A    between atoms: N_3  and  C_6
REMARK    4  A    between atoms: N_3  and  C_7
REMARK    5  A    between atoms: C_5  and  C_6
REMARK    6  A    between atoms: C_5  and  C_8
REMARK                            x       y       z     vdW  Elec       q    Type
REMARK                         _______ _______ _______ _____ _____    ______ ____
ROOT
ATOM      1  O   UNL     1       4.508  -0.456   0.000  0.00  0.00    +0.000 OA
ENDROOT
BRANCH   1   4
ATOM      2  N   UNL     1       6.003  -2.770   0.000  0.00  0.00    +0.000 NA
ATOM      3  C   UNL     1       5.222  -1.694   0.000  0.00  0.00    +0.000 A 
ATOM      4  C   UNL     1       4.508  -1.281   0.000  0.00  0.00    +0.000 A 
ATOM      5  C   UNL     1       5.222  -2.519   0.000  0.00  0.00    +0.000 A 
ATOM      6  C   UNL     1       6.003  -1.442   0.000  0.00  0.00    +0.000 A 
ATOM      7  C   UNL     1       3.793  -1.694   0.000  0.00  0.00    +0.000 A 
ATOM      8  C   UNL     1       4.508  -2.931   0.000  0.00  0.00    +0.000 A 
ATOM      9  C   UNL     1       6.485  -2.106   0.000  0.00  0.00    +0.000 A 
ATOM     10  C   UNL     1       3.793  -2.519   0.000  0.00  0.00    +0.000 A 
ENDBRANCH   1   4
BRANCH   1  11
ATOM     11  C   UNL     1       3.793  -0.044   0.000  0.00  0.00    +0.000 C 
BRANCH  11  13
ATOM     12  O   UNL     1       4.508   1.194   0.000  0.00  0.00    +0.000 OA
ATOM     13  C   UNL     1       3.793   0.781   0.000  0.00  0.00    +0.000 C 
BRANCH  13  14
ATOM     14  C   UNL     1       3.079   1.194   0.000  0.00  0.00    +0.000 C 
BRANCH  14  15
ATOM     15  N   UNL     1       3.079   2.019   0.000  0.00  0.00    +0.000 NA
BRANCH  15  16
ATOM     16  C   UNL     1       2.365   2.431   0.000  0.00  0.00    +0.000 C 
ATOM     17  C   UNL     1       2.365   3.256   0.000  0.00  0.00    +0.000 C 
ATOM     18  C   UNL     1       1.650   2.019   0.000  0.00  0.00    +0.000 C 
ENDBRANCH  15  16
ENDBRANCH  14  15
ENDBRANCH  13  14
ENDBRANCH  11  13
ENDBRANCH   1  11
TORSDOF 6
