REMARK  Name = 962
REMARK  4 active torsions:
REMARK  status: ('A' for Active; 'I' for Inactive)
REMARK    1  A    between atoms: N_2  and  C_8
REMARK    2  A    between atoms: N_2  and  C_11
REMARK    3  A    between atoms: C_7  and  C_9
REMARK    4  A    between atoms: C_19  and  C_23
REMARK                            x       y       z     vdW  Elec       q    Type
REMARK                         _______ _______ _______ _____ _____    ______ ____
ROOT
ATOM      1  C   UNL     1       2.365   0.497   0.000  0.00  0.00    +0.000 A 
ATOM      2  C   UNL     1       3.079   1.735   0.000  0.00  0.00    +0.000 A 
ATOM      3  C   UNL     1       3.079   0.910   0.000  0.00  0.00    +0.000 A 
ATOM      4  C   UNL     1       1.650   0.910   0.000  0.00  0.00    +0.000 A 
ATOM      5  C   UNL     1       2.365   2.147   0.000  0.00  0.00    +0.000 A 
ATOM      6  C   UNL     1       1.650   1.735   0.000  0.00  0.00    +0.000 A 
ENDROOT
BRANCH   1  10
ATOM      7  N   UNL     1       3.079  -0.740   0.000  0.00  0.00    +0.000 N 
ATOM      8  N   UNL     1       3.860  -0.489   0.000  0.00  0.00    +0.000 NA
ATOM      9  N   UNL     1       2.365  -1.978   0.000  0.00  0.00    +0.000 NA
ATOM     10  C   UNL     1       2.365  -0.328   0.000  0.00  0.00    +0.000 A 
ATOM     11  C   UNL     1       3.079  -1.565   0.000  0.00  0.00    +0.000 A 
ATOM     12  C   UNL     1       1.650  -0.740   0.000  0.00  0.00    +0.000 A 
ATOM     13  C   UNL     1       3.860  -1.817   0.000  0.00  0.00    +0.000 A 
ATOM     14  C   UNL     1       1.650  -1.565   0.000  0.00  0.00    +0.000 A 
ATOM     15  C   UNL     1       4.341  -1.153   0.000  0.00  0.00    +0.000 A 
BRANCH  13  17
ATOM     16  N   UNL     1       4.372  -3.385   0.000  0.00  0.00    +0.000 NA
ATOM     17  C   UNL     1       4.116  -2.601   0.000  0.00  0.00    +0.000 C 
ENDBRANCH  13  17
ENDBRANCH   1  10
BRANCH   2  19
ATOM     18  O   UNL     1       3.079   3.385   0.000  0.00  0.00    +0.000 OA
ATOM     19  N   UNL     1       3.793   2.147   0.000  0.00  0.00    +0.000 N 
ATOM     20  C   UNL     1       3.793   2.973   0.000  0.00  0.00    +0.000 C 
ATOM     21  C   UNL     1       4.508   3.385   0.000  0.00  0.00    +0.000 C 
BRANCH  19  22
ATOM     22  C   UNL     1       4.508   1.735   0.000  0.00  0.00    +0.000 C 
ATOM     23  C   UNL     1       5.222   2.147   0.000  0.00  0.00    +0.000 C 
ENDBRANCH  19  22
ENDBRANCH   2  19
TORSDOF 4
