REMARK  Name = 963
REMARK  4 active torsions:
REMARK  status: ('A' for Active; 'I' for Inactive)
REMARK    1  A    between atoms: C_6  and  C_9
REMARK    2  A    between atoms: C_7  and  C_11
REMARK    3  A    between atoms: C_9  and  C_17
REMARK    4  A    between atoms: C_11  and  C_13
REMARK                            x       y       z     vdW  Elec       q    Type
REMARK                         _______ _______ _______ _____ _____    ______ ____
ROOT
ATOM      1  N   UNL     1       5.937   1.110   0.000  0.00  0.00    +0.000 NA
ATOM      2  C   UNL     1       6.652  -0.128   0.000  0.00  0.00    +0.000 A 
ATOM      3  C   UNL     1       5.222  -0.128   0.000  0.00  0.00    +0.000 A 
ATOM      4  C   UNL     1       5.937   0.285   0.000  0.00  0.00    +0.000 A 
ATOM      5  C   UNL     1       6.652  -0.953   0.000  0.00  0.00    +0.000 A 
ATOM      6  C   UNL     1       5.222  -0.953   0.000  0.00  0.00    +0.000 A 
ATOM      7  C   UNL     1       5.937  -1.365   0.000  0.00  0.00    +0.000 A 
ENDROOT
BRANCH   3   9
ATOM      8  O   UNL     1       4.508   1.110   0.000  0.00  0.00    +0.000 OA
ATOM      9  C   UNL     1       4.508   0.285   0.000  0.00  0.00    +0.000 C 
BRANCH   9  11
ATOM     10 BR   UNL     1       1.650  -1.365   0.000  0.00  0.00    +0.000 Br
ATOM     11  C   UNL     1       3.793  -0.128   0.000  0.00  0.00    +0.000 A 
ATOM     12  C   UNL     1       3.793  -0.953   0.000  0.00  0.00    +0.000 A 
ATOM     13  C   UNL     1       3.079   0.285   0.000  0.00  0.00    +0.000 A 
ATOM     14  C   UNL     1       3.079  -1.365   0.000  0.00  0.00    +0.000 A 
ATOM     15  C   UNL     1       2.365  -0.128   0.000  0.00  0.00    +0.000 A 
ATOM     16  C   UNL     1       2.365  -0.953   0.000  0.00  0.00    +0.000 A 
ENDBRANCH   9  11
ENDBRANCH   3   9
BRANCH   2  17
ATOM     17  C   UNL     1       7.366   0.285   0.000  0.00  0.00    +0.000 C 
BRANCH  17  20
ATOM     18  O   UNL     1       8.795   0.285   0.000  0.00  0.00    +0.000 OA
ATOM     19  O   UNL     1       8.080  -0.953   0.000  0.00  0.00    +0.000 OA
ATOM     20  C   UNL     1       8.080  -0.128   0.000  0.00  0.00    +0.000 C 
ENDBRANCH  17  20
ENDBRANCH   2  17
TORSDOF 4
