REMARK  Name = 964
REMARK  1 active torsions:
REMARK  status: ('A' for Active; 'I' for Inactive)
REMARK    1  A    between atoms: N_4  and  C_10
REMARK                            x       y       z     vdW  Elec       q    Type
REMARK                         _______ _______ _______ _____ _____    ______ ____
ROOT
ATOM      1 CL   UNL     1       1.650   0.165   0.000  0.00  0.00    +0.000 Cl
ATOM      2 CL   UNL     1       4.508   0.165   0.000  0.00  0.00    +0.000 Cl
ATOM      3  N   UNL     1       3.079  -2.310   0.000  0.00  0.00    +0.000 NA
ATOM      4  C   UNL     1       3.079   0.165   0.000  0.00  0.00    +0.000 A 
ATOM      5  C   UNL     1       2.365  -0.247   0.000  0.00  0.00    +0.000 A 
ATOM      6  C   UNL     1       3.793  -0.247   0.000  0.00  0.00    +0.000 A 
ATOM      7  C   UNL     1       3.079  -1.485   0.000  0.00  0.00    +0.000 A 
ATOM      8  C   UNL     1       2.365  -1.072   0.000  0.00  0.00    +0.000 A 
ATOM      9  C   UNL     1       3.793  -1.072   0.000  0.00  0.00    +0.000 A 
ENDROOT
BRANCH   4  11
ATOM     10  N   UNL     1       3.880   2.223   0.000  0.00  0.00    +0.000 NA
ATOM     11  N   UNL     1       3.079   0.990   0.000  0.00  0.00    +0.000 NA
ATOM     12  N   UNL     1       4.547   1.067   0.000  0.00  0.00    +0.000 NA
ATOM     13  C   UNL     1       4.687   2.395   0.000  0.00  0.00    +0.000 C 
ATOM     14  C   UNL     1       5.099   1.680   0.000  0.00  0.00    +0.000 C 
ATOM     15  C   UNL     1       3.793   1.403   0.000  0.00  0.00    +0.000 C 
ENDBRANCH   4  11
TORSDOF 1
