REMARK  Name = 966
REMARK  7 active torsions:
REMARK  status: ('A' for Active; 'I' for Inactive)
REMARK    1  A    between atoms: N_3  and  C_10
REMARK    2  A    between atoms: C_8  and  C_11
REMARK    3  A    between atoms: C_10  and  C_17
REMARK    4  A    between atoms: C_11  and  C_18
REMARK    5  A    between atoms: C_12  and  C_16
REMARK    6  A    between atoms: C_26  and  C_31
REMARK    7  A    between atoms: C_34  and  C_39
REMARK                            x       y       z     vdW  Elec       q    Type
REMARK                         _______ _______ _______ _____ _____    ______ ____
ROOT
ATOM      1  N   UNL     1       7.111  -0.857   0.000  0.00  0.00    +0.000 N 
ATOM      2  N   UNL     1       7.111  -2.185   0.000  0.00  0.00    +0.000 NA
ATOM      3  C   UNL     1       6.330  -1.108   0.000  0.00  0.00    +0.000 A 
ATOM      4  C   UNL     1       7.593  -1.521   0.000  0.00  0.00    +0.000 A 
ATOM      5  C   UNL     1       6.330  -1.933   0.000  0.00  0.00    +0.000 A 
ATOM      6  C   UNL     1       4.901  -1.108   0.000  0.00  0.00    +0.000 A 
ATOM      7  C   UNL     1       5.616  -0.696   0.000  0.00  0.00    +0.000 A 
ATOM      8  C   UNL     1       5.616  -2.346   0.000  0.00  0.00    +0.000 A 
ATOM      9  C   UNL     1       4.901  -1.933   0.000  0.00  0.00    +0.000 A 
ATOM     10  C   UNL     1       5.616  -3.171   0.000  0.00  0.00    +0.000 C 
ENDROOT
BRANCH   6  13
ATOM     11  N   UNL     1       3.438  -1.030   0.000  0.00  0.00    +0.000 N 
ATOM     12  N   UNL     1       4.102   0.120   0.000  0.00  0.00    +0.000 NA
ATOM     13  C   UNL     1       4.187  -0.696   0.000  0.00  0.00    +0.000 A 
ATOM     14  C   UNL     1       2.888  -0.422   0.000  0.00  0.00    +0.000 A 
ATOM     15  C   UNL     1       3.300   0.292   0.000  0.00  0.00    +0.000 A 
ATOM     16  C   UNL     1       3.268  -1.837   0.000  0.00  0.00    +0.000 C 
ATOM     17  C   UNL     1       2.062  -0.422   0.000  0.00  0.00    +0.000 A 
ATOM     18  C   UNL     1       2.888   1.007   0.000  0.00  0.00    +0.000 A 
ATOM     19  C   UNL     1       1.650   0.292   0.000  0.00  0.00    +0.000 A 
ATOM     20  C   UNL     1       2.062   1.007   0.000  0.00  0.00    +0.000 A 
ENDBRANCH   6  13
BRANCH   1  21
ATOM     21  C   UNL     1       7.367  -0.073   0.000  0.00  0.00    +0.000 C 
BRANCH  21  22
ATOM     22  C   UNL     1       8.175   0.097   0.000  0.00  0.00    +0.000 A 
ATOM     23  C   UNL     1       8.431   0.881   0.000  0.00  0.00    +0.000 A 
ATOM     24  C   UNL     1       8.726  -0.517   0.000  0.00  0.00    +0.000 A 
ATOM     25  C   UNL     1       9.789   0.438   0.000  0.00  0.00    +0.000 A 
ATOM     26  C   UNL     1       9.238   1.052   0.000  0.00  0.00    +0.000 A 
ATOM     27  C   UNL     1       9.533  -0.347   0.000  0.00  0.00    +0.000 A 
BRANCH  25  28
ATOM     28  C   UNL     1      10.597   0.608   0.000  0.00  0.00    +0.000 A 
ATOM     29  C   UNL     1      10.853   1.392   0.000  0.00  0.00    +0.000 A 
ATOM     30  C   UNL     1      11.147  -0.006   0.000  0.00  0.00    +0.000 A 
ATOM     31  C   UNL     1      11.660   1.562   0.000  0.00  0.00    +0.000 A 
ATOM     32  C   UNL     1      11.955   0.164   0.000  0.00  0.00    +0.000 A 
ATOM     33  C   UNL     1      12.211   0.948   0.000  0.00  0.00    +0.000 A 
BRANCH  29  36
ATOM     34  O   UNL     1      10.558   2.790   0.000  0.00  0.00    +0.000 OA
ATOM     35  O   UNL     1       9.495   1.836   0.000  0.00  0.00    +0.000 OA
ATOM     36  C   UNL     1      10.302   2.006   0.000  0.00  0.00    +0.000 C 
ENDBRANCH  29  36
ENDBRANCH  25  28
ENDBRANCH  21  22
ENDBRANCH   1  21
BRANCH   4  37
ATOM     37  C   UNL     1       8.418  -1.521   0.000  0.00  0.00    +0.000 C 
BRANCH  37  38
ATOM     38  C   UNL     1       8.830  -2.235   0.000  0.00  0.00    +0.000 C 
ATOM     39  C   UNL     1       9.655  -2.235   0.000  0.00  0.00    +0.000 C 
ENDBRANCH  37  38
ENDBRANCH   4  37
TORSDOF 7
