REMARK  Name = 967
REMARK  0 active torsions:
REMARK  status: ('A' for Active; 'I' for Inactive)
REMARK                            x       y       z     vdW  Elec       q    Type
REMARK                         _______ _______ _______ _____ _____    ______ ____
ROOT
ATOM      1 CL   UNL     1       1.650   1.684   0.000  0.00  0.00    +0.000 Cl
ATOM      2  N   UNL     1       4.816  -1.885   0.000  0.00  0.00    +0.000 NA
ATOM      3  N   UNL     1       6.180   0.353   0.000  0.00  0.00    +0.000 NA
ATOM      4  C   UNL     1       4.816  -0.235   0.000  0.00  0.00    +0.000 C 
ATOM      5  C   UNL     1       4.816   0.590   0.000  0.00  0.00    +0.000 C 
ATOM      6  C   UNL     1       4.101  -0.648   0.000  0.00  0.00    +0.000 C 
ATOM      7  C   UNL     1       5.530  -0.648   0.000  0.00  0.00    +0.000 C 
ATOM      8  C   UNL     1       4.101  -1.473   0.000  0.00  0.00    +0.000 C 
ATOM      9  C   UNL     1       5.530  -1.473   0.000  0.00  0.00    +0.000 C 
ATOM     10  C   UNL     1       4.073   0.948   0.000  0.00  0.00    +0.000 A 
ATOM     11  C   UNL     1       5.559   0.948   0.000  0.00  0.00    +0.000 A 
ATOM     12  C   UNL     1       4.403   2.397   0.000  0.00  0.00    +0.000 C 
ATOM     13  C   UNL     1       3.889   1.752   0.000  0.00  0.00    +0.000 A 
ATOM     14  C   UNL     1       5.228   2.397   0.000  0.00  0.00    +0.000 C 
ATOM     15  C   UNL     1       5.743   1.752   0.000  0.00  0.00    +0.000 A 
ATOM     16  C   UNL     1       3.452   0.353   0.000  0.00  0.00    +0.000 A 
ATOM     17  C   UNL     1       3.072   2.018   0.000  0.00  0.00    +0.000 A 
ATOM     18  C   UNL     1       6.560   2.018   0.000  0.00  0.00    +0.000 A 
ATOM     19  C   UNL     1       2.629   0.600   0.000  0.00  0.00    +0.000 A 
ATOM     20  C   UNL     1       2.437   1.438   0.000  0.00  0.00    +0.000 A 
ATOM     21  C   UNL     1       7.194   1.438   0.000  0.00  0.00    +0.000 A 
ATOM     22  C   UNL     1       7.003   0.600   0.000  0.00  0.00    +0.000 A 
ENDROOT
TORSDOF 0
