REMARK  Name = 968
REMARK  4 active torsions:
REMARK  status: ('A' for Active; 'I' for Inactive)
REMARK    1  A    between atoms: C_2  and  C_4
REMARK    2  A    between atoms: N_6  and  C_7
REMARK    3  A    between atoms: N_6  and  C_16
REMARK    4  A    between atoms: C_12  and  C_13
REMARK                            x       y       z     vdW  Elec       q    Type
REMARK                         _______ _______ _______ _____ _____    ______ ____
ROOT
ATOM      1  C   UNL     1       0.873  -0.993   0.000  0.00  0.00    +0.000 C 
ATOM      2  O   UNL     1       1.587  -0.580   0.000  0.00  0.00    +0.000 OA
ATOM      3  N   UNL     1       0.158  -0.580   0.000  0.00  0.00    +0.000 N 
ENDROOT
BRANCH   3   4
ATOM      4  C   UNL     1       0.158   0.245   0.000  0.00  0.00    +0.000 A 
ATOM      5  C   UNL     1      -0.556   0.657   0.000  0.00  0.00    +0.000 A 
ATOM      6  C   UNL     1      -0.556   1.482   0.000  0.00  0.00    +0.000 A 
ATOM      7  C   UNL     1       0.158   1.895   0.000  0.00  0.00    +0.000 A 
ATOM      8  C   UNL     1       0.873   1.482   0.000  0.00  0.00    +0.000 A 
ATOM      9  C   UNL     1       1.587   1.895   0.000  0.00  0.00    +0.000 A 
ATOM     10  C   UNL     1       2.302   1.482   0.000  0.00  0.00    +0.000 A 
ATOM     11  C   UNL     1       2.302   0.657   0.000  0.00  0.00    +0.000 A 
ATOM     12  O   UNL     1       3.016   0.245   0.000  0.00  0.00    +0.000 OA
ATOM     13  C   UNL     1       1.587   0.245   0.000  0.00  0.00    +0.000 A 
ATOM     14  C   UNL     1       0.873   0.657   0.000  0.00  0.00    +0.000 A 
ENDBRANCH   3   4
BRANCH   3  15
ATOM     15  C   UNL     1      -0.556  -0.993   0.000  0.00  0.00    +0.000 A 
ATOM     16  C   UNL     1      -0.556  -1.818   0.000  0.00  0.00    +0.000 A 
ATOM     17  C   UNL     1      -1.271  -2.230   0.000  0.00  0.00    +0.000 A 
ATOM     18  C   UNL     1      -1.985  -1.818   0.000  0.00  0.00    +0.000 A 
ATOM     19  C   UNL     1      -1.985  -0.993   0.000  0.00  0.00    +0.000 A 
ATOM     20  C   UNL     1      -1.271  -0.580   0.000  0.00  0.00    +0.000 A 
BRANCH  20  21
ATOM     21  C   UNL     1      -1.271   0.245   0.000  0.00  0.00    +0.000 C 
ATOM     22  O   UNL     1      -1.985   0.657   0.000  0.00  0.00    +0.000 OA
ATOM     23  O   UNL     1      -0.935   0.998   0.000  0.00  0.00    +0.000 OA
ENDBRANCH  20  21
ENDBRANCH   3  15
BRANCH   1  25
ATOM     24  O   UNL     1       0.158  -2.230   0.000  0.00  0.00    +0.000 OA
ATOM     25  C   UNL     1       0.873  -1.818   0.000  0.00  0.00    +0.000 C 
ATOM     26  O   UNL     1       1.587  -2.230   0.000  0.00  0.00    +0.000 OA
ENDBRANCH   1  25
TORSDOF 4
