REMARK  Name = 969
REMARK  2 active torsions:
REMARK  status: ('A' for Active; 'I' for Inactive)
REMARK    1  A    between atoms: N_2  and  C_13
REMARK    2  A    between atoms: C_13  and  C_17
REMARK                            x       y       z     vdW  Elec       q    Type
REMARK                         _______ _______ _______ _____ _____    ______ ____
ROOT
ATOM      1  O   UNL     1       4.271  -1.669   0.000  0.00  0.00    +0.000 OA
ATOM      2  N   UNL     1       5.333  -0.753   0.000  0.00  0.00    +0.000 N 
ATOM      3  N   UNL     1       3.586   0.922   0.000  0.00  0.00    +0.000 N 
ATOM      4  C   UNL     1       4.227   0.457   0.000  0.00  0.00    +0.000 A 
ATOM      5  C   UNL     1       5.031   0.640   0.000  0.00  0.00    +0.000 C 
ATOM      6  C   UNL     1       3.982  -0.297   0.000  0.00  0.00    +0.000 A 
ATOM      7  C   UNL     1       5.588   0.032   0.000  0.00  0.00    +0.000 C 
ATOM      8  C   UNL     1       3.190  -0.297   0.000  0.00  0.00    +0.000 A 
ATOM      9  C   UNL     1       2.945   0.457   0.000  0.00  0.00    +0.000 A 
ATOM     10  C   UNL     1       4.524  -0.918   0.000  0.00  0.00    +0.000 C 
ATOM     11  C   UNL     1       3.586   1.714   0.000  0.00  0.00    +0.000 C 
ATOM     12  C   UNL     1       2.647  -0.918   0.000  0.00  0.00    +0.000 A 
ATOM     13  C   UNL     1       2.141   0.640   0.000  0.00  0.00    +0.000 A 
ATOM     14  C   UNL     1       1.839  -0.753   0.000  0.00  0.00    +0.000 A 
ATOM     15  C   UNL     1       1.584   0.032   0.000  0.00  0.00    +0.000 A 
ENDROOT
BRANCH   2  16
ATOM     16  C   UNL     1       5.860  -1.344   0.000  0.00  0.00    +0.000 C 
BRANCH  16  19
ATOM     17  N   UNL     1       7.222  -1.714   0.000  0.00  0.00    +0.000 NA
ATOM     18  N   UNL     1       7.748  -0.545   0.000  0.00  0.00    +0.000 NA
ATOM     19  C   UNL     1       6.636  -1.182   0.000  0.00  0.00    +0.000 A 
ATOM     20  C   UNL     1       6.961  -0.460   0.000  0.00  0.00    +0.000 A 
ATOM     21  C   UNL     1       6.567   0.228   0.000  0.00  0.00    +0.000 C 
ATOM     22  C   UNL     1       7.910  -1.321   0.000  0.00  0.00    +0.000 A 
ENDBRANCH  16  19
ENDBRANCH   2  16
TORSDOF 2
