REMARK  Name = 972
REMARK  3 active torsions:
REMARK  status: ('A' for Active; 'I' for Inactive)
REMARK    1  A    between atoms: N_4  and  C_6
REMARK    2  A    between atoms: C_15  and  C_17
REMARK    3  A    between atoms: C_17  and  C_20
REMARK                            x       y       z     vdW  Elec       q    Type
REMARK                         _______ _______ _______ _____ _____    ______ ____
ROOT
ATOM      1  O   UNL     1       4.903   1.916   0.000  0.00  0.00    +0.000 OA
ATOM      2  N   UNL     1       4.188   0.679   0.000  0.00  0.00    +0.000 N 
ATOM      3  N   UNL     1       4.188  -0.146   0.000  0.00  0.00    +0.000 NA
ATOM      4  C   UNL     1       4.903   1.091   0.000  0.00  0.00    +0.000 A 
ATOM      5  C   UNL     1       5.617   0.679   0.000  0.00  0.00    +0.000 A 
ATOM      6  C   UNL     1       4.903  -0.559   0.000  0.00  0.00    +0.000 A 
ATOM      7  C   UNL     1       5.617  -0.146   0.000  0.00  0.00    +0.000 A 
ATOM      8  C   UNL     1       6.355   1.120   0.000  0.00  0.00    +0.000 A 
ATOM      9  C   UNL     1       6.355  -0.587   0.000  0.00  0.00    +0.000 A 
ATOM     10  C   UNL     1       7.102   0.696   0.000  0.00  0.00    +0.000 A 
ATOM     11  C   UNL     1       7.102  -0.163   0.000  0.00  0.00    +0.000 A 
ENDROOT
BRANCH   2  13
ATOM     12  N   UNL     1       2.115   2.352   0.000  0.00  0.00    +0.000 NA
ATOM     13  C   UNL     1       3.474   1.091   0.000  0.00  0.00    +0.000 C 
ATOM     14  C   UNL     1       2.792   0.626   0.000  0.00  0.00    +0.000 C 
ATOM     15  C   UNL     1       3.535   1.914   0.000  0.00  0.00    +0.000 C 
ATOM     16  C   UNL     1       2.004   0.870   0.000  0.00  0.00    +0.000 C 
ATOM     17  C   UNL     1       2.931   2.475   0.000  0.00  0.00    +0.000 C 
ATOM     18  C   UNL     1       1.702   1.638   0.000  0.00  0.00    +0.000 C 
ATOM     19  C   UNL     1       1.650   3.034   0.000  0.00  0.00    +0.000 C 
ENDBRANCH   2  13
BRANCH   6  20
ATOM     20  C   UNL     1       4.903  -1.384   0.000  0.00  0.00    +0.000 C 
BRANCH  20  22
ATOM     21 CL   UNL     1       2.045  -3.034   0.000  0.00  0.00    +0.000 Cl
ATOM     22  C   UNL     1       4.188  -1.796   0.000  0.00  0.00    +0.000 A 
ATOM     23  C   UNL     1       4.188  -2.621   0.000  0.00  0.00    +0.000 A 
ATOM     24  C   UNL     1       3.474  -1.384   0.000  0.00  0.00    +0.000 A 
ATOM     25  C   UNL     1       3.474  -3.034   0.000  0.00  0.00    +0.000 A 
ATOM     26  C   UNL     1       2.759  -1.796   0.000  0.00  0.00    +0.000 A 
ATOM     27  C   UNL     1       2.759  -2.621   0.000  0.00  0.00    +0.000 A 
ENDBRANCH  20  22
ENDBRANCH   6  20
TORSDOF 3
