REMARK  Name = 973
REMARK  2 active torsions:
REMARK  status: ('A' for Active; 'I' for Inactive)
REMARK    1  A    between atoms: C_10  and  C_11
REMARK    2  A    between atoms: C_14  and  C_18
REMARK                            x       y       z     vdW  Elec       q    Type
REMARK                         _______ _______ _______ _____ _____    ______ ____
ROOT
ATOM      1  C   UNL     1      -0.091  -0.391   0.000  0.00  0.00    +0.000 C 
ATOM      2  C   UNL     1       0.624   0.022   0.000  0.00  0.00    +0.000 C 
ATOM      3  C   UNL     1       0.710   0.842   0.000  0.00  0.00    +0.000 C 
ATOM      4  C   UNL     1       1.517   1.014   0.000  0.00  0.00    +0.000 C 
ATOM      5  C   UNL     1       1.929   0.299   0.000  0.00  0.00    +0.000 C 
ATOM      6  O   UNL     1       2.750   0.213   0.000  0.00  0.00    +0.000 OA
ATOM      7  O   UNL     1       1.377  -0.314   0.000  0.00  0.00    +0.000 OA
ATOM      8  O   UNL     1       0.097   1.394   0.000  0.00  0.00    +0.000 OA
ENDROOT
BRANCH   1  18
ATOM      9  C   UNL     1      -2.234  -2.453   0.000  0.00  0.00    +0.000 A 
ATOM     10  C   UNL     1      -2.234  -1.628   0.000  0.00  0.00    +0.000 A 
ATOM     11  C   UNL     1      -1.520  -1.216   0.000  0.00  0.00    +0.000 A 
ATOM     12  C   UNL     1      -0.805  -1.628   0.000  0.00  0.00    +0.000 A 
ATOM     13  C   UNL     1      -0.805  -2.453   0.000  0.00  0.00    +0.000 A 
ATOM     14  C   UNL     1      -1.520  -2.866   0.000  0.00  0.00    +0.000 A 
ATOM     15  C   UNL     1      -0.091  -2.866   0.000  0.00  0.00    +0.000 A 
ATOM     16  C   UNL     1       0.624  -2.453   0.000  0.00  0.00    +0.000 A 
ATOM     17  C   UNL     1       0.624  -1.628   0.000  0.00  0.00    +0.000 A 
ATOM     18  C   UNL     1      -0.091  -1.216   0.000  0.00  0.00    +0.000 A 
ENDBRANCH   1  18
BRANCH   4  19
ATOM     19  C   UNL     1       1.852   1.768   0.000  0.00  0.00    +0.000 A 
ATOM     20  C   UNL     1       1.367   2.435   0.000  0.00  0.00    +0.000 A 
ATOM     21  C   UNL     1       1.703   3.189   0.000  0.00  0.00    +0.000 A 
ATOM     22  C   UNL     1       2.523   3.275   0.000  0.00  0.00    +0.000 A 
ATOM     23  C   UNL     1       3.008   2.607   0.000  0.00  0.00    +0.000 A 
ATOM     24  C   UNL     1       2.673   1.854   0.000  0.00  0.00    +0.000 A 
ATOM     25 CL   UNL     1       2.859   4.029   0.000  0.00  0.00    +0.000 Cl
ENDBRANCH   4  19
TORSDOF 2
