REMARK  Name = 975
REMARK  8 active torsions:
REMARK  status: ('A' for Active; 'I' for Inactive)
REMARK    1  A    between atoms: N_11  and  C_29
REMARK    2  A    between atoms: N_11  and  C_30
REMARK    3  A    between atoms: N_12  and  C_31
REMARK    4  A    between atoms: N_12  and  C_32
REMARK    5  A    between atoms: C_29  and  C_33
REMARK    6  A    between atoms: C_30  and  C_34
REMARK    7  A    between atoms: C_31  and  C_35
REMARK    8  A    between atoms: C_32  and  C_36
REMARK                            x       y       z     vdW  Elec       q    Type
REMARK                         _______ _______ _______ _____ _____    ______ ____
ROOT
ATOM      1  N   UNL     1       7.108  -1.664   0.000  0.00  0.00    +0.000 N 
ATOM      2  N   UNL     1       5.665   1.664   0.000  0.00  0.00    +0.000 N 
ATOM      3  N   UNL     1       7.865  -0.415   0.000  0.00  0.00    +0.000 NA
ATOM      4  N   UNL     1       4.951   0.427   0.000  0.00  0.00    +0.000 NA
ATOM      5  N   UNL     1       7.117   0.868   0.000  0.00  0.00    +0.000 NA
ATOM      6  N   UNL     1       5.665  -0.811   0.000  0.00  0.00    +0.000 NA
ATOM      7  N   UNL     1       8.578   0.859   0.000  0.00  0.00    +0.000 N 
ATOM      8  N   UNL     1       4.237  -0.811   0.000  0.00  0.00    +0.000 N 
ATOM      9  C   UNL     1       6.389  -2.069   0.000  0.00  0.00    +0.000 C 
ATOM     10  C   UNL     1       7.818  -2.085   0.000  0.00  0.00    +0.000 C 
ATOM     11  C   UNL     1       6.380   2.077   0.000  0.00  0.00    +0.000 C 
ATOM     12  C   UNL     1       4.951   2.077   0.000  0.00  0.00    +0.000 C 
ATOM     13  C   UNL     1       6.379  -2.893   0.000  0.00  0.00    +0.000 C 
ATOM     14  C   UNL     1       7.808  -2.910   0.000  0.00  0.00    +0.000 C 
ATOM     15  C   UNL     1       6.380   2.902   0.000  0.00  0.00    +0.000 C 
ATOM     16  C   UNL     1       4.951   2.902   0.000  0.00  0.00    +0.000 C 
ATOM     17  C   UNL     1       7.089  -3.314   0.000  0.00  0.00    +0.000 C 
ATOM     18  C   UNL     1       5.665   3.314   0.000  0.00  0.00    +0.000 C 
ATOM     19  C   UNL     1       7.117  -0.839   0.000  0.00  0.00    +0.000 A 
ATOM     20  C   UNL     1       5.665   0.839   0.000  0.00  0.00    +0.000 A 
ATOM     21  C   UNL     1       6.380   0.427   0.000  0.00  0.00    +0.000 A 
ATOM     22  C   UNL     1       6.380  -0.398   0.000  0.00  0.00    +0.000 A 
ATOM     23  C   UNL     1       7.865   0.444   0.000  0.00  0.00    +0.000 A 
ATOM     24  C   UNL     1       4.951  -0.398   0.000  0.00  0.00    +0.000 A 
ENDROOT
BRANCH   7  25
ATOM     25  C   UNL     1       9.294   0.449   0.000  0.00  0.00    +0.000 C 
BRANCH  25  27
ATOM     26  O   UNL     1      10.723   0.455   0.000  0.00  0.00    +0.000 OA
ATOM     27  C   UNL     1      10.007   0.865   0.000  0.00  0.00    +0.000 C 
ENDBRANCH  25  27
ENDBRANCH   7  25
BRANCH   7  28
ATOM     28  C   UNL     1       8.575   1.684   0.000  0.00  0.00    +0.000 C 
BRANCH  28  30
ATOM     29  O   UNL     1       9.284   2.924   0.000  0.00  0.00    +0.000 OA
ATOM     30  C   UNL     1       9.288   2.099   0.000  0.00  0.00    +0.000 C 
ENDBRANCH  28  30
ENDBRANCH   7  28
BRANCH   8  31
ATOM     31  C   UNL     1       4.237  -1.636   0.000  0.00  0.00    +0.000 C 
BRANCH  31  33
ATOM     32  O   UNL     1       3.522  -2.873   0.000  0.00  0.00    +0.000 OA
ATOM     33  C   UNL     1       3.522  -2.048   0.000  0.00  0.00    +0.000 C 
ENDBRANCH  31  33
ENDBRANCH   8  31
BRANCH   8  34
ATOM     34  C   UNL     1       3.522  -0.398   0.000  0.00  0.00    +0.000 C 
BRANCH  34  36
ATOM     35  O   UNL     1       2.093  -0.398   0.000  0.00  0.00    +0.000 OA
ATOM     36  C   UNL     1       2.808  -0.811   0.000  0.00  0.00    +0.000 C 
ENDBRANCH  34  36
ENDBRANCH   8  34
TORSDOF 8
