REMARK  Name = 978
REMARK  3 active torsions:
REMARK  status: ('A' for Active; 'I' for Inactive)
REMARK    1  A    between atoms: N_6  and  C_13
REMARK    2  A    between atoms: N_8  and  C_20
REMARK    3  A    between atoms: C_23  and  C_25
REMARK                            x       y       z     vdW  Elec       q    Type
REMARK                         _______ _______ _______ _____ _____    ______ ____
ROOT
ATOM      1  F   UNL     1       4.951  -1.046   0.000  0.00  0.00    +0.000 F 
ATOM      2  F   UNL     1       3.522   1.429   0.000  0.00  0.00    +0.000 F 
ATOM      3  O   UNL     1       6.393   2.283   0.000  0.00  0.00    +0.000 OA
ATOM      4  N   UNL     1       6.403  -0.249   0.000  0.00  0.00    +0.000 N 
ATOM      5  C   UNL     1       4.236   0.192   0.000  0.00  0.00    +0.000 A 
ATOM      6  C   UNL     1       4.951  -0.221   0.000  0.00  0.00    +0.000 A 
ATOM      7  C   UNL     1       5.665   0.192   0.000  0.00  0.00    +0.000 A 
ATOM      8  C   UNL     1       4.236   1.017   0.000  0.00  0.00    +0.000 A 
ATOM      9  C   UNL     1       5.665   1.017   0.000  0.00  0.00    +0.000 A 
ATOM     10  C   UNL     1       4.951   1.429   0.000  0.00  0.00    +0.000 A 
ATOM     11  C   UNL     1       6.403   1.458   0.000  0.00  0.00    +0.000 A 
ATOM     12  C   UNL     1       7.150   0.175   0.000  0.00  0.00    +0.000 A 
ATOM     13  C   UNL     1       7.150   1.034   0.000  0.00  0.00    +0.000 A 
ENDROOT
BRANCH   5  14
ATOM     14  N   UNL     1       3.522  -0.221   0.000  0.00  0.00    +0.000 N 
ATOM     15  N   UNL     1       2.093  -1.046   0.000  0.00  0.00    +0.000 NA
ATOM     16  C   UNL     1       2.808  -1.458   0.000  0.00  0.00    +0.000 C 
ATOM     17  C   UNL     1       3.522  -1.046   0.000  0.00  0.00    +0.000 C 
ATOM     18  C   UNL     1       2.808   0.192   0.000  0.00  0.00    +0.000 C 
ATOM     19  C   UNL     1       2.093  -0.221   0.000  0.00  0.00    +0.000 C 
ATOM     20  C   UNL     1       2.808  -2.283   0.000  0.00  0.00    +0.000 C 
ENDBRANCH   5  14
BRANCH  13  23
ATOM     21  O   UNL     1       8.579   1.040   0.000  0.00  0.00    +0.000 OA
ATOM     22  O   UNL     1       7.860   2.274   0.000  0.00  0.00    +0.000 OA
ATOM     23  C   UNL     1       7.863   1.449   0.000  0.00  0.00    +0.000 C 
ENDBRANCH  13  23
BRANCH   4  24
ATOM     24  C   UNL     1       6.393  -1.074   0.000  0.00  0.00    +0.000 C 
ATOM     25  C   UNL     1       7.103  -1.495   0.000  0.00  0.00    +0.000 C 
ENDBRANCH   4  24
TORSDOF 3
