REMARK  Name = 979
REMARK  6 active torsions:
REMARK  status: ('A' for Active; 'I' for Inactive)
REMARK    1  A    between atoms: C_5  and  N_10
REMARK    2  A    between atoms: C_8  and  C_20
REMARK    3  A    between atoms: C_9  and  C_14
REMARK    4  A    between atoms: N_10  and  C_11
REMARK    5  A    between atoms: C_11  and  C_12
REMARK    6  A    between atoms: C_12  and  N_13
REMARK                            x       y       z     vdW  Elec       q    Type
REMARK                         _______ _______ _______ _____ _____    ______ ____
ROOT
ATOM      1  C   UNL     1       1.589   0.611   0.000  0.00  0.00    +0.000 A 
ATOM      2  N   UNL     1       0.874   1.023   0.000  0.00  0.00    +0.000 NA
ATOM      3  C   UNL     1       0.160   0.611   0.000  0.00  0.00    +0.000 A 
ATOM      4  C   UNL     1       0.160  -0.214   0.000  0.00  0.00    +0.000 A 
ATOM      5  C   UNL     1       0.874  -0.627   0.000  0.00  0.00    +0.000 A 
ATOM      6  N   UNL     1       1.589  -0.214   0.000  0.00  0.00    +0.000 NA
ATOM      7  O   UNL     1      -0.625   0.866   0.000  0.00  0.00    +0.000 OA
ATOM      8  C   UNL     1      -1.110   0.198   0.000  0.00  0.00    +0.000 A 
ATOM      9  C   UNL     1      -0.625  -0.469   0.000  0.00  0.00    +0.000 A 
ENDROOT
BRANCH   8  10
ATOM     10  C   UNL     1      -1.935   0.198   0.000  0.00  0.00    +0.000 A 
ATOM     11  C   UNL     1      -2.347  -0.516   0.000  0.00  0.00    +0.000 A 
ATOM     12  C   UNL     1      -3.172  -0.516   0.000  0.00  0.00    +0.000 A 
ATOM     13  C   UNL     1      -3.585   0.198   0.000  0.00  0.00    +0.000 A 
ATOM     14  C   UNL     1      -3.172   0.913   0.000  0.00  0.00    +0.000 A 
ATOM     15  C   UNL     1      -2.347   0.913   0.000  0.00  0.00    +0.000 A 
ENDBRANCH   8  10
BRANCH   9  16
ATOM     16  C   UNL     1      -0.880  -1.254   0.000  0.00  0.00    +0.000 A 
ATOM     17  C   UNL     1      -1.687  -1.425   0.000  0.00  0.00    +0.000 A 
ATOM     18  C   UNL     1      -1.942  -2.210   0.000  0.00  0.00    +0.000 A 
ATOM     19  C   UNL     1      -1.390  -2.823   0.000  0.00  0.00    +0.000 A 
ATOM     20  C   UNL     1      -0.583  -2.652   0.000  0.00  0.00    +0.000 A 
ATOM     21  C   UNL     1      -0.328  -1.867   0.000  0.00  0.00    +0.000 A 
ENDBRANCH   9  16
BRANCH   5  22
ATOM     22  N   UNL     1       0.874  -1.452   0.000  0.00  0.00    +0.000 NA
BRANCH  22  23
ATOM     23  C   UNL     1       1.589  -1.864   0.000  0.00  0.00    +0.000 C 
BRANCH  23  24
ATOM     24  C   UNL     1       1.589  -2.689   0.000  0.00  0.00    +0.000 C 
BRANCH  24  25
ATOM     25  N   UNL     1       2.303  -3.102   0.000  0.00  0.00    +0.000 NA
ATOM     26  C   UNL     1       2.303  -3.927   0.000  0.00  0.00    +0.000 C 
ATOM     27  C   UNL     1       3.018  -2.689   0.000  0.00  0.00    +0.000 C 
ATOM     28  C   UNL     1       3.018  -4.339   0.000  0.00  0.00    +0.000 C 
ATOM     29  C   UNL     1       3.732  -3.102   0.000  0.00  0.00    +0.000 C 
ATOM     30  N   UNL     1       3.732  -3.927   0.000  0.00  0.00    +0.000 NA
ENDBRANCH  24  25
ENDBRANCH  23  24
ENDBRANCH  22  23
ENDBRANCH   5  22
TORSDOF 6
