REMARK  Name = 979
REMARK  7 active torsions:
REMARK  status: ('A' for Active; 'I' for Inactive)
REMARK    1  A    between atoms: O_2  and  C_12
REMARK    2  A    between atoms: O_2  and  C_15
REMARK    3  A    between atoms: N_4  and  C_19
REMARK    4  A    between atoms: C_5  and  C_10
REMARK    5  A    between atoms: C_10  and  C_11
REMARK    6  A    between atoms: C_10  and  C_12
REMARK    7  A    between atoms: C_15  and  C_19
REMARK                            x       y       z     vdW  Elec       q    Type
REMARK                         _______ _______ _______ _____ _____    ______ ____
ROOT
ATOM      1  C   UNL     1       5.937   0.505   0.000  0.00  0.00    +0.000 C 
ENDROOT
BRANCH   1   3
ATOM      2  O   UNL     1       6.038   1.470   0.000  0.00  0.00    +0.000 OA
ATOM      3  C   UNL     1       6.652   0.918   0.000  0.00  0.00    +0.000 C 
ATOM      4  C   UNL     1       7.204   1.531   0.000  0.00  0.00    +0.000 C 
ATOM      5  C   UNL     1       7.064   0.203   0.000  0.00  0.00    +0.000 C 
ATOM      6  C   UNL     1       7.957   1.195   0.000  0.00  0.00    +0.000 C 
ATOM      7  C   UNL     1       7.871   0.375   0.000  0.00  0.00    +0.000 C 
ENDBRANCH   1   3
BRANCH   1   8
ATOM      8  C   UNL     1       5.937  -0.320   0.000  0.00  0.00    +0.000 A 
ATOM      9  C   UNL     1       6.652  -0.733   0.000  0.00  0.00    +0.000 A 
ATOM     10  C   UNL     1       5.222  -0.733   0.000  0.00  0.00    +0.000 A 
ATOM     11  C   UNL     1       6.652  -1.558   0.000  0.00  0.00    +0.000 A 
ATOM     12  C   UNL     1       5.222  -1.558   0.000  0.00  0.00    +0.000 A 
ATOM     13  C   UNL     1       5.937  -1.970   0.000  0.00  0.00    +0.000 A 
ENDBRANCH   1   8
BRANCH   1  15
ATOM     14  O   UNL     1       5.222   1.743   0.000  0.00  0.00    +0.000 OA
ATOM     15  C   UNL     1       5.222   0.918   0.000  0.00  0.00    +0.000 C 
BRANCH  15  16
ATOM     16  O   UNL     1       4.508   0.505   0.000  0.00  0.00    +0.000 OA
BRANCH  16  17
ATOM     17  C   UNL     1       3.793   0.918   0.000  0.00  0.00    +0.000 C 
BRANCH  17  18
ATOM     18  C   UNL     1       3.079   0.505   0.000  0.00  0.00    +0.000 C 
BRANCH  18  19
ATOM     19  N   UNL     1       2.365   0.918   0.000  0.00  0.00    +0.000 NA
ATOM     20  C   UNL     1       2.365   1.743   0.000  0.00  0.00    +0.000 C 
ATOM     21  C   UNL     1       1.650   0.505   0.000  0.00  0.00    +0.000 C 
ENDBRANCH  18  19
ENDBRANCH  17  18
ENDBRANCH  16  17
ENDBRANCH  15  16
ENDBRANCH   1  15
TORSDOF 7
