REMARK  Name = 980
REMARK  4 active torsions:
REMARK  status: ('A' for Active; 'I' for Inactive)
REMARK    1  A    between atoms: N_3  and  C_14
REMARK    2  A    between atoms: C_4  and  C_9
REMARK    3  A    between atoms: C_9  and  C_14
REMARK    4  A    between atoms: C_17  and  C_18
REMARK                            x       y       z     vdW  Elec       q    Type
REMARK                         _______ _______ _______ _____ _____    ______ ____
ROOT
ATOM      1  O   UNL     1       2.132   3.162   0.000  0.00  0.00    +0.000 OA
ATOM      2  C   UNL     1       3.799   0.871   0.000  0.00  0.00    +0.000 C 
ATOM      3  C   UNL     1       3.627   1.673   0.000  0.00  0.00    +0.000 A 
ATOM      4  C   UNL     1       4.615   0.786   0.000  0.00  0.00    +0.000 C 
ATOM      5  C   UNL     1       4.949   1.535   0.000  0.00  0.00    +0.000 C 
ATOM      6  C   UNL     1       4.341   2.086   0.000  0.00  0.00    +0.000 A 
ATOM      7  C   UNL     1       2.912   2.086   0.000  0.00  0.00    +0.000 A 
ATOM      8  C   UNL     1       2.132   1.834   0.000  0.00  0.00    +0.000 C 
ATOM      9  C   UNL     1       2.912   2.911   0.000  0.00  0.00    +0.000 A 
ATOM     10  C   UNL     1       4.341   2.911   0.000  0.00  0.00    +0.000 A 
ATOM     11  C   UNL     1       1.650   2.498   0.000  0.00  0.00    +0.000 C 
ATOM     12  C   UNL     1       3.627   3.323   0.000  0.00  0.00    +0.000 A 
ENDROOT
BRANCH   2  13
ATOM     13  C   UNL     1       3.248   0.257   0.000  0.00  0.00    +0.000 C 
BRANCH  13  14
ATOM     14  C   UNL     1       3.505  -0.527   0.000  0.00  0.00    +0.000 C 
BRANCH  14  16
ATOM     15  O   UNL     1       4.017  -2.095   0.000  0.00  0.00    +0.000 OA
ATOM     16  N   UNL     1       2.954  -1.141   0.000  0.00  0.00    +0.000 NA
ATOM     17  C   UNL     1       3.210  -1.925   0.000  0.00  0.00    +0.000 C 
BRANCH  17  18
ATOM     18  C   UNL     1       2.659  -2.539   0.000  0.00  0.00    +0.000 C 
ATOM     19  C   UNL     1       2.915  -3.323   0.000  0.00  0.00    +0.000 C 
ENDBRANCH  17  18
ENDBRANCH  14  16
ENDBRANCH  13  14
ENDBRANCH   2  13
TORSDOF 4
