REMARK  Name = 981
REMARK  2 active torsions:
REMARK  status: ('A' for Active; 'I' for Inactive)
REMARK    1  A    between atoms: O_1  and  C_17
REMARK    2  A    between atoms: O_1  and  C_19
REMARK                            x       y       z     vdW  Elec       q    Type
REMARK                         _______ _______ _______ _____ _____    ______ ____
ROOT
ATOM      1  N   UNL     1       7.786  -0.684   0.000  0.00  0.00    +0.000 NA
ATOM      2  N   UNL     1       6.869   0.585   0.000  0.00  0.00    +0.000 N 
ATOM      3  C   UNL     1       6.457  -0.685   0.000  0.00  0.00    +0.000 C 
ATOM      4  C   UNL     1       7.124  -0.200   0.000  0.00  0.00    +0.000 C 
ATOM      5  C   UNL     1       6.712  -1.464   0.000  0.00  0.00    +0.000 C 
ATOM      6  C   UNL     1       5.789  -0.200   0.000  0.00  0.00    +0.000 A 
ATOM      7  C   UNL     1       7.532  -1.464   0.000  0.00  0.00    +0.000 C 
ATOM      8  C   UNL     1       6.044   0.585   0.000  0.00  0.00    +0.000 A 
ATOM      9  C   UNL     1       5.789  -1.170   0.000  0.00  0.00    +0.000 C 
ATOM     10  C   UNL     1       8.571  -0.430   0.000  0.00  0.00    +0.000 C 
ATOM     11  C   UNL     1       4.951  -0.392   0.000  0.00  0.00    +0.000 A 
ATOM     12  C   UNL     1       7.354   1.252   0.000  0.00  0.00    +0.000 C 
ATOM     13  C   UNL     1       5.479   1.232   0.000  0.00  0.00    +0.000 A 
ATOM     14  C   UNL     1       4.372   0.242   0.000  0.00  0.00    +0.000 A 
ATOM     15  C   UNL     1       4.637   1.060   0.000  0.00  0.00    +0.000 A 
ENDROOT
BRANCH  14  16
ATOM     16  O   UNL     1       3.565   0.068   0.000  0.00  0.00    +0.000 OA
BRANCH  16  19
ATOM     17  O   UNL     1       3.263   1.464   0.000  0.00  0.00    +0.000 OA
ATOM     18  N   UNL     1       2.204   0.504   0.000  0.00  0.00    +0.000 NA
ATOM     19  C   UNL     1       3.011   0.679   0.000  0.00  0.00    +0.000 C 
ATOM     20  C   UNL     1       1.650   1.115   0.000  0.00  0.00    +0.000 C 
ENDBRANCH  16  19
ENDBRANCH  14  16
TORSDOF 2
