REMARK  Name = 982
REMARK  4 active torsions:
REMARK  status: ('A' for Active; 'I' for Inactive)
REMARK    1  A    between atoms: C_8  and  C_10
REMARK    2  A    between atoms: C_9  and  O_12
REMARK    3  A    between atoms: O_12  and  C_13
REMARK    4  A    between atoms: C_13  and  C_14
REMARK                            x       y       z     vdW  Elec       q    Type
REMARK                         _______ _______ _______ _____ _____    ______ ____
ROOT
ATOM      1  C   UNL     1       1.532   0.356   0.000  0.00  0.00    +0.000 A 
ATOM      2  C   UNL     1       2.247  -0.057   0.000  0.00  0.00    +0.000 A 
ATOM      3  C   UNL     1       2.247  -0.882   0.000  0.00  0.00    +0.000 A 
ATOM      4  N   UNL     1       1.532  -1.294   0.000  0.00  0.00    +0.000 NA
ATOM      5  C   UNL     1       0.818  -0.882   0.000  0.00  0.00    +0.000 A 
ATOM      6  C   UNL     1       0.818  -0.057   0.000  0.00  0.00    +0.000 A 
ATOM      7  S   UNL     1       0.033  -1.137   0.000  0.00  0.00    +0.000 S 
ATOM      8  C   UNL     1      -0.452  -0.469   0.000  0.00  0.00    +0.000 A 
ATOM      9  C   UNL     1       0.033   0.198   0.000  0.00  0.00    +0.000 A 
ENDROOT
BRANCH   8  10
ATOM     10  C   UNL     1      -1.276  -0.469   0.000  0.00  0.00    +0.000 C 
ATOM     11  O   UNL     1      -1.689   0.245   0.000  0.00  0.00    +0.000 OA
ATOM     12  O   UNL     1      -1.689  -1.184   0.000  0.00  0.00    +0.000 OA
ENDBRANCH   8  10
BRANCH   9  13
ATOM     13  O   UNL     1      -0.222   0.983   0.000  0.00  0.00    +0.000 OA
BRANCH  13  14
ATOM     14  C   UNL     1      -1.028   1.154   0.000  0.00  0.00    +0.000 C 
BRANCH  14  15
ATOM     15  C   UNL     1      -1.284   1.939   0.000  0.00  0.00    +0.000 C 
ATOM     16  O   UNL     1      -2.090   2.110   0.000  0.00  0.00    +0.000 OA
ATOM     17  O   UNL     1      -0.731   2.552   0.000  0.00  0.00    +0.000 OA
ENDBRANCH  14  15
ENDBRANCH  13  14
ENDBRANCH   9  13
TORSDOF 4
