REMARK  Name = 983
REMARK  8 active torsions:
REMARK  status: ('A' for Active; 'I' for Inactive)
REMARK    1  A    between atoms: O_2  and  C_23
REMARK    2  A    between atoms: N_5  and  C_7
REMARK    3  A    between atoms: N_5  and  C_9
REMARK    4  A    between atoms: N_6  and  C_18
REMARK    5  A    between atoms: C_7  and  C_8
REMARK    6  A    between atoms: C_8  and  C_12
REMARK    7  A    between atoms: C_9  and  C_10
REMARK    8  A    between atoms: C_10  and  C_13
REMARK                            x       y       z     vdW  Elec       q    Type
REMARK                         _______ _______ _______ _____ _____    ______ ____
ROOT
ATOM      1  C   UNL     1       4.951   0.569   0.000  0.00  0.00    +0.000 C 
ENDROOT
BRANCH   1   3
ATOM      2  O   UNL     1       5.665   1.807   0.000  0.00  0.00    +0.000 OA
ATOM      3  C   UNL     1       4.951   1.394   0.000  0.00  0.00    +0.000 C 
BRANCH   3   5
ATOM      4  O   UNL     1       2.093   3.044   0.000  0.00  0.00    +0.000 OA
ATOM      5  C   UNL     1       4.237   1.807   0.000  0.00  0.00    +0.000 A 
ATOM      6  C   UNL     1       4.237   2.632   0.000  0.00  0.00    +0.000 A 
ATOM      7  C   UNL     1       3.522   1.394   0.000  0.00  0.00    +0.000 A 
ATOM      8  C   UNL     1       3.522   3.044   0.000  0.00  0.00    +0.000 A 
ATOM      9  C   UNL     1       2.808   1.807   0.000  0.00  0.00    +0.000 A 
ATOM     10  C   UNL     1       2.808   2.632   0.000  0.00  0.00    +0.000 A 
BRANCH   8  12
ATOM     11  O   UNL     1       4.951   3.869   0.000  0.00  0.00    +0.000 OA
ATOM     12  N   UNL     1       3.522   3.869   0.000  0.00  0.00    +0.000 NA
ATOM     13  C   UNL     1       4.237   4.282   0.000  0.00  0.00    +0.000 C 
ENDBRANCH   8  12
ENDBRANCH   3   5
ENDBRANCH   1   3
BRANCH   1  14
ATOM     14  N   UNL     1       5.665   0.157   0.000  0.00  0.00    +0.000 NA
BRANCH  14  15
ATOM     15  C   UNL     1       5.665  -0.668   0.000  0.00  0.00    +0.000 C 
ATOM     16  C   UNL     1       4.951  -1.081   0.000  0.00  0.00    +0.000 C 
BRANCH  15  17
ATOM     17  C   UNL     1       6.380  -1.081   0.000  0.00  0.00    +0.000 C 
BRANCH  17  18
ATOM     18  C   UNL     1       6.380  -1.906   0.000  0.00  0.00    +0.000 A 
ATOM     19  C   UNL     1       7.094  -2.318   0.000  0.00  0.00    +0.000 A 
ATOM     20  C   UNL     1       5.665  -2.318   0.000  0.00  0.00    +0.000 A 
ATOM     21  C   UNL     1       7.094  -3.143   0.000  0.00  0.00    +0.000 A 
ATOM     22  C   UNL     1       5.665  -3.143   0.000  0.00  0.00    +0.000 A 
ATOM     23  C   UNL     1       6.380  -3.556   0.000  0.00  0.00    +0.000 A 
BRANCH  23  24
ATOM     24  O   UNL     1       6.380  -4.381   0.000  0.00  0.00    +0.000 OA
ATOM     25  C   UNL     1       7.094  -4.793   0.000  0.00  0.00    +0.000 C 
ENDBRANCH  23  24
ENDBRANCH  17  18
ENDBRANCH  15  17
ENDBRANCH  14  15
ENDBRANCH   1  14
TORSDOF 8
