REMARK  Name = 984
REMARK  5 active torsions:
REMARK  status: ('A' for Active; 'I' for Inactive)
REMARK    1  A    between atoms: O_1  and  C_9
REMARK    2  A    between atoms: O_1  and  C_22
REMARK    3  A    between atoms: C_22  and  C_23
REMARK    4  A    between atoms: C_23  and  C_24
REMARK    5  A    between atoms: C_24  and  C_25
REMARK                            x       y       z     vdW  Elec       q    Type
REMARK                         _______ _______ _______ _____ _____    ______ ____
ROOT
ATOM      1  O   UNL     1       1.650  -3.497   0.000  0.00  0.00    +0.000 OA
ATOM      2  C   UNL     1       6.099  -1.803   0.000  0.00  0.00    +0.000 C 
ATOM      3  C   UNL     1       6.099  -0.978   0.000  0.00  0.00    +0.000 C 
ATOM      4  C   UNL     1       5.385  -2.216   0.000  0.00  0.00    +0.000 C 
ATOM      5  C   UNL     1       4.670  -1.803   0.000  0.00  0.00    +0.000 C 
ATOM      6  C   UNL     1       5.385  -0.566   0.000  0.00  0.00    +0.000 C 
ATOM      7  C   UNL     1       6.880  -0.727   0.000  0.00  0.00    +0.000 C 
ATOM      8  C   UNL     1       6.880  -2.055   0.000  0.00  0.00    +0.000 C 
ATOM      9  C   UNL     1       4.670  -0.978   0.000  0.00  0.00    +0.000 C 
ATOM     10  C   UNL     1       3.920  -2.221   0.000  0.00  0.00    +0.000 C 
ATOM     11  C   UNL     1       7.362  -1.391   0.000  0.00  0.00    +0.000 C 
ATOM     12  C   UNL     1       5.398  -3.075   0.000  0.00  0.00    +0.000 C 
ATOM     13  C   UNL     1       6.099  -0.153   0.000  0.00  0.00    +0.000 C 
ATOM     14  C   UNL     1       4.657  -3.510   0.000  0.00  0.00    +0.000 C 
ATOM     15  C   UNL     1       3.913  -3.081   0.000  0.00  0.00    +0.000 C 
ATOM     16  C   UNL     1       3.155  -1.756   0.000  0.00  0.00    +0.000 C 
ATOM     17  C   UNL     1       2.373  -2.192   0.000  0.00  0.00    +0.000 C 
ATOM     18  C   UNL     1       3.141  -3.534   0.000  0.00  0.00    +0.000 C 
ATOM     19  C   UNL     1       2.366  -3.087   0.000  0.00  0.00    +0.000 C 
ENDROOT
BRANCH   7  20
ATOM     20  O   UNL     1       7.136   0.057   0.000  0.00  0.00    +0.000 OA
BRANCH  20  22
ATOM     21  O   UNL     1       8.495  -0.387   0.000  0.00  0.00    +0.000 OA
ATOM     22  C   UNL     1       7.944   0.228   0.000  0.00  0.00    +0.000 C 
BRANCH  22  23
ATOM     23  C   UNL     1       8.200   1.012   0.000  0.00  0.00    +0.000 C 
BRANCH  23  24
ATOM     24  C   UNL     1       9.007   1.182   0.000  0.00  0.00    +0.000 C 
BRANCH  24  25
ATOM     25  C   UNL     1       9.263   1.966   0.000  0.00  0.00    +0.000 A 
ATOM     26  C   UNL     1       8.713   2.580   0.000  0.00  0.00    +0.000 A 
ATOM     27  C   UNL     1      10.071   2.136   0.000  0.00  0.00    +0.000 A 
ATOM     28  C   UNL     1       8.969   3.364   0.000  0.00  0.00    +0.000 A 
ATOM     29  C   UNL     1      10.327   2.920   0.000  0.00  0.00    +0.000 A 
ATOM     30  C   UNL     1       9.776   3.534   0.000  0.00  0.00    +0.000 A 
ENDBRANCH  24  25
ENDBRANCH  23  24
ENDBRANCH  22  23
ENDBRANCH  20  22
ENDBRANCH   7  20
TORSDOF 5
