REMARK  Name = 988
REMARK  2 active torsions:
REMARK  status: ('A' for Active; 'I' for Inactive)
REMARK    1  A    between atoms: C_4  and  C_5
REMARK    2  A    between atoms: C_4  and  C_6
REMARK                            x       y       z     vdW  Elec       q    Type
REMARK                         _______ _______ _______ _____ _____    ______ ____
ROOT
ATOM      1  O   UNL     1       3.522   1.984   0.000  0.00  0.00    +0.000 OA
ATOM      2  O   UNL     1       2.093   1.159   0.000  0.00  0.00    +0.000 OA
ATOM      3  C   UNL     1       4.237  -0.078   0.000  0.00  0.00    +0.000 A 
ATOM      4  C   UNL     1       4.237   0.747   0.000  0.00  0.00    +0.000 A 
ATOM      5  C   UNL     1       3.522  -0.491   0.000  0.00  0.00    +0.000 A 
ATOM      6  C   UNL     1       3.522   1.159   0.000  0.00  0.00    +0.000 A 
ATOM      7  C   UNL     1       2.808  -0.078   0.000  0.00  0.00    +0.000 A 
ATOM      8  C   UNL     1       2.808   0.747   0.000  0.00  0.00    +0.000 A 
ENDROOT
BRANCH   3   9
ATOM      9  C   UNL     1       4.951  -0.491   0.000  0.00  0.00    +0.000 C 
BRANCH   9  11
ATOM     10  N   UNL     1       5.665  -1.728   0.000  0.00  0.00    +0.000 NA
ATOM     11  C   UNL     1       4.951  -1.316   0.000  0.00  0.00    +0.000 C 
ENDBRANCH   9  11
ENDBRANCH   3   9
TORSDOF 2
