REMARK  Name = 989
REMARK  5 active torsions:
REMARK  status: ('A' for Active; 'I' for Inactive)
REMARK    1  A    between atoms: O_1  and  C_12
REMARK    2  A    between atoms: O_1  and  C_16
REMARK    3  A    between atoms: N_3  and  C_5
REMARK    4  A    between atoms: N_4  and  C_15
REMARK    5  A    between atoms: C_5  and  C_6
REMARK                            x       y       z     vdW  Elec       q    Type
REMARK                         _______ _______ _______ _____ _____    ______ ____
ROOT
ATOM      1  C   UNL     1       4.508   1.031   0.000  0.00  0.00    +0.000 A 
ATOM      2  C   UNL     1       3.793   0.619   0.000  0.00  0.00    +0.000 A 
ATOM      3  C   UNL     1       5.222   0.619   0.000  0.00  0.00    +0.000 A 
ATOM      4  C   UNL     1       3.793  -0.206   0.000  0.00  0.00    +0.000 A 
ATOM      5  C   UNL     1       5.222  -0.206   0.000  0.00  0.00    +0.000 A 
ATOM      6  C   UNL     1       4.508  -0.619   0.000  0.00  0.00    +0.000 A 
ENDROOT
BRANCH   1   7
ATOM      7  C   UNL     1       4.508   1.856   0.000  0.00  0.00    +0.000 C 
ATOM      8  C   UNL     1       3.793   2.269   0.000  0.00  0.00    +0.000 C 
BRANCH   7   9
ATOM      9  N   UNL     1       5.222   2.269   0.000  0.00  0.00    +0.000 NA
ATOM     10  C   UNL     1       5.222   3.094   0.000  0.00  0.00    +0.000 C 
ATOM     11  C   UNL     1       5.937   1.856   0.000  0.00  0.00    +0.000 C 
ENDBRANCH   7   9
ENDBRANCH   1   7
BRANCH   4  12
ATOM     12  O   UNL     1       3.079  -0.619   0.000  0.00  0.00    +0.000 OA
BRANCH  12  15
ATOM     13  O   UNL     1       3.793  -1.856   0.000  0.00  0.00    +0.000 OA
ATOM     14  N   UNL     1       2.365  -1.856   0.000  0.00  0.00    +0.000 N 
ATOM     15  C   UNL     1       3.079  -1.444   0.000  0.00  0.00    +0.000 C 
ATOM     16  C   UNL     1       1.650  -1.444   0.000  0.00  0.00    +0.000 C 
BRANCH  14  17
ATOM     17  C   UNL     1       2.365  -2.681   0.000  0.00  0.00    +0.000 C 
ATOM     18  C   UNL     1       1.650  -3.094   0.000  0.00  0.00    +0.000 C 
ENDBRANCH  14  17
ENDBRANCH  12  15
ENDBRANCH   4  12
TORSDOF 5
