REMARK  Name = 990
REMARK  0 active torsions:
REMARK  status: ('A' for Active; 'I' for Inactive)
REMARK                            x       y       z     vdW  Elec       q    Type
REMARK                         _______ _______ _______ _____ _____    ______ ____
ROOT
ATOM      1  O   UNL     1       7.136   2.196   0.000  0.00  0.00    +0.000 OA
ATOM      2  O   UNL     1       1.650  -1.357   0.000  0.00  0.00    +0.000 OA
ATOM      3  C   UNL     1       6.099   0.336   0.000  0.00  0.00    +0.000 C 
ATOM      4  C   UNL     1       5.385  -0.077   0.000  0.00  0.00    +0.000 C 
ATOM      5  C   UNL     1       6.099   1.161   0.000  0.00  0.00    +0.000 C 
ATOM      6  C   UNL     1       4.670   0.336   0.000  0.00  0.00    +0.000 C 
ATOM      7  C   UNL     1       5.385   1.573   0.000  0.00  0.00    +0.000 C 
ATOM      8  C   UNL     1       4.670   1.161   0.000  0.00  0.00    +0.000 C 
ATOM      9  C   UNL     1       3.919  -0.082   0.000  0.00  0.00    +0.000 C 
ATOM     10  C   UNL     1       6.880   0.084   0.000  0.00  0.00    +0.000 C 
ATOM     11  C   UNL     1       5.398  -0.936   0.000  0.00  0.00    +0.000 C 
ATOM     12  C   UNL     1       6.880   1.412   0.000  0.00  0.00    +0.000 C 
ATOM     13  C   UNL     1       7.361   0.748   0.000  0.00  0.00    +0.000 C 
ATOM     14  C   UNL     1       6.099   1.986   0.000  0.00  0.00    +0.000 C 
ATOM     15  C   UNL     1       3.913  -0.942   0.000  0.00  0.00    +0.000 C 
ATOM     16  C   UNL     1       4.657  -1.371   0.000  0.00  0.00    +0.000 C 
ATOM     17  C   UNL     1       3.926   0.743   0.000  0.00  0.00    +0.000 C 
ATOM     18  C   UNL     1       3.155   0.383   0.000  0.00  0.00    +0.000 C 
ATOM     19  C   UNL     1       3.141  -1.395   0.000  0.00  0.00    +0.000 C 
ATOM     20  C   UNL     1       2.373  -0.053   0.000  0.00  0.00    +0.000 C 
ATOM     21  C   UNL     1       4.660  -2.196   0.000  0.00  0.00    +0.000 C 
ATOM     22  C   UNL     1       2.366  -0.948   0.000  0.00  0.00    +0.000 C 
ENDROOT
TORSDOF 0
