REMARK  Name = 991
REMARK  4 active torsions:
REMARK  status: ('A' for Active; 'I' for Inactive)
REMARK    1  A    between atoms: C_1  and  C_8
REMARK    2  A    between atoms: C_13  and  C_14
REMARK    3  A    between atoms: C_18  and  O_19
REMARK    4  A    between atoms: O_19  and  C_23
REMARK                            x       y       z     vdW  Elec       q    Type
REMARK                         _______ _______ _______ _____ _____    ______ ____
ROOT
ATOM      1  C   UNL     1       2.053  -0.467   0.000  0.00  0.00    +0.000 A 
ATOM      2  C   UNL     1       2.053  -1.292   0.000  0.00  0.00    +0.000 A 
ATOM      3 CL   UNL     1       2.768  -1.705   0.000  0.00  0.00    +0.000 Cl
ATOM      4  C   UNL     1       1.339  -1.705   0.000  0.00  0.00    +0.000 A 
ATOM      5  C   UNL     1       0.624  -1.292   0.000  0.00  0.00    +0.000 A 
ATOM      6  C   UNL     1       0.624  -0.467   0.000  0.00  0.00    +0.000 A 
ATOM      7  C   UNL     1       1.339  -0.055   0.000  0.00  0.00    +0.000 A 
ATOM      8  N   UNL     1      -0.160  -1.547   0.000  0.00  0.00    +0.000 NA
ATOM      9  C   UNL     1      -0.160  -0.212   0.000  0.00  0.00    +0.000 A 
ATOM     10  C   UNL     1      -0.645  -0.880   0.000  0.00  0.00    +0.000 A 
ENDROOT
BRANCH  10  11
ATOM     11  C   UNL     1      -1.470  -0.880   0.000  0.00  0.00    +0.000 A 
ATOM     12  C   UNL     1      -1.883  -1.594   0.000  0.00  0.00    +0.000 A 
ATOM     13  C   UNL     1      -2.708  -1.594   0.000  0.00  0.00    +0.000 A 
ATOM     14  C   UNL     1      -3.120  -0.880   0.000  0.00  0.00    +0.000 A 
ATOM     15  C   UNL     1      -2.708  -0.165   0.000  0.00  0.00    +0.000 A 
ATOM     16  C   UNL     1      -1.883  -0.165   0.000  0.00  0.00    +0.000 A 
ATOM     17  O   UNL     1      -1.470   0.549   0.000  0.00  0.00    +0.000 OA
BRANCH  15  18
ATOM     18  O   UNL     1      -3.120   0.549   0.000  0.00  0.00    +0.000 OA
BRANCH  18  20
ATOM     19  C   UNL     1      -1.887   1.350   0.000  0.00  0.00    +0.000 C 
ATOM     20  C   UNL     1      -2.708   1.264   0.000  0.00  0.00    +0.000 C 
ATOM     21  C   UNL     1      -3.043   2.018   0.000  0.00  0.00    +0.000 C 
ATOM     22  C   UNL     1      -2.430   2.570   0.000  0.00  0.00    +0.000 C 
ATOM     23  C   UNL     1      -1.716   2.157   0.000  0.00  0.00    +0.000 C 
ENDBRANCH  18  20
ENDBRANCH  15  18
ENDBRANCH  10  11
BRANCH   1  24
ATOM     24  C   UNL     1       2.768  -0.055   0.000  0.00  0.00    +0.000 C 
ATOM     25  N   UNL     1       3.482  -0.467   0.000  0.00  0.00    +0.000 NA
ATOM     26  N   UNL     1       2.768   0.770   0.000  0.00  0.00    +0.000 NA
ENDBRANCH   1  24
TORSDOF 4
