REMARK  Name = 991
REMARK  5 active torsions:
REMARK  status: ('A' for Active; 'I' for Inactive)
REMARK    1  A    between atoms: C_5  and  C_9
REMARK    2  A    between atoms: C_6  and  C_10
REMARK    3  A    between atoms: C_7  and  C_8
REMARK    4  A    between atoms: C_8  and  C_11
REMARK    5  A    between atoms: C_11  and  C_20
REMARK                            x       y       z     vdW  Elec       q    Type
REMARK                         _______ _______ _______ _____ _____    ______ ____
ROOT
ATOM      1  O   UNL     1       3.930   0.244   0.000  0.00  0.00    +0.000 OA
ATOM      2  N   UNL     1       2.850  -0.540   0.000  0.00  0.00    +0.000 NA
ATOM      3  C   UNL     1       4.185  -0.540   0.000  0.00  0.00    +0.000 A 
ATOM      4  C   UNL     1       3.517  -1.025   0.000  0.00  0.00    +0.000 A 
ATOM      5  C   UNL     1       3.105   0.244   0.000  0.00  0.00    +0.000 A 
ENDROOT
BRANCH   3   6
ATOM      6  C   UNL     1       4.969  -0.795   0.000  0.00  0.00    +0.000 A 
ATOM      7  C   UNL     1       5.582  -0.243   0.000  0.00  0.00    +0.000 A 
ATOM      8  C   UNL     1       5.141  -1.602   0.000  0.00  0.00    +0.000 A 
ATOM      9  C   UNL     1       6.367  -0.498   0.000  0.00  0.00    +0.000 A 
ATOM     10  C   UNL     1       5.926  -1.857   0.000  0.00  0.00    +0.000 A 
ATOM     11  C   UNL     1       6.539  -1.305   0.000  0.00  0.00    +0.000 A 
ENDBRANCH   3   6
BRANCH   4  12
ATOM     12  C   UNL     1       3.517  -1.850   0.000  0.00  0.00    +0.000 A 
ATOM     13  C   UNL     1       4.232  -2.263   0.000  0.00  0.00    +0.000 A 
ATOM     14  C   UNL     1       2.803  -2.263   0.000  0.00  0.00    +0.000 A 
ATOM     15  C   UNL     1       4.232  -3.088   0.000  0.00  0.00    +0.000 A 
ATOM     16  C   UNL     1       2.803  -3.088   0.000  0.00  0.00    +0.000 A 
ATOM     17  C   UNL     1       3.517  -3.500   0.000  0.00  0.00    +0.000 A 
ENDBRANCH   4  12
BRANCH   5  18
ATOM     18  C   UNL     1       2.620   0.912   0.000  0.00  0.00    +0.000 C 
BRANCH  18  19
ATOM     19  C   UNL     1       2.955   1.665   0.000  0.00  0.00    +0.000 C 
BRANCH  19  22
ATOM     20  O   UNL     1       2.806   3.087   0.000  0.00  0.00    +0.000 OA
ATOM     21  O   UNL     1       1.650   2.247   0.000  0.00  0.00    +0.000 OA
ATOM     22  C   UNL     1       2.470   2.333   0.000  0.00  0.00    +0.000 C 
ENDBRANCH  19  22
ENDBRANCH  18  19
ENDBRANCH   5  18
TORSDOF 5
