REMARK  Name = 9913
REMARK  6 active torsions:
REMARK  status: ('A' for Active; 'I' for Inactive)
REMARK    1  A    between atoms: N_5  and  C_11
REMARK    2  A    between atoms: N_6  and  C_12
REMARK    3  A    between atoms: N_6  and  C_16
REMARK    4  A    between atoms: C_10  and  C_11
REMARK    5  A    between atoms: C_10  and  C_12
REMARK    6  A    between atoms: C_16  and  C_20
REMARK                            x       y       z     vdW  Elec       q    Type
REMARK                         _______ _______ _______ _____ _____    ______ ____
ROOT
ATOM      1  O   UNL     1       4.111   0.212   0.000  0.00  0.00    +0.000 OA
ATOM      2  O   UNL     1       2.682  -2.263   0.000  0.00  0.00    +0.000 OA
ATOM      3  N   UNL     1       5.606  -0.773   0.000  0.00  0.00    +0.000 N 
ATOM      4  N   UNL     1       4.111  -2.263   0.000  0.00  0.00    +0.000 N 
ATOM      5  N   UNL     1       3.396  -1.025   0.000  0.00  0.00    +0.000 N 
ATOM      6  N   UNL     1       5.606  -2.101   0.000  0.00  0.00    +0.000 NA
ATOM      7  C   UNL     1       4.825  -1.025   0.000  0.00  0.00    +0.000 A 
ATOM      8  C   UNL     1       4.825  -1.850   0.000  0.00  0.00    +0.000 A 
ATOM      9  C   UNL     1       6.087  -1.438   0.000  0.00  0.00    +0.000 A 
ATOM     10  C   UNL     1       4.111  -0.613   0.000  0.00  0.00    +0.000 A 
ATOM     11  C   UNL     1       3.396  -1.850   0.000  0.00  0.00    +0.000 A 
ATOM     12  C   UNL     1       4.111  -3.088   0.000  0.00  0.00    +0.000 C 
ATOM     13  C   UNL     1       2.682  -0.613   0.000  0.00  0.00    +0.000 C 
ENDROOT
BRANCH   3  14
ATOM     14  C   UNL     1       5.862   0.011   0.000  0.00  0.00    +0.000 C 
BRANCH  14  16
ATOM     15  O   UNL     1       7.220  -0.433   0.000  0.00  0.00    +0.000 OA
ATOM     16  C   UNL     1       6.669   0.181   0.000  0.00  0.00    +0.000 C 
BRANCH  16  17
ATOM     17  C   UNL     1       6.926   0.965   0.000  0.00  0.00    +0.000 C 
BRANCH  17  18
ATOM     18  N   UNL     1       7.733   1.135   0.000  0.00  0.00    +0.000 NA
ATOM     19  C   UNL     1       8.284   0.521   0.000  0.00  0.00    +0.000 C 
BRANCH  18  20
ATOM     20  C   UNL     1       7.989   1.919   0.000  0.00  0.00    +0.000 C 
BRANCH  20  22
ATOM     21  O   UNL     1       9.053   2.874   0.000  0.00  0.00    +0.000 OA
ATOM     22  C   UNL     1       8.797   2.089   0.000  0.00  0.00    +0.000 C 
ENDBRANCH  20  22
ENDBRANCH  18  20
ENDBRANCH  17  18
ENDBRANCH  16  17
ENDBRANCH  14  16
ENDBRANCH   3  14
TORSDOF 6
