REMARK  Name = 993
REMARK  3 active torsions:
REMARK  status: ('A' for Active; 'I' for Inactive)
REMARK    1  A    between atoms: S_1  and  C_11
REMARK    2  A    between atoms: S_1  and  C_13
REMARK    3  A    between atoms: N_9  and  C_14
REMARK                            x       y       z     vdW  Elec       q    Type
REMARK                         _______ _______ _______ _____ _____    ______ ____
ROOT
ATOM      1  S   UNL     1       3.670  -0.059   0.000  0.00  0.00    +0.000 S 
ENDROOT
BRANCH   1   7
ATOM      2  N   UNL     1       5.165  -1.045   0.000  0.00  0.00    +0.000 NA
ATOM      3  N   UNL     1       2.956  -1.296   0.000  0.00  0.00    +0.000 NA
ATOM      4  N   UNL     1       5.165  -2.372   0.000  0.00  0.00    +0.000 NA
ATOM      5  N   UNL     1       3.670  -2.534   0.000  0.00  0.00    +0.000 NA
ATOM      6  C   UNL     1       4.385  -1.296   0.000  0.00  0.00    +0.000 A 
ATOM      7  C   UNL     1       3.670  -0.883   0.000  0.00  0.00    +0.000 A 
ATOM      8  C   UNL     1       4.385  -2.121   0.000  0.00  0.00    +0.000 A 
ATOM      9  C   UNL     1       5.647  -1.708   0.000  0.00  0.00    +0.000 A 
ATOM     10  C   UNL     1       2.956  -2.121   0.000  0.00  0.00    +0.000 A 
ENDBRANCH   1   7
BRANCH   1  13
ATOM     11  N   UNL     1       2.202   0.018   0.000  0.00  0.00    +0.000 N 
ATOM     12  N   UNL     1       2.062   1.346   0.000  0.00  0.00    +0.000 NA
ATOM     13  C   UNL     1       2.956   0.354   0.000  0.00  0.00    +0.000 A 
ATOM     14  C   UNL     1       2.869   1.175   0.000  0.00  0.00    +0.000 A 
ATOM     15  C   UNL     1       1.650   0.632   0.000  0.00  0.00    +0.000 A 
ATOM     16  C   UNL     1       2.030  -0.789   0.000  0.00  0.00    +0.000 C 
BRANCH  14  19
ATOM     17  O   UNL     1       3.311   2.534   0.000  0.00  0.00    +0.000 OA
ATOM     18  O   UNL     1       4.267   1.472   0.000  0.00  0.00    +0.000 OA
ATOM     19  N   UNL     1       3.483   1.727   0.000  0.00  0.00    +0.000 N 
ENDBRANCH  14  19
ENDBRANCH   1  13
TORSDOF 3
