REMARK  Name = 995
REMARK  14 active torsions:
REMARK  status: ('A' for Active; 'I' for Inactive)
REMARK    1  A    between atoms: C_1  and  C_2
REMARK    2  A    between atoms: C_1  and  C_3
REMARK    3  A    between atoms: C_2  and  C_9
REMARK    4  A    between atoms: C_2  and  N_11
REMARK    5  A    between atoms: C_9  and  C_10
REMARK    6  A    between atoms: C_10  and  C_26
REMARK    7  A    between atoms: C_12  and  C_13
REMARK    8  A    between atoms: C_13  and  C_14
REMARK    9  A    between atoms: C_13  and  N_17
REMARK   10  A    between atoms: C_18  and  C_19
REMARK   11  A    between atoms: C_19  and  C_20
REMARK   12  A    between atoms: C_20  and  C_21
REMARK   13  A    between atoms: C_26  and  N_27
REMARK   14  A    between atoms: N_27  and  C_28
REMARK                            x       y       z     vdW  Elec       q    Type
REMARK                         _______ _______ _______ _____ _____    ______ ____
ROOT
ATOM      1  C   UNL     1      -1.912   1.128   0.000  0.00  0.00    +0.000 C 
ENDROOT
BRANCH   1   2
ATOM      2  N   UNL     1      -1.087   1.128   0.000  0.00  0.00    +0.000 NA
ATOM      3  C   UNL     1      -0.674   0.413   0.000  0.00  0.00    +0.000 C 
ATOM      4  O   UNL     1      -1.087  -0.301   0.000  0.00  0.00    +0.000 OA
BRANCH   3   5
ATOM      5  C   UNL     1       0.151   0.413   0.000  0.00  0.00    +0.000 C 
BRANCH   5   6
ATOM      6  C   UNL     1       0.563   1.128   0.000  0.00  0.00    +0.000 C 
ATOM      7  C   UNL     1       1.388   1.128   0.000  0.00  0.00    +0.000 C 
ATOM      8  C   UNL     1       0.151   1.842   0.000  0.00  0.00    +0.000 C 
ENDBRANCH   5   6
BRANCH   5   9
ATOM      9  N   UNL     1       0.563  -0.301   0.000  0.00  0.00    +0.000 NA
ATOM     10  C   UNL     1       1.388  -0.301   0.000  0.00  0.00    +0.000 C 
ATOM     11  O   UNL     1       1.801   0.413   0.000  0.00  0.00    +0.000 OA
BRANCH  10  12
ATOM     12  C   UNL     1       1.801  -1.016   0.000  0.00  0.00    +0.000 C 
BRANCH  12  13
ATOM     13  C   UNL     1       2.626  -1.016   0.000  0.00  0.00    +0.000 C 
BRANCH  13  14
ATOM     14  C   UNL     1       3.038  -1.730   0.000  0.00  0.00    +0.000 C 
ATOM     15  C   UNL     1       3.863  -1.730   0.000  0.00  0.00    +0.000 C 
ATOM     16  C   UNL     1       2.626  -2.445   0.000  0.00  0.00    +0.000 C 
ENDBRANCH  13  14
ENDBRANCH  12  13
ENDBRANCH  10  12
ENDBRANCH   5   9
ENDBRANCH   3   5
ENDBRANCH   1   2
BRANCH   1  17
ATOM     17  C   UNL     1      -2.324   1.842   0.000  0.00  0.00    +0.000 C 
ATOM     18  O   UNL     1      -1.912   2.557   0.000  0.00  0.00    +0.000 OA
BRANCH  17  19
ATOM     19  C   UNL     1      -3.149   1.842   0.000  0.00  0.00    +0.000 A 
ATOM     20  S   UNL     1      -3.634   1.175   0.000  0.00  0.00    +0.000 S 
ATOM     21  C   UNL     1      -4.419   1.430   0.000  0.00  0.00    +0.000 A 
ATOM     22  C   UNL     1      -4.419   2.255   0.000  0.00  0.00    +0.000 A 
ATOM     23  N   UNL     1      -3.634   2.510   0.000  0.00  0.00    +0.000 NA
ENDBRANCH  17  19
ENDBRANCH   1  17
BRANCH   1  24
ATOM     24  C   UNL     1      -2.324   0.413   0.000  0.00  0.00    +0.000 C 
BRANCH  24  25
ATOM     25  C   UNL     1      -1.912  -0.301   0.000  0.00  0.00    +0.000 C 
BRANCH  25  26
ATOM     26  C   UNL     1      -2.324  -1.016   0.000  0.00  0.00    +0.000 C 
BRANCH  26  27
ATOM     27  N   UNL     1      -1.912  -1.730   0.000  0.00  0.00    +0.000 NA
BRANCH  27  28
ATOM     28  C   UNL     1      -2.324  -2.445   0.000  0.00  0.00    +0.000 C 
ATOM     29  N   UNL     1      -1.912  -3.159   0.000  0.00  0.00    +0.000 NA
ATOM     30  N   UNL     1      -3.149  -2.445   0.000  0.00  0.00    +0.000 NA
ENDBRANCH  27  28
ENDBRANCH  26  27
ENDBRANCH  25  26
ENDBRANCH  24  25
ENDBRANCH   1  24
TORSDOF 14
