REMARK  Name = 996
REMARK  3 active torsions:
REMARK  status: ('A' for Active; 'I' for Inactive)
REMARK    1  A    between atoms: C_4  and  C_10
REMARK    2  A    between atoms: C_4  and  C_11
REMARK    3  A    between atoms: C_10  and  C_12
REMARK                            x       y       z     vdW  Elec       q    Type
REMARK                         _______ _______ _______ _____ _____    ______ ____
ROOT
ATOM      1  C   UNL     1       3.143   0.111   0.000  0.00  0.00    +0.000 C 
ATOM      2  C   UNL     1       2.429  -0.302   0.000  0.00  0.00    +0.000 C 
ATOM      3  C   UNL     1       3.858  -0.302   0.000  0.00  0.00    +0.000 C 
ATOM      4  C   UNL     1       2.429  -1.127   0.000  0.00  0.00    +0.000 C 
ATOM      5  C   UNL     1       3.858  -1.127   0.000  0.00  0.00    +0.000 C 
ATOM      6  C   UNL     1       3.143  -1.540   0.000  0.00  0.00    +0.000 C 
ENDROOT
BRANCH   1   8
ATOM      7  N   UNL     1       1.906   0.825   0.000  0.00  0.00    +0.000 NA
ATOM      8  C   UNL     1       2.731   0.825   0.000  0.00  0.00    +0.000 C 
ENDBRANCH   1   8
BRANCH   1   9
ATOM      9  C   UNL     1       3.556   0.825   0.000  0.00  0.00    +0.000 C 
BRANCH   9  12
ATOM     10  O   UNL     1       4.793   1.540   0.000  0.00  0.00    +0.000 OA
ATOM     11  O   UNL     1       4.793   0.111   0.000  0.00  0.00    +0.000 OA
ATOM     12  C   UNL     1       4.381   0.825   0.000  0.00  0.00    +0.000 C 
ENDBRANCH   9  12
ENDBRANCH   1   9
TORSDOF 3
