REMARK  Name = 998
REMARK  7 active torsions:
REMARK  status: ('A' for Active; 'I' for Inactive)
REMARK    1  A    between atoms: C_2  and  N_5
REMARK    2  A    between atoms: C_10  and  C_13
REMARK    3  A    between atoms: C_17  and  C_20
REMARK    4  A    between atoms: C_20  and  N_22
REMARK    5  A    between atoms: C_20  and  C_23
REMARK    6  A    between atoms: C_24  and  C_28
REMARK    7  A    between atoms: C_28  and  N_30
REMARK                            x       y       z     vdW  Elec       q    Type
REMARK                         _______ _______ _______ _____ _____    ______ ____
ROOT
ATOM      1  C   UNL     1       1.460  -0.197   0.000  0.00  0.00    +0.000 C 
ATOM      2  N   UNL     1       0.975   0.471   0.000  0.00  0.00    +0.000 N 
ATOM      3  C   UNL     1       2.244   0.058   0.000  0.00  0.00    +0.000 C 
ATOM      4  C   UNL     1       0.150   0.471   0.000  0.00  0.00    +0.000 C 
ATOM      5  C   UNL     1       1.460   1.138   0.000  0.00  0.00    +0.000 C 
ATOM      6  C   UNL     1       2.244   0.883   0.000  0.00  0.00    +0.000 C 
ATOM      7  O   UNL     1      -0.263  -0.244   0.000  0.00  0.00    +0.000 OA
ENDROOT
BRANCH   1   9
ATOM      8  N   UNL     1       1.757  -1.595   0.000  0.00  0.00    +0.000 NA
ATOM      9  C   UNL     1       1.205  -0.981   0.000  0.00  0.00    +0.000 C 
ATOM     10  O   UNL     1       0.398  -1.153   0.000  0.00  0.00    +0.000 OA
BRANCH   8  12
ATOM     11  C   UNL     1       0.695  -2.551   0.000  0.00  0.00    +0.000 A 
ATOM     12  C   UNL     1       1.502  -2.379   0.000  0.00  0.00    +0.000 C 
ATOM     13  C   UNL     1       0.440  -3.335   0.000  0.00  0.00    +0.000 A 
ATOM     14  C   UNL     1       0.143  -1.938   0.000  0.00  0.00    +0.000 A 
ATOM     15  C   UNL     1       2.054  -2.992   0.000  0.00  0.00    +0.000 C 
ATOM     16  C   UNL     1       0.992  -3.948   0.000  0.00  0.00    +0.000 C 
ATOM     17  C   UNL     1      -0.367  -3.507   0.000  0.00  0.00    +0.000 A 
ATOM     18  C   UNL     1      -0.664  -2.109   0.000  0.00  0.00    +0.000 A 
ATOM     19  C   UNL     1       1.799  -3.777   0.000  0.00  0.00    +0.000 C 
ATOM     20  C   UNL     1      -0.919  -2.894   0.000  0.00  0.00    +0.000 A 
ENDBRANCH   8  12
ENDBRANCH   1   9
BRANCH   4  21
ATOM     21  C   UNL     1      -0.263   1.185   0.000  0.00  0.00    +0.000 C 
BRANCH  21  22
ATOM     22  C   UNL     1       0.150   1.900   0.000  0.00  0.00    +0.000 C 
ATOM     23  C   UNL     1       0.864   1.487   0.000  0.00  0.00    +0.000 C 
ATOM     24  C   UNL     1      -0.565   2.312   0.000  0.00  0.00    +0.000 C 
ATOM     25  C   UNL     1       0.562   2.614   0.000  0.00  0.00    +0.000 C 
ENDBRANCH  21  22
BRANCH  21  26
ATOM     26  N   UNL     1      -1.088   1.185   0.000  0.00  0.00    +0.000 NA
ATOM     27  C   UNL     1      -1.500   1.900   0.000  0.00  0.00    +0.000 C 
ATOM     28  O   UNL     1      -1.088   2.614   0.000  0.00  0.00    +0.000 OA
BRANCH  27  29
ATOM     29  C   UNL     1      -2.325   1.900   0.000  0.00  0.00    +0.000 C 
ATOM     30  C   UNL     1      -2.738   1.185   0.000  0.00  0.00    +0.000 C 
BRANCH  29  31
ATOM     31  N   UNL     1      -2.738   2.614   0.000  0.00  0.00    +0.000 NA
ATOM     32  C   UNL     1      -3.563   2.614   0.000  0.00  0.00    +0.000 C 
ENDBRANCH  29  31
ENDBRANCH  27  29
ENDBRANCH  21  26
ENDBRANCH   4  21
TORSDOF 7
