REMARK  Name = 998
REMARK  2 active torsions:
REMARK  status: ('A' for Active; 'I' for Inactive)
REMARK    1  A    between atoms: N_3  and  C_5
REMARK    2  A    between atoms: C_15  and  C_18
REMARK                            x       y       z     vdW  Elec       q    Type
REMARK                         _______ _______ _______ _____ _____    ______ ____
ROOT
ATOM      1  N   UNL     1       4.634   1.264   0.000  0.00  0.00    +0.000 NA
ATOM      2  C   UNL     1       2.887  -0.412   0.000  0.00  0.00    +0.000 C 
ATOM      3  C   UNL     1       3.696  -0.577   0.000  0.00  0.00    +0.000 C 
ATOM      4  C   UNL     1       2.632   0.373   0.000  0.00  0.00    +0.000 C 
ATOM      5  C   UNL     1       4.238   0.045   0.000  0.00  0.00    +0.000 A 
ATOM      6  C   UNL     1       3.189   0.982   0.000  0.00  0.00    +0.000 C 
ATOM      7  C   UNL     1       3.993   0.798   0.000  0.00  0.00    +0.000 A 
ATOM      8  C   UNL     1       5.030   0.045   0.000  0.00  0.00    +0.000 A 
ATOM      9  C   UNL     1       5.275   0.798   0.000  0.00  0.00    +0.000 A 
ATOM     10  C   UNL     1       5.573  -0.577   0.000  0.00  0.00    +0.000 A 
ATOM     11  C   UNL     1       6.079   0.982   0.000  0.00  0.00    +0.000 A 
ATOM     12  C   UNL     1       6.381  -0.412   0.000  0.00  0.00    +0.000 A 
ATOM     13  C   UNL     1       6.636   0.373   0.000  0.00  0.00    +0.000 A 
ENDROOT
BRANCH  12  16
ATOM     14  O   UNL     1       6.661  -1.755   0.000  0.00  0.00    +0.000 OA
ATOM     15  N   UNL     1       7.684  -0.841   0.000  0.00  0.00    +0.000 NA
ATOM     16  C   UNL     1       6.909  -1.002   0.000  0.00  0.00    +0.000 C 
ENDBRANCH  12  16
BRANCH   2  17
ATOM     17  N   UNL     1       2.360  -1.002   0.000  0.00  0.00    +0.000 NA
ATOM     18  C   UNL     1       1.584  -0.841   0.000  0.00  0.00    +0.000 C 
ENDBRANCH   2  17
TORSDOF 2
