REMARK  Name = 9AR
REMARK  3 active torsions:
REMARK  status: ('A' for Active; 'I' for Inactive)
REMARK    1  A    between atoms: C_1  and  C_16
REMARK    2  A    between atoms: C_10  and  N_26
REMARK    3  A    between atoms: C_14  and  O_18
REMARK                            x       y       z     vdW  Elec       q    Type
REMARK                         _______ _______ _______ _____ _____    ______ ____
ROOT
ATOM      1  C   UNL     1       1.255  -1.075   0.000  0.00  0.00    +0.000 A 
ATOM      2  C   UNL     1       1.950  -0.631   0.000  0.00  0.00    +0.000 A 
ATOM      3  C   UNL     1       1.912   0.194   0.000  0.00  0.00    +0.000 A 
ATOM      4  C   UNL     1       1.180   0.573   0.000  0.00  0.00    +0.000 A 
ATOM      5  C   UNL     1       0.485   0.129   0.000  0.00  0.00    +0.000 A 
ATOM      6  C   UNL     1       0.522  -0.696   0.000  0.00  0.00    +0.000 A 
ATOM      7  C   UNL     1      -0.248   0.508   0.000  0.00  0.00    +0.000 A 
ATOM      8  C   UNL     1      -0.943   0.063   0.000  0.00  0.00    +0.000 A 
ATOM      9  C   UNL     1      -0.905  -0.761   0.000  0.00  0.00    +0.000 A 
ATOM     10  C   UNL     1      -0.172  -1.140   0.000  0.00  0.00    +0.000 A 
ATOM     11  C   UNL     1      -0.285   1.332   0.000  0.00  0.00    +0.000 A 
ATOM     12  C   UNL     1      -1.018   1.712   0.000  0.00  0.00    +0.000 A 
ATOM     13  C   UNL     1      -1.713   1.267   0.000  0.00  0.00    +0.000 A 
ATOM     14  C   UNL     1      -1.675   0.443   0.000  0.00  0.00    +0.000 A 
ATOM     15  C   UNL     1       2.130   1.511   0.000  0.00  0.00    +0.000 C 
ATOM     16  O   UNL     1       2.500   0.773   0.000  0.00  0.00    +0.000 OA
ATOM     17  O   UNL     1       1.314   1.387   0.000  0.00  0.00    +0.000 OA
ATOM     18  O   UNL     1      -2.445   1.647   0.000  0.00  0.00    +0.000 OA
ENDROOT
BRANCH   1  19
ATOM     19  C   UNL     1       1.293  -1.899   0.000  0.00  0.00    +0.000 C 
ATOM     20  O   UNL     1       0.598  -2.344   0.000  0.00  0.00    +0.000 OA
ATOM     21  O   UNL     1       2.025  -2.279   0.000  0.00  0.00    +0.000 OA
ENDBRANCH   1  19
BRANCH  10  24
ATOM     22  O   UNL     1      -0.830  -2.409   0.000  0.00  0.00    +0.000 OA
ATOM     23  O   UNL     1       0.235  -2.702   0.000  0.00  0.00    +0.000 OA
ATOM     24  N   UNL     1      -0.135  -1.964   0.000  0.00  0.00    +0.000 N 
ENDBRANCH  10  24
BRANCH  14  26
ATOM     25  C   UNL     1      -3.103   0.378   0.000  0.00  0.00    +0.000 C 
ATOM     26  O   UNL     1      -2.370  -0.002   0.000  0.00  0.00    +0.000 OA
ENDBRANCH  14  26
TORSDOF 3
