REMARK  Name = 9BD
REMARK  5 active torsions:
REMARK  status: ('A' for Active; 'I' for Inactive)
REMARK    1  A    between atoms: C_2  and  O_8
REMARK    2  A    between atoms: C_2  and  C_9
REMARK    3  A    between atoms: C_4  and  O_15
REMARK    4  A    between atoms: C_9  and  O_10
REMARK    5  A    between atoms: O_10  and  C_11
REMARK                            x       y       z     vdW  Elec       q    Type
REMARK                         _______ _______ _______ _____ _____    ______ ____
ROOT
ATOM      1  C   UNL     1       0.314  -1.418   0.000  0.00  0.00    +0.000 A 
ATOM      2  C   UNL     1       1.139   0.011   0.000  0.00  0.00    +0.000 A 
ATOM      3  C   UNL     1      -1.336   0.011   0.000  0.00  0.00    +0.000 A 
ATOM      4  C   UNL     1      -1.336  -1.418   0.000  0.00  0.00    +0.000 A 
ATOM      5  C   UNL     1      -2.851   2.031   0.000  0.00  0.00    +0.000 A 
ATOM      6  C   UNL     1       1.552  -0.703   0.000  0.00  0.00    +0.000 A 
ATOM      7  C   UNL     1       1.139  -1.418   0.000  0.00  0.00    +0.000 A 
ATOM      8  C   UNL     1      -0.098  -0.703   0.000  0.00  0.00    +0.000 A 
ATOM      9  C   UNL     1       0.314   0.011   0.000  0.00  0.00    +0.000 A 
ATOM     10  C   UNL     1      -0.923  -0.703   0.000  0.00  0.00    +0.000 A 
ATOM     11  C   UNL     1      -2.161   0.011   0.000  0.00  0.00    +0.000 A 
ATOM     12  N   UNL     1      -2.573  -0.703   0.000  0.00  0.00    +0.000 NA
ATOM     13  C   UNL     1      -2.161  -1.418   0.000  0.00  0.00    +0.000 A 
ATOM     14  C   UNL     1      -0.923  -2.132   0.000  0.00  0.00    +0.000 A 
ATOM     15  N   UNL     1      -0.098  -2.132   0.000  0.00  0.00    +0.000 NA
ATOM     16  N   UNL     1      -2.573  -2.132   0.000  0.00  0.00    +0.000 NA
ATOM     17  N   UNL     1      -2.573   0.726   0.000  0.00  0.00    +0.000 N 
ATOM     18  C   UNL     1      -2.238   1.480   0.000  0.00  0.00    +0.000 A 
ATOM     19  N   UNL     1      -3.565   1.619   0.000  0.00  0.00    +0.000 NA
ATOM     20  C   UNL     1      -3.394   0.812   0.000  0.00  0.00    +0.000 A 
ENDROOT
BRANCH   2  21
ATOM     21  O   UNL     1       1.552   0.726   0.000  0.00  0.00    +0.000 OA
ATOM     22  C   UNL     1       1.139   1.440   0.000  0.00  0.00    +0.000 C 
ENDBRANCH   2  21
BRANCH   6  23
ATOM     23  O   UNL     1       2.377  -0.703   0.000  0.00  0.00    +0.000 OA
BRANCH  23  24
ATOM     24  C   UNL     1       2.789   0.011   0.000  0.00  0.00    +0.000 C 
BRANCH  24  25
ATOM     25  C   UNL     1       3.614   0.011   0.000  0.00  0.00    +0.000 C 
BRANCH  25  27
ATOM     26  C   UNL     1       4.852   0.726   0.000  0.00  0.00    +0.000 C 
ATOM     27  O   UNL     1       4.027   0.726   0.000  0.00  0.00    +0.000 OA
ENDBRANCH  25  27
ENDBRANCH  24  25
ENDBRANCH  23  24
ENDBRANCH   6  23
TORSDOF 5
