REMARK  Name = 9HP
REMARK  1 active torsions:
REMARK  status: ('A' for Active; 'I' for Inactive)
REMARK    1  A    between atoms: C_12  and  C_17
REMARK                            x       y       z     vdW  Elec       q    Type
REMARK                         _______ _______ _______ _____ _____    ______ ____
ROOT
ATOM      1  C   UNL     1       1.281  -0.702   0.000  0.00  0.00    +0.000 A 
ATOM      2  C   UNL     1       1.694  -1.416   0.000  0.00  0.00    +0.000 A 
ATOM      3  C   UNL     1       2.518  -1.416   0.000  0.00  0.00    +0.000 A 
ATOM      4  C   UNL     1       2.931  -0.702   0.000  0.00  0.00    +0.000 A 
ATOM      5  N   UNL     1       2.518   0.013   0.000  0.00  0.00    +0.000 NA
ATOM      6  C   UNL     1       1.694   0.013   0.000  0.00  0.00    +0.000 A 
ATOM      7  C   UNL     1       0.456  -0.702   0.000  0.00  0.00    +0.000 A 
ATOM      8  C   UNL     1       0.043  -1.416   0.000  0.00  0.00    +0.000 A 
ATOM      9  C   UNL     1       0.456  -2.131   0.000  0.00  0.00    +0.000 A 
ATOM     10  C   UNL     1       1.281  -2.131   0.000  0.00  0.00    +0.000 A 
ATOM     11  C   UNL     1       0.043   0.013   0.000  0.00  0.00    +0.000 A 
ATOM     12  C   UNL     1      -0.781   0.013   0.000  0.00  0.00    +0.000 A 
ATOM     13  C   UNL     1      -1.194  -0.702   0.000  0.00  0.00    +0.000 A 
ATOM     14  N   UNL     1      -0.781  -1.416   0.000  0.00  0.00    +0.000 NA
ENDROOT
BRANCH  12  17
ATOM     15  C   UNL     1      -1.194   2.156   0.000  0.00  0.00    +0.000 A 
ATOM     16  C   UNL     1      -0.781   1.442   0.000  0.00  0.00    +0.000 A 
ATOM     17  C   UNL     1      -1.194   0.727   0.000  0.00  0.00    +0.000 A 
ATOM     18  C   UNL     1      -2.019   0.727   0.000  0.00  0.00    +0.000 A 
ATOM     19  C   UNL     1      -2.432   1.442   0.000  0.00  0.00    +0.000 A 
ATOM     20  C   UNL     1      -2.019   2.156   0.000  0.00  0.00    +0.000 A 
ATOM     21  O   UNL     1      -2.432   2.871   0.000  0.00  0.00    +0.000 OA
ENDBRANCH  12  17
TORSDOF 1
