REMARK  Name = 9IP
REMARK  5 active torsions:
REMARK  status: ('A' for Active; 'I' for Inactive)
REMARK    1  A    between atoms: O_2  and  C_3
REMARK    2  A    between atoms: C_7  and  C_9
REMARK    3  A    between atoms: C_13  and  C_14
REMARK    4  A    between atoms: C_14  and  N_15
REMARK    5  A    between atoms: N_15  and  C_16
REMARK                            x       y       z     vdW  Elec       q    Type
REMARK                         _______ _______ _______ _____ _____    ______ ____
ROOT
ATOM      1  C   UNL     1       2.048   0.392   0.000  0.00  0.00    +0.000 A 
ATOM      2  C   UNL     1       1.333   0.804   0.000  0.00  0.00    +0.000 A 
ATOM      3  C   UNL     1       0.619   0.392   0.000  0.00  0.00    +0.000 A 
ATOM      4  C   UNL     1       0.619  -0.433   0.000  0.00  0.00    +0.000 A 
ATOM      5  C   UNL     1       1.333  -0.846   0.000  0.00  0.00    +0.000 A 
ATOM      6  C   UNL     1       2.048  -0.433   0.000  0.00  0.00    +0.000 A 
ENDROOT
BRANCH   1  11
ATOM      7  C   UNL     1       3.477   2.042   0.000  0.00  0.00    +0.000 A 
ATOM      8  C   UNL     1       4.191   1.629   0.000  0.00  0.00    +0.000 A 
ATOM      9  N   UNL     1       4.191   0.804   0.000  0.00  0.00    +0.000 NA
ATOM     10  C   UNL     1       3.477   0.392   0.000  0.00  0.00    +0.000 A 
ATOM     11  C   UNL     1       2.763   0.804   0.000  0.00  0.00    +0.000 A 
ATOM     12  C   UNL     1       2.763   1.629   0.000  0.00  0.00    +0.000 A 
BRANCH   7  14
ATOM     13  C   UNL     1       4.191   3.279   0.000  0.00  0.00    +0.000 C 
ATOM     14  O   UNL     1       3.477   2.866   0.000  0.00  0.00    +0.000 OA
ENDBRANCH   7  14
ENDBRANCH   1  11
BRANCH   5  15
ATOM     15  C   UNL     1       1.333  -1.671   0.000  0.00  0.00    +0.000 C 
BRANCH  15  16
ATOM     16  N   UNL     1       0.619  -2.083   0.000  0.00  0.00    +0.000 NA
BRANCH  16  17
ATOM     17  C   UNL     1       0.619  -2.909   0.000  0.00  0.00    +0.000 A 
ATOM     18  C   UNL     1      -0.095  -3.321   0.000  0.00  0.00    +0.000 A 
ATOM     19  C   UNL     1      -0.095  -4.146   0.000  0.00  0.00    +0.000 A 
ATOM     20  C   UNL     1       0.619  -4.559   0.000  0.00  0.00    +0.000 A 
ATOM     21  N   UNL     1       1.333  -4.146   0.000  0.00  0.00    +0.000 NA
ATOM     22  C   UNL     1       1.333  -3.321   0.000  0.00  0.00    +0.000 A 
ATOM     23  N   UNL     1       2.048  -2.909   0.000  0.00  0.00    +0.000 NA
ENDBRANCH  16  17
ENDBRANCH  15  16
ENDBRANCH   5  15
TORSDOF 5
