REMARK  Name = A04
REMARK  4 active torsions:
REMARK  status: ('A' for Active; 'I' for Inactive)
REMARK    1  A    between atoms: C_2  and  C_4
REMARK    2  A    between atoms: C_8  and  C_9
REMARK    3  A    between atoms: C_14  and  O_15
REMARK    4  A    between atoms: O_15  and  C_16
REMARK                            x       y       z     vdW  Elec       q    Type
REMARK                         _______ _______ _______ _____ _____    ______ ____
ROOT
ATOM      1  C   UNL     1       0.513  -0.521   0.000  0.00  0.00    +0.000 A 
ATOM      2  C   UNL     1       1.334  -0.434   0.000  0.00  0.00    +0.000 A 
ATOM      3  C   UNL     1       1.819  -1.102   0.000  0.00  0.00    +0.000 A 
ATOM      4  C   UNL     1       1.483  -1.856   0.000  0.00  0.00    +0.000 A 
ATOM      5  C   UNL     1       0.663  -1.942   0.000  0.00  0.00    +0.000 A 
ATOM      6  C   UNL     1       0.178  -1.274   0.000  0.00  0.00    +0.000 A 
ENDROOT
BRANCH   1  11
ATOM      7  C   UNL     1      -0.384   1.416   0.000  0.00  0.00    +0.000 A 
ATOM      8  O   UNL     1       0.283   0.931   0.000  0.00  0.00    +0.000 OA
ATOM      9  C   UNL     1      -1.052   0.931   0.000  0.00  0.00    +0.000 A 
ATOM     10  C   UNL     1      -0.797   0.147   0.000  0.00  0.00    +0.000 A 
ATOM     11  C   UNL     1       0.028   0.147   0.000  0.00  0.00    +0.000 A 
BRANCH   7  13
ATOM     12  O   UNL     1      -1.099   2.654   0.000  0.00  0.00    +0.000 OA
ATOM     13  C   UNL     1      -0.384   2.241   0.000  0.00  0.00    +0.000 C 
ATOM     14  O   UNL     1       0.330   2.654   0.000  0.00  0.00    +0.000 OA
ENDBRANCH   7  13
ENDBRANCH   1  11
BRANCH   6  15
ATOM     15  O   UNL     1      -0.643  -1.361   0.000  0.00  0.00    +0.000 OA
BRANCH  15  16
ATOM     16  C   UNL     1      -0.978  -2.114   0.000  0.00  0.00    +0.000 C 
ATOM     17  F   UNL     1      -1.314  -2.868   0.000  0.00  0.00    +0.000 F 
ATOM     18  F   UNL     1      -1.732  -1.779   0.000  0.00  0.00    +0.000 F 
ATOM     19  F   UNL     1      -0.225  -2.450   0.000  0.00  0.00    +0.000 F 
ENDBRANCH  15  16
ENDBRANCH   6  15
TORSDOF 4
