REMARK  Name = A05
REMARK  3 active torsions:
REMARK  status: ('A' for Active; 'I' for Inactive)
REMARK    1  A    between atoms: C_2  and  C_4
REMARK    2  A    between atoms: C_8  and  C_9
REMARK    3  A    between atoms: C_12  and  N_13
REMARK                            x       y       z     vdW  Elec       q    Type
REMARK                         _______ _______ _______ _____ _____    ______ ____
ROOT
ATOM      1  C   UNL     1       0.245  -0.197   0.000  0.00  0.00    +0.000 A 
ATOM      2  C   UNL     1       1.066  -0.111   0.000  0.00  0.00    +0.000 A 
ATOM      3  C   UNL     1       1.550  -0.778   0.000  0.00  0.00    +0.000 A 
ATOM      4  C   UNL     1       1.215  -1.532   0.000  0.00  0.00    +0.000 A 
ATOM      5  C   UNL     1       0.395  -1.618   0.000  0.00  0.00    +0.000 A 
ATOM      6  C   UNL     1      -0.090  -0.951   0.000  0.00  0.00    +0.000 A 
ATOM      7 CL   UNL     1      -0.911  -1.037   0.000  0.00  0.00    +0.000 Cl
ENDROOT
BRANCH   1  12
ATOM      8  C   UNL     1      -0.652   1.740   0.000  0.00  0.00    +0.000 A 
ATOM      9  O   UNL     1       0.015   1.255   0.000  0.00  0.00    +0.000 OA
ATOM     10  C   UNL     1      -1.320   1.255   0.000  0.00  0.00    +0.000 A 
ATOM     11  C   UNL     1      -1.065   0.470   0.000  0.00  0.00    +0.000 A 
ATOM     12  C   UNL     1      -0.240   0.470   0.000  0.00  0.00    +0.000 A 
BRANCH   8  14
ATOM     13  O   UNL     1      -1.367   2.978   0.000  0.00  0.00    +0.000 OA
ATOM     14  C   UNL     1      -0.652   2.565   0.000  0.00  0.00    +0.000 C 
ATOM     15  O   UNL     1       0.062   2.978   0.000  0.00  0.00    +0.000 OA
ENDBRANCH   8  14
ENDBRANCH   1  12
BRANCH   4  16
ATOM     16  N   UNL     1       1.700  -2.199   0.000  0.00  0.00    +0.000 N 
ATOM     17  O   UNL     1       2.520  -2.113   0.000  0.00  0.00    +0.000 OA
ATOM     18  O   UNL     1       1.364  -2.953   0.000  0.00  0.00    +0.000 OA
ENDBRANCH   4  16
TORSDOF 3
