REMARK  Name = A11
REMARK  3 active torsions:
REMARK  status: ('A' for Active; 'I' for Inactive)
REMARK    1  A    between atoms: N_8  and  C_9
REMARK    2  A    between atoms: C_15  and  O_17
REMARK    3  A    between atoms: O_17  and  C_18
REMARK                            x       y       z     vdW  Elec       q    Type
REMARK                         _______ _______ _______ _____ _____    ______ ____
ROOT
ATOM      1  C   UNL     1       0.156  -0.665   0.000  0.00  0.00    +0.000 C 
ATOM      2  C   UNL     1      -0.559  -1.078   0.000  0.00  0.00    +0.000 C 
ATOM      3  C   UNL     1      -1.273  -0.665   0.000  0.00  0.00    +0.000 C 
ATOM      4  N   UNL     1      -1.273   0.160   0.000  0.00  0.00    +0.000 N 
ATOM      5  C   UNL     1      -0.559   0.572   0.000  0.00  0.00    +0.000 C 
ATOM      6  C   UNL     1       0.156   0.160   0.000  0.00  0.00    +0.000 C 
ATOM      7  C   UNL     1      -1.988   0.572   0.000  0.00  0.00    +0.000 C 
ATOM      8  O   UNL     1      -1.988   1.397   0.000  0.00  0.00    +0.000 OA
ENDROOT
BRANCH   1  16
ATOM      9 CL   UNL     1       2.299   1.397   0.000  0.00  0.00    +0.000 Cl
ATOM     10  C   UNL     1       2.299   0.572   0.000  0.00  0.00    +0.000 A 
ATOM     11  C   UNL     1       3.014   0.160   0.000  0.00  0.00    +0.000 A 
ATOM     12  C   UNL     1       3.014  -0.665   0.000  0.00  0.00    +0.000 A 
ATOM     13  N   UNL     1       2.299  -1.078   0.000  0.00  0.00    +0.000 NA
ATOM     14  C   UNL     1       1.585  -0.665   0.000  0.00  0.00    +0.000 A 
ATOM     15  C   UNL     1       1.585   0.160   0.000  0.00  0.00    +0.000 A 
ATOM     16  N   UNL     1       0.870  -1.078   0.000  0.00  0.00    +0.000 NA
ENDBRANCH   1  16
BRANCH   7  17
ATOM     17  O   UNL     1      -2.702   0.160   0.000  0.00  0.00    +0.000 OA
BRANCH  17  18
ATOM     18  C   UNL     1      -3.417   0.572   0.000  0.00  0.00    +0.000 C 
ATOM     19  C   UNL     1      -4.131   0.160   0.000  0.00  0.00    +0.000 C 
ENDBRANCH  17  18
ENDBRANCH   7  17
TORSDOF 3
