REMARK  Name = A17
REMARK  4 active torsions:
REMARK  status: ('A' for Active; 'I' for Inactive)
REMARK    1  A    between atoms: C_7  and  C_19
REMARK    2  A    between atoms: C_11  and  C_16
REMARK    3  A    between atoms: C_15  and  C_23
REMARK    4  A    between atoms: C_20  and  N_30
REMARK                            x       y       z     vdW  Elec       q    Type
REMARK                         _______ _______ _______ _____ _____    ______ ____
ROOT
ATOM      1  C   UNL     1      -1.997  -0.596   0.000  0.00  0.00    +0.000 A 
ATOM      2  C   UNL     1      -1.997   0.229   0.000  0.00  0.00    +0.000 A 
ATOM      3  C   UNL     1      -1.282   0.641   0.000  0.00  0.00    +0.000 A 
ATOM      4  C   UNL     1      -0.568   0.229   0.000  0.00  0.00    +0.000 A 
ATOM      5  C   UNL     1      -2.711  -1.009   0.000  0.00  0.00    +0.000 A 
ATOM      6  C   UNL     1      -0.568  -0.596   0.000  0.00  0.00    +0.000 A 
ATOM      7  C   UNL     1      -1.282  -1.009   0.000  0.00  0.00    +0.000 A 
ATOM      8  N   UNL     1      -3.426  -0.596   0.000  0.00  0.00    +0.000 NA
ATOM      9  N   UNL     1      -3.426   0.229   0.000  0.00  0.00    +0.000 NA
ATOM     10  C   UNL     1      -2.711   0.641   0.000  0.00  0.00    +0.000 A 
ENDROOT
BRANCH   6  15
ATOM     11  C   UNL     1       0.861  -0.596   0.000  0.00  0.00    +0.000 A 
ATOM     12  C   UNL     1       1.575  -1.009   0.000  0.00  0.00    +0.000 A 
ATOM     13  C   UNL     1       0.146  -1.834   0.000  0.00  0.00    +0.000 A 
ATOM     14  C   UNL     1       0.861  -2.246   0.000  0.00  0.00    +0.000 A 
ATOM     15  C   UNL     1       0.146  -1.009   0.000  0.00  0.00    +0.000 A 
ATOM     16  C   UNL     1       1.575  -1.834   0.000  0.00  0.00    +0.000 A 
ATOM     17  C   UNL     1      -0.568  -2.246   0.000  0.00  0.00    +0.000 C 
BRANCH  12  19
ATOM     18  O   UNL     1       2.290   0.229   0.000  0.00  0.00    +0.000 OA
ATOM     19  C   UNL     1       2.290  -0.596   0.000  0.00  0.00    +0.000 C 
ATOM     20  N   UNL     1       3.004  -1.009   0.000  0.00  0.00    +0.000 NA
BRANCH  20  21
ATOM     21  C   UNL     1       3.719  -0.596   0.000  0.00  0.00    +0.000 C 
ATOM     22  C   UNL     1       4.131   0.118   0.000  0.00  0.00    +0.000 C 
ATOM     23  C   UNL     1       4.544  -0.596   0.000  0.00  0.00    +0.000 C 
ENDBRANCH  20  21
ENDBRANCH  12  19
ENDBRANCH   6  15
BRANCH  10  24
ATOM     24  C   UNL     1      -2.711   1.466   0.000  0.00  0.00    +0.000 A 
ATOM     25  C   UNL     1      -3.426   1.879   0.000  0.00  0.00    +0.000 A 
ATOM     26  C   UNL     1      -3.426   2.704   0.000  0.00  0.00    +0.000 A 
ATOM     27  C   UNL     1      -2.711   3.116   0.000  0.00  0.00    +0.000 A 
ATOM     28  C   UNL     1      -1.997   2.704   0.000  0.00  0.00    +0.000 A 
ATOM     29  C   UNL     1      -1.997   1.879   0.000  0.00  0.00    +0.000 A 
ATOM     30  C   UNL     1      -1.282   1.466   0.000  0.00  0.00    +0.000 C 
ENDBRANCH  10  24
TORSDOF 4
