REMARK  Name = A18
REMARK  3 active torsions:
REMARK  status: ('A' for Active; 'I' for Inactive)
REMARK    1  A    between atoms: C_2  and  C_4
REMARK    2  A    between atoms: C_8  and  C_9
REMARK    3  A    between atoms: C_9  and  C_10
REMARK                            x       y       z     vdW  Elec       q    Type
REMARK                         _______ _______ _______ _____ _____    ______ ____
ROOT
ATOM      1  C   UNL     1      -0.082   2.001   0.000  0.00  0.00    +0.000 A 
ATOM      2  O   UNL     1       0.585   1.516   0.000  0.00  0.00    +0.000 OA
ATOM      3  C   UNL     1      -0.750   1.516   0.000  0.00  0.00    +0.000 A 
ATOM      4  C   UNL     1      -0.495   0.732   0.000  0.00  0.00    +0.000 A 
ATOM      5  C   UNL     1       0.330   0.732   0.000  0.00  0.00    +0.000 A 
ENDROOT
BRANCH   1   7
ATOM      6  O   UNL     1      -0.797   3.239   0.000  0.00  0.00    +0.000 OA
ATOM      7  C   UNL     1      -0.082   2.826   0.000  0.00  0.00    +0.000 C 
ATOM      8  O   UNL     1       0.632   3.239   0.000  0.00  0.00    +0.000 OA
ENDBRANCH   1   7
BRANCH   5   9
ATOM      9  C   UNL     1       0.815   0.064   0.000  0.00  0.00    +0.000 C 
BRANCH   9  10
ATOM     10  C   UNL     1       0.480  -0.689   0.000  0.00  0.00    +0.000 A 
ATOM     11  C   UNL     1       0.965  -1.357   0.000  0.00  0.00    +0.000 A 
ATOM     12  C   UNL     1       0.629  -2.110   0.000  0.00  0.00    +0.000 A 
ATOM     13  C   UNL     1      -0.191  -2.197   0.000  0.00  0.00    +0.000 A 
ATOM     14  C   UNL     1      -0.676  -1.529   0.000  0.00  0.00    +0.000 A 
ATOM     15  C   UNL     1      -0.341  -0.775   0.000  0.00  0.00    +0.000 A 
ATOM     16 CL   UNL     1      -0.826  -0.108   0.000  0.00  0.00    +0.000 Cl
ENDBRANCH   9  10
ENDBRANCH   5   9
TORSDOF 3
