REMARK  Name = A19
REMARK  4 active torsions:
REMARK  status: ('A' for Active; 'I' for Inactive)
REMARK    1  A    between atoms: C_5  and  S_8
REMARK    2  A    between atoms: S_8  and  N_11
REMARK    3  A    between atoms: N_11  and  C_12
REMARK    4  A    between atoms: C_17  and  C_19
REMARK                            x       y       z     vdW  Elec       q    Type
REMARK                         _______ _______ _______ _____ _____    ______ ____
ROOT
ATOM      1  N   UNL     1       1.049  -0.697   0.000  0.00  0.00    +0.000 NA
ENDROOT
BRANCH   1   2
ATOM      2  C   UNL     1       0.334  -1.109   0.000  0.00  0.00    +0.000 A 
ATOM      3  C   UNL     1       0.334  -1.934   0.000  0.00  0.00    +0.000 A 
ATOM      4  C   UNL     1      -0.380  -2.347   0.000  0.00  0.00    +0.000 A 
ATOM      5  C   UNL     1      -1.095  -1.934   0.000  0.00  0.00    +0.000 A 
ATOM      6  C   UNL     1      -1.095  -1.109   0.000  0.00  0.00    +0.000 A 
ATOM      7  C   UNL     1      -0.380  -0.697   0.000  0.00  0.00    +0.000 A 
ATOM      8 BR   UNL     1      -1.809  -2.347   0.000  0.00  0.00    +0.000 Br
BRANCH   7   9
ATOM      9  C   UNL     1      -0.380   0.128   0.000  0.00  0.00    +0.000 C 
ATOM     10  O   UNL     1      -1.095   0.541   0.000  0.00  0.00    +0.000 OA
ATOM     11  O   UNL     1       0.334   0.541   0.000  0.00  0.00    +0.000 OA
ENDBRANCH   7   9
ENDBRANCH   1   2
BRANCH   1  12
ATOM     12  S   UNL     1       1.049   0.128   0.000  0.00  0.00    +0.000 S 
ATOM     13  O   UNL     1       0.224   0.128   0.000  0.00  0.00    +0.000 OA
ATOM     14  O   UNL     1       1.874   0.128   0.000  0.00  0.00    +0.000 OA
BRANCH  12  19
ATOM     15 CL   UNL     1       1.049   3.428   0.000  0.00  0.00    +0.000 Cl
ATOM     16  C   UNL     1       1.049   2.603   0.000  0.00  0.00    +0.000 A 
ATOM     17  C   UNL     1       1.763   2.191   0.000  0.00  0.00    +0.000 A 
ATOM     18  C   UNL     1       1.763   1.366   0.000  0.00  0.00    +0.000 A 
ATOM     19  C   UNL     1       1.049   0.953   0.000  0.00  0.00    +0.000 A 
ATOM     20  C   UNL     1       0.334   1.366   0.000  0.00  0.00    +0.000 A 
ATOM     21  C   UNL     1       0.334   2.191   0.000  0.00  0.00    +0.000 A 
ENDBRANCH  12  19
ENDBRANCH   1  12
TORSDOF 4
