REMARK  Name = A25
REMARK  0 active torsions:
REMARK  status: ('A' for Active; 'I' for Inactive)
REMARK                            x       y       z     vdW  Elec       q    Type
REMARK                         _______ _______ _______ _____ _____    ______ ____
ROOT
ATOM      1  C   UNL     1       0.340  -2.188   0.000  0.00  0.00    +0.000 A 
ATOM      2  C   UNL     1      -0.395  -1.815   0.000  0.00  0.00    +0.000 A 
ATOM      3  C   UNL     1      -0.440  -0.991   0.000  0.00  0.00    +0.000 A 
ATOM      4  C   UNL     1       0.251  -0.540   0.000  0.00  0.00    +0.000 A 
ATOM      5  C   UNL     1       0.987  -0.914   0.000  0.00  0.00    +0.000 A 
ATOM      6  C   UNL     1       1.032  -1.737   0.000  0.00  0.00    +0.000 A 
ATOM      7 CL   UNL     1       1.678  -0.463   0.000  0.00  0.00    +0.000 Cl
ATOM      8  O   UNL     1       0.163  -2.422   0.000  0.00  0.00    +0.000 OA
ATOM      9  C   UNL     1      -0.241  -3.141   0.000  0.00  0.00    +0.000 C 
ATOM     10  N   UNL     1      -1.163  -0.508   0.000  0.00  0.00    +0.000 NA
ATOM     11  C   UNL     1      -1.873  -0.929   0.000  0.00  0.00    +0.000 C 
ATOM     12  N   UNL     1      -2.592  -0.524   0.000  0.00  0.00    +0.000 NA
ATOM     13  O   UNL     1      -1.864  -1.754   0.000  0.00  0.00    +0.000 OA
ATOM     14  C   UNL     1      -3.302  -0.944   0.000  0.00  0.00    +0.000 A 
ATOM     15  N   UNL     1      -3.293  -1.769   0.000  0.00  0.00    +0.000 NA
ATOM     16  C   UNL     1      -4.003  -2.189   0.000  0.00  0.00    +0.000 A 
ATOM     17  C   UNL     1      -4.722  -1.784   0.000  0.00  0.00    +0.000 A 
ATOM     18  N   UNL     1      -4.731  -0.959   0.000  0.00  0.00    +0.000 NA
ATOM     19  C   UNL     1      -4.021  -0.539   0.000  0.00  0.00    +0.000 A 
ATOM     20  O   UNL     1      -3.994  -3.014   0.000  0.00  0.00    +0.000 OA
ATOM     21  C   UNL     1      -3.276  -3.419   0.000  0.00  0.00    +0.000 C 
ATOM     22  C   UNL     1      -2.566  -2.999   0.000  0.00  0.00    +0.000 C 
ATOM     23  C   UNL     1      -1.050  -2.978   0.000  0.00  0.00    +0.000 C 
ATOM     24  C   UNL     1      -1.847  -3.404   0.000  0.00  0.00    +0.000 C 
ENDROOT
TORSDOF 0
