REMARK  Name = A37
REMARK  2 active torsions:
REMARK  status: ('A' for Active; 'I' for Inactive)
REMARK    1  A    between atoms: C_5  and  S_7
REMARK    2  A    between atoms: S_7  and  N_10
REMARK                            x       y       z     vdW  Elec       q    Type
REMARK                         _______ _______ _______ _____ _____    ______ ____
ROOT
ATOM      1  S   UNL     1      -1.161   0.257   0.000  0.00  0.00    +0.000 S 
ATOM      2  O   UNL     1      -0.447  -0.156   0.000  0.00  0.00    +0.000 OA
ATOM      3  O   UNL     1      -1.876   0.669   0.000  0.00  0.00    +0.000 OA
ENDROOT
BRANCH   1   4
ATOM      4  N   UNL     1      -0.749   0.971   0.000  0.00  0.00    +0.000 NA
ATOM      5  C   UNL     1       0.076   0.971   0.000  0.00  0.00    +0.000 A 
ATOM      6  N   UNL     1       0.561   1.639   0.000  0.00  0.00    +0.000 NA
ATOM      7  C   UNL     1       1.346   1.384   0.000  0.00  0.00    +0.000 A 
ATOM      8  C   UNL     1       2.060   1.796   0.000  0.00  0.00    +0.000 A 
ATOM      9  C   UNL     1       2.775   1.384   0.000  0.00  0.00    +0.000 A 
ATOM     10 CL   UNL     1       3.489   1.796   0.000  0.00  0.00    +0.000 Cl
ATOM     11  C   UNL     1       2.775   0.559   0.000  0.00  0.00    +0.000 A 
ATOM     12  C   UNL     1       2.060   0.146   0.000  0.00  0.00    +0.000 A 
ATOM     13  C   UNL     1       1.346   0.559   0.000  0.00  0.00    +0.000 A 
ATOM     14  O   UNL     1       0.561   0.304   0.000  0.00  0.00    +0.000 OA
ENDBRANCH   1   4
BRANCH   1  19
ATOM     15  C   UNL     1      -1.574  -1.887   0.000  0.00  0.00    +0.000 A 
ATOM     16  C   UNL     1      -2.399  -1.887   0.000  0.00  0.00    +0.000 A 
ATOM     17  C   UNL     1      -2.811  -1.172   0.000  0.00  0.00    +0.000 A 
ATOM     18  C   UNL     1      -2.399  -0.458   0.000  0.00  0.00    +0.000 A 
ATOM     19  C   UNL     1      -1.574  -0.458   0.000  0.00  0.00    +0.000 A 
ATOM     20  C   UNL     1      -1.161  -1.172   0.000  0.00  0.00    +0.000 A 
ATOM     21 CL   UNL     1      -3.636  -1.172   0.000  0.00  0.00    +0.000 Cl
ATOM     22 CL   UNL     1      -0.336  -1.172   0.000  0.00  0.00    +0.000 Cl
ENDBRANCH   1  19
TORSDOF 2
