REMARK  Name = A3M
REMARK  2 active torsions:
REMARK  status: ('A' for Active; 'I' for Inactive)
REMARK    1  A    between atoms: C_6  and  C_7
REMARK    2  A    between atoms: C_7  and  C_8
REMARK                            x       y       z     vdW  Elec       q    Type
REMARK                         _______ _______ _______ _____ _____    ______ ____
ROOT
ATOM      1  C   UNL     1       0.974   1.606   0.000  0.00  0.00    +0.000 C 
ATOM      2  C   UNL     1       0.720   0.822   0.000  0.00  0.00    +0.000 C 
ATOM      3  N   UNL     1      -0.105   0.822   0.000  0.00  0.00    +0.000 N 
ATOM      4  C   UNL     1      -0.360   1.606   0.000  0.00  0.00    +0.000 C 
ATOM      5  C   UNL     1       0.307   2.091   0.000  0.00  0.00    +0.000 C 
ATOM      6  C   UNL     1      -0.590   0.154   0.000  0.00  0.00    +0.000 C 
ATOM      7  O   UNL     1      -1.411   0.240   0.000  0.00  0.00    +0.000 OA
ENDROOT
BRANCH   6   8
ATOM      8  C   UNL     1      -0.255  -0.599   0.000  0.00  0.00    +0.000 C 
ATOM      9  N   UNL     1       0.566  -0.686   0.000  0.00  0.00    +0.000 NA
BRANCH   8  10
ATOM     10  C   UNL     1      -0.740  -1.267   0.000  0.00  0.00    +0.000 C 
ATOM     11  C   UNL     1      -0.404  -2.021   0.000  0.00  0.00    +0.000 C 
ATOM     12  C   UNL     1      -1.560  -1.181   0.000  0.00  0.00    +0.000 C 
ENDBRANCH   8  10
ENDBRANCH   6   8
TORSDOF 2
