REMARK  Name = A41
REMARK  4 active torsions:
REMARK  status: ('A' for Active; 'I' for Inactive)
REMARK    1  A    between atoms: C_4  and  S_7
REMARK    2  A    between atoms: S_7  and  N_8
REMARK    3  A    between atoms: N_8  and  C_11
REMARK    4  A    between atoms: C_16  and  C_17
REMARK                            x       y       z     vdW  Elec       q    Type
REMARK                         _______ _______ _______ _____ _____    ______ ____
ROOT
ATOM      1  N   UNL     1       1.102  -0.871   0.000  0.00  0.00    +0.000 NA
ENDROOT
BRANCH   1   2
ATOM      2  C   UNL     1       0.388  -1.283   0.000  0.00  0.00    +0.000 A 
ATOM      3  C   UNL     1       0.388  -2.108   0.000  0.00  0.00    +0.000 A 
ATOM      4  C   UNL     1      -0.327  -2.521   0.000  0.00  0.00    +0.000 A 
ATOM      5  C   UNL     1      -1.041  -2.108   0.000  0.00  0.00    +0.000 A 
ATOM      6  C   UNL     1      -1.041  -1.283   0.000  0.00  0.00    +0.000 A 
ATOM      7  C   UNL     1      -0.327  -0.871   0.000  0.00  0.00    +0.000 A 
ATOM      8  C   UNL     1      -1.756  -2.521   0.000  0.00  0.00    +0.000 C 
BRANCH   7   9
ATOM      9  C   UNL     1      -0.327  -0.046   0.000  0.00  0.00    +0.000 C 
ATOM     10  O   UNL     1      -1.041   0.367   0.000  0.00  0.00    +0.000 OA
ATOM     11  O   UNL     1       0.388   0.367   0.000  0.00  0.00    +0.000 OA
ENDBRANCH   7   9
ENDBRANCH   1   2
BRANCH   1  12
ATOM     12  S   UNL     1       1.102  -0.046   0.000  0.00  0.00    +0.000 S 
ATOM     13  O   UNL     1       0.277  -0.046   0.000  0.00  0.00    +0.000 OA
ATOM     14  O   UNL     1       1.927  -0.046   0.000  0.00  0.00    +0.000 OA
BRANCH  12  18
ATOM     15  C   UNL     1       1.102   2.429   0.000  0.00  0.00    +0.000 A 
ATOM     16  C   UNL     1       1.817   2.017   0.000  0.00  0.00    +0.000 A 
ATOM     17  C   UNL     1       1.817   1.192   0.000  0.00  0.00    +0.000 A 
ATOM     18  C   UNL     1       1.102   0.779   0.000  0.00  0.00    +0.000 A 
ATOM     19  C   UNL     1       0.388   1.192   0.000  0.00  0.00    +0.000 A 
ATOM     20  C   UNL     1       0.388   2.017   0.000  0.00  0.00    +0.000 A 
ENDBRANCH  12  18
ENDBRANCH   1  12
TORSDOF 4
