REMARK  Name = A42
REMARK  4 active torsions:
REMARK  status: ('A' for Active; 'I' for Inactive)
REMARK    1  A    between atoms: C_1  and  C_7
REMARK    2  A    between atoms: N_12  and  C_13
REMARK    3  A    between atoms: C_16  and  O_21
REMARK    4  A    between atoms: C_18  and  O_19
REMARK                            x       y       z     vdW  Elec       q    Type
REMARK                         _______ _______ _______ _____ _____    ______ ____
ROOT
ATOM      1  C   UNL     1       1.849   2.796   0.000  0.00  0.00    +0.000 A 
ATOM      2  N   UNL     1       1.135   2.383   0.000  0.00  0.00    +0.000 NA
ATOM      3  C   UNL     1       1.135   1.558   0.000  0.00  0.00    +0.000 A 
ATOM      4  C   UNL     1       1.849   1.145   0.000  0.00  0.00    +0.000 A 
ATOM      5  N   UNL     1       2.564   1.558   0.000  0.00  0.00    +0.000 NA
ATOM      6  C   UNL     1       2.564   2.383   0.000  0.00  0.00    +0.000 A 
ATOM      7  N   UNL     1       1.849   0.321   0.000  0.00  0.00    +0.000 NA
ATOM      8  C   UNL     1       1.135  -0.092   0.000  0.00  0.00    +0.000 C 
ATOM      9  O   UNL     1       0.420   0.321   0.000  0.00  0.00    +0.000 OA
ATOM     10  N   UNL     1       1.135  -0.917   0.000  0.00  0.00    +0.000 NA
ENDROOT
BRANCH  10  11
ATOM     11  C   UNL     1       0.420  -1.329   0.000  0.00  0.00    +0.000 A 
ATOM     12  C   UNL     1       0.420  -2.155   0.000  0.00  0.00    +0.000 A 
ATOM     13  C   UNL     1      -0.294  -2.567   0.000  0.00  0.00    +0.000 A 
ATOM     14  C   UNL     1      -1.009  -2.155   0.000  0.00  0.00    +0.000 A 
ATOM     15  C   UNL     1      -1.009  -1.329   0.000  0.00  0.00    +0.000 A 
ATOM     16  C   UNL     1      -0.294  -0.917   0.000  0.00  0.00    +0.000 A 
ATOM     17 CL   UNL     1      -0.294  -3.392   0.000  0.00  0.00    +0.000 Cl
BRANCH  16  18
ATOM     18  O   UNL     1      -0.294  -0.092   0.000  0.00  0.00    +0.000 OA
ATOM     19  C   UNL     1      -1.009   0.321   0.000  0.00  0.00    +0.000 C 
ENDBRANCH  16  18
BRANCH  14  20
ATOM     20  O   UNL     1      -1.723  -2.567   0.000  0.00  0.00    +0.000 OA
ATOM     21  C   UNL     1      -1.723  -3.392   0.000  0.00  0.00    +0.000 C 
ENDBRANCH  14  20
ENDBRANCH  10  11
BRANCH   1  22
ATOM     22  C   UNL     1       1.849   3.620   0.000  0.00  0.00    +0.000 C 
ATOM     23  N   UNL     1       1.849   4.446   0.000  0.00  0.00    +0.000 NA
ENDBRANCH   1  22
TORSDOF 4
