REMARK  Name = A45
REMARK  2 active torsions:
REMARK  status: ('A' for Active; 'I' for Inactive)
REMARK    1  A    between atoms: N_8  and  C_12
REMARK    2  A    between atoms: C_16  and  C_18
REMARK                            x       y       z     vdW  Elec       q    Type
REMARK                         _______ _______ _______ _____ _____    ______ ____
ROOT
ATOM      1  N   UNL     1       3.521   0.636   0.000  0.00  0.00    +0.000 NA
ATOM      2  C   UNL     1       2.807   0.224   0.000  0.00  0.00    +0.000 A 
ATOM      3  N   UNL     1       2.807  -0.601   0.000  0.00  0.00    +0.000 NA
ATOM      4  C   UNL     1       2.092  -1.014   0.000  0.00  0.00    +0.000 A 
ATOM      5  O   UNL     1       2.092  -1.839   0.000  0.00  0.00    +0.000 OA
ATOM      6  C   UNL     1       1.378  -0.601   0.000  0.00  0.00    +0.000 A 
ATOM      7  N   UNL     1       0.593  -0.856   0.000  0.00  0.00    +0.000 NA
ATOM      8  N   UNL     1       0.108  -0.189   0.000  0.00  0.00    +0.000 N 
ATOM      9  N   UNL     1       0.593   0.479   0.000  0.00  0.00    +0.000 NA
ATOM     10  C   UNL     1       1.378   0.224   0.000  0.00  0.00    +0.000 A 
ATOM     11  N   UNL     1       2.092   0.636   0.000  0.00  0.00    +0.000 NA
ENDROOT
BRANCH   8  12
ATOM     12  C   UNL     1      -0.717  -0.189   0.000  0.00  0.00    +0.000 A 
ATOM     13  C   UNL     1      -1.129  -0.903   0.000  0.00  0.00    +0.000 A 
ATOM     14  C   UNL     1      -1.954  -0.903   0.000  0.00  0.00    +0.000 A 
ATOM     15  C   UNL     1      -2.366  -0.189   0.000  0.00  0.00    +0.000 A 
ATOM     16  C   UNL     1      -1.954   0.526   0.000  0.00  0.00    +0.000 A 
ATOM     17  C   UNL     1      -1.129   0.526   0.000  0.00  0.00    +0.000 A 
BRANCH  16  18
ATOM     18  C   UNL     1      -2.366   1.240   0.000  0.00  0.00    +0.000 C 
ATOM     19  O   UNL     1      -3.192   1.240   0.000  0.00  0.00    +0.000 OA
ATOM     20  O   UNL     1      -1.954   1.955   0.000  0.00  0.00    +0.000 OA
ENDBRANCH  16  18
ENDBRANCH   8  12
TORSDOF 2
