REMARK  Name = A46
REMARK  4 active torsions:
REMARK  status: ('A' for Active; 'I' for Inactive)
REMARK    1  A    between atoms: C_1  and  N_2
REMARK    2  A    between atoms: C_3  and  C_4
REMARK    3  A    between atoms: C_17  and  C_20
REMARK    4  A    between atoms: C_20  and  C_21
REMARK                            x       y       z     vdW  Elec       q    Type
REMARK                         _______ _______ _______ _____ _____    ______ ____
ROOT
ATOM      1  N   UNL     1       0.706  -0.501   0.000  0.00  0.00    +0.000 NA
ATOM      2  C   UNL     1       1.118   0.213   0.000  0.00  0.00    +0.000 C 
ATOM      3  O   UNL     1       0.706   0.927   0.000  0.00  0.00    +0.000 OA
ENDROOT
BRANCH   2   4
ATOM      4  C   UNL     1       1.943   0.213   0.000  0.00  0.00    +0.000 A 
ATOM      5  N   UNL     1       2.428  -0.455   0.000  0.00  0.00    +0.000 NA
ATOM      6  C   UNL     1       2.428   0.880   0.000  0.00  0.00    +0.000 A 
ATOM      7  C   UNL     1       3.213  -0.200   0.000  0.00  0.00    +0.000 A 
ATOM      8  C   UNL     1       3.213   0.625   0.000  0.00  0.00    +0.000 A 
ATOM      9  C   UNL     1       3.927  -0.612   0.000  0.00  0.00    +0.000 A 
ATOM     10  C   UNL     1       3.927   1.038   0.000  0.00  0.00    +0.000 A 
ATOM     11  C   UNL     1       4.642  -0.200   0.000  0.00  0.00    +0.000 A 
ATOM     12  C   UNL     1       4.642   0.625   0.000  0.00  0.00    +0.000 A 
ATOM     13 CL   UNL     1       5.356   1.038   0.000  0.00  0.00    +0.000 Cl
ENDBRANCH   2   4
BRANCH   1  14
ATOM     14  C   UNL     1      -0.119  -0.501   0.000  0.00  0.00    +0.000 A 
ATOM     15  C   UNL     1      -0.532  -1.216   0.000  0.00  0.00    +0.000 A 
ATOM     16  C   UNL     1      -1.357  -1.216   0.000  0.00  0.00    +0.000 A 
ATOM     17  C   UNL     1      -1.769  -0.501   0.000  0.00  0.00    +0.000 A 
ATOM     18  C   UNL     1      -1.357   0.213   0.000  0.00  0.00    +0.000 A 
ATOM     19  C   UNL     1      -0.532   0.213   0.000  0.00  0.00    +0.000 A 
BRANCH  17  20
ATOM     20  C   UNL     1      -2.594  -0.501   0.000  0.00  0.00    +0.000 C 
ATOM     21  O   UNL     1      -3.007  -1.216   0.000  0.00  0.00    +0.000 OA
BRANCH  20  22
ATOM     22  C   UNL     1      -3.007   0.213   0.000  0.00  0.00    +0.000 C 
ATOM     23  O   UNL     1      -3.832   0.213   0.000  0.00  0.00    +0.000 OA
ENDBRANCH  20  22
ENDBRANCH  17  20
ENDBRANCH   1  14
TORSDOF 4
