REMARK  Name = A49
REMARK  8 active torsions:
REMARK  status: ('A' for Active; 'I' for Inactive)
REMARK    1  A    between atoms: C_2  and  C_4
REMARK    2  A    between atoms: C_4  and  C_7
REMARK    3  A    between atoms: C_7  and  N_8
REMARK    4  A    between atoms: C_13  and  N_14
REMARK    5  A    between atoms: N_14  and  C_15
REMARK    6  A    between atoms: C_18  and  C_20
REMARK    7  A    between atoms: C_25  and  C_26
REMARK    8  A    between atoms: C_26  and  C_29
REMARK                            x       y       z     vdW  Elec       q    Type
REMARK                         _______ _______ _______ _____ _____    ______ ____
ROOT
ATOM      1  N   UNL     1       0.432   0.227   0.000  0.00  0.00    +0.000 N 
ATOM      2  C   UNL     1       1.064   0.758   0.000  0.00  0.00    +0.000 C 
ATOM      3  O   UNL     1       0.921   1.570   0.000  0.00  0.00    +0.000 OA
ENDROOT
BRANCH   2   4
ATOM      4  C   UNL     1       1.839   0.475   0.000  0.00  0.00    +0.000 A 
ATOM      5  C   UNL     1       2.471   1.006   0.000  0.00  0.00    +0.000 A 
ATOM      6  C   UNL     1       3.246   0.724   0.000  0.00  0.00    +0.000 A 
ATOM      7  C   UNL     1       1.982  -0.337   0.000  0.00  0.00    +0.000 A 
ATOM      8  C   UNL     1       2.758  -0.619   0.000  0.00  0.00    +0.000 A 
ATOM      9  C   UNL     1       3.390  -0.089   0.000  0.00  0.00    +0.000 A 
BRANCH   9  10
ATOM     10  C   UNL     1       4.165  -0.371   0.000  0.00  0.00    +0.000 C 
ATOM     11  C   UNL     1       3.883  -1.146   0.000  0.00  0.00    +0.000 C 
ATOM     12  O   UNL     1       4.447   0.404   0.000  0.00  0.00    +0.000 OA
BRANCH  10  13
ATOM     13  C   UNL     1       4.940  -0.653   0.000  0.00  0.00    +0.000 C 
ATOM     14  F   UNL     1       5.715  -0.935   0.000  0.00  0.00    +0.000 F 
ATOM     15  F   UNL     1       5.222   0.122   0.000  0.00  0.00    +0.000 F 
ATOM     16  F   UNL     1       4.658  -1.428   0.000  0.00  0.00    +0.000 F 
ENDBRANCH  10  13
ENDBRANCH   9  10
ENDBRANCH   2   4
BRANCH   1  22
ATOM     17  N   UNL     1      -1.894   1.074   0.000  0.00  0.00    +0.000 NA
ATOM     18  C   UNL     1      -1.262   1.604   0.000  0.00  0.00    +0.000 C 
ATOM     19  C   UNL     1      -0.486   1.322   0.000  0.00  0.00    +0.000 C 
ATOM     20  C   UNL     1      -1.750   0.261   0.000  0.00  0.00    +0.000 C 
ATOM     21  C   UNL     1      -0.975  -0.021   0.000  0.00  0.00    +0.000 C 
ATOM     22  C   UNL     1      -0.343   0.510   0.000  0.00  0.00    +0.000 C 
BRANCH  17  23
ATOM     23  C   UNL     1      -2.669   1.356   0.000  0.00  0.00    +0.000 C 
BRANCH  23  24
ATOM     24  C   UNL     1      -3.301   0.826   0.000  0.00  0.00    +0.000 C 
ATOM     25  C   UNL     1      -2.889   0.111   0.000  0.00  0.00    +0.000 C 
ATOM     26  C   UNL     1      -3.713   0.111   0.000  0.00  0.00    +0.000 C 
BRANCH  24  28
ATOM     27  O   UNL     1      -3.790   2.168   0.000  0.00  0.00    +0.000 OA
ATOM     28  C   UNL     1      -3.933   1.356   0.000  0.00  0.00    +0.000 C 
ATOM     29  N   UNL     1      -4.708   1.074   0.000  0.00  0.00    +0.000 NA
ENDBRANCH  24  28
ENDBRANCH  23  24
ENDBRANCH  17  23
ENDBRANCH   1  22
BRANCH   1  30
ATOM     30  C   UNL     1       0.575  -0.585   0.000  0.00  0.00    +0.000 C 
ATOM     31  C   UNL     1       0.293  -1.360   0.000  0.00  0.00    +0.000 C 
ATOM     32  C   UNL     1       1.105  -1.217   0.000  0.00  0.00    +0.000 C 
ENDBRANCH   1  30
TORSDOF 8
