REMARK  Name = A55
REMARK  4 active torsions:
REMARK  status: ('A' for Active; 'I' for Inactive)
REMARK    1  A    between atoms: C_9  and  C_13
REMARK    2  A    between atoms: C_13  and  C_14
REMARK    3  A    between atoms: C_14  and  N_15
REMARK    4  A    between atoms: C_16  and  C_17
REMARK                            x       y       z     vdW  Elec       q    Type
REMARK                         _______ _______ _______ _____ _____    ______ ____
ROOT
ATOM      1  C   UNL     1      -2.036   2.165   0.000  0.00  0.00    +0.000 A 
ATOM      2  C   UNL     1      -2.750   1.752   0.000  0.00  0.00    +0.000 A 
ATOM      3  C   UNL     1      -2.750   0.927   0.000  0.00  0.00    +0.000 A 
ATOM      4  C   UNL     1      -2.036   0.515   0.000  0.00  0.00    +0.000 A 
ATOM      5  C   UNL     1      -1.321   0.927   0.000  0.00  0.00    +0.000 A 
ATOM      6  C   UNL     1      -1.321   1.752   0.000  0.00  0.00    +0.000 A 
ATOM      7  F   UNL     1      -0.607   2.165   0.000  0.00  0.00    +0.000 F 
ATOM      8  N   UNL     1      -0.607   0.515   0.000  0.00  0.00    +0.000 NA
ATOM      9  C   UNL     1      -0.607  -0.310   0.000  0.00  0.00    +0.000 C 
ATOM     10  N   UNL     1      -1.321  -0.723   0.000  0.00  0.00    +0.000 NA
ATOM     11  C   UNL     1      -2.036  -0.310   0.000  0.00  0.00    +0.000 C 
ATOM     12  N   UNL     1      -2.750  -0.723   0.000  0.00  0.00    +0.000 NA
ATOM     13  F   UNL     1      -3.465   0.515   0.000  0.00  0.00    +0.000 F 
ENDROOT
BRANCH   9  14
ATOM     14  C   UNL     1       0.108  -0.723   0.000  0.00  0.00    +0.000 C 
BRANCH  14  15
ATOM     15  C   UNL     1       0.822  -0.310   0.000  0.00  0.00    +0.000 C 
BRANCH  15  16
ATOM     16  N   UNL     1       1.536  -0.723   0.000  0.00  0.00    +0.000 NA
ATOM     17  C   UNL     1       2.251  -0.310   0.000  0.00  0.00    +0.000 C 
ATOM     18  O   UNL     1       2.251   0.515   0.000  0.00  0.00    +0.000 OA
BRANCH  17  19
ATOM     19  C   UNL     1       2.966  -0.723   0.000  0.00  0.00    +0.000 A 
ATOM     20  C   UNL     1       3.719  -0.387   0.000  0.00  0.00    +0.000 A 
ATOM     21  C   UNL     1       4.271  -1.000   0.000  0.00  0.00    +0.000 A 
ATOM     22  O   UNL     1       3.859  -1.714   0.000  0.00  0.00    +0.000 OA
ATOM     23  C   UNL     1       3.052  -1.543   0.000  0.00  0.00    +0.000 A 
ENDBRANCH  17  19
ENDBRANCH  15  16
ENDBRANCH  14  15
ENDBRANCH   9  14
TORSDOF 4
