REMARK  Name = A56
REMARK  1 active torsions:
REMARK  status: ('A' for Active; 'I' for Inactive)
REMARK    1  A    between atoms: C_9  and  C_12
REMARK                            x       y       z     vdW  Elec       q    Type
REMARK                         _______ _______ _______ _____ _____    ______ ____
ROOT
ATOM      1  C   UNL     1      -2.948  -1.383   0.000  0.00  0.00    +0.000 A 
ATOM      2  C   UNL     1      -2.234  -1.796   0.000  0.00  0.00    +0.000 A 
ATOM      3  C   UNL     1      -1.519  -1.383   0.000  0.00  0.00    +0.000 A 
ATOM      4  C   UNL     1      -1.519  -0.558   0.000  0.00  0.00    +0.000 A 
ATOM      5  C   UNL     1      -2.234  -0.145   0.000  0.00  0.00    +0.000 A 
ATOM      6  C   UNL     1      -2.948  -0.558   0.000  0.00  0.00    +0.000 A 
ATOM      7  C   UNL     1      -0.805  -1.796   0.000  0.00  0.00    +0.000 A 
ATOM      8  C   UNL     1      -0.090  -1.383   0.000  0.00  0.00    +0.000 A 
ATOM      9  C   UNL     1      -0.090  -0.558   0.000  0.00  0.00    +0.000 A 
ATOM     10  C   UNL     1      -0.805  -0.145   0.000  0.00  0.00    +0.000 A 
ATOM     11 BR   UNL     1       0.624  -1.796   0.000  0.00  0.00    +0.000 Br
ENDROOT
BRANCH   9  12
ATOM     12  C   UNL     1       0.624  -0.145   0.000  0.00  0.00    +0.000 A 
ATOM     13  N   UNL     1       1.339  -0.558   0.000  0.00  0.00    +0.000 NA
ATOM     14  C   UNL     1       2.053  -0.145   0.000  0.00  0.00    +0.000 A 
ATOM     15  N   UNL     1       2.053   0.679   0.000  0.00  0.00    +0.000 NA
ATOM     16  C   UNL     1       1.339   1.092   0.000  0.00  0.00    +0.000 A 
ATOM     17  N   UNL     1       0.624   0.679   0.000  0.00  0.00    +0.000 NA
ATOM     18  N   UNL     1       1.339   1.917   0.000  0.00  0.00    +0.000 NA
ATOM     19  N   UNL     1       2.768  -0.558   0.000  0.00  0.00    +0.000 NA
ENDBRANCH   9  12
TORSDOF 1
