REMARK  Name = A74
REMARK  5 active torsions:
REMARK  status: ('A' for Active; 'I' for Inactive)
REMARK    1  A    between atoms: C_5  and  S_7
REMARK    2  A    between atoms: S_7  and  N_10
REMARK    3  A    between atoms: C_15  and  O_22
REMARK    4  A    between atoms: C_17  and  C_28
REMARK    5  A    between atoms: C_25  and  O_30
REMARK                            x       y       z     vdW  Elec       q    Type
REMARK                         _______ _______ _______ _____ _____    ______ ____
ROOT
ATOM      1  N   UNL     1      -2.212   0.493   0.000  0.00  0.00    +0.000 NA
ATOM      2  C   UNL     1      -1.387   0.493   0.000  0.00  0.00    +0.000 A 
ATOM      3  N   UNL     1      -0.902   1.160   0.000  0.00  0.00    +0.000 NA
ATOM      4  C   UNL     1      -0.117   0.905   0.000  0.00  0.00    +0.000 A 
ATOM      5  C   UNL     1       0.597   1.318   0.000  0.00  0.00    +0.000 A 
ATOM      6  C   UNL     1       1.312   0.905   0.000  0.00  0.00    +0.000 A 
ATOM      7  C   UNL     1       1.312   0.080   0.000  0.00  0.00    +0.000 A 
ATOM      8  C   UNL     1       0.597  -0.332   0.000  0.00  0.00    +0.000 A 
ATOM      9  C   UNL     1      -0.117   0.080   0.000  0.00  0.00    +0.000 A 
ATOM     10  O   UNL     1      -0.902  -0.174   0.000  0.00  0.00    +0.000 OA
ENDROOT
BRANCH   8  15
ATOM     11  C   UNL     1       1.312  -2.395   0.000  0.00  0.00    +0.000 A 
ATOM     12  C   UNL     1       0.597  -2.807   0.000  0.00  0.00    +0.000 A 
ATOM     13  N   UNL     1      -0.117  -2.395   0.000  0.00  0.00    +0.000 NA
ATOM     14  C   UNL     1      -0.117  -1.570   0.000  0.00  0.00    +0.000 A 
ATOM     15  C   UNL     1       0.597  -1.157   0.000  0.00  0.00    +0.000 A 
ATOM     16  C   UNL     1       1.312  -1.570   0.000  0.00  0.00    +0.000 A 
BRANCH  12  17
ATOM     17  O   UNL     1       0.597  -3.632   0.000  0.00  0.00    +0.000 OA
ATOM     18  C   UNL     1       1.312  -4.045   0.000  0.00  0.00    +0.000 C 
ENDBRANCH  12  17
ENDBRANCH   8  15
BRANCH   1  19
ATOM     19  S   UNL     1      -2.624   1.207   0.000  0.00  0.00    +0.000 S 
ATOM     20  O   UNL     1      -3.339   0.795   0.000  0.00  0.00    +0.000 OA
ATOM     21  O   UNL     1      -1.910   1.620   0.000  0.00  0.00    +0.000 OA
BRANCH  19  26
ATOM     22  C   UNL     1      -4.274   2.636   0.000  0.00  0.00    +0.000 A 
ATOM     23  C   UNL     1      -3.862   3.351   0.000  0.00  0.00    +0.000 A 
ATOM     24  C   UNL     1      -3.037   3.351   0.000  0.00  0.00    +0.000 A 
ATOM     25  C   UNL     1      -2.624   2.636   0.000  0.00  0.00    +0.000 A 
ATOM     26  C   UNL     1      -3.037   1.922   0.000  0.00  0.00    +0.000 A 
ATOM     27  C   UNL     1      -3.862   1.922   0.000  0.00  0.00    +0.000 A 
ATOM     28 CL   UNL     1      -2.624   4.065   0.000  0.00  0.00    +0.000 Cl
ATOM     29 CL   UNL     1      -4.274   1.207   0.000  0.00  0.00    +0.000 Cl
ENDBRANCH  19  26
ENDBRANCH   1  19
BRANCH   6  30
ATOM     30  O   UNL     1       2.026   1.318   0.000  0.00  0.00    +0.000 OA
ATOM     31  C   UNL     1       2.741   0.905   0.000  0.00  0.00    +0.000 C 
ENDBRANCH   6  30
TORSDOF 5
