REMARK  Name = A75
REMARK  4 active torsions:
REMARK  status: ('A' for Active; 'I' for Inactive)
REMARK    1  A    between atoms: C_9  and  N_14
REMARK    2  A    between atoms: C_10  and  C_11
REMARK    3  A    between atoms: N_14  and  S_15
REMARK    4  A    between atoms: S_15  and  C_16
REMARK                            x       y       z     vdW  Elec       q    Type
REMARK                         _______ _______ _______ _____ _____    ______ ____
ROOT
ATOM      1  C   UNL     1      -2.533  -0.733   0.000  0.00  0.00    +0.000 C 
ATOM      2  C   UNL     1      -1.819  -1.145   0.000  0.00  0.00    +0.000 C 
ATOM      3  C   UNL     1      -1.104  -0.733   0.000  0.00  0.00    +0.000 A 
ATOM      4  C   UNL     1      -1.104   0.092   0.000  0.00  0.00    +0.000 A 
ATOM      5  C   UNL     1      -1.819   0.505   0.000  0.00  0.00    +0.000 C 
ATOM      6  C   UNL     1      -2.533   0.092   0.000  0.00  0.00    +0.000 C 
ATOM      7  C   UNL     1      -0.390  -1.145   0.000  0.00  0.00    +0.000 A 
ATOM      8  C   UNL     1       0.325  -0.733   0.000  0.00  0.00    +0.000 A 
ATOM      9  C   UNL     1       0.325   0.092   0.000  0.00  0.00    +0.000 A 
ATOM     10  C   UNL     1      -0.390   0.505   0.000  0.00  0.00    +0.000 A 
ENDROOT
BRANCH  10  11
ATOM     11  C   UNL     1      -0.390   1.330   0.000  0.00  0.00    +0.000 C 
ATOM     12  O   UNL     1       0.325   1.742   0.000  0.00  0.00    +0.000 OA
ATOM     13  O   UNL     1      -1.104   1.742   0.000  0.00  0.00    +0.000 OA
ENDBRANCH  10  11
BRANCH   9  14
ATOM     14  N   UNL     1       1.039   0.505   0.000  0.00  0.00    +0.000 NA
BRANCH  14  15
ATOM     15  S   UNL     1       1.754   0.092   0.000  0.00  0.00    +0.000 S 
ATOM     16  O   UNL     1       1.341  -0.622   0.000  0.00  0.00    +0.000 OA
ATOM     17  O   UNL     1       2.166   0.807   0.000  0.00  0.00    +0.000 OA
BRANCH  15  18
ATOM     18  C   UNL     1       2.468  -0.320   0.000  0.00  0.00    +0.000 A 
ATOM     19  C   UNL     1       3.182   0.092   0.000  0.00  0.00    +0.000 A 
ATOM     20  C   UNL     1       3.897  -0.320   0.000  0.00  0.00    +0.000 A 
ATOM     21  C   UNL     1       3.897  -1.145   0.000  0.00  0.00    +0.000 A 
ATOM     22  C   UNL     1       3.182  -1.558   0.000  0.00  0.00    +0.000 A 
ATOM     23  C   UNL     1       2.468  -1.145   0.000  0.00  0.00    +0.000 A 
ENDBRANCH  15  18
ENDBRANCH  14  15
ENDBRANCH   9  14
TORSDOF 4
