REMARK  Name = A84
REMARK  7 active torsions:
REMARK  status: ('A' for Active; 'I' for Inactive)
REMARK    1  A    between atoms: C_9  and  N_14
REMARK    2  A    between atoms: C_10  and  C_11
REMARK    3  A    between atoms: N_14  and  S_15
REMARK    4  A    between atoms: S_15  and  C_18
REMARK    5  A    between atoms: C_19  and  C_25
REMARK    6  A    between atoms: C_26  and  C_27
REMARK    7  A    between atoms: C_27  and  N_28
REMARK                            x       y       z     vdW  Elec       q    Type
REMARK                         _______ _______ _______ _____ _____    ______ ____
ROOT
ATOM      1  S   UNL     1       1.188  -0.067   0.000  0.00  0.00    +0.000 S 
ATOM      2  O   UNL     1       0.775  -0.781   0.000  0.00  0.00    +0.000 OA
ATOM      3  O   UNL     1       1.600   0.647   0.000  0.00  0.00    +0.000 OA
ENDROOT
BRANCH   1   4
ATOM      4  C   UNL     1       1.902  -0.480   0.000  0.00  0.00    +0.000 A 
ATOM      5  C   UNL     1       2.617  -0.067   0.000  0.00  0.00    +0.000 A 
ATOM      6  C   UNL     1       3.331  -0.480   0.000  0.00  0.00    +0.000 A 
ATOM      7  C   UNL     1       3.331  -1.305   0.000  0.00  0.00    +0.000 A 
ATOM      8  C   UNL     1       2.617  -1.717   0.000  0.00  0.00    +0.000 A 
ATOM      9  C   UNL     1       1.902  -1.305   0.000  0.00  0.00    +0.000 A 
ATOM     10  F   UNL     1       4.046  -1.717   0.000  0.00  0.00    +0.000 F 
BRANCH   5  11
ATOM     11  C   UNL     1       2.617   0.758   0.000  0.00  0.00    +0.000 C 
ATOM     12  C   UNL     1       1.902   1.170   0.000  0.00  0.00    +0.000 C 
BRANCH  12  13
ATOM     13  C   UNL     1       1.188   0.758   0.000  0.00  0.00    +0.000 C 
BRANCH  13  14
ATOM     14  N   UNL     1       0.473   1.170   0.000  0.00  0.00    +0.000 NA
ATOM     15  C   UNL     1      -0.241   0.758   0.000  0.00  0.00    +0.000 C 
ATOM     16  C   UNL     1       0.473   1.995   0.000  0.00  0.00    +0.000 C 
ENDBRANCH  13  14
ENDBRANCH  12  13
ENDBRANCH   5  11
ENDBRANCH   1   4
BRANCH   1  17
ATOM     17  N   UNL     1       0.473   0.345   0.000  0.00  0.00    +0.000 NA
BRANCH  17  26
ATOM     18  C   UNL     1      -3.099  -0.892   0.000  0.00  0.00    +0.000 C 
ATOM     19  C   UNL     1      -2.385  -1.305   0.000  0.00  0.00    +0.000 C 
ATOM     20  C   UNL     1      -1.670  -0.892   0.000  0.00  0.00    +0.000 A 
ATOM     21  C   UNL     1      -1.670  -0.067   0.000  0.00  0.00    +0.000 A 
ATOM     22  C   UNL     1      -2.385   0.345   0.000  0.00  0.00    +0.000 C 
ATOM     23  C   UNL     1      -3.099  -0.067   0.000  0.00  0.00    +0.000 C 
ATOM     24  C   UNL     1      -0.956  -1.305   0.000  0.00  0.00    +0.000 A 
ATOM     25  C   UNL     1      -0.241  -0.892   0.000  0.00  0.00    +0.000 A 
ATOM     26  C   UNL     1      -0.241  -0.067   0.000  0.00  0.00    +0.000 A 
ATOM     27  C   UNL     1      -0.956   0.345   0.000  0.00  0.00    +0.000 A 
BRANCH  27  28
ATOM     28  C   UNL     1      -0.956   1.170   0.000  0.00  0.00    +0.000 C 
ATOM     29  O   UNL     1      -0.241   1.583   0.000  0.00  0.00    +0.000 OA
ATOM     30  O   UNL     1      -1.670   1.583   0.000  0.00  0.00    +0.000 OA
ENDBRANCH  27  28
ENDBRANCH  17  26
ENDBRANCH   1  17
TORSDOF 7
