REMARK  Name = A8N
REMARK  9 active torsions:
REMARK  status: ('A' for Active; 'I' for Inactive)
REMARK    1  A    between atoms: C_7  and  N_11
REMARK    2  A    between atoms: N_11  and  C_16
REMARK    3  A    between atoms: C_16  and  C_17
REMARK    4  A    between atoms: C_17  and  C_18
REMARK    5  A    between atoms: C_18  and  C_19
REMARK    6  A    between atoms: C_19  and  C_20
REMARK    7  A    between atoms: C_20  and  C_21
REMARK    8  A    between atoms: C_21  and  C_22
REMARK    9  A    between atoms: C_22  and  C_23
REMARK                            x       y       z     vdW  Elec       q    Type
REMARK                         _______ _______ _______ _____ _____    ______ ____
ROOT
ATOM      1  C   UNL     1      -4.633  -1.433   0.000  0.00  0.00    +0.000 A 
ATOM      2  C   UNL     1      -3.919  -1.845   0.000  0.00  0.00    +0.000 A 
ATOM      3  C   UNL     1      -3.204  -1.433   0.000  0.00  0.00    +0.000 A 
ATOM      4  C   UNL     1      -3.204  -0.608   0.000  0.00  0.00    +0.000 A 
ATOM      5  C   UNL     1      -3.919  -0.195   0.000  0.00  0.00    +0.000 A 
ATOM      6  C   UNL     1      -4.633  -0.608   0.000  0.00  0.00    +0.000 A 
ATOM      7  C   UNL     1      -2.490  -0.195   0.000  0.00  0.00    +0.000 A 
ATOM      8  C   UNL     1      -2.490   0.630   0.000  0.00  0.00    +0.000 A 
ATOM      9  C   UNL     1      -3.204   1.042   0.000  0.00  0.00    +0.000 A 
ATOM     10  N   UNL     1      -3.919   0.630   0.000  0.00  0.00    +0.000 NA
ATOM     11  C   UNL     1      -1.775   1.042   0.000  0.00  0.00    +0.000 C 
ATOM     12  C   UNL     1      -1.775   1.867   0.000  0.00  0.00    +0.000 C 
ATOM     13  C   UNL     1      -2.490   2.280   0.000  0.00  0.00    +0.000 C 
ATOM     14  C   UNL     1      -3.204   1.867   0.000  0.00  0.00    +0.000 C 
ENDROOT
BRANCH   7  15
ATOM     15  N   UNL     1      -1.775  -0.608   0.000  0.00  0.00    +0.000 NA
BRANCH  15  16
ATOM     16  C   UNL     1      -1.061  -0.195   0.000  0.00  0.00    +0.000 C 
BRANCH  16  17
ATOM     17  C   UNL     1      -0.346  -0.608   0.000  0.00  0.00    +0.000 C 
BRANCH  17  18
ATOM     18  C   UNL     1       0.368  -0.195   0.000  0.00  0.00    +0.000 C 
BRANCH  18  19
ATOM     19  C   UNL     1       1.083  -0.608   0.000  0.00  0.00    +0.000 C 
BRANCH  19  20
ATOM     20  C   UNL     1       1.797  -0.195   0.000  0.00  0.00    +0.000 C 
BRANCH  20  21
ATOM     21  C   UNL     1       2.512  -0.608   0.000  0.00  0.00    +0.000 C 
BRANCH  21  22
ATOM     22  C   UNL     1       3.226  -0.195   0.000  0.00  0.00    +0.000 C 
BRANCH  22  23
ATOM     23  C   UNL     1       3.941  -0.608   0.000  0.00  0.00    +0.000 C 
ATOM     24  N   UNL     1       4.655  -0.195   0.000  0.00  0.00    +0.000 NA
ENDBRANCH  22  23
ENDBRANCH  21  22
ENDBRANCH  20  21
ENDBRANCH  19  20
ENDBRANCH  18  19
ENDBRANCH  17  18
ENDBRANCH  16  17
ENDBRANCH  15  16
ENDBRANCH   7  15
TORSDOF 9
