REMARK  Name = A91
REMARK  5 active torsions:
REMARK  status: ('A' for Active; 'I' for Inactive)
REMARK    1  A    between atoms: N_3  and  N_7
REMARK    2  A    between atoms: N_7  and  C_8
REMARK    3  A    between atoms: C_8  and  C_9
REMARK    4  A    between atoms: C_10  and  C_15
REMARK    5  A    between atoms: C_16  and  C_17
REMARK                            x       y       z     vdW  Elec       q    Type
REMARK                         _______ _______ _______ _____ _____    ______ ____
ROOT
ATOM      1  C   UNL     1      -1.469   0.065   0.000  0.00  0.00    +0.000 A 
ATOM      2  C   UNL     1      -1.133  -0.688   0.000  0.00  0.00    +0.000 A 
ATOM      3  C   UNL     1      -1.618  -1.356   0.000  0.00  0.00    +0.000 A 
ATOM      4  C   UNL     1      -2.438  -1.270   0.000  0.00  0.00    +0.000 A 
ATOM      5  C   UNL     1      -2.774  -0.516   0.000  0.00  0.00    +0.000 A 
ATOM      6  C   UNL     1      -2.289   0.152   0.000  0.00  0.00    +0.000 A 
ENDROOT
BRANCH   2   7
ATOM      7  C   UNL     1      -0.313  -0.774   0.000  0.00  0.00    +0.000 C 
ATOM      8  C   UNL     1       0.508  -0.861   0.000  0.00  0.00    +0.000 C 
BRANCH   8   9
ATOM      9  C   UNL     1       1.328  -0.947   0.000  0.00  0.00    +0.000 A 
ATOM     10  C   UNL     1       1.813  -0.280   0.000  0.00  0.00    +0.000 A 
ATOM     11  C   UNL     1       2.634  -0.366   0.000  0.00  0.00    +0.000 A 
ATOM     12  N   UNL     1       2.969  -1.119   0.000  0.00  0.00    +0.000 NA
ATOM     13  C   UNL     1       2.484  -1.787   0.000  0.00  0.00    +0.000 A 
ATOM     14  N   UNL     1       1.664  -1.701   0.000  0.00  0.00    +0.000 NA
ATOM     15  C   UNL     1       3.119   0.302   0.000  0.00  0.00    +0.000 C 
ATOM     16  N   UNL     1       2.820  -2.541   0.000  0.00  0.00    +0.000 NA
ENDBRANCH   8   9
ENDBRANCH   2   7
BRANCH   1  17
ATOM     17  C   UNL     1      -0.984   0.733   0.000  0.00  0.00    +0.000 C 
BRANCH  17  18
ATOM     18  N   UNL     1      -1.319   1.486   0.000  0.00  0.00    +0.000 NA
BRANCH  18  21
ATOM     19  C   UNL     1      -0.422   3.424   0.000  0.00  0.00    +0.000 A 
ATOM     20  C   UNL     1      -1.089   2.939   0.000  0.00  0.00    +0.000 A 
ATOM     21  N   UNL     1      -0.834   2.154   0.000  0.00  0.00    +0.000 N 
ATOM     22  C   UNL     1      -0.009   2.154   0.000  0.00  0.00    +0.000 A 
ATOM     23  O   UNL     1       0.245   2.939   0.000  0.00  0.00    +0.000 OA
ATOM     24  O   UNL     1       0.475   1.486   0.000  0.00  0.00    +0.000 OA
ENDBRANCH  18  21
ENDBRANCH  17  18
ENDBRANCH   1  17
TORSDOF 5
