REMARK  Name = A94
REMARK  6 active torsions:
REMARK  status: ('A' for Active; 'I' for Inactive)
REMARK    1  A    between atoms: C_5  and  C_9
REMARK    2  A    between atoms: C_9  and  N_10
REMARK    3  A    between atoms: N_10  and  S_11
REMARK    4  A    between atoms: S_11  and  C_26
REMARK    5  A    between atoms: C_20  and  N_21
REMARK    6  A    between atoms: N_21  and  C_22
REMARK                            x       y       z     vdW  Elec       q    Type
REMARK                         _______ _______ _______ _____ _____    ______ ____
ROOT
ATOM      1  C   UNL     1       1.695  -0.058   0.000  0.00  0.00    +0.000 A 
ATOM      2  C   UNL     1       2.030  -0.811   0.000  0.00  0.00    +0.000 A 
ATOM      3  C   UNL     1       1.545  -1.479   0.000  0.00  0.00    +0.000 A 
ATOM      4  C   UNL     1       0.725  -1.393   0.000  0.00  0.00    +0.000 A 
ATOM      5  C   UNL     1       0.389  -0.639   0.000  0.00  0.00    +0.000 A 
ATOM      6  C   UNL     1       0.874   0.029   0.000  0.00  0.00    +0.000 A 
ENDROOT
BRANCH   5   7
ATOM      7  S   UNL     1      -0.431  -0.553   0.000  0.00  0.00    +0.000 S 
ATOM      8  O   UNL     1      -0.517  -1.373   0.000  0.00  0.00    +0.000 OA
ATOM      9  O   UNL     1      -0.345   0.268   0.000  0.00  0.00    +0.000 OA
BRANCH   7  10
ATOM     10  N   UNL     1      -1.252  -0.466   0.000  0.00  0.00    +0.000 NA
BRANCH  10  11
ATOM     11  C   UNL     1      -1.737  -1.134   0.000  0.00  0.00    +0.000 C 
BRANCH  11  16
ATOM     12  C   UNL     1      -3.862  -1.629   0.000  0.00  0.00    +0.000 A 
ATOM     13  N   UNL     1      -4.198  -0.875   0.000  0.00  0.00    +0.000 NA
ATOM     14  C   UNL     1      -3.713  -0.208   0.000  0.00  0.00    +0.000 A 
ATOM     15  N   UNL     1      -2.893  -0.294   0.000  0.00  0.00    +0.000 NA
ATOM     16  C   UNL     1      -2.557  -1.048   0.000  0.00  0.00    +0.000 A 
ATOM     17  C   UNL     1      -3.042  -1.715   0.000  0.00  0.00    +0.000 A 
ATOM     18  C   UNL     1      -4.347  -2.296   0.000  0.00  0.00    +0.000 C 
ATOM     19  N   UNL     1      -4.049   0.546   0.000  0.00  0.00    +0.000 NA
ENDBRANCH  11  16
ENDBRANCH  10  11
ENDBRANCH   7  10
ENDBRANCH   5   7
BRANCH   1  20
ATOM     20  N   UNL     1       2.180   0.610   0.000  0.00  0.00    +0.000 NA
BRANCH  20  27
ATOM     21  C   UNL     1       3.897   2.461   0.000  0.00  0.00    +0.000 C 
ATOM     22  C   UNL     1       3.230   1.976   0.000  0.00  0.00    +0.000 C 
ATOM     23  C   UNL     1       3.485   1.191   0.000  0.00  0.00    +0.000 C 
ATOM     24  C   UNL     1       4.310   1.191   0.000  0.00  0.00    +0.000 C 
ATOM     25  O   UNL     1       4.565   1.976   0.000  0.00  0.00    +0.000 OA
ATOM     26  O   UNL     1       4.795   0.523   0.000  0.00  0.00    +0.000 OA
ATOM     27  C   UNL     1       3.000   0.523   0.000  0.00  0.00    +0.000 C 
ENDBRANCH  20  27
ENDBRANCH   1  20
TORSDOF 6
