REMARK  Name = A96
REMARK  4 active torsions:
REMARK  status: ('A' for Active; 'I' for Inactive)
REMARK    1  A    between atoms: C_3  and  N_7
REMARK    2  A    between atoms: C_8  and  C_9
REMARK    3  A    between atoms: N_20  and  C_21
REMARK    4  A    between atoms: C_25  and  C_27
REMARK                            x       y       z     vdW  Elec       q    Type
REMARK                         _______ _______ _______ _____ _____    ______ ____
ROOT
ATOM      1  C   UNL     1       1.241  -0.600   0.000  0.00  0.00    +0.000 A 
ATOM      2  C   UNL     1       0.527  -0.187   0.000  0.00  0.00    +0.000 A 
ATOM      3  C   UNL     1       0.527   0.638   0.000  0.00  0.00    +0.000 A 
ATOM      4  C   UNL     1       1.241   1.050   0.000  0.00  0.00    +0.000 A 
ATOM      5  C   UNL     1       1.956   0.638   0.000  0.00  0.00    +0.000 A 
ATOM      6  C   UNL     1       1.956  -0.187   0.000  0.00  0.00    +0.000 A 
ATOM      7  O   UNL     1      -0.258  -0.442   0.000  0.00  0.00    +0.000 OA
ATOM      8  N   UNL     1      -0.743   0.226   0.000  0.00  0.00    +0.000 NA
ATOM      9  C   UNL     1      -0.258   0.893   0.000  0.00  0.00    +0.000 A 
ATOM     10 CL   UNL     1       2.670  -0.600   0.000  0.00  0.00    +0.000 Cl
ATOM     11  N   UNL     1      -0.513   1.677   0.000  0.00  0.00    +0.000 NA
ENDROOT
BRANCH  11  12
ATOM     12  C   UNL     1      -1.320   1.849   0.000  0.00  0.00    +0.000 A 
ATOM     13  C   UNL     1      -1.872   1.236   0.000  0.00  0.00    +0.000 A 
ATOM     14  C   UNL     1      -2.679   1.407   0.000  0.00  0.00    +0.000 A 
ATOM     15  C   UNL     1      -2.934   2.192   0.000  0.00  0.00    +0.000 A 
ATOM     16  C   UNL     1      -2.382   2.805   0.000  0.00  0.00    +0.000 A 
ATOM     17  C   UNL     1      -1.575   2.634   0.000  0.00  0.00    +0.000 A 
BRANCH  16  18
ATOM     18  C   UNL     1      -2.637   3.590   0.000  0.00  0.00    +0.000 C 
ATOM     19  F   UNL     1      -2.892   4.374   0.000  0.00  0.00    +0.000 F 
ATOM     20  F   UNL     1      -1.852   3.845   0.000  0.00  0.00    +0.000 F 
ATOM     21  F   UNL     1      -3.421   3.335   0.000  0.00  0.00    +0.000 F 
ENDBRANCH  16  18
ENDBRANCH  11  12
BRANCH   1  23
ATOM     22  N   UNL     1       1.956  -1.837   0.000  0.00  0.00    +0.000 NA
ATOM     23  C   UNL     1       1.241  -1.425   0.000  0.00  0.00    +0.000 C 
ATOM     24  O   UNL     1       0.527  -1.837   0.000  0.00  0.00    +0.000 OA
BRANCH  22  27
ATOM     25  N   UNL     1       1.241  -3.900   0.000  0.00  0.00    +0.000 NA
ATOM     26  C   UNL     1       1.241  -3.075   0.000  0.00  0.00    +0.000 A 
ATOM     27  C   UNL     1       1.956  -2.662   0.000  0.00  0.00    +0.000 A 
ATOM     28  C   UNL     1       2.670  -3.075   0.000  0.00  0.00    +0.000 A 
ATOM     29  N   UNL     1       2.670  -3.900   0.000  0.00  0.00    +0.000 NA
ATOM     30  C   UNL     1       1.956  -4.312   0.000  0.00  0.00    +0.000 A 
ENDBRANCH  22  27
ENDBRANCH   1  23
TORSDOF 4
