REMARK  Name = AAF
REMARK  7 active torsions:
REMARK  status: ('A' for Active; 'I' for Inactive)
REMARK    1  A    between atoms: C_1  and  C_2
REMARK    2  A    between atoms: C_5  and  C_6
REMARK    3  A    between atoms: C_6  and  N_15
REMARK    4  A    between atoms: C_10  and  C_14
REMARK    5  A    between atoms: N_19  and  C_20
REMARK    6  A    between atoms: C_23  and  C_26
REMARK    7  A    between atoms: C_26  and  O_28
REMARK                            x       y       z     vdW  Elec       q    Type
REMARK                         _______ _______ _______ _____ _____    ______ ____
ROOT
ATOM      1  C   UNL     1      -0.205  -0.382   0.000  0.00  0.00    +0.000 C 
ENDROOT
BRANCH   1   5
ATOM      2  C   UNL     1      -2.225   0.308   0.000  0.00  0.00    +0.000 C 
ATOM      3  C   UNL     1      -1.813   1.022   0.000  0.00  0.00    +0.000 C 
ATOM      4  C   UNL     1      -1.006   0.851   0.000  0.00  0.00    +0.000 C 
ATOM      5  C   UNL     1      -0.920   0.030   0.000  0.00  0.00    +0.000 C 
ATOM      6  N   UNL     1      -1.673  -0.305   0.000  0.00  0.00    +0.000 NA
BRANCH   2   7
ATOM      7  C   UNL     1      -3.046   0.222   0.000  0.00  0.00    +0.000 C 
ATOM      8  O   UNL     1      -3.381  -0.532   0.000  0.00  0.00    +0.000 OA
ATOM      9  N   UNL     1      -3.531   0.889   0.000  0.00  0.00    +0.000 N 
ATOM     10  C   UNL     1      -4.356   0.889   0.000  0.00  0.00    +0.000 C 
ATOM     11  C   UNL     1      -4.611   1.674   0.000  0.00  0.00    +0.000 C 
ATOM     12  C   UNL     1      -3.943   2.159   0.000  0.00  0.00    +0.000 C 
ATOM     13  C   UNL     1      -3.276   1.674   0.000  0.00  0.00    +0.000 C 
BRANCH  10  14
ATOM     14  C   UNL     1      -4.841   0.222   0.000  0.00  0.00    +0.000 C 
ATOM     15  N   UNL     1      -5.661   0.308   0.000  0.00  0.00    +0.000 NA
ENDBRANCH  10  14
ENDBRANCH   2   7
ENDBRANCH   1   5
BRANCH   1  16
ATOM     16  N   UNL     1       0.509   0.030   0.000  0.00  0.00    +0.000 NA
ATOM     17  C   UNL     1       1.224  -0.382   0.000  0.00  0.00    +0.000 C 
ATOM     18  O   UNL     1       1.224  -1.207   0.000  0.00  0.00    +0.000 OA
ATOM     19  N   UNL     1       1.938   0.030   0.000  0.00  0.00    +0.000 NA
BRANCH  19  20
ATOM     20  C   UNL     1       2.653  -0.382   0.000  0.00  0.00    +0.000 A 
ATOM     21  C   UNL     1       3.367   0.030   0.000  0.00  0.00    +0.000 A 
ATOM     22  C   UNL     1       4.082  -0.382   0.000  0.00  0.00    +0.000 A 
ATOM     23  C   UNL     1       4.082  -1.207   0.000  0.00  0.00    +0.000 A 
ATOM     24  C   UNL     1       3.367  -1.619   0.000  0.00  0.00    +0.000 A 
ATOM     25  C   UNL     1       2.653  -1.207   0.000  0.00  0.00    +0.000 A 
BRANCH  23  26
ATOM     26  C   UNL     1       4.796  -1.619   0.000  0.00  0.00    +0.000 C 
ATOM     27  O   UNL     1       5.511  -1.207   0.000  0.00  0.00    +0.000 OA
BRANCH  26  28
ATOM     28  O   UNL     1       4.796  -2.445   0.000  0.00  0.00    +0.000 OA
ATOM     29  C   UNL     1       5.511  -2.857   0.000  0.00  0.00    +0.000 C 
ENDBRANCH  26  28
ENDBRANCH  23  26
ENDBRANCH  19  20
ENDBRANCH   1  16
TORSDOF 7
