REMARK  Name = AAH
REMARK  10 active torsions:
REMARK  status: ('A' for Active; 'I' for Inactive)
REMARK    1  A    between atoms: C_3  and  C_10
REMARK    2  A    between atoms: C_6  and  N_7
REMARK    3  A    between atoms: C_10  and  N_11
REMARK    4  A    between atoms: N_11  and  C_12
REMARK    5  A    between atoms: N_11  and  C_17
REMARK    6  A    between atoms: C_12  and  P_13
REMARK    7  A    between atoms: C_17  and  C_18
REMARK    8  A    between atoms: C_18  and  C_19
REMARK    9  A    between atoms: C_19  and  C_20
REMARK   10  A    between atoms: C_20  and  C_21
REMARK                            x       y       z     vdW  Elec       q    Type
REMARK                         _______ _______ _______ _____ _____    ______ ____
ROOT
ATOM      1  N   UNL     1      -1.205   2.027   0.000  0.00  0.00    +0.000 NA
ENDROOT
BRANCH   1   2
ATOM      2  C   UNL     1      -1.475   2.807   0.000  0.00  0.00    +0.000 C 
BRANCH   2   3
ATOM      3  P   UNL     1      -0.935   3.430   0.000  0.00  0.00    +0.000 P 
ATOM      4  O   UNL     1      -0.312   2.890   0.000  0.00  0.00    +0.000 OA
ATOM      5  O   UNL     1      -1.559   3.970   0.000  0.00  0.00    +0.000 OA
ATOM      6  O   UNL     1      -0.395   4.054   0.000  0.00  0.00    +0.000 OA
ENDBRANCH   2   3
ENDBRANCH   1   2
BRANCH   1   7
ATOM      7  C   UNL     1      -1.745   1.404   0.000  0.00  0.00    +0.000 C 
BRANCH   7  10
ATOM      8  C   UNL     1      -3.636   2.495   0.000  0.00  0.00    +0.000 A 
ATOM      9  C   UNL     1      -2.825   2.339   0.000  0.00  0.00    +0.000 A 
ATOM     10  C   UNL     1      -2.555   1.560   0.000  0.00  0.00    +0.000 A 
ATOM     11  C   UNL     1      -3.095   0.936   0.000  0.00  0.00    +0.000 A 
ATOM     12  C   UNL     1      -3.906   1.092   0.000  0.00  0.00    +0.000 A 
ATOM     13  C   UNL     1      -4.176   1.871   0.000  0.00  0.00    +0.000 A 
BRANCH  13  14
ATOM     14  N   UNL     1      -4.986   2.027   0.000  0.00  0.00    +0.000 N 
ATOM     15  O   UNL     1      -5.526   1.404   0.000  0.00  0.00    +0.000 OA
ATOM     16  O   UNL     1      -5.256   2.807   0.000  0.00  0.00    +0.000 OA
ENDBRANCH  13  14
ENDBRANCH   7  10
ENDBRANCH   1   7
BRANCH   1  17
ATOM     17  C   UNL     1      -0.395   1.871   0.000  0.00  0.00    +0.000 C 
BRANCH  17  18
ATOM     18  C   UNL     1       0.145   2.495   0.000  0.00  0.00    +0.000 C 
BRANCH  18  19
ATOM     19  C   UNL     1       0.955   2.339   0.000  0.00  0.00    +0.000 C 
BRANCH  19  20
ATOM     20  C   UNL     1       1.495   2.963   0.000  0.00  0.00    +0.000 C 
BRANCH  20  21
ATOM     21  C   UNL     1       2.305   2.807   0.000  0.00  0.00    +0.000 C 
ATOM     22  O   UNL     1       2.845   3.430   0.000  0.00  0.00    +0.000 OA
ATOM     23  O   UNL     1       2.575   2.027   0.000  0.00  0.00    +0.000 OA
ENDBRANCH  20  21
ENDBRANCH  19  20
ENDBRANCH  18  19
ENDBRANCH  17  18
ENDBRANCH   1  17
TORSDOF 10
