REMARK  Name = AAP
REMARK  5 active torsions:
REMARK  status: ('A' for Active; 'I' for Inactive)
REMARK    1  A    between atoms: C_1  and  C_2
REMARK    2  A    between atoms: C_2  and  C_5
REMARK    3  A    between atoms: C_2  and  N_13
REMARK    4  A    between atoms: N_13  and  C_14
REMARK    5  A    between atoms: C_15  and  C_20
REMARK                            x       y       z     vdW  Elec       q    Type
REMARK                         _______ _______ _______ _____ _____    ______ ____
ROOT
ATOM      1  C   UNL     1       0.349  -0.518   0.000  0.00  0.00    +0.000 C 
ENDROOT
BRANCH   1   2
ATOM      2  C   UNL     1       0.349  -1.343   0.000  0.00  0.00    +0.000 A 
ATOM      3  C   UNL     1       1.063  -1.756   0.000  0.00  0.00    +0.000 A 
ATOM      4  C   UNL     1       1.063  -2.581   0.000  0.00  0.00    +0.000 A 
ATOM      5  C   UNL     1       0.349  -2.994   0.000  0.00  0.00    +0.000 A 
ATOM      6  C   UNL     1      -0.366  -2.581   0.000  0.00  0.00    +0.000 A 
ATOM      7  C   UNL     1      -0.366  -1.756   0.000  0.00  0.00    +0.000 A 
ATOM      8 CL   UNL     1       1.778  -1.343   0.000  0.00  0.00    +0.000 Cl
ATOM      9 CL   UNL     1      -1.080  -1.343   0.000  0.00  0.00    +0.000 Cl
ENDBRANCH   1   2
BRANCH   1  10
ATOM     10  C   UNL     1       1.063  -0.106   0.000  0.00  0.00    +0.000 C 
ATOM     11  O   UNL     1       1.778  -0.518   0.000  0.00  0.00    +0.000 OA
ATOM     12  N   UNL     1       1.063   0.719   0.000  0.00  0.00    +0.000 NA
ENDBRANCH   1  10
BRANCH   1  13
ATOM     13  N   UNL     1      -0.366  -0.106   0.000  0.00  0.00    +0.000 NA
BRANCH  13  14
ATOM     14  C   UNL     1      -0.366   0.719   0.000  0.00  0.00    +0.000 A 
ATOM     15  C   UNL     1      -1.080   1.131   0.000  0.00  0.00    +0.000 A 
ATOM     16  C   UNL     1      -1.080   1.956   0.000  0.00  0.00    +0.000 A 
ATOM     17  C   UNL     1      -0.366   2.369   0.000  0.00  0.00    +0.000 A 
ATOM     18  C   UNL     1       0.349   1.956   0.000  0.00  0.00    +0.000 A 
ATOM     19  C   UNL     1       0.349   1.131   0.000  0.00  0.00    +0.000 A 
ATOM     20  C   UNL     1       1.063   2.369   0.000  0.00  0.00    +0.000 C 
BRANCH  15  21
ATOM     21  C   UNL     1      -1.795   0.719   0.000  0.00  0.00    +0.000 C 
ATOM     22  O   UNL     1      -2.509   1.131   0.000  0.00  0.00    +0.000 OA
ATOM     23  C   UNL     1      -1.795  -0.106   0.000  0.00  0.00    +0.000 C 
ENDBRANCH  15  21
ENDBRANCH  13  14
ENDBRANCH   1  13
TORSDOF 5
