REMARK  Name = AAX
REMARK  8 active torsions:
REMARK  status: ('A' for Active; 'I' for Inactive)
REMARK    1  A    between atoms: S_2  and  N_4
REMARK    2  A    between atoms: S_2  and  C_9
REMARK    3  A    between atoms: N_4  and  C_5
REMARK    4  A    between atoms: C_5  and  C_6
REMARK    5  A    between atoms: C_13  and  N_17
REMARK    6  A    between atoms: C_14  and  O_15
REMARK    7  A    between atoms: C_20  and  C_23
REMARK    8  A    between atoms: C_25  and  C_29
REMARK                            x       y       z     vdW  Elec       q    Type
REMARK                         _______ _______ _______ _____ _____    ______ ____
ROOT
ATOM      1  N   UNL     1      -0.869   1.239   0.000  0.00  0.00    +0.000 NA
ATOM      2  C   UNL     1      -0.155   0.826   0.000  0.00  0.00    +0.000 A 
ATOM      3  O   UNL     1       0.599   1.162   0.000  0.00  0.00    +0.000 OA
ATOM      4  C   UNL     1       1.151   0.549   0.000  0.00  0.00    +0.000 A 
ATOM      5  C   UNL     1       0.739  -0.166   0.000  0.00  0.00    +0.000 A 
ATOM      6  N   UNL     1      -0.069   0.006   0.000  0.00  0.00    +0.000 NA
ENDROOT
BRANCH   1  11
ATOM      7  C   UNL     1      -2.298  -0.411   0.000  0.00  0.00    +0.000 A 
ATOM      8  C   UNL     1      -3.013   0.001   0.000  0.00  0.00    +0.000 A 
ATOM      9  C   UNL     1      -3.013   0.826   0.000  0.00  0.00    +0.000 A 
ATOM     10  C   UNL     1      -1.584   0.001   0.000  0.00  0.00    +0.000 A 
ATOM     11  C   UNL     1      -1.584   0.826   0.000  0.00  0.00    +0.000 A 
ATOM     12  C   UNL     1      -2.298   1.239   0.000  0.00  0.00    +0.000 A 
BRANCH   7  14
ATOM     13  O   UNL     1      -1.473  -1.236   0.000  0.00  0.00    +0.000 OA
ATOM     14  S   UNL     1      -2.298  -1.236   0.000  0.00  0.00    +0.000 S 
ATOM     15  O   UNL     1      -3.123  -1.236   0.000  0.00  0.00    +0.000 OA
BRANCH  14  16
ATOM     16  N   UNL     1      -2.298  -2.061   0.000  0.00  0.00    +0.000 NA
BRANCH  16  17
ATOM     17  C   UNL     1      -3.013  -2.474   0.000  0.00  0.00    +0.000 C 
BRANCH  17  18
ATOM     18  C   UNL     1      -3.013  -3.299   0.000  0.00  0.00    +0.000 C 
ATOM     19  C   UNL     1      -2.600  -4.013   0.000  0.00  0.00    +0.000 C 
ATOM     20  C   UNL     1      -3.425  -4.013   0.000  0.00  0.00    +0.000 C 
ENDBRANCH  17  18
ENDBRANCH  16  17
ENDBRANCH  14  16
ENDBRANCH   7  14
BRANCH  12  21
ATOM     21  O   UNL     1      -2.298   2.064   0.000  0.00  0.00    +0.000 OA
ATOM     22  C   UNL     1      -1.584   2.476   0.000  0.00  0.00    +0.000 C 
ENDBRANCH  12  21
ENDBRANCH   1  11
BRANCH   4  23
ATOM     23  C   UNL     1       1.972   0.635   0.000  0.00  0.00    +0.000 A 
ATOM     24  C   UNL     1       2.307   1.389   0.000  0.00  0.00    +0.000 A 
ATOM     25  C   UNL     1       3.127   1.475   0.000  0.00  0.00    +0.000 A 
ATOM     26  C   UNL     1       3.612   0.807   0.000  0.00  0.00    +0.000 A 
ATOM     27  C   UNL     1       3.277   0.054   0.000  0.00  0.00    +0.000 A 
ATOM     28  C   UNL     1       2.456  -0.032   0.000  0.00  0.00    +0.000 A 
BRANCH  25  29
ATOM     29  C   UNL     1       3.463   2.229   0.000  0.00  0.00    +0.000 A 
ATOM     30  C   UNL     1       2.978   2.896   0.000  0.00  0.00    +0.000 A 
ATOM     31  N   UNL     1       3.314   3.650   0.000  0.00  0.00    +0.000 NA
ATOM     32  C   UNL     1       4.134   3.736   0.000  0.00  0.00    +0.000 A 
ATOM     33  C   UNL     1       4.619   3.068   0.000  0.00  0.00    +0.000 A 
ATOM     34  C   UNL     1       4.284   2.315   0.000  0.00  0.00    +0.000 A 
ENDBRANCH  25  29
ENDBRANCH   4  23
TORSDOF 8
