REMARK  Name = AAZ
REMARK  6 active torsions:
REMARK  status: ('A' for Active; 'I' for Inactive)
REMARK    1  A    between atoms: S_2  and  C_4
REMARK    2  A    between atoms: S_2  and  C_6
REMARK    3  A    between atoms: C_9  and  O_10
REMARK    4  A    between atoms: C_12  and  N_14
REMARK    5  A    between atoms: C_18  and  C_20
REMARK    6  A    between atoms: C_24  and  C_26
REMARK                            x       y       z     vdW  Elec       q    Type
REMARK                         _______ _______ _______ _____ _____    ______ ____
ROOT
ATOM      1  N   UNL     1       0.217   0.723   0.000  0.00  0.00    +0.000 NA
ATOM      2  C   UNL     1       0.217  -0.102   0.000  0.00  0.00    +0.000 A 
ATOM      3  N   UNL     1       0.884  -0.587   0.000  0.00  0.00    +0.000 NA
ATOM      4  C   UNL     1       0.629  -1.372   0.000  0.00  0.00    +0.000 A 
ATOM      5  C   UNL     1      -0.196  -1.372   0.000  0.00  0.00    +0.000 A 
ATOM      6  O   UNL     1      -0.451  -0.587   0.000  0.00  0.00    +0.000 OA
ENDROOT
BRANCH   5   7
ATOM      7  C   UNL     1      -0.680  -2.039   0.000  0.00  0.00    +0.000 A 
ATOM      8  C   UNL     1      -0.345  -2.793   0.000  0.00  0.00    +0.000 A 
ATOM      9  C   UNL     1      -0.830  -3.460   0.000  0.00  0.00    +0.000 A 
ATOM     10  C   UNL     1      -1.650  -3.374   0.000  0.00  0.00    +0.000 A 
ATOM     11  C   UNL     1      -1.986  -2.620   0.000  0.00  0.00    +0.000 A 
ATOM     12  C   UNL     1      -1.501  -1.953   0.000  0.00  0.00    +0.000 A 
BRANCH  11  13
ATOM     13  C   UNL     1      -2.806  -2.534   0.000  0.00  0.00    +0.000 A 
ATOM     14  C   UNL     1      -3.291  -3.202   0.000  0.00  0.00    +0.000 A 
ATOM     15  C   UNL     1      -4.112  -3.115   0.000  0.00  0.00    +0.000 A 
ATOM     16  C   UNL     1      -4.447  -2.362   0.000  0.00  0.00    +0.000 A 
ATOM     17  C   UNL     1      -3.962  -1.694   0.000  0.00  0.00    +0.000 A 
ATOM     18  N   UNL     1      -3.142  -1.780   0.000  0.00  0.00    +0.000 NA
ENDBRANCH  11  13
ENDBRANCH   5   7
BRANCH   1  23
ATOM     19  C   UNL     1       1.646   2.373   0.000  0.00  0.00    +0.000 A 
ATOM     20  C   UNL     1       2.360   1.960   0.000  0.00  0.00    +0.000 A 
ATOM     21  C   UNL     1       2.360   1.135   0.000  0.00  0.00    +0.000 A 
ATOM     22  C   UNL     1       1.646   0.723   0.000  0.00  0.00    +0.000 A 
ATOM     23  C   UNL     1       0.931   1.135   0.000  0.00  0.00    +0.000 A 
ATOM     24  C   UNL     1       0.931   1.960   0.000  0.00  0.00    +0.000 A 
BRANCH  19  26
ATOM     25  O   UNL     1       0.821   3.198   0.000  0.00  0.00    +0.000 OA
ATOM     26  S   UNL     1       1.646   3.198   0.000  0.00  0.00    +0.000 S 
ATOM     27  O   UNL     1       2.471   3.198   0.000  0.00  0.00    +0.000 OA
BRANCH  26  28
ATOM     28  C   UNL     1       1.646   4.023   0.000  0.00  0.00    +0.000 C 
ATOM     29  C   UNL     1       2.360   4.435   0.000  0.00  0.00    +0.000 C 
ENDBRANCH  26  28
ENDBRANCH  19  26
BRANCH  22  30
ATOM     30  O   UNL     1       1.646  -0.102   0.000  0.00  0.00    +0.000 OA
ATOM     31  C   UNL     1       2.360  -0.515   0.000  0.00  0.00    +0.000 C 
ENDBRANCH  22  30
ENDBRANCH   1  23
TORSDOF 6
