REMARK  Name = AB3
REMARK  2 active torsions:
REMARK  status: ('A' for Active; 'I' for Inactive)
REMARK    1  A    between atoms: C_2  and  N_5
REMARK    2  A    between atoms: C_14  and  C_15
REMARK                            x       y       z     vdW  Elec       q    Type
REMARK                         _______ _______ _______ _____ _____    ______ ____
ROOT
ATOM      1  N   UNL     1       0.018   1.153   0.000  0.00  0.00    +0.000 N 
ATOM      2  N   UNL     1      -0.467   0.486   0.000  0.00  0.00    +0.000 NA
ATOM      3  C   UNL     1       0.802   0.898   0.000  0.00  0.00    +0.000 A 
ATOM      4  N   UNL     1       1.517   1.311   0.000  0.00  0.00    +0.000 NA
ATOM      5  C   UNL     1       2.231   0.898   0.000  0.00  0.00    +0.000 A 
ATOM      6  N   UNL     1       2.231   0.073   0.000  0.00  0.00    +0.000 NA
ATOM      7  C   UNL     1       1.517  -0.339   0.000  0.00  0.00    +0.000 A 
ATOM      8  N   UNL     1       1.517  -1.164   0.000  0.00  0.00    +0.000 NA
ATOM      9  C   UNL     1       0.802   0.073   0.000  0.00  0.00    +0.000 A 
ATOM     10  C   UNL     1       0.018  -0.182   0.000  0.00  0.00    +0.000 A 
ENDROOT
BRANCH  10  11
ATOM     11  C   UNL     1      -0.237  -0.967   0.000  0.00  0.00    +0.000 A 
ATOM     12  C   UNL     1       0.315  -1.580   0.000  0.00  0.00    +0.000 A 
ATOM     13  C   UNL     1      -1.044  -1.138   0.000  0.00  0.00    +0.000 A 
ATOM     14  C   UNL     1      -1.299  -1.923   0.000  0.00  0.00    +0.000 A 
ATOM     15  C   UNL     1      -0.747  -2.536   0.000  0.00  0.00    +0.000 A 
ATOM     16  C   UNL     1       0.060  -2.364   0.000  0.00  0.00    +0.000 A 
ATOM     17  O   UNL     1       0.612  -2.977   0.000  0.00  0.00    +0.000 OA
ENDBRANCH  10  11
BRANCH   1  19
ATOM     18  C   UNL     1      -0.492   2.722   0.000  0.00  0.00    +0.000 C 
ATOM     19  C   UNL     1      -0.237   1.938   0.000  0.00  0.00    +0.000 C 
ATOM     20  C   UNL     1      -1.022   1.683   0.000  0.00  0.00    +0.000 C 
ATOM     21  C   UNL     1       0.547   2.193   0.000  0.00  0.00    +0.000 C 
ENDBRANCH   1  19
TORSDOF 2
