REMARK  Name = ABI
REMARK  1 active torsions:
REMARK  status: ('A' for Active; 'I' for Inactive)
REMARK    1  A    between atoms: C_1  and  C_7
REMARK                            x       y       z     vdW  Elec       q    Type
REMARK                         _______ _______ _______ _____ _____    ______ ____
ROOT
ATOM      1  C   UNL     1       0.310   0.008   0.000  0.00  0.00    +0.000 A 
ATOM      2  C   UNL     1       0.310  -0.817   0.000  0.00  0.00    +0.000 A 
ATOM      3  C   UNL     1      -0.404  -1.230   0.000  0.00  0.00    +0.000 A 
ATOM      4  C   UNL     1      -1.119  -0.817   0.000  0.00  0.00    +0.000 A 
ATOM      5  C   UNL     1      -1.119   0.008   0.000  0.00  0.00    +0.000 A 
ATOM      6  C   UNL     1      -0.404   0.420   0.000  0.00  0.00    +0.000 A 
ATOM      7  C   UNL     1      -2.388  -0.405   0.000  0.00  0.00    +0.000 A 
ATOM      8  N   UNL     1      -1.903  -1.072   0.000  0.00  0.00    +0.000 NA
ATOM      9  N   UNL     1      -1.903   0.263   0.000  0.00  0.00    +0.000 NA
ENDROOT
BRANCH   1  10
ATOM     10  C   UNL     1       1.025   0.420   0.000  0.00  0.00    +0.000 C 
ATOM     11  N   UNL     1       1.025   1.245   0.000  0.00  0.00    +0.000 NA
ATOM     12  N   UNL     1       1.739   0.008   0.000  0.00  0.00    +0.000 NA
ENDBRANCH   1  10
TORSDOF 1
