REMARK  Name = ABJ
REMARK  2 active torsions:
REMARK  status: ('A' for Active; 'I' for Inactive)
REMARK    1  A    between atoms: C_2  and  N_4
REMARK    2  A    between atoms: C_13  and  C_14
REMARK                            x       y       z     vdW  Elec       q    Type
REMARK                         _______ _______ _______ _____ _____    ______ ____
ROOT
ATOM      1  N   UNL     1      23.991   8.374   0.000  0.00  0.00    +0.000 N 
ATOM      2  N   UNL     1      23.506   7.707   0.000  0.00  0.00    +0.000 NA
ATOM      3  C   UNL     1      24.776   8.119   0.000  0.00  0.00    +0.000 A 
ATOM      4  N   UNL     1      25.490   8.532   0.000  0.00  0.00    +0.000 NA
ATOM      5  C   UNL     1      26.204   8.119   0.000  0.00  0.00    +0.000 A 
ATOM      6  N   UNL     1      26.204   7.294   0.000  0.00  0.00    +0.000 NA
ATOM      7  C   UNL     1      25.490   6.882   0.000  0.00  0.00    +0.000 A 
ATOM      8  N   UNL     1      25.490   6.057   0.000  0.00  0.00    +0.000 NA
ATOM      9  C   UNL     1      24.776   7.294   0.000  0.00  0.00    +0.000 A 
ATOM     10  C   UNL     1      23.991   7.039   0.000  0.00  0.00    +0.000 A 
ENDROOT
BRANCH  10  11
ATOM     11  C   UNL     1      23.736   6.255   0.000  0.00  0.00    +0.000 A 
ATOM     12  C   UNL     1      24.288   5.642   0.000  0.00  0.00    +0.000 A 
ATOM     13  C   UNL     1      22.929   6.083   0.000  0.00  0.00    +0.000 A 
ATOM     14  C   UNL     1      22.674   5.298   0.000  0.00  0.00    +0.000 A 
ATOM     15  C   UNL     1      23.226   4.685   0.000  0.00  0.00    +0.000 A 
ATOM     16  C   UNL     1      24.033   4.857   0.000  0.00  0.00    +0.000 A 
ATOM     17  O   UNL     1      24.585   4.244   0.000  0.00  0.00    +0.000 OA
ENDBRANCH  10  11
BRANCH   1  19
ATOM     18  C   UNL     1      24.288   9.772   0.000  0.00  0.00    +0.000 C 
ATOM     19  C   UNL     1      23.736   9.159   0.000  0.00  0.00    +0.000 C 
ATOM     20  C   UNL     1      22.929   9.330   0.000  0.00  0.00    +0.000 C 
ENDBRANCH   1  19
TORSDOF 2
