REMARK  Name = ABO
REMARK  3 active torsions:
REMARK  status: ('A' for Active; 'I' for Inactive)
REMARK    1  A    between atoms: O_2  and  C_3
REMARK    2  A    between atoms: C_9  and  C_10
REMARK    3  A    between atoms: C_18  and  C_19
REMARK                            x       y       z     vdW  Elec       q    Type
REMARK                         _______ _______ _______ _____ _____    ______ ____
ROOT
ATOM      1  C   UNL     1      -0.857  -0.319   0.000  0.00  0.00    +0.000 A 
ATOM      2  C   UNL     1      -1.029   0.487   0.000  0.00  0.00    +0.000 A 
ATOM      3  C   UNL     1      -0.073  -0.574   0.000  0.00  0.00    +0.000 A 
ATOM      4  C   UNL     1       0.540  -0.022   0.000  0.00  0.00    +0.000 A 
ATOM      5  C   UNL     1       0.369   0.785   0.000  0.00  0.00    +0.000 A 
ATOM      6  C   UNL     1      -0.416   1.040   0.000  0.00  0.00    +0.000 A 
ATOM      7  N   UNL     1      -0.416   1.865   0.000  0.00  0.00    +0.000 NA
ATOM      8  N   UNL     1       0.369   2.119   0.000  0.00  0.00    +0.000 NA
ATOM      9  C   UNL     1       0.854   1.452   0.000  0.00  0.00    +0.000 A 
ENDROOT
BRANCH   9  10
ATOM     10  C   UNL     1       1.679   1.452   0.000  0.00  0.00    +0.000 A 
ATOM     11  N   UNL     1       2.164   2.119   0.000  0.00  0.00    +0.000 NA
ATOM     12  C   UNL     1       2.948   1.865   0.000  0.00  0.00    +0.000 A 
ATOM     13  C   UNL     1       3.663   2.277   0.000  0.00  0.00    +0.000 A 
ATOM     14  C   UNL     1       4.377   1.865   0.000  0.00  0.00    +0.000 A 
ATOM     15  C   UNL     1       4.377   1.040   0.000  0.00  0.00    +0.000 A 
ATOM     16  C   UNL     1       3.663   0.627   0.000  0.00  0.00    +0.000 A 
ATOM     17  C   UNL     1       2.948   1.040   0.000  0.00  0.00    +0.000 A 
ATOM     18  N   UNL     1       2.164   0.785   0.000  0.00  0.00    +0.000 NA
ENDBRANCH   9  10
BRANCH   1  25
ATOM     19  C   UNL     1      -2.868  -1.169   0.000  0.00  0.00    +0.000 A 
ATOM     20  C   UNL     1      -2.255  -0.617   0.000  0.00  0.00    +0.000 A 
ATOM     21  C   UNL     1      -2.697  -1.976   0.000  0.00  0.00    +0.000 A 
ATOM     22  O   UNL     1      -3.310  -2.528   0.000  0.00  0.00    +0.000 OA
ATOM     23  C   UNL     1      -1.912  -2.231   0.000  0.00  0.00    +0.000 A 
ATOM     24  C   UNL     1      -1.299  -1.679   0.000  0.00  0.00    +0.000 A 
ATOM     25  C   UNL     1      -1.470  -0.872   0.000  0.00  0.00    +0.000 A 
BRANCH  19  27
ATOM     26  C   UNL     1      -4.266  -1.466   0.000  0.00  0.00    +0.000 C 
ATOM     27  O   UNL     1      -3.653  -0.914   0.000  0.00  0.00    +0.000 OA
ENDBRANCH  19  27
ENDBRANCH   1  25
TORSDOF 3
