REMARK  Name = ABW
REMARK  7 active torsions:
REMARK  status: ('A' for Active; 'I' for Inactive)
REMARK    1  A    between atoms: C_1  and  C_18
REMARK    2  A    between atoms: C_2  and  C_13
REMARK    3  A    between atoms: C_4  and  C_6
REMARK    4  A    between atoms: N_9  and  C_13
REMARK    5  A    between atoms: C_13  and  C_14
REMARK    6  A    between atoms: C_14  and  C_15
REMARK    7  A    between atoms: C_18  and  O_20
REMARK                            x       y       z     vdW  Elec       q    Type
REMARK                         _______ _______ _______ _____ _____    ______ ____
ROOT
ATOM      1  C   UNL     1      -0.230  -1.278   0.000  0.00  0.00    +0.000 C 
ATOM      2  C   UNL     1       0.438  -0.793   0.000  0.00  0.00    +0.000 C 
ATOM      3  O   UNL     1       1.105  -1.278   0.000  0.00  0.00    +0.000 OA
ATOM      4  C   UNL     1       0.850  -2.063   0.000  0.00  0.00    +0.000 C 
ATOM      5  C   UNL     1       0.025  -2.063   0.000  0.00  0.00    +0.000 C 
ENDROOT
BRANCH   4   6
ATOM      6  C   UNL     1       1.335  -2.730   0.000  0.00  0.00    +0.000 C 
ATOM      7  O   UNL     1       1.000  -3.484   0.000  0.00  0.00    +0.000 OA
ATOM      8  O   UNL     1       2.156  -2.644   0.000  0.00  0.00    +0.000 OA
ENDBRANCH   4   6
BRANCH   1   9
ATOM      9  C   UNL     1      -1.014  -1.023   0.000  0.00  0.00    +0.000 C 
ATOM     10  O   UNL     1      -1.186  -0.216   0.000  0.00  0.00    +0.000 OA
BRANCH   9  11
ATOM     11  O   UNL     1      -1.627  -1.575   0.000  0.00  0.00    +0.000 OA
ATOM     12  C   UNL     1      -2.412  -1.320   0.000  0.00  0.00    +0.000 C 
ENDBRANCH   9  11
ENDBRANCH   1   9
BRANCH   2  13
ATOM     13  C   UNL     1       0.438   0.032   0.000  0.00  0.00    +0.000 C 
BRANCH  13  14
ATOM     14  N   UNL     1      -0.277   0.445   0.000  0.00  0.00    +0.000 NA
ATOM     15  C   UNL     1      -0.277   1.270   0.000  0.00  0.00    +0.000 C 
ATOM     16  C   UNL     1      -0.991   1.682   0.000  0.00  0.00    +0.000 C 
ATOM     17  O   UNL     1       0.438   1.682   0.000  0.00  0.00    +0.000 OA
ENDBRANCH  13  14
BRANCH  13  18
ATOM     18  C   UNL     1       1.152   0.445   0.000  0.00  0.00    +0.000 C 
BRANCH  18  19
ATOM     19  C   UNL     1       1.152   1.270   0.000  0.00  0.00    +0.000 C 
ATOM     20  C   UNL     1       0.817   2.023   0.000  0.00  0.00    +0.000 C 
ATOM     21  C   UNL     1       1.867   1.682   0.000  0.00  0.00    +0.000 C 
ENDBRANCH  18  19
ENDBRANCH  13  18
ENDBRANCH   2  13
TORSDOF 7
