REMARK  Name = ABZ
REMARK  4 active torsions:
REMARK  status: ('A' for Active; 'I' for Inactive)
REMARK    1  A    between atoms: C_1  and  C_2
REMARK    2  A    between atoms: C_2  and  C_10
REMARK    3  A    between atoms: N_13  and  C_18
REMARK    4  A    between atoms: C_21  and  C_24
REMARK                            x       y       z     vdW  Elec       q    Type
REMARK                         _______ _______ _______ _____ _____    ______ ____
ROOT
ATOM      1  C   UNL     1       1.027   0.208   0.000  0.00  0.00    +0.000 A 
ATOM      2  N   UNL     1       1.027  -0.617   0.000  0.00  0.00    +0.000 NA
ATOM      3  C   UNL     1       0.312  -1.029   0.000  0.00  0.00    +0.000 A 
ATOM      4  N   UNL     1       0.312  -1.854   0.000  0.00  0.00    +0.000 NA
ATOM      5  N   UNL     1      -0.402  -0.617   0.000  0.00  0.00    +0.000 NA
ATOM      6  C   UNL     1      -0.402   0.208   0.000  0.00  0.00    +0.000 A 
ATOM      7  N   UNL     1      -1.117   0.621   0.000  0.00  0.00    +0.000 NA
ATOM      8  N   UNL     1       0.312   0.621   0.000  0.00  0.00    +0.000 NA
ENDROOT
BRANCH   4   9
ATOM      9  C   UNL     1      -0.402  -2.267   0.000  0.00  0.00    +0.000 A 
ATOM     10  C   UNL     1      -0.402  -3.092   0.000  0.00  0.00    +0.000 A 
ATOM     11  C   UNL     1      -1.117  -3.504   0.000  0.00  0.00    +0.000 A 
ATOM     12  C   UNL     1      -1.831  -3.092   0.000  0.00  0.00    +0.000 A 
ATOM     13  C   UNL     1      -1.831  -2.267   0.000  0.00  0.00    +0.000 A 
ATOM     14  C   UNL     1      -1.117  -1.854   0.000  0.00  0.00    +0.000 A 
BRANCH  12  15
ATOM     15  C   UNL     1      -2.545  -3.504   0.000  0.00  0.00    +0.000 C 
ATOM     16  N   UNL     1      -3.260  -3.917   0.000  0.00  0.00    +0.000 NA
ENDBRANCH  12  15
ENDBRANCH   4   9
BRANCH   1  17
ATOM     17  C   UNL     1       1.741   0.621   0.000  0.00  0.00    +0.000 C 
BRANCH  17  18
ATOM     18  C   UNL     1       1.741   1.446   0.000  0.00  0.00    +0.000 A 
ATOM     19  C   UNL     1       1.027   1.858   0.000  0.00  0.00    +0.000 A 
ATOM     20  N   UNL     1       0.242   2.938   0.000  0.00  0.00    +0.000 NA
ATOM     21  C   UNL     1       1.027   2.683   0.000  0.00  0.00    +0.000 A 
ATOM     22  C   UNL     1       1.741   3.096   0.000  0.00  0.00    +0.000 A 
ATOM     23  C   UNL     1       2.456   2.683   0.000  0.00  0.00    +0.000 A 
ATOM     24  C   UNL     1       2.456   1.858   0.000  0.00  0.00    +0.000 A 
ATOM     25  C   UNL     1       0.242   1.603   0.000  0.00  0.00    +0.000 A 
ATOM     26  C   UNL     1      -0.243   2.271   0.000  0.00  0.00    +0.000 A 
ATOM     27 CL   UNL     1       3.170   1.446   0.000  0.00  0.00    +0.000 Cl
ENDBRANCH  17  18
ENDBRANCH   1  17
TORSDOF 4
