REMARK  Name = AD7
REMARK  11 active torsions:
REMARK  status: ('A' for Active; 'I' for Inactive)
REMARK    1  A    between atoms: C_1  and  C_2
REMARK    2  A    between atoms: C_1  and  C_28
REMARK    3  A    between atoms: C_2  and  C_3
REMARK    4  A    between atoms: C_3  and  C_4
REMARK    5  A    between atoms: C_4  and  C_5
REMARK    6  A    between atoms: C_5  and  C_6
REMARK    7  A    between atoms: C_6  and  O_7
REMARK    8  A    between atoms: O_7  and  C_8
REMARK    9  A    between atoms: C_10  and  C_11
REMARK   10  A    between atoms: C_17  and  O_18
REMARK   11  A    between atoms: O_18  and  C_19
REMARK                            x       y       z     vdW  Elec       q    Type
REMARK                         _______ _______ _______ _____ _____    ______ ____
ROOT
ATOM      1  C   UNL     1      -0.013  -0.553   0.000  0.00  0.00    +0.000 C 
ATOM      2  O   UNL     1      -0.013  -1.378   0.000  0.00  0.00    +0.000 OA
ATOM      3  C   UNL     1      -0.728  -1.791   0.000  0.00  0.00    +0.000 C 
ATOM      4  C   UNL     1      -1.442  -1.378   0.000  0.00  0.00    +0.000 C 
ATOM      5  O   UNL     1      -2.157  -1.791   0.000  0.00  0.00    +0.000 OA
ATOM      6  C   UNL     1      -1.442  -0.553   0.000  0.00  0.00    +0.000 C 
ATOM      7  N   UNL     1      -2.157  -0.141   0.000  0.00  0.00    +0.000 NA
ATOM      8  C   UNL     1      -0.728  -0.141   0.000  0.00  0.00    +0.000 C 
ENDROOT
BRANCH   3   9
ATOM      9  C   UNL     1      -0.728  -2.616   0.000  0.00  0.00    +0.000 C 
ATOM     10  O   UNL     1      -1.442  -3.028   0.000  0.00  0.00    +0.000 OA
ENDBRANCH   3   9
BRANCH   8  11
ATOM     11  O   UNL     1      -0.728   0.684   0.000  0.00  0.00    +0.000 OA
BRANCH  11  12
ATOM     12  C   UNL     1      -1.442   1.097   0.000  0.00  0.00    +0.000 C 
ATOM     13  C   UNL     1      -2.157   0.684   0.000  0.00  0.00    +0.000 C 
ATOM     14  O   UNL     1      -1.442   1.922   0.000  0.00  0.00    +0.000 OA
ATOM     15  C   UNL     1      -2.157   2.334   0.000  0.00  0.00    +0.000 C 
ATOM     16  C   UNL     1      -2.157   3.159   0.000  0.00  0.00    +0.000 C 
ATOM     17  C   UNL     1      -2.871   1.922   0.000  0.00  0.00    +0.000 C 
ATOM     18  O   UNL     1      -3.586   2.334   0.000  0.00  0.00    +0.000 OA
ATOM     19  C   UNL     1      -2.871   1.097   0.000  0.00  0.00    +0.000 C 
ATOM     20  O   UNL     1      -3.586   0.684   0.000  0.00  0.00    +0.000 OA
ENDBRANCH  11  12
ENDBRANCH   8  11
BRANCH   1  21
ATOM     21  O   UNL     1       0.701  -0.141   0.000  0.00  0.00    +0.000 OA
BRANCH  21  22
ATOM     22  C   UNL     1       1.416  -0.553   0.000  0.00  0.00    +0.000 C 
BRANCH  22  23
ATOM     23  C   UNL     1       2.130  -0.141   0.000  0.00  0.00    +0.000 C 
BRANCH  23  24
ATOM     24  C   UNL     1       2.845  -0.553   0.000  0.00  0.00    +0.000 C 
BRANCH  24  25
ATOM     25  C   UNL     1       3.559  -0.141   0.000  0.00  0.00    +0.000 C 
BRANCH  25  26
ATOM     26  C   UNL     1       4.274  -0.553   0.000  0.00  0.00    +0.000 C 
BRANCH  26  27
ATOM     27  C   UNL     1       4.988  -0.141   0.000  0.00  0.00    +0.000 C 
BRANCH  27  28
ATOM     28  C   UNL     1       5.702  -0.553   0.000  0.00  0.00    +0.000 C 
ATOM     29  C   UNL     1       6.417  -0.141   0.000  0.00  0.00    +0.000 C 
ENDBRANCH  27  28
ENDBRANCH  26  27
ENDBRANCH  25  26
ENDBRANCH  24  25
ENDBRANCH  23  24
ENDBRANCH  22  23
ENDBRANCH  21  22
ENDBRANCH   1  21
TORSDOF 11
