REMARK  Name = AD8
REMARK  3 active torsions:
REMARK  status: ('A' for Active; 'I' for Inactive)
REMARK    1  A    between atoms: N_1  and  C_6
REMARK    2  A    between atoms: C_6  and  C_7
REMARK    3  A    between atoms: C_7  and  C_9
REMARK                            x       y       z     vdW  Elec       q    Type
REMARK                         _______ _______ _______ _____ _____    ______ ____
ROOT
ATOM      1  C   UNL     1      -0.693   0.383   0.000  0.00  0.00    +0.000 C 
ATOM      2  C   UNL     1      -1.428   0.009   0.000  0.00  0.00    +0.000 C 
ATOM      3  C   UNL     1      -0.693   1.130   0.000  0.00  0.00    +0.000 C 
ATOM      4  C   UNL     1       0.043   0.009   0.000  0.00  0.00    +0.000 C 
ATOM      5  C   UNL     1       0.492   0.799   0.000  0.00  0.00    +0.000 C 
ATOM      6  C   UNL     1      -0.243   0.426   0.000  0.00  0.00    +0.000 C 
ATOM      7  C   UNL     1       0.492   1.547   0.000  0.00  0.00    +0.000 C 
ATOM      8  C   UNL     1      -0.243   1.920   0.000  0.00  0.00    +0.000 C 
ATOM      9  C   UNL     1      -0.979   1.547   0.000  0.00  0.00    +0.000 C 
ATOM     10  C   UNL     1      -0.979   0.799   0.000  0.00  0.00    +0.000 C 
ENDROOT
BRANCH   1  11
ATOM     11  C   UNL     1      -0.693  -0.442   0.000  0.00  0.00    +0.000 C 
ATOM     12  O   UNL     1      -1.407  -0.855   0.000  0.00  0.00    +0.000 OA
BRANCH  11  13
ATOM     13  C   UNL     1       0.022  -0.855   0.000  0.00  0.00    +0.000 C 
BRANCH  13  14
ATOM     14  N   UNL     1       0.022  -1.680   0.000  0.00  0.00    +0.000 N 
ATOM     15  C   UNL     1      -0.646  -2.165   0.000  0.00  0.00    +0.000 A 
ATOM     16  N   UNL     1      -0.391  -2.949   0.000  0.00  0.00    +0.000 NA
ATOM     17  C   UNL     1       0.434  -2.949   0.000  0.00  0.00    +0.000 A 
ATOM     18  C   UNL     1       0.689  -2.165   0.000  0.00  0.00    +0.000 A 
ENDBRANCH  13  14
ENDBRANCH  11  13
ENDBRANCH   1  11
TORSDOF 3
