REMARK  Name = ADB
REMARK  4 active torsions:
REMARK  status: ('A' for Active; 'I' for Inactive)
REMARK    1  A    between atoms: C_1  and  O_2
REMARK    2  A    between atoms: O_2  and  C_10
REMARK    3  A    between atoms: N_13  and  C_18
REMARK    4  A    between atoms: C_21  and  C_24
REMARK                            x       y       z     vdW  Elec       q    Type
REMARK                         _______ _______ _______ _____ _____    ______ ____
ROOT
ATOM      1  C   UNL     1      -0.907  -0.643   0.000  0.00  0.00    +0.000 A 
ATOM      2  N   UNL     1      -0.907   0.182   0.000  0.00  0.00    +0.000 NA
ATOM      3  C   UNL     1      -0.193   0.595   0.000  0.00  0.00    +0.000 A 
ATOM      4  N   UNL     1      -0.193   1.420   0.000  0.00  0.00    +0.000 NA
ATOM      5  N   UNL     1       0.522   0.182   0.000  0.00  0.00    +0.000 NA
ATOM      6  C   UNL     1       0.522  -0.643   0.000  0.00  0.00    +0.000 A 
ATOM      7  N   UNL     1       1.236  -1.055   0.000  0.00  0.00    +0.000 NA
ATOM      8  N   UNL     1      -0.193  -1.055   0.000  0.00  0.00    +0.000 NA
ENDROOT
BRANCH   4   9
ATOM      9  C   UNL     1       0.522   1.832   0.000  0.00  0.00    +0.000 A 
ATOM     10  C   UNL     1       0.522   2.657   0.000  0.00  0.00    +0.000 A 
ATOM     11  C   UNL     1       1.236   3.070   0.000  0.00  0.00    +0.000 A 
ATOM     12  C   UNL     1       1.951   2.657   0.000  0.00  0.00    +0.000 A 
ATOM     13  C   UNL     1       1.951   1.832   0.000  0.00  0.00    +0.000 A 
ATOM     14  C   UNL     1       1.236   1.420   0.000  0.00  0.00    +0.000 A 
BRANCH  12  15
ATOM     15  C   UNL     1       2.665   3.070   0.000  0.00  0.00    +0.000 C 
ATOM     16  N   UNL     1       3.380   3.482   0.000  0.00  0.00    +0.000 NA
ENDBRANCH  12  15
ENDBRANCH   4   9
BRANCH   1  17
ATOM     17  O   UNL     1      -1.622  -1.055   0.000  0.00  0.00    +0.000 OA
BRANCH  17  18
ATOM     18  C   UNL     1      -1.622  -1.880   0.000  0.00  0.00    +0.000 A 
ATOM     19  C   UNL     1      -0.907  -2.293   0.000  0.00  0.00    +0.000 A 
ATOM     20 CL   UNL     1      -0.193  -1.880   0.000  0.00  0.00    +0.000 Cl
ATOM     21  C   UNL     1      -0.907  -3.118   0.000  0.00  0.00    +0.000 A 
ATOM     22  C   UNL     1      -1.622  -3.530   0.000  0.00  0.00    +0.000 A 
ATOM     23  C   UNL     1      -2.336  -3.118   0.000  0.00  0.00    +0.000 A 
ATOM     24  C   UNL     1      -2.336  -2.293   0.000  0.00  0.00    +0.000 A 
ATOM     25 CL   UNL     1      -3.051  -1.880   0.000  0.00  0.00    +0.000 Cl
ENDBRANCH  17  18
ENDBRANCH   1  17
TORSDOF 4
