REMARK  Name = ADL
REMARK  2 active torsions:
REMARK  status: ('A' for Active; 'I' for Inactive)
REMARK    1  A    between atoms: C_12  and  C_15
REMARK    2  A    between atoms: C_15  and  C_16
REMARK                            x       y       z     vdW  Elec       q    Type
REMARK                         _______ _______ _______ _____ _____    ______ ____
ROOT
ATOM      1  C   UNL     1       2.792  -0.850   0.000  0.00  0.00    +0.000 A 
ATOM      2  C   UNL     1       2.078  -1.263   0.000  0.00  0.00    +0.000 A 
ATOM      3  C   UNL     1       1.363  -0.850   0.000  0.00  0.00    +0.000 A 
ATOM      4  C   UNL     1       1.363  -0.025   0.000  0.00  0.00    +0.000 A 
ATOM      5  C   UNL     1       2.078   0.387   0.000  0.00  0.00    +0.000 A 
ATOM      6  C   UNL     1       2.792  -0.025   0.000  0.00  0.00    +0.000 A 
ATOM      7  C   UNL     1       0.649   0.387   0.000  0.00  0.00    +0.000 C 
ATOM      8  C   UNL     1      -0.066  -0.025   0.000  0.00  0.00    +0.000 A 
ATOM      9  C   UNL     1      -0.066  -0.850   0.000  0.00  0.00    +0.000 A 
ATOM     10  C   UNL     1       0.649  -1.263   0.000  0.00  0.00    +0.000 C 
ATOM     11  C   UNL     1      -0.780   0.387   0.000  0.00  0.00    +0.000 A 
ATOM     12  C   UNL     1      -1.494  -0.025   0.000  0.00  0.00    +0.000 A 
ATOM     13  C   UNL     1      -1.494  -0.850   0.000  0.00  0.00    +0.000 A 
ATOM     14  C   UNL     1      -0.780  -1.263   0.000  0.00  0.00    +0.000 A 
ATOM     15  O   UNL     1       2.078   1.212   0.000  0.00  0.00    +0.000 OA
ATOM     16  O   UNL     1       0.649   1.212   0.000  0.00  0.00    +0.000 OA
ATOM     17  O   UNL     1      -0.780   1.212   0.000  0.00  0.00    +0.000 OA
ENDROOT
BRANCH  12  18
ATOM     18  C   UNL     1      -2.209   0.387   0.000  0.00  0.00    +0.000 C 
BRANCH  18  19
ATOM     19  C   UNL     1      -2.209   1.212   0.000  0.00  0.00    +0.000 C 
ATOM     20  O   UNL     1      -2.923   1.625   0.000  0.00  0.00    +0.000 OA
ATOM     21  O   UNL     1      -1.494   1.625   0.000  0.00  0.00    +0.000 OA
ENDBRANCH  18  19
ENDBRANCH  12  18
TORSDOF 2
