REMARK  Name = AE2
REMARK  0 active torsions:
REMARK  status: ('A' for Active; 'I' for Inactive)
REMARK                            x       y       z     vdW  Elec       q    Type
REMARK                         _______ _______ _______ _____ _____    ______ ____
ROOT
ATOM      1  C   UNL     1       1.335  -0.730   0.000  0.00  0.00    +0.000 C 
ATOM      2  C   UNL     1       2.147  -0.584   0.000  0.00  0.00    +0.000 C 
ATOM      3  C   UNL     1       2.427   0.192   0.000  0.00  0.00    +0.000 C 
ATOM      4  O   UNL     1       3.240   0.337   0.000  0.00  0.00    +0.000 OA
ATOM      5  C   UNL     1       1.896   0.822   0.000  0.00  0.00    +0.000 C 
ATOM      6  C   UNL     1       1.083   0.677   0.000  0.00  0.00    +0.000 C 
ATOM      7  C   UNL     1       0.552   1.308   0.000  0.00  0.00    +0.000 C 
ATOM      8  C   UNL     1      -0.261   1.163   0.000  0.00  0.00    +0.000 C 
ATOM      9  C   UNL     1      -0.541   0.387   0.000  0.00  0.00    +0.000 C 
ATOM     10  C   UNL     1      -0.009  -0.244   0.000  0.00  0.00    +0.000 C 
ATOM     11  C   UNL     1       0.803  -0.099   0.000  0.00  0.00    +0.000 C 
ATOM     12  C   UNL     1      -0.289  -1.020   0.000  0.00  0.00    +0.000 C 
ATOM     13  C   UNL     1      -1.101  -1.165   0.000  0.00  0.00    +0.000 C 
ATOM     14  C   UNL     1      -1.633  -0.534   0.000  0.00  0.00    +0.000 C 
ATOM     15  C   UNL     1      -1.353   0.241   0.000  0.00  0.00    +0.000 C 
ATOM     16  C   UNL     1      -2.004   0.748   0.000  0.00  0.00    +0.000 C 
ATOM     17  C   UNL     1      -2.687   0.285   0.000  0.00  0.00    +0.000 C 
ATOM     18  C   UNL     1      -2.458  -0.508   0.000  0.00  0.00    +0.000 C 
ATOM     19  O   UNL     1      -2.964  -1.159   0.000  0.00  0.00    +0.000 OA
ATOM     20  C   UNL     1      -1.993  -1.277   0.000  0.00  0.00    +0.000 C 
ATOM     21  C   UNL     1       0.523  -0.875   0.000  0.00  0.00    +0.000 C 
ENDROOT
TORSDOF 0
