REMARK  Name = AED
REMARK  3 active torsions:
REMARK  status: ('A' for Active; 'I' for Inactive)
REMARK    1  A    between atoms: C_4  and  C_7
REMARK    2  A    between atoms: C_7  and  C_8
REMARK    3  A    between atoms: C_13  and  C_14
REMARK                            x       y       z     vdW  Elec       q    Type
REMARK                         _______ _______ _______ _____ _____    ______ ____
ROOT
ATOM      1  C   UNL     1      -0.803  -0.884   0.000  0.00  0.00    +0.000 A 
ATOM      2  C   UNL     1      -0.803   0.766   0.000  0.00  0.00    +0.000 A 
ATOM      3  C   UNL     1      -1.518  -0.472   0.000  0.00  0.00    +0.000 A 
ATOM      4  O   UNL     1      -0.803  -1.709   0.000  0.00  0.00    +0.000 OA
ATOM      5  C   UNL     1      -1.518   0.353   0.000  0.00  0.00    +0.000 A 
ATOM      6  C   UNL     1      -0.089   0.353   0.000  0.00  0.00    +0.000 A 
ATOM      7  C   UNL     1      -0.089  -0.472   0.000  0.00  0.00    +0.000 A 
ENDROOT
BRANCH   7  11
ATOM      8  C   UNL     1       1.340  -0.472   0.000  0.00  0.00    +0.000 C 
ATOM      9  C   UNL     1       0.625  -1.709   0.000  0.00  0.00    +0.000 C 
ATOM     10  C   UNL     1       2.054  -0.884   0.000  0.00  0.00    +0.000 C 
ATOM     11  C   UNL     1       0.625  -0.884   0.000  0.00  0.00    +0.000 C 
ATOM     12  C   UNL     1       2.054  -1.709   0.000  0.00  0.00    +0.000 C 
ATOM     13  C   UNL     1       1.340  -2.122   0.000  0.00  0.00    +0.000 C 
ENDBRANCH   7  11
BRANCH   2  14
ATOM     14  C   UNL     1      -0.803   1.591   0.000  0.00  0.00    +0.000 C 
BRANCH  14  15
ATOM     15  C   UNL     1      -1.518   2.003   0.000  0.00  0.00    +0.000 C 
ATOM     16  N   UNL     1      -1.518   2.828   0.000  0.00  0.00    +0.000 NA
ENDBRANCH  14  15
ENDBRANCH   2  14
TORSDOF 3
