REMARK  Name = AEH
REMARK  3 active torsions:
REMARK  status: ('A' for Active; 'I' for Inactive)
REMARK    1  A    between atoms: C_1  and  C_12
REMARK    2  A    between atoms: C_2  and  C_5
REMARK    3  A    between atoms: C_5  and  C_10
REMARK                            x       y       z     vdW  Elec       q    Type
REMARK                         _______ _______ _______ _____ _____    ______ ____
ROOT
ATOM      1  C   UNL     1       0.465  -0.052   0.000  0.00  0.00    +0.000 A 
ATOM      2  C   UNL     1      -0.250  -1.289   0.000  0.00  0.00    +0.000 A 
ATOM      3  O   UNL     1      -1.679  -1.289   0.000  0.00  0.00    +0.000 OA
ATOM      4  C   UNL     1      -0.964  -0.877   0.000  0.00  0.00    +0.000 A 
ATOM      5  C   UNL     1       0.465  -0.877   0.000  0.00  0.00    +0.000 A 
ATOM      6  C   UNL     1      -0.250   0.361   0.000  0.00  0.00    +0.000 A 
ATOM      7  C   UNL     1      -0.964  -0.052   0.000  0.00  0.00    +0.000 A 
ENDROOT
BRANCH   7   8
ATOM      8  C   UNL     1      -1.679   0.361   0.000  0.00  0.00    +0.000 C 
ATOM      9  C   UNL     1      -2.393  -0.052   0.000  0.00  0.00    +0.000 C 
ENDBRANCH   7   8
BRANCH   1  10
ATOM     10  C   UNL     1       1.179   0.361   0.000  0.00  0.00    +0.000 C 
BRANCH  10  12
ATOM     11  N   UNL     1       2.608   0.361   0.000  0.00  0.00    +0.000 NA
ATOM     12  C   UNL     1       1.893  -0.052   0.000  0.00  0.00    +0.000 C 
ENDBRANCH  10  12
ENDBRANCH   1  10
TORSDOF 3
