REMARK  Name = AES
REMARK  3 active torsions:
REMARK  status: ('A' for Active; 'I' for Inactive)
REMARK    1  A    between atoms: C_3  and  S_4
REMARK    2  A    between atoms: C_10  and  C_11
REMARK    3  A    between atoms: C_11  and  C_12
REMARK                            x       y       z     vdW  Elec       q    Type
REMARK                         _______ _______ _______ _____ _____    ______ ____
ROOT
ATOM      1  C   UNL     1       1.314  -0.134   0.000  0.00  0.00    +0.000 A 
ATOM      2  C   UNL     1       1.314  -0.959   0.000  0.00  0.00    +0.000 A 
ATOM      3  C   UNL     1       0.599  -1.371   0.000  0.00  0.00    +0.000 A 
ATOM      4  C   UNL     1      -0.115  -0.959   0.000  0.00  0.00    +0.000 A 
ATOM      5  C   UNL     1      -0.115  -0.134   0.000  0.00  0.00    +0.000 A 
ATOM      6  C   UNL     1       0.599   0.279   0.000  0.00  0.00    +0.000 A 
ENDROOT
BRANCH   3   7
ATOM      7  S   UNL     1       0.599  -2.196   0.000  0.00  0.00    +0.000 S 
ATOM      8  F   UNL     1       0.599  -3.021   0.000  0.00  0.00    +0.000 F 
ATOM      9  O   UNL     1       1.424  -2.196   0.000  0.00  0.00    +0.000 OA
ATOM     10  O   UNL     1      -0.226  -2.196   0.000  0.00  0.00    +0.000 OA
ENDBRANCH   3   7
BRANCH   6  11
ATOM     11  C   UNL     1       0.599   1.104   0.000  0.00  0.00    +0.000 C 
BRANCH  11  12
ATOM     12  C   UNL     1       1.314   1.516   0.000  0.00  0.00    +0.000 C 
ATOM     13  N   UNL     1       1.314   2.341   0.000  0.00  0.00    +0.000 NA
ENDBRANCH  11  12
ENDBRANCH   6  11
TORSDOF 3
