REMARK  Name = AFB
REMARK  0 active torsions:
REMARK  status: ('A' for Active; 'I' for Inactive)
REMARK                            x       y       z     vdW  Elec       q    Type
REMARK                         _______ _______ _______ _____ _____    ______ ____
ROOT
ATOM      1  O   UNL     1      -2.288  -0.510   0.000  0.00  0.00    +0.000 OA
ATOM      2  C   UNL     1      -1.487  -0.707   0.000  0.00  0.00    +0.000 C 
ATOM      3  C   UNL     1      -0.857  -0.174   0.000  0.00  0.00    +0.000 C 
ATOM      4  C   UNL     1      -1.175  -1.471   0.000  0.00  0.00    +0.000 C 
ATOM      5  C   UNL     1      -0.353  -1.410   0.000  0.00  0.00    +0.000 C 
ATOM      6  C   UNL     1      -0.156  -0.609   0.000  0.00  0.00    +0.000 C 
ATOM      7  C   UNL     1       0.636  -0.379   0.000  0.00  0.00    +0.000 C 
ATOM      8  C   UNL     1       0.833   0.423   0.000  0.00  0.00    +0.000 C 
ATOM      9  C   UNL     1       1.625   0.653   0.000  0.00  0.00    +0.000 C 
ATOM     10  C   UNL     1       2.303   0.057   0.000  0.00  0.00    +0.000 C 
ATOM     11  C   UNL     1       3.128   0.031   0.000  0.00  0.00    +0.000 C 
ATOM     12  C   UNL     1       3.358  -0.761   0.000  0.00  0.00    +0.000 C 
ATOM     13  C   UNL     1       4.135  -1.040   0.000  0.00  0.00    +0.000 C 
ATOM     14  O   UNL     1       2.676  -1.225   0.000  0.00  0.00    +0.000 OA
ATOM     15  C   UNL     1       2.423  -2.091   0.000  0.00  0.00    +0.000 C 
ATOM     16  O   UNL     1       3.006  -2.675   0.000  0.00  0.00    +0.000 OA
ATOM     17  C   UNL     1       1.631  -2.322   0.000  0.00  0.00    +0.000 C 
ATOM     18  C   UNL     1       1.035  -1.751   0.000  0.00  0.00    +0.000 C 
ATOM     19  C   UNL     1       0.243  -1.981   0.000  0.00  0.00    +0.000 C 
ATOM     20  O   UNL     1       0.046  -2.782   0.000  0.00  0.00    +0.000 OA
ENDROOT
TORSDOF 0
