REMARK  Name = AGE
REMARK  5 active torsions:
REMARK  status: ('A' for Active; 'I' for Inactive)
REMARK    1  A    between atoms: C_5  and  C_12
REMARK    2  A    between atoms: C_12  and  C_13
REMARK    3  A    between atoms: C_13  and  C_14
REMARK    4  A    between atoms: C_17  and  C_19
REMARK    5  A    between atoms: C_20  and  C_21
REMARK                            x       y       z     vdW  Elec       q    Type
REMARK                         _______ _______ _______ _____ _____    ______ ____
ROOT
ATOM      1  N   UNL     1       0.403   1.467   0.000  0.00  0.00    +0.000 N 
ATOM      2  C   UNL     1      -0.010   0.197   0.000  0.00  0.00    +0.000 A 
ATOM      3  C   UNL     1      -0.265   0.982   0.000  0.00  0.00    +0.000 A 
ATOM      4  C   UNL     1       0.403   2.292   0.000  0.00  0.00    +0.000 C 
ATOM      5  C   UNL     1       1.070   0.982   0.000  0.00  0.00    +0.000 A 
ATOM      6  C   UNL     1       0.815   0.197   0.000  0.00  0.00    +0.000 A 
ENDROOT
BRANCH   2   8
ATOM      7  O   UNL     1      -0.159  -1.224   0.000  0.00  0.00    +0.000 OA
ATOM      8  C   UNL     1      -0.495  -0.470   0.000  0.00  0.00    +0.000 C 
BRANCH   8   9
ATOM      9  C   UNL     1      -1.315  -0.384   0.000  0.00  0.00    +0.000 C 
BRANCH   9  12
ATOM     10  C   UNL     1      -2.770  -2.386   0.000  0.00  0.00    +0.000 A 
ATOM     11  C   UNL     1      -1.465  -1.805   0.000  0.00  0.00    +0.000 A 
ATOM     12  C   UNL     1      -1.800  -1.051   0.000  0.00  0.00    +0.000 A 
ATOM     13  C   UNL     1      -2.621  -0.965   0.000  0.00  0.00    +0.000 A 
ATOM     14  C   UNL     1      -3.106  -1.633   0.000  0.00  0.00    +0.000 A 
ATOM     15  C   UNL     1      -1.950  -2.472   0.000  0.00  0.00    +0.000 A 
ENDBRANCH   9  12
ENDBRANCH   8   9
ENDBRANCH   2   8
BRANCH   5  16
ATOM     16  C   UNL     1       1.855   1.237   0.000  0.00  0.00    +0.000 C 
ATOM     17  C   UNL     1       2.468   0.685   0.000  0.00  0.00    +0.000 C 
BRANCH  17  21
ATOM     18  N   UNL     1       3.865   0.388   0.000  0.00  0.00    +0.000 NA
ATOM     19  O   UNL     1       4.650   0.643   0.000  0.00  0.00    +0.000 OA
ATOM     20  O   UNL     1       3.424   1.747   0.000  0.00  0.00    +0.000 OA
ATOM     21  C   UNL     1       3.252   0.940   0.000  0.00  0.00    +0.000 C 
ENDBRANCH  17  21
ENDBRANCH   5  16
TORSDOF 5
