REMARK  Name = AGF
REMARK  12 active torsions:
REMARK  status: ('A' for Active; 'I' for Inactive)
REMARK    1  A    between atoms: C_1  and  O_3
REMARK    2  A    between atoms: O_3  and  C_4
REMARK    3  A    between atoms: C_4  and  C_5
REMARK    4  A    between atoms: C_11  and  C_13
REMARK    5  A    between atoms: C_13  and  N_15
REMARK    6  A    between atoms: C_16  and  N_17
REMARK    7  A    between atoms: C_16  and  P_18
REMARK    8  A    between atoms: P_18  and  O_21
REMARK    9  A    between atoms: O_21  and  C_22
REMARK   10  A    between atoms: C_22  and  C_23
REMARK   11  A    between atoms: C_22  and  C_26
REMARK   12  A    between atoms: C_26  and  C_27
REMARK                            x       y       z     vdW  Elec       q    Type
REMARK                         _______ _______ _______ _____ _____    ______ ____
ROOT
ATOM      1  C   UNL     1       0.959  -0.224   0.000  0.00  0.00    +0.000 C 
ENDROOT
BRANCH   1   4
ATOM      2  C   UNL     1      -0.461  -0.060   0.000  0.00  0.00    +0.000 C 
ATOM      3  O   UNL     1      -0.555  -0.880   0.000  0.00  0.00    +0.000 OA
ATOM      4  N   UNL     1       0.296   0.268   0.000  0.00  0.00    +0.000 NA
BRANCH   2   5
ATOM      5  C   UNL     1      -1.123   0.432   0.000  0.00  0.00    +0.000 C 
ATOM      6  C   UNL     1      -1.028   1.251   0.000  0.00  0.00    +0.000 C 
BRANCH   5   9
ATOM      7  C   UNL     1      -2.543   0.596   0.000  0.00  0.00    +0.000 C 
ATOM      8  O   UNL     1      -2.448   1.415   0.000  0.00  0.00    +0.000 OA
ATOM      9  N   UNL     1      -1.880   0.104   0.000  0.00  0.00    +0.000 NA
BRANCH   7  10
ATOM     10  O   UNL     1      -3.300   0.268   0.000  0.00  0.00    +0.000 OA
BRANCH  10  11
ATOM     11  C   UNL     1      -3.962   0.759   0.000  0.00  0.00    +0.000 C 
BRANCH  11  12
ATOM     12  C   UNL     1      -4.719   0.432   0.000  0.00  0.00    +0.000 A 
ATOM     13  C   UNL     1      -4.814  -0.388   0.000  0.00  0.00    +0.000 A 
ATOM     14  C   UNL     1      -5.382   0.923   0.000  0.00  0.00    +0.000 A 
ATOM     15  C   UNL     1      -5.571  -0.716   0.000  0.00  0.00    +0.000 A 
ATOM     16  C   UNL     1      -6.139   0.596   0.000  0.00  0.00    +0.000 A 
ATOM     17  C   UNL     1      -6.233  -0.224   0.000  0.00  0.00    +0.000 A 
ENDBRANCH  11  12
ENDBRANCH  10  11
ENDBRANCH   7  10
ENDBRANCH   5   9
ENDBRANCH   2   5
ENDBRANCH   1   4
BRANCH   1  18
ATOM     18  P   UNL     1       1.716   0.104   0.000  0.00  0.00    +0.000 P 
ATOM     19  O   UNL     1       2.044  -0.653   0.000  0.00  0.00    +0.000 OA
ATOM     20  O   UNL     1       1.388   0.861   0.000  0.00  0.00    +0.000 OA
BRANCH  18  21
ATOM     21  O   UNL     1       2.473   0.432   0.000  0.00  0.00    +0.000 OA
BRANCH  21  22
ATOM     22  C   UNL     1       3.135  -0.060   0.000  0.00  0.00    +0.000 C 
BRANCH  22  23
ATOM     23  C   UNL     1       3.041  -0.880   0.000  0.00  0.00    +0.000 C 
ATOM     24  O   UNL     1       3.703  -1.371   0.000  0.00  0.00    +0.000 OA
ATOM     25  O   UNL     1       2.284  -1.208   0.000  0.00  0.00    +0.000 OA
ENDBRANCH  22  23
BRANCH  22  26
ATOM     26  C   UNL     1       3.892   0.268   0.000  0.00  0.00    +0.000 C 
BRANCH  26  27
ATOM     27  C   UNL     1       4.555  -0.224   0.000  0.00  0.00    +0.000 A 
ATOM     28  C   UNL     1       5.312   0.104   0.000  0.00  0.00    +0.000 A 
ATOM     29  C   UNL     1       4.460  -1.044   0.000  0.00  0.00    +0.000 A 
ATOM     30  C   UNL     1       5.974  -0.388   0.000  0.00  0.00    +0.000 A 
ATOM     31  C   UNL     1       5.123  -1.535   0.000  0.00  0.00    +0.000 A 
ATOM     32  C   UNL     1       5.880  -1.208   0.000  0.00  0.00    +0.000 A 
ENDBRANCH  26  27
ENDBRANCH  22  26
ENDBRANCH  21  22
ENDBRANCH  18  21
ENDBRANCH   1  18
TORSDOF 12
