REMARK  Name = AHC
REMARK  3 active torsions:
REMARK  status: ('A' for Active; 'I' for Inactive)
REMARK    1  A    between atoms: C_1  and  C_2
REMARK    2  A    between atoms: C_1  and  C_5
REMARK    3  A    between atoms: C_5  and  C_6
REMARK                            x       y       z     vdW  Elec       q    Type
REMARK                         _______ _______ _______ _____ _____    ______ ____
ROOT
ATOM      1  C   UNL     1       0.114  -0.108   0.000  0.00  0.00    +0.000 A 
ATOM      2  C   UNL     1       0.114  -0.933   0.000  0.00  0.00    +0.000 A 
ATOM      3  C   UNL     1      -0.601   0.305   0.000  0.00  0.00    +0.000 A 
ATOM      4  C   UNL     1      -0.601  -1.345   0.000  0.00  0.00    +0.000 A 
ATOM      5  C   UNL     1      -1.315  -0.108   0.000  0.00  0.00    +0.000 A 
ATOM      6  C   UNL     1      -1.315  -0.933   0.000  0.00  0.00    +0.000 A 
ATOM      7  N   UNL     1      -2.030  -1.345   0.000  0.00  0.00    +0.000 NA
ENDROOT
BRANCH   1   8
ATOM      8  C   UNL     1       0.828   0.305   0.000  0.00  0.00    +0.000 C 
BRANCH   8   9
ATOM      9  C   UNL     1       0.828   1.130   0.000  0.00  0.00    +0.000 C 
BRANCH   9  10
ATOM     10  C   UNL     1       1.543   1.542   0.000  0.00  0.00    +0.000 C 
ATOM     11  O   UNL     1       1.543   2.367   0.000  0.00  0.00    +0.000 OA
ATOM     12  O   UNL     1       2.257   1.130   0.000  0.00  0.00    +0.000 OA
ENDBRANCH   9  10
ENDBRANCH   8   9
ENDBRANCH   1   8
TORSDOF 3
