REMARK  Name = AHT
REMARK  5 active torsions:
REMARK  status: ('A' for Active; 'I' for Inactive)
REMARK    1  A    between atoms: C_2  and  C_3
REMARK    2  A    between atoms: C_2  and  C_4
REMARK    3  A    between atoms: C_3  and  C_12
REMARK    4  A    between atoms: C_4  and  C_5
REMARK    5  A    between atoms: C_12  and  C_13
REMARK                            x       y       z     vdW  Elec       q    Type
REMARK                         _______ _______ _______ _____ _____    ______ ____
ROOT
ATOM      1  C   UNL     1       0.281   0.499   0.000  0.00  0.00    +0.000 C 
ENDROOT
BRANCH   1   2
ATOM      2  C   UNL     1       0.996   0.087   0.000  0.00  0.00    +0.000 A 
ATOM      3  C   UNL     1       1.710   0.499   0.000  0.00  0.00    +0.000 A 
ATOM      4  C   UNL     1       0.996  -0.738   0.000  0.00  0.00    +0.000 A 
ATOM      5  C   UNL     1       2.425   0.087   0.000  0.00  0.00    +0.000 A 
ATOM      6  C   UNL     1       1.710  -1.151   0.000  0.00  0.00    +0.000 A 
ATOM      7  C   UNL     1       2.425  -0.738   0.000  0.00  0.00    +0.000 A 
ATOM      8  O   UNL     1       3.139  -1.151   0.000  0.00  0.00    +0.000 OA
ENDBRANCH   1   2
BRANCH   1  10
ATOM      9  N   UNL     1      -0.433  -0.738   0.000  0.00  0.00    +0.000 NA
ATOM     10  C   UNL     1      -0.433   0.087   0.000  0.00  0.00    +0.000 C 
BRANCH  10  11
ATOM     11  C   UNL     1      -1.148   0.499   0.000  0.00  0.00    +0.000 C 
BRANCH  11  12
ATOM     12  C   UNL     1      -1.862   0.087   0.000  0.00  0.00    +0.000 C 
BRANCH  12  13
ATOM     13  C   UNL     1      -2.577   0.499   0.000  0.00  0.00    +0.000 C 
ATOM     14  O   UNL     1      -3.291   0.087   0.000  0.00  0.00    +0.000 OA
ATOM     15  N   UNL     1      -2.577   1.324   0.000  0.00  0.00    +0.000 NA
ENDBRANCH  12  13
ENDBRANCH  11  12
ENDBRANCH  10  11
ENDBRANCH   1  10
TORSDOF 5
