REMARK  Name = AI1
REMARK  6 active torsions:
REMARK  status: ('A' for Active; 'I' for Inactive)
REMARK    1  A    between atoms: C_1  and  O_2
REMARK    2  A    between atoms: O_2  and  C_13
REMARK    3  A    between atoms: C_9  and  C_11
REMARK    4  A    between atoms: C_17  and  C_19
REMARK    5  A    between atoms: N_21  and  C_22
REMARK    6  A    between atoms: C_22  and  C_23
REMARK                            x       y       z     vdW  Elec       q    Type
REMARK                         _______ _______ _______ _____ _____    ______ ____
ROOT
ATOM      1  C   UNL     1      -0.368  -0.279   0.000  0.00  0.00    +0.000 A 
ATOM      2  C   UNL     1      -1.082  -0.692   0.000  0.00  0.00    +0.000 A 
ATOM      3  C   UNL     1      -1.796  -0.279   0.000  0.00  0.00    +0.000 A 
ATOM      4  C   UNL     1      -1.796   0.546   0.000  0.00  0.00    +0.000 A 
ATOM      5  C   UNL     1      -1.082   0.959   0.000  0.00  0.00    +0.000 A 
ATOM      6  C   UNL     1      -0.368   0.546   0.000  0.00  0.00    +0.000 A 
ENDROOT
BRANCH   5   7
ATOM      7  C   UNL     1      -1.082   1.784   0.000  0.00  0.00    +0.000 C 
ATOM      8  O   UNL     1      -1.796   2.196   0.000  0.00  0.00    +0.000 OA
ATOM      9  N   UNL     1      -0.368   2.196   0.000  0.00  0.00    +0.000 NA
BRANCH   9  10
ATOM     10  C   UNL     1      -0.368   3.021   0.000  0.00  0.00    +0.000 C 
BRANCH  10  11
ATOM     11  C   UNL     1       0.347   3.433   0.000  0.00  0.00    +0.000 A 
ATOM     12  C   UNL     1       0.347   4.258   0.000  0.00  0.00    +0.000 A 
ATOM     13  C   UNL     1       1.061   4.671   0.000  0.00  0.00    +0.000 A 
ATOM     14  C   UNL     1       1.776   4.258   0.000  0.00  0.00    +0.000 A 
ATOM     15  C   UNL     1       1.776   3.433   0.000  0.00  0.00    +0.000 A 
ATOM     16  C   UNL     1       1.061   3.021   0.000  0.00  0.00    +0.000 A 
ENDBRANCH  10  11
ENDBRANCH   9  10
ENDBRANCH   5   7
BRANCH   1  17
ATOM     17  O   UNL     1       0.347  -0.692   0.000  0.00  0.00    +0.000 OA
BRANCH  17  18
ATOM     18  C   UNL     1       0.347  -1.516   0.000  0.00  0.00    +0.000 C 
ATOM     19  C   UNL     1       1.061  -1.929   0.000  0.00  0.00    +0.000 C 
ATOM     20  O   UNL     1       1.776  -1.516   0.000  0.00  0.00    +0.000 OA
ATOM     21  C   UNL     1       1.061  -2.754   0.000  0.00  0.00    +0.000 C 
ATOM     22  O   UNL     1       1.776  -3.167   0.000  0.00  0.00    +0.000 OA
ATOM     23  C   UNL     1       0.347  -3.167   0.000  0.00  0.00    +0.000 C 
ATOM     24  O   UNL     1       0.347  -3.991   0.000  0.00  0.00    +0.000 OA
ATOM     25  C   UNL     1      -0.368  -2.754   0.000  0.00  0.00    +0.000 C 
ATOM     26  O   UNL     1      -0.368  -1.929   0.000  0.00  0.00    +0.000 OA
BRANCH  25  27
ATOM     27  C   UNL     1      -1.082  -3.167   0.000  0.00  0.00    +0.000 C 
ATOM     28  O   UNL     1      -1.796  -2.754   0.000  0.00  0.00    +0.000 OA
ENDBRANCH  25  27
ENDBRANCH  17  18
ENDBRANCH   1  17
TORSDOF 6
