REMARK  Name = AI3
REMARK  2 active torsions:
REMARK  status: ('A' for Active; 'I' for Inactive)
REMARK    1  A    between atoms: C_5  and  O_23
REMARK    2  A    between atoms: C_6  and  O_21
REMARK                            x       y       z     vdW  Elec       q    Type
REMARK                         _______ _______ _______ _____ _____    ______ ____
ROOT
ATOM      1  C   UNL     1       1.155   0.571   0.000  0.00  0.00    +0.000 A 
ATOM      2  C   UNL     1       0.693  -0.113   0.000  0.00  0.00    +0.000 A 
ATOM      3  C   UNL     1       1.055  -0.854   0.000  0.00  0.00    +0.000 A 
ATOM      4  C   UNL     1       1.878  -0.911   0.000  0.00  0.00    +0.000 A 
ATOM      5  C   UNL     1       2.339  -0.227   0.000  0.00  0.00    +0.000 A 
ATOM      6  C   UNL     1       1.978   0.514   0.000  0.00  0.00    +0.000 A 
ATOM      7  C   UNL     1       0.594  -1.538   0.000  0.00  0.00    +0.000 A 
ATOM      8  N   UNL     1      -0.229  -1.481   0.000  0.00  0.00    +0.000 NA
ATOM      9  C   UNL     1      -0.591  -0.739   0.000  0.00  0.00    +0.000 A 
ATOM     10  C   UNL     1      -0.130  -0.055   0.000  0.00  0.00    +0.000 A 
ATOM     11  C   UNL     1      -0.638   0.595   0.000  0.00  0.00    +0.000 C 
ATOM     12  C   UNL     1      -1.413   0.312   0.000  0.00  0.00    +0.000 A 
ATOM     13  C   UNL     1      -1.384  -0.512   0.000  0.00  0.00    +0.000 A 
ATOM     14  C   UNL     1      -2.083  -0.950   0.000  0.00  0.00    +0.000 A 
ATOM     15  C   UNL     1      -2.812  -0.562   0.000  0.00  0.00    +0.000 A 
ATOM     16  C   UNL     1      -2.841   0.262   0.000  0.00  0.00    +0.000 A 
ATOM     17  C   UNL     1      -2.141   0.700   0.000  0.00  0.00    +0.000 A 
ATOM     18  O   UNL     1      -3.634   0.489   0.000  0.00  0.00    +0.000 OA
ATOM     19  C   UNL     1      -4.095  -0.195   0.000  0.00  0.00    +0.000 C 
ATOM     20  O   UNL     1      -3.587  -0.845   0.000  0.00  0.00    +0.000 OA
ENDROOT
BRANCH   6  21
ATOM     21  O   UNL     1       2.439   1.198   0.000  0.00  0.00    +0.000 OA
ATOM     22  C   UNL     1       3.262   1.141   0.000  0.00  0.00    +0.000 C 
ENDBRANCH   6  21
BRANCH   5  23
ATOM     23  O   UNL     1       3.162  -0.285   0.000  0.00  0.00    +0.000 OA
ATOM     24  C   UNL     1       3.624   0.399   0.000  0.00  0.00    +0.000 C 
ENDBRANCH   5  23
TORSDOF 2
