REMARK  Name = AI7
REMARK  8 active torsions:
REMARK  status: ('A' for Active; 'I' for Inactive)
REMARK    1  A    between atoms: C_4  and  C_10
REMARK    2  A    between atoms: C_4  and  C_12
REMARK    3  A    between atoms: C_5  and  C_14
REMARK    4  A    between atoms: C_6  and  C_8
REMARK    5  A    between atoms: C_6  and  C_13
REMARK    6  A    between atoms: C_8  and  O_16
REMARK    7  A    between atoms: C_11  and  O_16
REMARK    8  A    between atoms: C_12  and  C_13
REMARK                            x       y       z     vdW  Elec       q    Type
REMARK                         _______ _______ _______ _____ _____    ______ ____
ROOT
ATOM      1  C   UNL     1      -4.128  -1.575   0.000  0.00  0.00    +0.000 A 
ATOM      2  C   UNL     1      -4.128  -3.225   0.000  0.00  0.00    +0.000 A 
ATOM      3  C   UNL     1      -4.842  -2.813   0.000  0.00  0.00    +0.000 A 
ATOM      4  C   UNL     1      -3.413  -2.813   0.000  0.00  0.00    +0.000 A 
ATOM      5  C   UNL     1      -3.413  -1.988   0.000  0.00  0.00    +0.000 A 
ATOM      6  C   UNL     1      -4.842  -1.988   0.000  0.00  0.00    +0.000 A 
ENDROOT
BRANCH   6   7
ATOM      7  C   UNL     1      -5.557  -1.575   0.000  0.00  0.00    +0.000 C 
ATOM      8  O   UNL     1      -6.271  -1.988   0.000  0.00  0.00    +0.000 OA
ATOM      9  O   UNL     1      -5.557  -0.750   0.000  0.00  0.00    +0.000 OA
ENDBRANCH   6   7
BRANCH   5  10
ATOM     10  O   UNL     1      -2.699  -1.575   0.000  0.00  0.00    +0.000 OA
BRANCH  10  11
ATOM     11  C   UNL     1      -1.984  -1.988   0.000  0.00  0.00    +0.000 C 
BRANCH  11  12
ATOM     12  C   UNL     1      -1.270  -1.575   0.000  0.00  0.00    +0.000 C 
BRANCH  12  13
ATOM     13  C   UNL     1      -0.555  -1.988   0.000  0.00  0.00    +0.000 C 
BRANCH  13  14
ATOM     14  C   UNL     1       0.159  -1.575   0.000  0.00  0.00    +0.000 C 
BRANCH  14  15
ATOM     15  C   UNL     1       0.873  -1.988   0.000  0.00  0.00    +0.000 C 
BRANCH  15  17
ATOM     16  C   UNL     1       2.302  -1.988   0.000  0.00  0.00    +0.000 C 
ATOM     17  C   UNL     1       1.588  -1.575   0.000  0.00  0.00    +0.000 C 
ENDBRANCH  15  17
ENDBRANCH  14  15
ENDBRANCH  13  14
ENDBRANCH  12  13
ENDBRANCH  11  12
ENDBRANCH  10  11
ENDBRANCH   5  10
TORSDOF 8
