REMARK  Name = AIA
REMARK  4 active torsions:
REMARK  status: ('A' for Active; 'I' for Inactive)
REMARK    1  A    between atoms: C_1  and  C_5
REMARK    2  A    between atoms: C_2  and  C_7
REMARK    3  A    between atoms: C_3  and  C_8
REMARK    4  A    between atoms: C_8  and  C_13
REMARK                            x       y       z     vdW  Elec       q    Type
REMARK                         _______ _______ _______ _____ _____    ______ ____
ROOT
ATOM      1  C   UNL     1       1.513   0.676   0.000  0.00  0.00    +0.000 C 
ATOM      2  C   UNL     1       1.101  -0.594   0.000  0.00  0.00    +0.000 C 
ATOM      3  C   UNL     1       0.061   0.446   0.000  0.00  0.00    +0.000 C 
ATOM      4  C   UNL     1       2.180   0.191   0.000  0.00  0.00    +0.000 C 
ATOM      5  C   UNL     1       1.925  -0.594   0.000  0.00  0.00    +0.000 C 
ATOM      6  N   UNL     1       0.846   0.191   0.000  0.00  0.00    +0.000 N 
ATOM      7  O   UNL     1      -0.111   1.253   0.000  0.00  0.00    +0.000 OA
ENDROOT
BRANCH   1   8
ATOM      8  C   UNL     1       1.513   1.501   0.000  0.00  0.00    +0.000 C 
ATOM      9  C   UNL     1       1.513   2.326   0.000  0.00  0.00    +0.000 C 
ENDBRANCH   1   8
BRANCH   2  10
ATOM     10  C   UNL     1       0.616  -1.261   0.000  0.00  0.00    +0.000 C 
ATOM     11  N   UNL     1       0.951  -2.015   0.000  0.00  0.00    +0.000 NA
ENDBRANCH   2  10
BRANCH   3  12
ATOM     12  C   UNL     1      -0.552  -0.106   0.000  0.00  0.00    +0.000 C 
ATOM     13  N   UNL     1      -0.381  -0.913   0.000  0.00  0.00    +0.000 NA
BRANCH  12  14
ATOM     14  C   UNL     1      -1.337   0.149   0.000  0.00  0.00    +0.000 C 
ATOM     15  C   UNL     1      -2.004  -0.336   0.000  0.00  0.00    +0.000 C 
ATOM     16  C   UNL     1      -1.592   0.933   0.000  0.00  0.00    +0.000 C 
ATOM     17  C   UNL     1      -2.672   0.149   0.000  0.00  0.00    +0.000 C 
ATOM     18  C   UNL     1      -2.417   0.933   0.000  0.00  0.00    +0.000 C 
ENDBRANCH  12  14
ENDBRANCH   3  12
TORSDOF 4
