REMARK  Name = AIG
REMARK  7 active torsions:
REMARK  status: ('A' for Active; 'I' for Inactive)
REMARK    1  A    between atoms: C_1  and  O_2
REMARK    2  A    between atoms: O_2  and  C_13
REMARK    3  A    between atoms: C_8  and  C_10
REMARK    4  A    between atoms: C_13  and  C_14
REMARK    5  A    between atoms: C_14  and  C_15
REMARK    6  A    between atoms: C_15  and  C_16
REMARK    7  A    between atoms: C_16  and  C_17
REMARK                            x       y       z     vdW  Elec       q    Type
REMARK                         _______ _______ _______ _____ _____    ______ ____
ROOT
ATOM      1  C   UNL     1      -0.919   0.246   0.000  0.00  0.00    +0.000 C 
ATOM      2  C   UNL     1      -0.919  -0.579   0.000  0.00  0.00    +0.000 C 
ATOM      3  O   UNL     1      -0.204  -0.991   0.000  0.00  0.00    +0.000 OA
ATOM      4  C   UNL     1      -1.633  -0.991   0.000  0.00  0.00    +0.000 C 
ATOM      5  C   UNL     1      -2.348  -0.579   0.000  0.00  0.00    +0.000 C 
ATOM      6  O   UNL     1      -3.062  -0.991   0.000  0.00  0.00    +0.000 OA
ATOM      7  C   UNL     1      -2.348   0.246   0.000  0.00  0.00    +0.000 C 
ATOM      8  O   UNL     1      -1.633   0.659   0.000  0.00  0.00    +0.000 OA
ATOM      9  N   UNL     1      -1.633  -1.816   0.000  0.00  0.00    +0.000 NA
ENDROOT
BRANCH   7  10
ATOM     10  C   UNL     1      -3.062   0.659   0.000  0.00  0.00    +0.000 C 
ATOM     11  O   UNL     1      -3.062   1.484   0.000  0.00  0.00    +0.000 OA
ENDBRANCH   7  10
BRANCH   1  12
ATOM     12  O   UNL     1      -0.204   0.659   0.000  0.00  0.00    +0.000 OA
BRANCH  12  13
ATOM     13  C   UNL     1       0.510   0.246   0.000  0.00  0.00    +0.000 C 
BRANCH  13  14
ATOM     14  C   UNL     1       1.224   0.659   0.000  0.00  0.00    +0.000 C 
BRANCH  14  15
ATOM     15  C   UNL     1       1.939   0.246   0.000  0.00  0.00    +0.000 C 
BRANCH  15  16
ATOM     16  C   UNL     1       2.653   0.659   0.000  0.00  0.00    +0.000 C 
BRANCH  16  17
ATOM     17  C   UNL     1       3.368   0.246   0.000  0.00  0.00    +0.000 C 
ATOM     18  C   UNL     1       4.082   0.659   0.000  0.00  0.00    +0.000 C 
ENDBRANCH  16  17
ENDBRANCH  15  16
ENDBRANCH  14  15
ENDBRANCH  13  14
ENDBRANCH  12  13
ENDBRANCH   1  12
TORSDOF 7
