REMARK  Name = AIQ
REMARK  3 active torsions:
REMARK  status: ('A' for Active; 'I' for Inactive)
REMARK    1  A    between atoms: C_2  and  C_3
REMARK    2  A    between atoms: C_3  and  S_15
REMARK    3  A    between atoms: S_15  and  C_16
REMARK                            x       y       z     vdW  Elec       q    Type
REMARK                         _______ _______ _______ _____ _____    ______ ____
ROOT
ATOM      1  C   UNL     1      -1.055  -0.742   0.000  0.00  0.00    +0.000 A 
ATOM      2  C   UNL     1      -0.340  -0.330   0.000  0.00  0.00    +0.000 A 
ATOM      3  C   UNL     1       0.374  -0.742   0.000  0.00  0.00    +0.000 A 
ATOM      4  N   UNL     1       1.089  -0.330   0.000  0.00  0.00    +0.000 NA
ATOM      5  C   UNL     1       1.803  -0.742   0.000  0.00  0.00    +0.000 A 
ATOM      6  N   UNL     1       2.518  -0.330   0.000  0.00  0.00    +0.000 NA
ATOM      7  N   UNL     1       1.803  -1.567   0.000  0.00  0.00    +0.000 NA
ATOM      8  C   UNL     1       1.089  -1.980   0.000  0.00  0.00    +0.000 A 
ATOM      9  O   UNL     1       1.089  -2.805   0.000  0.00  0.00    +0.000 OA
ATOM     10  C   UNL     1       0.374  -1.567   0.000  0.00  0.00    +0.000 A 
ATOM     11  C   UNL     1      -0.340  -1.980   0.000  0.00  0.00    +0.000 A 
ATOM     12  C   UNL     1      -1.055  -1.567   0.000  0.00  0.00    +0.000 A 
ATOM     13  N   UNL     1      -1.769  -1.980   0.000  0.00  0.00    +0.000 NA
ENDROOT
BRANCH   2  14
ATOM     14  C   UNL     1      -0.340   0.495   0.000  0.00  0.00    +0.000 C 
BRANCH  14  15
ATOM     15  S   UNL     1      -1.055   0.908   0.000  0.00  0.00    +0.000 S 
BRANCH  15  16
ATOM     16  C   UNL     1      -1.055   1.733   0.000  0.00  0.00    +0.000 A 
ATOM     17  N   UNL     1      -1.722   2.218   0.000  0.00  0.00    +0.000 NA
ATOM     18  N   UNL     1      -0.387   2.218   0.000  0.00  0.00    +0.000 NA
ATOM     19  C   UNL     1      -1.467   3.002   0.000  0.00  0.00    +0.000 A 
ATOM     20  C   UNL     1      -0.642   3.002   0.000  0.00  0.00    +0.000 A 
ENDBRANCH  15  16
ENDBRANCH  14  15
ENDBRANCH   2  14
TORSDOF 3
