REMARK  Name = AJB
REMARK  3 active torsions:
REMARK  status: ('A' for Active; 'I' for Inactive)
REMARK    1  A    between atoms: C_7  and  S_23
REMARK    2  A    between atoms: C_11  and  S_23
REMARK    3  A    between atoms: C_12  and  C_14
REMARK                            x       y       z     vdW  Elec       q    Type
REMARK                         _______ _______ _______ _____ _____    ______ ____
ROOT
ATOM      1  C   UNL     1      -1.870   0.079   0.000  0.00  0.00    +0.000 A 
ATOM      2  C   UNL     1      -0.229  -0.093   0.000  0.00  0.00    +0.000 A 
ATOM      3  C   UNL     1      -1.385   0.747   0.000  0.00  0.00    +0.000 A 
ATOM      4  C   UNL     1      -1.534  -0.674   0.000  0.00  0.00    +0.000 A 
ATOM      5  C   UNL     1      -0.714  -0.761   0.000  0.00  0.00    +0.000 A 
ATOM      6  C   UNL     1      -0.565   0.660   0.000  0.00  0.00    +0.000 A 
ATOM      7  N   UNL     1      -1.721   1.500   0.000  0.00  0.00    +0.000 NA
ENDROOT
BRANCH   6  12
ATOM      8  C   UNL     1       1.638   3.179   0.000  0.00  0.00    +0.000 A 
ATOM      9  C   UNL     1       2.306   2.694   0.000  0.00  0.00    +0.000 A 
ATOM     10  C   UNL     1       3.090   2.949   0.000  0.00  0.00    +0.000 C 
ATOM     11  C   UNL     1       1.226   1.909   0.000  0.00  0.00    +0.000 A 
ATOM     12  C   UNL     1      -0.080   1.328   0.000  0.00  0.00    +0.000 C 
ATOM     13  N   UNL     1       2.051   1.909   0.000  0.00  0.00    +0.000 NA
ATOM     14  N   UNL     1       0.741   1.242   0.000  0.00  0.00    +0.000 NA
ATOM     15  O   UNL     1      -0.415   2.082   0.000  0.00  0.00    +0.000 OA
ATOM     16  S   UNL     1       0.971   2.694   0.000  0.00  0.00    +0.000 S 
ENDBRANCH   6  12
BRANCH   5  17
ATOM     17  S   UNL     1      -0.379  -1.514   0.000  0.00  0.00    +0.000 S 
BRANCH  17  19
ATOM     18  C   UNL     1      -1.276  -3.451   0.000  0.00  0.00    +0.000 A 
ATOM     19  C   UNL     1      -0.863  -2.182   0.000  0.00  0.00    +0.000 A 
ATOM     20  C   UNL     1       0.176  -3.221   0.000  0.00  0.00    +0.000 C 
ATOM     21  N   UNL     1      -1.943  -2.966   0.000  0.00  0.00    +0.000 NA
ATOM     22  N   UNL     1      -1.688  -2.182   0.000  0.00  0.00    +0.000 NA
ATOM     23  N   UNL     1      -0.609  -2.966   0.000  0.00  0.00    +0.000 N 
ENDBRANCH  17  19
ENDBRANCH   5  17
TORSDOF 3
