REMARK  Name = AJI
REMARK  5 active torsions:
REMARK  status: ('A' for Active; 'I' for Inactive)
REMARK    1  A    between atoms: C_13  and  S_29
REMARK    2  A    between atoms: C_14  and  S_29
REMARK    3  A    between atoms: C_15  and  S_30
REMARK    4  A    between atoms: C_16  and  C_19
REMARK    5  A    between atoms: C_18  and  S_30
REMARK                            x       y       z     vdW  Elec       q    Type
REMARK                         _______ _______ _______ _____ _____    ______ ____
ROOT
ATOM      1  C   UNL     1       1.654  -0.613   0.000  0.00  0.00    +0.000 A 
ATOM      2  C   UNL     1       1.319  -1.366   0.000  0.00  0.00    +0.000 A 
ATOM      3  C   UNL     1       1.169   0.055   0.000  0.00  0.00    +0.000 A 
ATOM      4  C   UNL     1       0.498  -1.453   0.000  0.00  0.00    +0.000 A 
ATOM      5  C   UNL     1       0.349  -0.032   0.000  0.00  0.00    +0.000 A 
ATOM      6  N   UNL     1       0.013  -0.785   0.000  0.00  0.00    +0.000 NA
ENDROOT
BRANCH   5  11
ATOM      7  C   UNL     1      -3.306   2.257   0.000  0.00  0.00    +0.000 C 
ATOM      8  C   UNL     1      -1.854   2.487   0.000  0.00  0.00    +0.000 A 
ATOM      9  C   UNL     1      -2.522   2.002   0.000  0.00  0.00    +0.000 A 
ATOM     10  C   UNL     1      -1.442   1.217   0.000  0.00  0.00    +0.000 A 
ATOM     11  C   UNL     1      -0.136   0.636   0.000  0.00  0.00    +0.000 C 
ATOM     12  N   UNL     1      -2.267   1.217   0.000  0.00  0.00    +0.000 NA
ATOM     13  N   UNL     1      -0.957   0.550   0.000  0.00  0.00    +0.000 NA
ATOM     14  O   UNL     1       0.199   1.390   0.000  0.00  0.00    +0.000 OA
ATOM     15  S   UNL     1      -1.187   2.002   0.000  0.00  0.00    +0.000 S 
ENDBRANCH   5  11
BRANCH   3  16
ATOM     16  S   UNL     1       1.505   0.808   0.000  0.00  0.00    +0.000 S 
BRANCH  16  22
ATOM     17  C   UNL     1       3.631   0.313   0.000  0.00  0.00    +0.000 A 
ATOM     18  C   UNL     1       3.481   1.734   0.000  0.00  0.00    +0.000 A 
ATOM     19  C   UNL     1       2.810   0.227   0.000  0.00  0.00    +0.000 A 
ATOM     20  C   UNL     1       2.661   1.648   0.000  0.00  0.00    +0.000 A 
ATOM     21  C   UNL     1       3.966   1.067   0.000  0.00  0.00    +0.000 A 
ATOM     22  C   UNL     1       2.325   0.895   0.000  0.00  0.00    +0.000 A 
ATOM     23  F   UNL     1       4.787   1.153   0.000  0.00  0.00    +0.000 F 
ENDBRANCH  16  22
ENDBRANCH   3  16
BRANCH   4  24
ATOM     24  S   UNL     1       0.162  -2.206   0.000  0.00  0.00    +0.000 S 
BRANCH  24  27
ATOM     25  C   UNL     1      -0.735  -3.761   0.000  0.00  0.00    +0.000 C 
ATOM     26  C   UNL     1      -1.877  -2.836   0.000  0.00  0.00    +0.000 A 
ATOM     27  C   UNL     1      -0.658  -2.293   0.000  0.00  0.00    +0.000 A 
ATOM     28  N   UNL     1      -1.964  -2.015   0.000  0.00  0.00    +0.000 NA
ATOM     29  N   UNL     1      -1.210  -1.679   0.000  0.00  0.00    +0.000 NA
ATOM     30  N   UNL     1      -1.071  -3.007   0.000  0.00  0.00    +0.000 N 
ENDBRANCH  24  27
ENDBRANCH   4  24
TORSDOF 5
