REMARK  Name = AK1
REMARK  5 active torsions:
REMARK  status: ('A' for Active; 'I' for Inactive)
REMARK    1  A    between atoms: C_2  and  C_7
REMARK    2  A    between atoms: C_3  and  C_26
REMARK    3  A    between atoms: C_6  and  N_29
REMARK    4  A    between atoms: C_7  and  C_9
REMARK    5  A    between atoms: C_9  and  N_21
REMARK                            x       y       z     vdW  Elec       q    Type
REMARK                         _______ _______ _______ _____ _____    ______ ____
ROOT
ATOM      1  C   UNL     1      -0.641   1.200   0.000  0.00  0.00    +0.000 A 
ATOM      2  C   UNL     1       0.113   0.864   0.000  0.00  0.00    +0.000 A 
ATOM      3  C   UNL     1      -0.631  -1.549   0.000  0.00  0.00    +0.000 C 
ATOM      4  N   UNL     1      -1.193   0.587   0.000  0.00  0.00    +0.000 NA
ATOM      5  C   UNL     1      -0.780  -0.128   0.000  0.00  0.00    +0.000 A 
ATOM      6  S   UNL     1       0.027   0.043   0.000  0.00  0.00    +0.000 S 
ATOM      7  N   UNL     1      -0.966  -2.303   0.000  0.00  0.00    +0.000 NA
ATOM      8  N   UNL     1      -1.116  -0.882   0.000  0.00  0.00    +0.000 NA
ATOM      9  O   UNL     1       0.190  -1.463   0.000  0.00  0.00    +0.000 OA
ENDROOT
BRANCH   7  12
ATOM     10  C   UNL     1      -0.817  -3.724   0.000  0.00  0.00    +0.000 A 
ATOM     11  C   UNL     1       0.824  -3.551   0.000  0.00  0.00    +0.000 A 
ATOM     12  C   UNL     1      -0.481  -2.970   0.000  0.00  0.00    +0.000 A 
ATOM     13  C   UNL     1      -0.332  -4.391   0.000  0.00  0.00    +0.000 A 
ATOM     14  C   UNL     1       0.488  -4.305   0.000  0.00  0.00    +0.000 A 
ATOM     15  C   UNL     1       0.339  -2.884   0.000  0.00  0.00    +0.000 A 
BRANCH  13  16
ATOM     16  C   UNL     1      -0.668  -5.145   0.000  0.00  0.00    +0.000 C 
ATOM     17  F   UNL     1      -1.003  -5.899   0.000  0.00  0.00    +0.000 F 
ATOM     18  F   UNL     1       0.086  -5.481   0.000  0.00  0.00    +0.000 F 
ATOM     19  F   UNL     1      -1.421  -4.809   0.000  0.00  0.00    +0.000 F 
ENDBRANCH  13  16
ENDBRANCH   7  12
BRANCH   2  20
ATOM     20  C   UNL     1       0.828   1.276   0.000  0.00  0.00    +0.000 C 
BRANCH  20  21
ATOM     21  C   UNL     1       0.828   2.102   0.000  0.00  0.00    +0.000 C 
BRANCH  21  29
ATOM     22  C   UNL     1       1.542   3.339   0.000  0.00  0.00    +0.000 A 
ATOM     23  C   UNL     1       2.256   4.577   0.000  0.00  0.00    +0.000 A 
ATOM     24  C   UNL     1       0.828   3.752   0.000  0.00  0.00    +0.000 A 
ATOM     25  C   UNL     1       0.828   4.577   0.000  0.00  0.00    +0.000 A 
ATOM     26  C   UNL     1       0.043   4.832   0.000  0.00  0.00    +0.000 A 
ATOM     27  C   UNL     1      -0.442   4.164   0.000  0.00  0.00    +0.000 A 
ATOM     28  N   UNL     1       1.542   4.989   0.000  0.00  0.00    +0.000 NA
ATOM     29  N   UNL     1       1.542   2.514   0.000  0.00  0.00    +0.000 NA
ATOM     30  N   UNL     1       2.256   3.752   0.000  0.00  0.00    +0.000 NA
ATOM     31  S   UNL     1       0.043   3.497   0.000  0.00  0.00    +0.000 S 
ENDBRANCH  21  29
ENDBRANCH  20  21
ENDBRANCH   2  20
TORSDOF 5
