REMARK  Name = AK3
REMARK  5 active torsions:
REMARK  status: ('A' for Active; 'I' for Inactive)
REMARK    1  A    between atoms: C_4  and  C_25
REMARK    2  A    between atoms: C_13  and  C_15
REMARK    3  A    between atoms: C_15  and  C_16
REMARK    4  A    between atoms: C_16  and  N_24
REMARK    5  A    between atoms: C_29  and  N_30
REMARK                            x       y       z     vdW  Elec       q    Type
REMARK                         _______ _______ _______ _____ _____    ______ ____
ROOT
ATOM      1  C   UNL     1       1.788   1.744   0.000  0.00  0.00    +0.000 C 
ATOM      2  C   UNL     1       0.632   0.904   0.000  0.00  0.00    +0.000 A 
ATOM      3  C   UNL     1      -0.261  -0.087   0.000  0.00  0.00    +0.000 A 
ATOM      4  C   UNL     1       0.493  -0.423   0.000  0.00  0.00    +0.000 A 
ATOM      5  N   UNL     1       1.045   0.190   0.000  0.00  0.00    +0.000 NA
ATOM      6  S   UNL     1      -0.175   0.733   0.000  0.00  0.00    +0.000 S 
ATOM      7  N   UNL     1       2.124   2.498   0.000  0.00  0.00    +0.000 NA
ATOM      8  O   UNL     1       2.273   1.077   0.000  0.00  0.00    +0.000 OA
ATOM      9  N   UNL     1       0.968   1.658   0.000  0.00  0.00    +0.000 NA
ENDROOT
BRANCH   7  15
ATOM     10  C   UNL     1       3.280   3.338   0.000  0.00  0.00    +0.000 A 
ATOM     11  C   UNL     1       4.101   3.424   0.000  0.00  0.00    +0.000 A 
ATOM     12  C   UNL     1       4.585   2.757   0.000  0.00  0.00    +0.000 A 
ATOM     13  C   UNL     1       3.429   1.917   0.000  0.00  0.00    +0.000 A 
ATOM     14  C   UNL     1       4.250   2.003   0.000  0.00  0.00    +0.000 A 
ATOM     15  C   UNL     1       2.945   2.584   0.000  0.00  0.00    +0.000 A 
BRANCH  11  17
ATOM     16  F   UNL     1       4.772   4.932   0.000  0.00  0.00    +0.000 F 
ATOM     17  C   UNL     1       4.436   4.178   0.000  0.00  0.00    +0.000 C 
ATOM     18  F   UNL     1       5.190   3.842   0.000  0.00  0.00    +0.000 F 
ATOM     19  F   UNL     1       3.682   4.513   0.000  0.00  0.00    +0.000 F 
ENDBRANCH  11  17
ENDBRANCH   7  15
BRANCH   3  20
ATOM     20  C   UNL     1      -0.975  -0.500   0.000  0.00  0.00    +0.000 C 
BRANCH  20  21
ATOM     21  C   UNL     1      -0.975  -1.325   0.000  0.00  0.00    +0.000 C 
BRANCH  21  32
ATOM     22  C   UNL     1      -3.189  -4.055   0.000  0.00  0.00    +0.000 A 
ATOM     23  N   UNL     1      -3.189  -2.720   0.000  0.00  0.00    +0.000 N 
ATOM     24  C   UNL     1      -0.975  -3.800   0.000  0.00  0.00    +0.000 A 
ATOM     25  C   UNL     1      -2.404  -3.800   0.000  0.00  0.00    +0.000 A 
ATOM     26  C   UNL     1      -1.690  -2.562   0.000  0.00  0.00    +0.000 A 
ATOM     27  C   UNL     1      -2.404  -2.975   0.000  0.00  0.00    +0.000 A 
ATOM     28  C   UNL     1      -3.444  -1.935   0.000  0.00  0.00    +0.000 C 
ATOM     29  N   UNL     1      -3.674  -3.388   0.000  0.00  0.00    +0.000 NA
ATOM     30  N   UNL     1      -1.690  -4.213   0.000  0.00  0.00    +0.000 NA
ATOM     31  N   UNL     1      -0.975  -2.975   0.000  0.00  0.00    +0.000 NA
ATOM     32  N   UNL     1      -1.690  -1.738   0.000  0.00  0.00    +0.000 NA
ENDBRANCH  21  32
ENDBRANCH  20  21
ENDBRANCH   3  20
TORSDOF 5
