REMARK  Name = AKV
REMARK  7 active torsions:
REMARK  status: ('A' for Active; 'I' for Inactive)
REMARK    1  A    between atoms: C_17  and  C_18
REMARK    2  A    between atoms: C_18  and  C_19
REMARK    3  A    between atoms: C_19  and  O_20
REMARK    4  A    between atoms: C_23  and  C_24
REMARK    5  A    between atoms: C_24  and  C_26
REMARK    6  A    between atoms: C_26  and  C_27
REMARK    7  A    between atoms: C_27  and  C_29
REMARK                            x       y       z     vdW  Elec       q    Type
REMARK                         _______ _______ _______ _____ _____    ______ ____
ROOT
ATOM      1  O   UNL     1       0.653  -1.824   0.000  0.00  0.00    +0.000 OA
ATOM      2  C   UNL     1      -0.061  -1.411   0.000  0.00  0.00    +0.000 C 
ATOM      3  C   UNL     1      -0.061  -0.586   0.000  0.00  0.00    +0.000 A 
ATOM      4  C   UNL     1       0.653  -0.174   0.000  0.00  0.00    +0.000 A 
ATOM      5  O   UNL     1       1.368  -0.586   0.000  0.00  0.00    +0.000 OA
ATOM      6  C   UNL     1      -0.776  -1.824   0.000  0.00  0.00    +0.000 A 
ATOM      7  C   UNL     1      -0.776  -2.649   0.000  0.00  0.00    +0.000 A 
ATOM      8  O   UNL     1      -0.061  -3.061   0.000  0.00  0.00    +0.000 OA
ATOM      9  C   UNL     1      -1.490  -3.061   0.000  0.00  0.00    +0.000 A 
ATOM     10  C   UNL     1      -2.205  -2.649   0.000  0.00  0.00    +0.000 A 
ATOM     11  C   UNL     1      -2.205  -1.824   0.000  0.00  0.00    +0.000 A 
ATOM     12  C   UNL     1      -1.490  -1.411   0.000  0.00  0.00    +0.000 A 
ATOM     13  C   UNL     1      -1.490  -0.586   0.000  0.00  0.00    +0.000 C 
ATOM     14  O   UNL     1      -2.205  -0.174   0.000  0.00  0.00    +0.000 OA
ATOM     15  C   UNL     1      -0.776  -0.174   0.000  0.00  0.00    +0.000 A 
ATOM     16  C   UNL     1      -0.776   0.651   0.000  0.00  0.00    +0.000 A 
ATOM     17  C   UNL     1      -0.061   1.064   0.000  0.00  0.00    +0.000 A 
ATOM     18  C   UNL     1       0.653   0.651   0.000  0.00  0.00    +0.000 A 
ENDROOT
BRANCH  18  19
ATOM     19  C   UNL     1       1.368   1.064   0.000  0.00  0.00    +0.000 C 
ATOM     20  O   UNL     1       1.368   1.889   0.000  0.00  0.00    +0.000 OA
BRANCH  19  21
ATOM     21  C   UNL     1       2.082   0.651   0.000  0.00  0.00    +0.000 C 
BRANCH  21  22
ATOM     22  C   UNL     1       2.797   1.064   0.000  0.00  0.00    +0.000 C 
ATOM     23  O   UNL     1       2.797   1.889   0.000  0.00  0.00    +0.000 OA
BRANCH  22  24
ATOM     24  C   UNL     1       3.511   0.651   0.000  0.00  0.00    +0.000 C 
ATOM     25  C   UNL     1       3.511  -0.174   0.000  0.00  0.00    +0.000 C 
ENDBRANCH  22  24
ENDBRANCH  21  22
ENDBRANCH  19  21
ENDBRANCH  18  19
BRANCH  17  26
ATOM     26  C   UNL     1      -0.061   1.889   0.000  0.00  0.00    +0.000 C 
BRANCH  26  27
ATOM     27  C   UNL     1      -0.776   2.301   0.000  0.00  0.00    +0.000 C 
ATOM     28  O   UNL     1      -0.776   3.126   0.000  0.00  0.00    +0.000 OA
BRANCH  27  29
ATOM     29  O   UNL     1      -1.490   1.889   0.000  0.00  0.00    +0.000 OA
ATOM     30  C   UNL     1      -2.205   2.301   0.000  0.00  0.00    +0.000 C 
ENDBRANCH  27  29
ENDBRANCH  26  27
ENDBRANCH  17  26
TORSDOF 7
