REMARK  Name = AL1
REMARK  3 active torsions:
REMARK  status: ('A' for Active; 'I' for Inactive)
REMARK    1  A    between atoms: C_1  and  S_10
REMARK    2  A    between atoms: C_6  and  O_23
REMARK    3  A    between atoms: N_17  and  C_21
REMARK                            x       y       z     vdW  Elec       q    Type
REMARK                         _______ _______ _______ _____ _____    ______ ____
ROOT
ATOM      1  C   UNL     1      -2.761  -0.401   0.000  0.00  0.00    +0.000 A 
ATOM      2  C   UNL     1      -0.062  -0.814   0.000  0.00  0.00    +0.000 C 
ATOM      3  C   UNL     1      -0.777  -1.226   0.000  0.00  0.00    +0.000 C 
ATOM      4  S   UNL     1      -2.276   0.266   0.000  0.00  0.00    +0.000 S 
ATOM      5  C   UNL     1      -1.491   0.011   0.000  0.00  0.00    +0.000 A 
ATOM      6  C   UNL     1      -1.491  -0.814   0.000  0.00  0.00    +0.000 A 
ATOM      7  C   UNL     1      -2.276  -1.069   0.000  0.00  0.00    +0.000 A 
ATOM      8  N   UNL     1      -0.062   0.011   0.000  0.00  0.00    +0.000 N 
ATOM      9  S   UNL     1      -0.777   0.424   0.000  0.00  0.00    +0.000 S 
ATOM     10  O   UNL     1      -1.164   1.152   0.000  0.00  0.00    +0.000 OA
ATOM     11  O   UNL     1      -0.390   1.152   0.000  0.00  0.00    +0.000 OA
ENDROOT
BRANCH   8  16
ATOM     12  C   UNL     1       1.367   1.661   0.000  0.00  0.00    +0.000 A 
ATOM     13  C   UNL     1       2.081   1.249   0.000  0.00  0.00    +0.000 A 
ATOM     14  C   UNL     1       2.081   0.424   0.000  0.00  0.00    +0.000 A 
ATOM     15  C   UNL     1       1.367   0.011   0.000  0.00  0.00    +0.000 A 
ATOM     16  C   UNL     1       0.652   0.424   0.000  0.00  0.00    +0.000 A 
ATOM     17  C   UNL     1       0.652   1.249   0.000  0.00  0.00    +0.000 A 
BRANCH  14  19
ATOM     18  C   UNL     1       3.510   0.424   0.000  0.00  0.00    +0.000 C 
ATOM     19  O   UNL     1       2.796   0.011   0.000  0.00  0.00    +0.000 OA
ENDBRANCH  14  19
ENDBRANCH   8  16
BRANCH   1  21
ATOM     20  N   UNL     1      -4.411  -0.401   0.000  0.00  0.00    +0.000 NA
ATOM     21  S   UNL     1      -3.586  -0.401   0.000  0.00  0.00    +0.000 S 
ATOM     22  O   UNL     1      -3.586   0.424   0.000  0.00  0.00    +0.000 OA
ATOM     23  O   UNL     1      -3.586  -1.226   0.000  0.00  0.00    +0.000 OA
ENDBRANCH   1  21
TORSDOF 3
