REMARK  Name = AL2
REMARK  3 active torsions:
REMARK  status: ('A' for Active; 'I' for Inactive)
REMARK    1  A    between atoms: C_1  and  S_14
REMARK    2  A    between atoms: C_5  and  N_22
REMARK    3  A    between atoms: C_8  and  O_23
REMARK                            x       y       z     vdW  Elec       q    Type
REMARK                         _______ _______ _______ _____ _____    ______ ____
ROOT
ATOM      1  C   UNL     1      -2.165  -0.702   0.000  0.00  0.00    +0.000 A 
ATOM      2  O   UNL     1      -0.181  -2.352   0.000  0.00  0.00    +0.000 OA
ATOM      3  C   UNL     1       0.534  -1.114   0.000  0.00  0.00    +0.000 C 
ATOM      4  C   UNL     1      -0.181  -1.527   0.000  0.00  0.00    +0.000 C 
ATOM      5  C   UNL     1      -1.680  -1.369   0.000  0.00  0.00    +0.000 A 
ATOM      6  C   UNL     1      -0.895  -1.114   0.000  0.00  0.00    +0.000 A 
ATOM      7  C   UNL     1      -0.895  -0.289   0.000  0.00  0.00    +0.000 A 
ATOM      8  S   UNL     1      -1.680  -0.035   0.000  0.00  0.00    +0.000 S 
ATOM      9  S   UNL     1      -0.181   0.123   0.000  0.00  0.00    +0.000 S 
ATOM     10  O   UNL     1      -0.711   0.755   0.000  0.00  0.00    +0.000 OA
ATOM     11  O   UNL     1       0.350   0.755   0.000  0.00  0.00    +0.000 OA
ATOM     12  N   UNL     1       0.534  -0.289   0.000  0.00  0.00    +0.000 N 
ENDROOT
BRANCH  12  13
ATOM     13  C   UNL     1       1.248   0.123   0.000  0.00  0.00    +0.000 A 
ATOM     14  C   UNL     1       1.248   0.948   0.000  0.00  0.00    +0.000 A 
ATOM     15  C   UNL     1       1.963   1.361   0.000  0.00  0.00    +0.000 A 
ATOM     16  C   UNL     1       2.677   0.948   0.000  0.00  0.00    +0.000 A 
ATOM     17  C   UNL     1       2.677   0.123   0.000  0.00  0.00    +0.000 A 
ATOM     18  C   UNL     1       1.963  -0.289   0.000  0.00  0.00    +0.000 A 
BRANCH  16  19
ATOM     19  O   UNL     1       3.392   1.361   0.000  0.00  0.00    +0.000 OA
ATOM     20  C   UNL     1       3.392   2.186   0.000  0.00  0.00    +0.000 C 
ENDBRANCH  16  19
ENDBRANCH  12  13
BRANCH   1  24
ATOM     21  O   UNL     1      -3.815  -0.702   0.000  0.00  0.00    +0.000 OA
ATOM     22  O   UNL     1      -2.990  -1.527   0.000  0.00  0.00    +0.000 OA
ATOM     23  N   UNL     1      -2.990   0.123   0.000  0.00  0.00    +0.000 NA
ATOM     24  S   UNL     1      -2.990  -0.702   0.000  0.00  0.00    +0.000 S 
ENDBRANCH   1  24
TORSDOF 3
