REMARK  Name = AL3
REMARK  3 active torsions:
REMARK  status: ('A' for Active; 'I' for Inactive)
REMARK    1  A    between atoms: C_1  and  S_13
REMARK    2  A    between atoms: C_5  and  C_6
REMARK    3  A    between atoms: C_5  and  N_21
REMARK                            x       y       z     vdW  Elec       q    Type
REMARK                         _______ _______ _______ _____ _____    ______ ____
ROOT
ATOM      1  C   UNL     1      -2.313  -0.042   0.000  0.00  0.00    +0.000 A 
ATOM      2  O   UNL     1      -0.330  -1.692   0.000  0.00  0.00    +0.000 OA
ATOM      3  C   UNL     1       0.385  -0.455   0.000  0.00  0.00    +0.000 C 
ATOM      4  C   UNL     1      -0.330  -0.867   0.000  0.00  0.00    +0.000 C 
ATOM      5  C   UNL     1      -1.829  -0.710   0.000  0.00  0.00    +0.000 A 
ATOM      6  C   UNL     1      -1.044  -0.455   0.000  0.00  0.00    +0.000 A 
ATOM      7  C   UNL     1      -1.044   0.370   0.000  0.00  0.00    +0.000 A 
ATOM      8  S   UNL     1      -1.829   0.625   0.000  0.00  0.00    +0.000 S 
ATOM      9  S   UNL     1      -0.330   0.783   0.000  0.00  0.00    +0.000 S 
ATOM     10  O   UNL     1      -0.860   1.415   0.000  0.00  0.00    +0.000 OA
ATOM     11  O   UNL     1       0.201   1.415   0.000  0.00  0.00    +0.000 OA
ATOM     12  N   UNL     1       0.385   0.370   0.000  0.00  0.00    +0.000 NA
ENDROOT
BRANCH   1  16
ATOM     13  O   UNL     1      -3.963  -0.042   0.000  0.00  0.00    +0.000 OA
ATOM     14  O   UNL     1      -3.139   0.783   0.000  0.00  0.00    +0.000 OA
ATOM     15  N   UNL     1      -3.139  -0.867   0.000  0.00  0.00    +0.000 NA
ATOM     16  S   UNL     1      -3.139  -0.042   0.000  0.00  0.00    +0.000 S 
ENDBRANCH   1  16
BRANCH  12  17
ATOM     17  C   UNL     1       1.099   0.783   0.000  0.00  0.00    +0.000 C 
BRANCH  17  18
ATOM     18  C   UNL     1       1.814   0.370   0.000  0.00  0.00    +0.000 A 
ATOM     19  C   UNL     1       2.568   0.706   0.000  0.00  0.00    +0.000 A 
ATOM     20  C   UNL     1       3.120   0.093   0.000  0.00  0.00    +0.000 A 
ATOM     21  C   UNL     1       2.707  -0.622   0.000  0.00  0.00    +0.000 A 
ATOM     22  S   UNL     1       1.900  -0.450   0.000  0.00  0.00    +0.000 S 
ENDBRANCH  17  18
ENDBRANCH  12  17
TORSDOF 3
