REMARK  Name = AL5
REMARK  5 active torsions:
REMARK  status: ('A' for Active; 'I' for Inactive)
REMARK    1  A    between atoms: C_1  and  S_13
REMARK    2  A    between atoms: C_2  and  C_3
REMARK    3  A    between atoms: C_2  and  N_21
REMARK    4  A    between atoms: C_16  and  S_18
REMARK    5  A    between atoms: S_18  and  N_21
REMARK                            x       y       z     vdW  Elec       q    Type
REMARK                         _______ _______ _______ _____ _____    ______ ____
ROOT
ATOM      1  S   UNL     1       0.441   0.630   0.000  0.00  0.00    +0.000 S 
ATOM      2  O   UNL     1       1.109   0.145   0.000  0.00  0.00    +0.000 OA
ATOM      3  O   UNL     1      -0.226   1.115   0.000  0.00  0.00    +0.000 OA
ENDROOT
BRANCH   1   7
ATOM      4  C   UNL     1       1.338   2.567   0.000  0.00  0.00    +0.000 A 
ATOM      5  C   UNL     1       2.006   2.082   0.000  0.00  0.00    +0.000 A 
ATOM      6  C   UNL     1       1.751   1.297   0.000  0.00  0.00    +0.000 A 
ATOM      7  C   UNL     1       0.926   1.297   0.000  0.00  0.00    +0.000 A 
ATOM      8  S   UNL     1       0.671   2.082   0.000  0.00  0.00    +0.000 S 
BRANCH   4  12
ATOM      9  O   UNL     1       1.338   4.217   0.000  0.00  0.00    +0.000 OA
ATOM     10  O   UNL     1       2.163   3.392   0.000  0.00  0.00    +0.000 OA
ATOM     11  N   UNL     1       0.513   3.392   0.000  0.00  0.00    +0.000 NA
ATOM     12  S   UNL     1       1.338   3.392   0.000  0.00  0.00    +0.000 S 
ENDBRANCH   4  12
ENDBRANCH   1   7
BRANCH   1  13
ATOM     13  N   UNL     1      -0.044  -0.037   0.000  0.00  0.00    +0.000 NA
BRANCH  13  14
ATOM     14  C   UNL     1       0.292  -0.791   0.000  0.00  0.00    +0.000 C 
BRANCH  14  15
ATOM     15  C   UNL     1      -0.193  -1.459   0.000  0.00  0.00    +0.000 A 
ATOM     16  C   UNL     1       0.142  -2.212   0.000  0.00  0.00    +0.000 A 
ATOM     17  C   UNL     1      -0.343  -2.880   0.000  0.00  0.00    +0.000 A 
ATOM     18  C   UNL     1      -1.163  -2.793   0.000  0.00  0.00    +0.000 A 
ATOM     19  C   UNL     1      -1.499  -2.040   0.000  0.00  0.00    +0.000 A 
ATOM     20  C   UNL     1      -1.014  -1.372   0.000  0.00  0.00    +0.000 A 
ATOM     21  C   UNL     1      -1.648  -3.461   0.000  0.00  0.00    +0.000 C 
ENDBRANCH  14  15
ENDBRANCH  13  14
ENDBRANCH   1  13
TORSDOF 5
