REMARK  Name = AL6
REMARK  3 active torsions:
REMARK  status: ('A' for Active; 'I' for Inactive)
REMARK    1  A    between atoms: C_1  and  S_14
REMARK    2  A    between atoms: O_2  and  C_9
REMARK    3  A    between atoms: C_5  and  N_22
REMARK                            x       y       z     vdW  Elec       q    Type
REMARK                         _______ _______ _______ _____ _____    ______ ____
ROOT
ATOM      1  C   UNL     1      -2.323  -0.562   0.000  0.00  0.00    +0.000 A 
ATOM      2  C   UNL     1       0.376  -0.975   0.000  0.00  0.00    +0.000 C 
ATOM      3  C   UNL     1      -0.339  -1.387   0.000  0.00  0.00    +0.000 C 
ATOM      4  C   UNL     1      -1.838  -1.230   0.000  0.00  0.00    +0.000 A 
ATOM      5  C   UNL     1      -1.053  -0.975   0.000  0.00  0.00    +0.000 A 
ATOM      6  C   UNL     1      -1.053  -0.150   0.000  0.00  0.00    +0.000 A 
ATOM      7  S   UNL     1      -1.838   0.105   0.000  0.00  0.00    +0.000 S 
ATOM      8  S   UNL     1      -0.339   0.263   0.000  0.00  0.00    +0.000 S 
ATOM      9  O   UNL     1      -0.869   0.894   0.000  0.00  0.00    +0.000 OA
ATOM     10  O   UNL     1       0.191   0.894   0.000  0.00  0.00    +0.000 OA
ATOM     11  N   UNL     1       0.376  -0.150   0.000  0.00  0.00    +0.000 N 
ENDROOT
BRANCH  11  12
ATOM     12  C   UNL     1       1.090   0.263   0.000  0.00  0.00    +0.000 A 
ATOM     13  C   UNL     1       1.090   1.087   0.000  0.00  0.00    +0.000 A 
ATOM     14  C   UNL     1       1.804   1.500   0.000  0.00  0.00    +0.000 A 
ATOM     15  C   UNL     1       2.519   1.087   0.000  0.00  0.00    +0.000 A 
ATOM     16  C   UNL     1       2.519   0.263   0.000  0.00  0.00    +0.000 A 
ATOM     17  C   UNL     1       1.804  -0.150   0.000  0.00  0.00    +0.000 A 
BRANCH  16  18
ATOM     18  O   UNL     1       3.233  -0.150   0.000  0.00  0.00    +0.000 OA
ATOM     19  C   UNL     1       3.948   0.263   0.000  0.00  0.00    +0.000 C 
ENDBRANCH  16  18
ENDBRANCH  11  12
BRANCH   1  23
ATOM     20  O   UNL     1      -3.973  -0.562   0.000  0.00  0.00    +0.000 OA
ATOM     21  O   UNL     1      -3.148  -1.387   0.000  0.00  0.00    +0.000 OA
ATOM     22  N   UNL     1      -3.148   0.263   0.000  0.00  0.00    +0.000 NA
ATOM     23  S   UNL     1      -3.148  -0.562   0.000  0.00  0.00    +0.000 S 
ENDBRANCH   1  23
TORSDOF 3
