REMARK  Name = AL9
REMARK  6 active torsions:
REMARK  status: ('A' for Active; 'I' for Inactive)
REMARK    1  A    between atoms: C_1  and  S_12
REMARK    2  A    between atoms: C_2  and  C_3
REMARK    3  A    between atoms: C_2  and  N_20
REMARK    4  A    between atoms: C_6  and  O_21
REMARK    5  A    between atoms: C_15  and  S_17
REMARK    6  A    between atoms: S_17  and  N_20
REMARK                            x       y       z     vdW  Elec       q    Type
REMARK                         _______ _______ _______ _____ _____    ______ ____
ROOT
ATOM      1  S   UNL     1       0.058   0.916   0.000  0.00  0.00    +0.000 S 
ATOM      2  O   UNL     1      -0.610   1.401   0.000  0.00  0.00    +0.000 OA
ATOM      3  O   UNL     1       0.725   0.431   0.000  0.00  0.00    +0.000 OA
ENDROOT
BRANCH   1   7
ATOM      4  C   UNL     1       0.955   2.853   0.000  0.00  0.00    +0.000 A 
ATOM      5  C   UNL     1       1.623   2.368   0.000  0.00  0.00    +0.000 A 
ATOM      6  C   UNL     1       1.368   1.584   0.000  0.00  0.00    +0.000 A 
ATOM      7  C   UNL     1       0.543   1.584   0.000  0.00  0.00    +0.000 A 
ATOM      8  S   UNL     1       0.288   2.368   0.000  0.00  0.00    +0.000 S 
BRANCH   4  12
ATOM      9  O   UNL     1       0.955   4.503   0.000  0.00  0.00    +0.000 OA
ATOM     10  O   UNL     1       0.130   3.678   0.000  0.00  0.00    +0.000 OA
ATOM     11  N   UNL     1       1.780   3.678   0.000  0.00  0.00    +0.000 NA
ATOM     12  S   UNL     1       0.955   3.678   0.000  0.00  0.00    +0.000 S 
ENDBRANCH   4  12
ENDBRANCH   1   7
BRANCH   1  13
ATOM     13  N   UNL     1      -0.427   0.249   0.000  0.00  0.00    +0.000 NA
BRANCH  13  14
ATOM     14  C   UNL     1      -0.092  -0.505   0.000  0.00  0.00    +0.000 C 
BRANCH  14  15
ATOM     15  C   UNL     1      -0.577  -1.172   0.000  0.00  0.00    +0.000 A 
ATOM     16  C   UNL     1      -0.241  -1.926   0.000  0.00  0.00    +0.000 A 
ATOM     17  C   UNL     1      -0.726  -2.593   0.000  0.00  0.00    +0.000 A 
ATOM     18  C   UNL     1      -1.546  -2.507   0.000  0.00  0.00    +0.000 A 
ATOM     19  C   UNL     1      -1.882  -1.753   0.000  0.00  0.00    +0.000 A 
ATOM     20  C   UNL     1      -1.397  -1.086   0.000  0.00  0.00    +0.000 A 
BRANCH  18  21
ATOM     21  O   UNL     1      -2.031  -3.175   0.000  0.00  0.00    +0.000 OA
ATOM     22  C   UNL     1      -1.696  -3.928   0.000  0.00  0.00    +0.000 C 
ENDBRANCH  18  21
ENDBRANCH  14  15
ENDBRANCH  13  14
ENDBRANCH   1  13
TORSDOF 6
