REMARK  Name = ALH
REMARK  4 active torsions:
REMARK  status: ('A' for Active; 'I' for Inactive)
REMARK    1  A    between atoms: C_5  and  C_8
REMARK    2  A    between atoms: C_16  and  C_17
REMARK    3  A    between atoms: C_17  and  C_18
REMARK    4  A    between atoms: C_18  and  C_19
REMARK                            x       y       z     vdW  Elec       q    Type
REMARK                         _______ _______ _______ _____ _____    ______ ____
ROOT
ATOM      1  C   UNL     1       0.179   0.873   0.000  0.00  0.00    +0.000 A 
ATOM      2  N   UNL     1       0.664   1.540   0.000  0.00  0.00    +0.000 NA
ATOM      3  C   UNL     1       1.448   1.285   0.000  0.00  0.00    +0.000 A 
ATOM      4  N   UNL     1       2.163   1.698   0.000  0.00  0.00    +0.000 NA
ATOM      5  C   UNL     1       1.448   0.460   0.000  0.00  0.00    +0.000 A 
ATOM      6  N   UNL     1       2.163   0.048   0.000  0.00  0.00    +0.000 NA
ATOM      7  C   UNL     1       2.877   0.460   0.000  0.00  0.00    +0.000 A 
ATOM      8  C   UNL     1       2.877   1.285   0.000  0.00  0.00    +0.000 A 
ATOM      9  C   UNL     1       0.664   0.205   0.000  0.00  0.00    +0.000 A 
ENDROOT
BRANCH   1  14
ATOM     10  O   UNL     1      -3.121   0.873   0.000  0.00  0.00    +0.000 OA
ATOM     11  C   UNL     1      -2.296   0.873   0.000  0.00  0.00    +0.000 A 
ATOM     12  C   UNL     1      -1.884   1.587   0.000  0.00  0.00    +0.000 A 
ATOM     13  C   UNL     1      -1.059   1.587   0.000  0.00  0.00    +0.000 A 
ATOM     14  C   UNL     1      -0.646   0.873   0.000  0.00  0.00    +0.000 A 
ATOM     15  C   UNL     1      -1.059   0.159   0.000  0.00  0.00    +0.000 A 
ATOM     16  C   UNL     1      -1.884   0.159   0.000  0.00  0.00    +0.000 A 
ENDBRANCH   1  14
BRANCH   9  17
ATOM     17  C   UNL     1       0.409  -0.579   0.000  0.00  0.00    +0.000 C 
BRANCH  17  18
ATOM     18  C   UNL     1       0.961  -1.192   0.000  0.00  0.00    +0.000 C 
BRANCH  18  19
ATOM     19  C   UNL     1       0.706  -1.977   0.000  0.00  0.00    +0.000 C 
ATOM     20  C   UNL     1       1.258  -2.590   0.000  0.00  0.00    +0.000 C 
ENDBRANCH  18  19
ENDBRANCH  17  18
ENDBRANCH   9  17
TORSDOF 4
