REMARK  Name = ALR
REMARK  2 active torsions:
REMARK  status: ('A' for Active; 'I' for Inactive)
REMARK    1  A    between atoms: C_7  and  N_16
REMARK    2  A    between atoms: C_7  and  C_17
REMARK                            x       y       z     vdW  Elec       q    Type
REMARK                         _______ _______ _______ _____ _____    ______ ____
ROOT
ATOM      1  C   UNL     1      -0.250  -0.826   0.000  0.00  0.00    +0.000 A 
ATOM      2  C   UNL     1       0.465   0.412   0.000  0.00  0.00    +0.000 A 
ATOM      3  C   UNL     1      -0.250   0.824   0.000  0.00  0.00    +0.000 C 
ATOM      4  C   UNL     1      -0.964  -0.413   0.000  0.00  0.00    +0.000 C 
ATOM      5  O   UNL     1      -0.250   1.649   0.000  0.00  0.00    +0.000 OA
ATOM      6  O   UNL     1      -1.679  -0.826   0.000  0.00  0.00    +0.000 OA
ATOM      7  C   UNL     1       0.465  -0.413   0.000  0.00  0.00    +0.000 A 
ATOM      8  C   UNL     1       1.179  -0.826   0.000  0.00  0.00    +0.000 A 
ATOM      9  C   UNL     1       1.894  -0.413   0.000  0.00  0.00    +0.000 A 
ATOM     10  C   UNL     1       1.894   0.412   0.000  0.00  0.00    +0.000 A 
ATOM     11  C   UNL     1       1.179   0.824   0.000  0.00  0.00    +0.000 A 
ATOM     12  C   UNL     1      -0.250  -1.651   0.000  0.00  0.00    +0.000 A 
ATOM     13  C   UNL     1       0.465  -2.063   0.000  0.00  0.00    +0.000 A 
ATOM     14  C   UNL     1       1.179  -1.651   0.000  0.00  0.00    +0.000 A 
ATOM     15  N   UNL     1      -0.964   0.412   0.000  0.00  0.00    +0.000 N 
ENDROOT
BRANCH  15  16
ATOM     16  C   UNL     1      -1.679   0.824   0.000  0.00  0.00    +0.000 C 
BRANCH  16  17
ATOM     17  C   UNL     1      -1.679   1.649   0.000  0.00  0.00    +0.000 C 
ATOM     18  O   UNL     1      -2.393   2.062   0.000  0.00  0.00    +0.000 OA
ATOM     19  O   UNL     1      -0.964   2.062   0.000  0.00  0.00    +0.000 OA
ENDBRANCH  16  17
ENDBRANCH  15  16
TORSDOF 2
