REMARK  Name = ALZ
REMARK  9 active torsions:
REMARK  status: ('A' for Active; 'I' for Inactive)
REMARK    1  A    between atoms: C_2  and  C_3
REMARK    2  A    between atoms: C_3  and  C_4
REMARK    3  A    between atoms: C_4  and  C_5
REMARK    4  A    between atoms: C_5  and  N_6
REMARK    5  A    between atoms: N_6  and  N_7
REMARK    6  A    between atoms: C_8  and  C_10
REMARK    7  A    between atoms: C_15  and  O_17
REMARK    8  A    between atoms: O_17  and  C_18
REMARK    9  A    between atoms: C_18  and  C_19
REMARK                            x       y       z     vdW  Elec       q    Type
REMARK                         _______ _______ _______ _____ _____    ______ ____
ROOT
ATOM      1  C   UNL     1       0.364  -0.802   0.000  0.00  0.00    +0.000 C 
ATOM      2  N   UNL     1       1.118  -0.467   0.000  0.00  0.00    +0.000 N 
ATOM      3  C   UNL     1       0.451  -1.623   0.000  0.00  0.00    +0.000 C 
ATOM      4  C   UNL     1       1.258  -1.794   0.000  0.00  0.00    +0.000 C 
ATOM      5  C   UNL     1       1.670  -1.080   0.000  0.00  0.00    +0.000 C 
ATOM      6  C   UNL     1       1.290   0.340   0.000  0.00  0.00    +0.000 C 
ATOM      7  O   UNL     1       0.676   0.892   0.000  0.00  0.00    +0.000 OA
ENDROOT
BRANCH   1   9
ATOM      8  N   UNL     1      -1.065  -0.802   0.000  0.00  0.00    +0.000 NA
ATOM      9  C   UNL     1      -0.350  -0.390   0.000  0.00  0.00    +0.000 C 
ATOM     10  O   UNL     1      -0.350   0.435   0.000  0.00  0.00    +0.000 OA
BRANCH   8  11
ATOM     11  N   UNL     1      -1.779  -0.390   0.000  0.00  0.00    +0.000 NA
BRANCH  11  12
ATOM     12  C   UNL     1      -2.494  -0.802   0.000  0.00  0.00    +0.000 C 
BRANCH  12  13
ATOM     13  C   UNL     1      -3.208  -0.390   0.000  0.00  0.00    +0.000 C 
BRANCH  13  14
ATOM     14  C   UNL     1      -3.922  -0.802   0.000  0.00  0.00    +0.000 C 
BRANCH  14  16
ATOM     15  N   UNL     1      -5.351  -0.802   0.000  0.00  0.00    +0.000 NA
ATOM     16  C   UNL     1      -4.637  -0.390   0.000  0.00  0.00    +0.000 C 
ENDBRANCH  14  16
ENDBRANCH  13  14
ENDBRANCH  12  13
ENDBRANCH  11  12
ENDBRANCH   8  11
ENDBRANCH   1   9
BRANCH   6  17
ATOM     17  O   UNL     1       2.074   0.595   0.000  0.00  0.00    +0.000 OA
BRANCH  17  18
ATOM     18  C   UNL     1       2.246   1.402   0.000  0.00  0.00    +0.000 C 
BRANCH  18  19
ATOM     19  C   UNL     1       3.030   1.657   0.000  0.00  0.00    +0.000 A 
ATOM     20  C   UNL     1       3.202   2.464   0.000  0.00  0.00    +0.000 A 
ATOM     21  C   UNL     1       3.986   2.719   0.000  0.00  0.00    +0.000 A 
ATOM     22  C   UNL     1       4.599   2.167   0.000  0.00  0.00    +0.000 A 
ATOM     23  C   UNL     1       4.428   1.360   0.000  0.00  0.00    +0.000 A 
ATOM     24  C   UNL     1       3.643   1.105   0.000  0.00  0.00    +0.000 A 
ENDBRANCH  18  19
ENDBRANCH  17  18
ENDBRANCH   6  17
TORSDOF 9
