REMARK  Name = AM3
REMARK  7 active torsions:
REMARK  status: ('A' for Active; 'I' for Inactive)
REMARK    1  A    between atoms: N_14  and  C_15
REMARK    2  A    between atoms: C_15  and  C_16
REMARK    3  A    between atoms: C_16  and  C_17
REMARK    4  A    between atoms: C_17  and  C_18
REMARK    5  A    between atoms: C_18  and  C_19
REMARK    6  A    between atoms: C_19  and  C_20
REMARK    7  A    between atoms: C_20  and  C_21
REMARK                            x       y       z     vdW  Elec       q    Type
REMARK                         _______ _______ _______ _____ _____    ______ ____
ROOT
ATOM      1  O   UNL     1      -1.263   2.579   0.000  0.00  0.00    +0.000 OA
ATOM      2  C   UNL     1      -1.518   1.794   0.000  0.00  0.00    +0.000 C 
ATOM      3  C   UNL     1      -0.966   1.181   0.000  0.00  0.00    +0.000 C 
ATOM      4  C   UNL     1      -0.141   1.181   0.000  0.00  0.00    +0.000 C 
ATOM      5  O   UNL     1       0.115   0.397   0.000  0.00  0.00    +0.000 OA
ATOM      6  C   UNL     1      -2.325   1.623   0.000  0.00  0.00    +0.000 C 
ATOM      7  O   UNL     1      -2.877   2.236   0.000  0.00  0.00    +0.000 OA
ATOM      8  C   UNL     1      -2.579   0.838   0.000  0.00  0.00    +0.000 C 
ATOM      9  O   UNL     1      -3.386   0.667   0.000  0.00  0.00    +0.000 OA
ATOM     10  C   UNL     1      -2.027   0.225   0.000  0.00  0.00    +0.000 C 
ATOM     11  O   UNL     1      -2.282  -0.559   0.000  0.00  0.00    +0.000 OA
ATOM     12  N   UNL     1      -1.220   0.397   0.000  0.00  0.00    +0.000 N 
ATOM     13  C   UNL     1      -0.553  -0.088   0.000  0.00  0.00    +0.000 C 
ATOM     14  N   UNL     1      -0.553  -0.913   0.000  0.00  0.00    +0.000 NA
ENDROOT
BRANCH  14  15
ATOM     15  C   UNL     1       0.162  -1.326   0.000  0.00  0.00    +0.000 C 
BRANCH  15  16
ATOM     16  C   UNL     1       0.876  -0.913   0.000  0.00  0.00    +0.000 C 
BRANCH  16  17
ATOM     17  C   UNL     1       1.591  -1.326   0.000  0.00  0.00    +0.000 C 
BRANCH  17  18
ATOM     18  C   UNL     1       2.305  -0.913   0.000  0.00  0.00    +0.000 C 
BRANCH  18  19
ATOM     19  C   UNL     1       3.019  -1.326   0.000  0.00  0.00    +0.000 C 
BRANCH  19  20
ATOM     20  C   UNL     1       3.734  -0.913   0.000  0.00  0.00    +0.000 C 
BRANCH  20  21
ATOM     21  C   UNL     1       4.448  -1.326   0.000  0.00  0.00    +0.000 C 
ATOM     22  C   UNL     1       5.163  -0.913   0.000  0.00  0.00    +0.000 C 
ENDBRANCH  20  21
ENDBRANCH  19  20
ENDBRANCH  18  19
ENDBRANCH  17  18
ENDBRANCH  16  17
ENDBRANCH  15  16
ENDBRANCH  14  15
TORSDOF 7
