REMARK  Name = AM4
REMARK  2 active torsions:
REMARK  status: ('A' for Active; 'I' for Inactive)
REMARK    1  A    between atoms: C_3  and  C_4
REMARK    2  A    between atoms: C_9  and  S_10
REMARK                            x       y       z     vdW  Elec       q    Type
REMARK                         _______ _______ _______ _____ _____    ______ ____
ROOT
ATOM      1  C   UNL     1       0.422   0.222   0.000  0.00  0.00    +0.000 A 
ATOM      2  C   UNL     1       0.422  -0.603   0.000  0.00  0.00    +0.000 A 
ATOM      3  C   UNL     1      -0.293  -1.016   0.000  0.00  0.00    +0.000 A 
ATOM      4  C   UNL     1      -1.007  -0.603   0.000  0.00  0.00    +0.000 A 
ATOM      5  C   UNL     1      -1.007   0.222   0.000  0.00  0.00    +0.000 A 
ATOM      6  C   UNL     1      -0.293   0.634   0.000  0.00  0.00    +0.000 A 
ENDROOT
BRANCH   6   7
ATOM      7  S   UNL     1      -0.293   1.460   0.000  0.00  0.00    +0.000 S 
ATOM      8  C   UNL     1      -0.293   2.284   0.000  0.00  0.00    +0.000 C 
ATOM      9  O   UNL     1       0.532   1.460   0.000  0.00  0.00    +0.000 OA
ATOM     10  O   UNL     1      -1.118   1.460   0.000  0.00  0.00    +0.000 OA
ENDBRANCH   6   7
BRANCH   3  11
ATOM     11  C   UNL     1      -0.293  -1.841   0.000  0.00  0.00    +0.000 C 
ATOM     12  N   UNL     1      -1.007  -2.253   0.000  0.00  0.00    +0.000 NA
ATOM     13  N   UNL     1       0.422  -2.253   0.000  0.00  0.00    +0.000 NA
ENDBRANCH   3  11
TORSDOF 2
