REMARK  Name = AM8
REMARK  5 active torsions:
REMARK  status: ('A' for Active; 'I' for Inactive)
REMARK    1  A    between atoms: C_8  and  C_9
REMARK    2  A    between atoms: C_9  and  C_10
REMARK    3  A    between atoms: C_19  and  S_20
REMARK    4  A    between atoms: S_20  and  N_23
REMARK    5  A    between atoms: N_23  and  C_25
REMARK                            x       y       z     vdW  Elec       q    Type
REMARK                         _______ _______ _______ _____ _____    ______ ____
ROOT
ATOM      1  C   UNL     1      -0.798   0.477   0.000  0.00  0.00    +0.000 C 
ATOM      2  C   UNL     1      -0.013   0.732   0.000  0.00  0.00    +0.000 A 
ATOM      3  C   UNL     1       0.701   0.320   0.000  0.00  0.00    +0.000 A 
ATOM      4  C   UNL     1      -1.283   1.145   0.000  0.00  0.00    +0.000 C 
ATOM      5  O   UNL     1      -2.108   1.145   0.000  0.00  0.00    +0.000 OA
ATOM      6  N   UNL     1      -0.798   1.812   0.000  0.00  0.00    +0.000 NA
ATOM      7  C   UNL     1      -0.013   1.557   0.000  0.00  0.00    +0.000 A 
ATOM      8  C   UNL     1       0.701   1.970   0.000  0.00  0.00    +0.000 A 
ATOM      9  C   UNL     1       1.415   1.557   0.000  0.00  0.00    +0.000 A 
ATOM     10  C   UNL     1       1.415   0.732   0.000  0.00  0.00    +0.000 A 
ENDROOT
BRANCH  10  11
ATOM     11  S   UNL     1       2.130   0.320   0.000  0.00  0.00    +0.000 S 
ATOM     12  O   UNL     1       1.717  -0.395   0.000  0.00  0.00    +0.000 OA
ATOM     13  O   UNL     1       2.542   1.034   0.000  0.00  0.00    +0.000 OA
BRANCH  11  14
ATOM     14  N   UNL     1       2.844  -0.093   0.000  0.00  0.00    +0.000 N 
ATOM     15  C   UNL     1       2.844  -0.918   0.000  0.00  0.00    +0.000 C 
BRANCH  14  16
ATOM     16  C   UNL     1       3.559   0.320   0.000  0.00  0.00    +0.000 A 
ATOM     17  C   UNL     1       4.273  -0.093   0.000  0.00  0.00    +0.000 A 
ATOM     18  C   UNL     1       4.988   0.320   0.000  0.00  0.00    +0.000 A 
ATOM     19 CL   UNL     1       5.702  -0.093   0.000  0.00  0.00    +0.000 Cl
ATOM     20  C   UNL     1       4.988   1.145   0.000  0.00  0.00    +0.000 A 
ATOM     21  C   UNL     1       4.273   1.557   0.000  0.00  0.00    +0.000 A 
ATOM     22  C   UNL     1       3.559   1.145   0.000  0.00  0.00    +0.000 A 
ENDBRANCH  14  16
ENDBRANCH  11  14
ENDBRANCH  10  11
BRANCH   1  23
ATOM     23  C   UNL     1      -1.053  -0.307   0.000  0.00  0.00    +0.000 C 
BRANCH  23  31
ATOM     24  C   UNL     1      -3.568  -1.760   0.000  0.00  0.00    +0.000 C 
ATOM     25  C   UNL     1      -3.016  -1.146   0.000  0.00  0.00    +0.000 A 
ATOM     26  C   UNL     1      -2.196  -1.233   0.000  0.00  0.00    +0.000 A 
ATOM     27  C   UNL     1      -1.783  -1.947   0.000  0.00  0.00    +0.000 C 
ATOM     28  C   UNL     1      -3.188  -0.340   0.000  0.00  0.00    +0.000 A 
ATOM     29  C   UNL     1      -3.941  -0.004   0.000  0.00  0.00    +0.000 C 
ATOM     30  N   UNL     1      -2.473   0.073   0.000  0.00  0.00    +0.000 NA
ATOM     31  C   UNL     1      -1.860  -0.479   0.000  0.00  0.00    +0.000 A 
ENDBRANCH  23  31
ENDBRANCH   1  23
TORSDOF 5
