REMARK  Name = AN1
REMARK  3 active torsions:
REMARK  status: ('A' for Active; 'I' for Inactive)
REMARK    1  A    between atoms: C_2  and  C_4
REMARK    2  A    between atoms: C_4  and  C_5
REMARK    3  A    between atoms: C_5  and  C_6
REMARK                            x       y       z     vdW  Elec       q    Type
REMARK                         _______ _______ _______ _____ _____    ______ ____
ROOT
ATOM      1  C   UNL     1       0.171  -0.390   0.000  0.00  0.00    +0.000 A 
ATOM      2  C   UNL     1       0.886   0.022   0.000  0.00  0.00    +0.000 A 
ATOM      3  C   UNL     1       1.600  -0.390   0.000  0.00  0.00    +0.000 A 
ATOM      4  C   UNL     1       2.314   0.022   0.000  0.00  0.00    +0.000 A 
ATOM      5  C   UNL     1       2.314   0.847   0.000  0.00  0.00    +0.000 A 
ATOM      6  C   UNL     1       1.600   1.260   0.000  0.00  0.00    +0.000 A 
ATOM      7  C   UNL     1       0.886   0.847   0.000  0.00  0.00    +0.000 A 
ATOM      8  C   UNL     1       0.171   1.260   0.000  0.00  0.00    +0.000 A 
ATOM      9  C   UNL     1      -0.543   0.847   0.000  0.00  0.00    +0.000 A 
ATOM     10  C   UNL     1      -0.543   0.022   0.000  0.00  0.00    +0.000 A 
ATOM     11  C   UNL     1      -1.258  -0.390   0.000  0.00  0.00    +0.000 A 
ATOM     12  C   UNL     1      -1.972   0.022   0.000  0.00  0.00    +0.000 A 
ATOM     13  C   UNL     1      -1.972   0.847   0.000  0.00  0.00    +0.000 A 
ATOM     14  C   UNL     1      -1.258   1.260   0.000  0.00  0.00    +0.000 A 
ATOM     15  C   UNL     1       0.171   2.085   0.000  0.00  0.00    +0.000 C 
ENDROOT
BRANCH   1  16
ATOM     16  C   UNL     1       0.171  -1.215   0.000  0.00  0.00    +0.000 C 
BRANCH  16  17
ATOM     17  C   UNL     1      -0.543  -1.628   0.000  0.00  0.00    +0.000 C 
BRANCH  17  19
ATOM     18  O   UNL     1      -1.258  -2.865   0.000  0.00  0.00    +0.000 OA
ATOM     19  C   UNL     1      -0.543  -2.453   0.000  0.00  0.00    +0.000 C 
ATOM     20  O   UNL     1       0.171  -2.865   0.000  0.00  0.00    +0.000 OA
ENDBRANCH  17  19
ENDBRANCH  16  17
ENDBRANCH   1  16
TORSDOF 3
