REMARK  Name = AND
REMARK  0 active torsions:
REMARK  status: ('A' for Active; 'I' for Inactive)
REMARK                            x       y       z     vdW  Elec       q    Type
REMARK                         _______ _______ _______ _____ _____    ______ ____
ROOT
ATOM      1  C   UNL     1       1.429  -0.528   0.000  0.00  0.00    +0.000 C 
ATOM      2  C   UNL     1       2.241  -0.382   0.000  0.00  0.00    +0.000 C 
ATOM      3  C   UNL     1       2.521   0.394   0.000  0.00  0.00    +0.000 C 
ATOM      4  O   UNL     1       3.333   0.539   0.000  0.00  0.00    +0.000 OA
ATOM      5  C   UNL     1       1.990   1.024   0.000  0.00  0.00    +0.000 C 
ATOM      6  C   UNL     1       1.177   0.879   0.000  0.00  0.00    +0.000 C 
ATOM      7  C   UNL     1       0.645   1.510   0.000  0.00  0.00    +0.000 C 
ATOM      8  C   UNL     1      -0.167   1.365   0.000  0.00  0.00    +0.000 C 
ATOM      9  C   UNL     1      -0.447   0.589   0.000  0.00  0.00    +0.000 C 
ATOM     10  C   UNL     1       0.085  -0.042   0.000  0.00  0.00    +0.000 C 
ATOM     11  C   UNL     1       0.897   0.103   0.000  0.00  0.00    +0.000 C 
ATOM     12  C   UNL     1      -0.195  -0.818   0.000  0.00  0.00    +0.000 C 
ATOM     13  C   UNL     1      -1.008  -0.963   0.000  0.00  0.00    +0.000 C 
ATOM     14  C   UNL     1      -1.539  -0.333   0.000  0.00  0.00    +0.000 C 
ATOM     15  C   UNL     1      -1.259   0.443   0.000  0.00  0.00    +0.000 C 
ATOM     16  C   UNL     1      -1.910   0.950   0.000  0.00  0.00    +0.000 C 
ATOM     17  C   UNL     1      -2.593   0.487   0.000  0.00  0.00    +0.000 C 
ATOM     18  C   UNL     1      -2.364  -0.306   0.000  0.00  0.00    +0.000 C 
ATOM     19  O   UNL     1      -2.870  -0.957   0.000  0.00  0.00    +0.000 OA
ATOM     20  C   UNL     1      -1.899  -1.075   0.000  0.00  0.00    +0.000 C 
ATOM     21  C   UNL     1       0.617  -0.673   0.000  0.00  0.00    +0.000 C 
ENDROOT
TORSDOF 0
