REMARK  Name = ANH
REMARK  10 active torsions:
REMARK  status: ('A' for Active; 'I' for Inactive)
REMARK    1  A    between atoms: N_1  and  C_2
REMARK    2  A    between atoms: C_2  and  C_3
REMARK    3  A    between atoms: C_2  and  C_4
REMARK    4  A    between atoms: C_3  and  C_8
REMARK    5  A    between atoms: C_4  and  O_6
REMARK    6  A    between atoms: C_12  and  C_14
REMARK    7  A    between atoms: C_17  and  C_18
REMARK    8  A    between atoms: C_18  and  N_19
REMARK    9  A    between atoms: N_19  and  S_28
REMARK   10  A    between atoms: C_25  and  S_28
REMARK                            x       y       z     vdW  Elec       q    Type
REMARK                         _______ _______ _______ _____ _____    ______ ____
ROOT
ATOM      1  N   UNL     1      -0.502   0.158   0.000  0.00  0.00    +0.000 NA
ATOM      2  C   UNL     1       0.038  -0.465   0.000  0.00  0.00    +0.000 C 
ATOM      3  O   UNL     1      -0.232  -1.245   0.000  0.00  0.00    +0.000 OA
ENDROOT
BRANCH   1   4
ATOM      4  C   UNL     1      -1.312   0.002   0.000  0.00  0.00    +0.000 C 
BRANCH   4   5
ATOM      5  C   UNL     1      -1.583  -0.777   0.000  0.00  0.00    +0.000 C 
ATOM      6  O   UNL     1      -2.393  -0.933   0.000  0.00  0.00    +0.000 OA
BRANCH   5   7
ATOM      7  O   UNL     1      -1.042  -1.401   0.000  0.00  0.00    +0.000 OA
ATOM      8  C   UNL     1      -1.312  -2.180   0.000  0.00  0.00    +0.000 C 
ENDBRANCH   5   7
ENDBRANCH   4   5
BRANCH   4   9
ATOM      9  C   UNL     1      -1.853   0.626   0.000  0.00  0.00    +0.000 C 
BRANCH   9  10
ATOM     10  C   UNL     1      -2.663   0.470   0.000  0.00  0.00    +0.000 A 
ATOM     11  C   UNL     1      -2.933  -0.309   0.000  0.00  0.00    +0.000 A 
ATOM     12  C   UNL     1      -3.743  -0.465   0.000  0.00  0.00    +0.000 A 
ATOM     13  C   UNL     1      -4.283   0.158   0.000  0.00  0.00    +0.000 A 
ATOM     14  C   UNL     1      -4.013   0.938   0.000  0.00  0.00    +0.000 A 
ATOM     15  C   UNL     1      -3.203   1.094   0.000  0.00  0.00    +0.000 A 
BRANCH  14  16
ATOM     16  C   UNL     1      -4.553   1.562   0.000  0.00  0.00    +0.000 C 
ATOM     17  N   UNL     1      -5.363   1.406   0.000  0.00  0.00    +0.000 NA
ATOM     18  N   UNL     1      -4.283   2.341   0.000  0.00  0.00    +0.000 NA
ENDBRANCH  14  16
ENDBRANCH   9  10
ENDBRANCH   4   9
ENDBRANCH   1   4
BRANCH   2  19
ATOM     19  C   UNL     1       0.848  -0.309   0.000  0.00  0.00    +0.000 C 
BRANCH  19  20
ATOM     20  N   UNL     1       1.388  -0.933   0.000  0.00  0.00    +0.000 NA
BRANCH  20  21
ATOM     21  S   UNL     1       2.198  -0.777   0.000  0.00  0.00    +0.000 S 
ATOM     22  O   UNL     1       2.354  -1.587   0.000  0.00  0.00    +0.000 OA
ATOM     23  O   UNL     1       2.042   0.033   0.000  0.00  0.00    +0.000 OA
BRANCH  21  28
ATOM     24  C   UNL     1       5.439  -0.153   0.000  0.00  0.00    +0.000 C 
ATOM     25  C   UNL     1       4.628  -0.309   0.000  0.00  0.00    +0.000 A 
ATOM     26  C   UNL     1       4.358  -1.089   0.000  0.00  0.00    +0.000 A 
ATOM     27  C   UNL     1       3.548  -1.245   0.000  0.00  0.00    +0.000 A 
ATOM     28  C   UNL     1       3.008  -0.621   0.000  0.00  0.00    +0.000 A 
ATOM     29  C   UNL     1       3.278   0.158   0.000  0.00  0.00    +0.000 A 
ATOM     30  C   UNL     1       4.088   0.314   0.000  0.00  0.00    +0.000 A 
ENDBRANCH  21  28
ENDBRANCH  20  21
ENDBRANCH  19  20
ENDBRANCH   2  19
TORSDOF 10
