REMARK  Name = ANM
REMARK  5 active torsions:
REMARK  status: ('A' for Active; 'I' for Inactive)
REMARK    1  A    between atoms: C_2  and  O_17
REMARK    2  A    between atoms: C_5  and  O_17
REMARK    3  A    between atoms: C_7  and  O_16
REMARK    4  A    between atoms: C_10  and  C_13
REMARK    5  A    between atoms: C_13  and  C_14
REMARK                            x       y       z     vdW  Elec       q    Type
REMARK                         _______ _______ _______ _____ _____    ______ ____
ROOT
ATOM      1  C   UNL     1       1.136   0.656   0.000  0.00  0.00    +0.000 C 
ATOM      2  C   UNL     1       1.803   0.171   0.000  0.00  0.00    +0.000 C 
ATOM      3  C   UNL     1       1.548  -0.614   0.000  0.00  0.00    +0.000 C 
ATOM      4  C   UNL     1       0.468   0.171   0.000  0.00  0.00    +0.000 C 
ATOM      5  N   UNL     1       0.723  -0.614   0.000  0.00  0.00    +0.000 NA
ATOM      6  O   UNL     1       2.588   0.426   0.000  0.00  0.00    +0.000 OA
ENDROOT
BRANCH   4   7
ATOM      7  C   UNL     1      -0.316   0.426   0.000  0.00  0.00    +0.000 C 
BRANCH   7  12
ATOM      8  C   UNL     1      -1.371  -1.485   0.000  0.00  0.00    +0.000 A 
ATOM      9  C   UNL     1      -2.155  -1.230   0.000  0.00  0.00    +0.000 A 
ATOM     10  C   UNL     1      -2.327  -0.423   0.000  0.00  0.00    +0.000 A 
ATOM     11  C   UNL     1      -1.714   0.129   0.000  0.00  0.00    +0.000 A 
ATOM     12  C   UNL     1      -0.929  -0.126   0.000  0.00  0.00    +0.000 A 
ATOM     13  C   UNL     1      -0.758  -0.933   0.000  0.00  0.00    +0.000 A 
BRANCH   9  15
ATOM     14  C   UNL     1      -2.597  -2.589   0.000  0.00  0.00    +0.000 C 
ATOM     15  O   UNL     1      -2.769  -1.782   0.000  0.00  0.00    +0.000 OA
ENDBRANCH   9  15
ENDBRANCH   7  12
ENDBRANCH   4   7
BRANCH   1  16
ATOM     16  O   UNL     1       1.136   1.481   0.000  0.00  0.00    +0.000 OA
BRANCH  16  17
ATOM     17  C   UNL     1       1.850   1.893   0.000  0.00  0.00    +0.000 C 
ATOM     18  C   UNL     1       1.850   2.718   0.000  0.00  0.00    +0.000 C 
ATOM     19  O   UNL     1       2.565   1.481   0.000  0.00  0.00    +0.000 OA
ENDBRANCH  16  17
ENDBRANCH   1  16
TORSDOF 5
