REMARK  Name = AO1
REMARK  8 active torsions:
REMARK  status: ('A' for Active; 'I' for Inactive)
REMARK    1  A    between atoms: C_2  and  S_3
REMARK    2  A    between atoms: S_3  and  C_4
REMARK    3  A    between atoms: C_4  and  C_5
REMARK    4  A    between atoms: C_5  and  C_6
REMARK    5  A    between atoms: C_6  and  C_7
REMARK    6  A    between atoms: C_7  and  C_8
REMARK    7  A    between atoms: N_9  and  C_10
REMARK    8  A    between atoms: C_10  and  C_11
REMARK                            x       y       z     vdW  Elec       q    Type
REMARK                         _______ _______ _______ _____ _____    ______ ____
ROOT
ATOM      1  C   UNL     1      -0.005  -0.009   0.000  0.00  0.00    +0.000 C 
ATOM      2  N   UNL     1       0.709  -0.422   0.000  0.00  0.00    +0.000 NA
ATOM      3  O   UNL     1      -0.005   0.816   0.000  0.00  0.00    +0.000 OA
ENDROOT
BRANCH   1   4
ATOM      4  C   UNL     1      -0.720  -0.422   0.000  0.00  0.00    +0.000 C 
ATOM      5  O   UNL     1      -0.720  -1.247   0.000  0.00  0.00    +0.000 OA
BRANCH   4   6
ATOM      6  C   UNL     1      -1.434  -0.009   0.000  0.00  0.00    +0.000 C 
ATOM      7  N   UNL     1      -1.434   0.816   0.000  0.00  0.00    +0.000 NA
BRANCH   6   8
ATOM      8  C   UNL     1      -2.149  -0.422   0.000  0.00  0.00    +0.000 C 
BRANCH   8   9
ATOM      9  C   UNL     1      -2.863  -0.009   0.000  0.00  0.00    +0.000 C 
BRANCH   9  10
ATOM     10  S   UNL     1      -3.578  -0.422   0.000  0.00  0.00    +0.000 S 
BRANCH  10  12
ATOM     11  C   UNL     1      -5.006  -0.422   0.000  0.00  0.00    +0.000 C 
ATOM     12  C   UNL     1      -4.292  -0.009   0.000  0.00  0.00    +0.000 C 
ENDBRANCH  10  12
ENDBRANCH   9  10
ENDBRANCH   8   9
ENDBRANCH   6   8
ENDBRANCH   4   6
ENDBRANCH   1   4
BRANCH   2  13
ATOM     13  C   UNL     1       1.424  -0.009   0.000  0.00  0.00    +0.000 C 
ATOM     14  C   UNL     1       1.424   0.816   0.000  0.00  0.00    +0.000 C 
BRANCH  13  15
ATOM     15  C   UNL     1       2.138  -0.422   0.000  0.00  0.00    +0.000 A 
ATOM     16  C   UNL     1       2.138  -1.247   0.000  0.00  0.00    +0.000 A 
ATOM     17  C   UNL     1       2.853  -1.659   0.000  0.00  0.00    +0.000 A 
ATOM     18  C   UNL     1       3.567  -1.247   0.000  0.00  0.00    +0.000 A 
ATOM     19  C   UNL     1       3.567  -0.422   0.000  0.00  0.00    +0.000 A 
ATOM     20  C   UNL     1       2.853  -0.009   0.000  0.00  0.00    +0.000 A 
ATOM     21  C   UNL     1       4.282  -0.009   0.000  0.00  0.00    +0.000 A 
ATOM     22  C   UNL     1       4.282   0.816   0.000  0.00  0.00    +0.000 A 
ATOM     23  C   UNL     1       3.567   1.228   0.000  0.00  0.00    +0.000 A 
ATOM     24  C   UNL     1       2.853   0.816   0.000  0.00  0.00    +0.000 A 
ENDBRANCH  13  15
ENDBRANCH   2  13
TORSDOF 8
