REMARK  Name = AO2
REMARK  6 active torsions:
REMARK  status: ('A' for Active; 'I' for Inactive)
REMARK    1  A    between atoms: C_6  and  C_7
REMARK    2  A    between atoms: C_7  and  C_8
REMARK    3  A    between atoms: C_8  and  C_10
REMARK    4  A    between atoms: C_10  and  C_12
REMARK    5  A    between atoms: N_14  and  N_15
REMARK    6  A    between atoms: N_15  and  C_16
REMARK                            x       y       z     vdW  Elec       q    Type
REMARK                         _______ _______ _______ _____ _____    ______ ____
ROOT
ATOM      1  C   UNL     1      -0.356  -0.425   0.000  0.00  0.00    +0.000 C 
ATOM      2  O   UNL     1      -0.356  -1.250   0.000  0.00  0.00    +0.000 OA
ENDROOT
BRANCH   1   3
ATOM      3  C   UNL     1       0.358  -0.013   0.000  0.00  0.00    +0.000 C 
ATOM      4  O   UNL     1       0.358   0.812   0.000  0.00  0.00    +0.000 OA
ATOM      5  N   UNL     1       1.073  -0.425   0.000  0.00  0.00    +0.000 NA
BRANCH   5   6
ATOM      6  N   UNL     1       1.788  -0.013   0.000  0.00  0.00    +0.000 NA
BRANCH   6   7
ATOM      7  C   UNL     1       2.502  -0.425   0.000  0.00  0.00    +0.000 A 
ATOM      8  C   UNL     1       3.216  -0.013   0.000  0.00  0.00    +0.000 A 
ATOM      9  C   UNL     1       3.931  -0.425   0.000  0.00  0.00    +0.000 A 
ATOM     10  C   UNL     1       3.931  -1.250   0.000  0.00  0.00    +0.000 A 
ATOM     11  C   UNL     1       3.216  -1.663   0.000  0.00  0.00    +0.000 A 
ATOM     12  C   UNL     1       2.502  -1.250   0.000  0.00  0.00    +0.000 A 
ATOM     13  C   UNL     1       4.645  -1.663   0.000  0.00  0.00    +0.000 C 
ENDBRANCH   6   7
ENDBRANCH   5   6
ENDBRANCH   1   3
BRANCH   1  14
ATOM     14  C   UNL     1      -1.070  -0.013   0.000  0.00  0.00    +0.000 C 
ATOM     15  N   UNL     1      -1.070   0.812   0.000  0.00  0.00    +0.000 NA
BRANCH  14  16
ATOM     16  C   UNL     1      -1.785  -0.425   0.000  0.00  0.00    +0.000 C 
BRANCH  16  22
ATOM     17  C   UNL     1      -3.214  -0.425   0.000  0.00  0.00    +0.000 C 
ATOM     18  C   UNL     1      -3.928  -0.013   0.000  0.00  0.00    +0.000 C 
ATOM     19  C   UNL     1      -3.928   0.812   0.000  0.00  0.00    +0.000 C 
ATOM     20  C   UNL     1      -3.214   1.225   0.000  0.00  0.00    +0.000 C 
ATOM     21  C   UNL     1      -2.499   0.812   0.000  0.00  0.00    +0.000 C 
ATOM     22  C   UNL     1      -2.499  -0.013   0.000  0.00  0.00    +0.000 C 
ENDBRANCH  16  22
ENDBRANCH  14  16
ENDBRANCH   1  14
TORSDOF 6
