REMARK  Name = AO5
REMARK  8 active torsions:
REMARK  status: ('A' for Active; 'I' for Inactive)
REMARK    1  A    between atoms: C_1  and  S_4
REMARK    2  A    between atoms: S_4  and  C_5
REMARK    3  A    between atoms: C_5  and  C_6
REMARK    4  A    between atoms: C_6  and  C_7
REMARK    5  A    between atoms: C_7  and  C_9
REMARK    6  A    between atoms: C_9  and  C_11
REMARK    7  A    between atoms: N_13  and  N_14
REMARK    8  A    between atoms: C_15  and  C_17
REMARK                            x       y       z     vdW  Elec       q    Type
REMARK                         _______ _______ _______ _____ _____    ______ ____
ROOT
ATOM      1  C   UNL     1      -0.049   0.263   0.000  0.00  0.00    +0.000 C 
ATOM      2  O   UNL     1      -0.049  -0.562   0.000  0.00  0.00    +0.000 OA
ATOM      3  N   UNL     1       0.665   0.676   0.000  0.00  0.00    +0.000 NA
ENDROOT
BRANCH   3   4
ATOM      4  N   UNL     1       1.380   0.263   0.000  0.00  0.00    +0.000 NA
ATOM      5  C   UNL     1       2.094   0.676   0.000  0.00  0.00    +0.000 C 
ATOM      6  O   UNL     1       2.094   1.501   0.000  0.00  0.00    +0.000 OA
BRANCH   5   7
ATOM      7  C   UNL     1       2.809   0.263   0.000  0.00  0.00    +0.000 A 
ATOM      8  C   UNL     1       3.523   0.676   0.000  0.00  0.00    +0.000 A 
ATOM      9  C   UNL     1       4.237   0.263   0.000  0.00  0.00    +0.000 A 
ATOM     10  C   UNL     1       4.237  -0.562   0.000  0.00  0.00    +0.000 A 
ATOM     11  C   UNL     1       3.523  -0.974   0.000  0.00  0.00    +0.000 A 
ATOM     12  C   UNL     1       2.809  -0.562   0.000  0.00  0.00    +0.000 A 
ATOM     13 CL   UNL     1       3.523  -1.799   0.000  0.00  0.00    +0.000 Cl
ENDBRANCH   5   7
ENDBRANCH   3   4
BRANCH   1  14
ATOM     14  C   UNL     1      -0.764   0.676   0.000  0.00  0.00    +0.000 C 
ATOM     15  O   UNL     1      -0.764   1.501   0.000  0.00  0.00    +0.000 OA
BRANCH  14  16
ATOM     16  C   UNL     1      -1.478   0.263   0.000  0.00  0.00    +0.000 C 
ATOM     17  N   UNL     1      -1.478  -0.562   0.000  0.00  0.00    +0.000 NA
BRANCH  16  18
ATOM     18  C   UNL     1      -2.193   0.676   0.000  0.00  0.00    +0.000 C 
BRANCH  18  19
ATOM     19  C   UNL     1      -2.907   0.263   0.000  0.00  0.00    +0.000 C 
BRANCH  19  20
ATOM     20  S   UNL     1      -3.622   0.676   0.000  0.00  0.00    +0.000 S 
BRANCH  20  21
ATOM     21  C   UNL     1      -4.336   0.263   0.000  0.00  0.00    +0.000 C 
ATOM     22  C   UNL     1      -5.051   0.676   0.000  0.00  0.00    +0.000 C 
ATOM     23  C   UNL     1      -4.336  -0.562   0.000  0.00  0.00    +0.000 C 
ENDBRANCH  20  21
ENDBRANCH  19  20
ENDBRANCH  18  19
ENDBRANCH  16  18
ENDBRANCH  14  16
ENDBRANCH   1  14
TORSDOF 8
