REMARK  Name = AOG
REMARK  9 active torsions:
REMARK  status: ('A' for Active; 'I' for Inactive)
REMARK    1  A    between atoms: C_1  and  O_2
REMARK    2  A    between atoms: O_2  and  C_13
REMARK    3  A    between atoms: C_8  and  C_10
REMARK    4  A    between atoms: C_13  and  C_14
REMARK    5  A    between atoms: C_14  and  C_15
REMARK    6  A    between atoms: C_15  and  C_16
REMARK    7  A    between atoms: C_16  and  C_17
REMARK    8  A    between atoms: C_17  and  C_18
REMARK    9  A    between atoms: C_18  and  C_19
REMARK                            x       y       z     vdW  Elec       q    Type
REMARK                         _______ _______ _______ _____ _____    ______ ____
ROOT
ATOM      1  C   UNL     1      -1.581   0.190   0.000  0.00  0.00    +0.000 C 
ATOM      2  C   UNL     1      -1.581  -0.635   0.000  0.00  0.00    +0.000 C 
ATOM      3  O   UNL     1      -0.867  -1.048   0.000  0.00  0.00    +0.000 OA
ATOM      4  C   UNL     1      -2.296  -1.048   0.000  0.00  0.00    +0.000 C 
ATOM      5  C   UNL     1      -3.011  -0.635   0.000  0.00  0.00    +0.000 C 
ATOM      6  O   UNL     1      -3.725  -1.048   0.000  0.00  0.00    +0.000 OA
ATOM      7  C   UNL     1      -3.011   0.190   0.000  0.00  0.00    +0.000 C 
ATOM      8  O   UNL     1      -2.296   0.603   0.000  0.00  0.00    +0.000 OA
ATOM      9  N   UNL     1      -2.296  -1.873   0.000  0.00  0.00    +0.000 NA
ENDROOT
BRANCH   7  10
ATOM     10  C   UNL     1      -3.725   0.603   0.000  0.00  0.00    +0.000 C 
ATOM     11  O   UNL     1      -3.725   1.428   0.000  0.00  0.00    +0.000 OA
ENDBRANCH   7  10
BRANCH   1  12
ATOM     12  O   UNL     1      -0.867   0.603   0.000  0.00  0.00    +0.000 OA
BRANCH  12  13
ATOM     13  C   UNL     1      -0.152   0.190   0.000  0.00  0.00    +0.000 C 
BRANCH  13  14
ATOM     14  C   UNL     1       0.562   0.603   0.000  0.00  0.00    +0.000 C 
BRANCH  14  15
ATOM     15  C   UNL     1       1.277   0.190   0.000  0.00  0.00    +0.000 C 
BRANCH  15  16
ATOM     16  C   UNL     1       1.991   0.603   0.000  0.00  0.00    +0.000 C 
BRANCH  16  17
ATOM     17  C   UNL     1       2.706   0.190   0.000  0.00  0.00    +0.000 C 
BRANCH  17  18
ATOM     18  C   UNL     1       3.420   0.603   0.000  0.00  0.00    +0.000 C 
BRANCH  18  19
ATOM     19  C   UNL     1       4.135   0.190   0.000  0.00  0.00    +0.000 C 
ATOM     20  C   UNL     1       4.849   0.603   0.000  0.00  0.00    +0.000 C 
ENDBRANCH  18  19
ENDBRANCH  17  18
ENDBRANCH  16  17
ENDBRANCH  15  16
ENDBRANCH  14  15
ENDBRANCH  13  14
ENDBRANCH  12  13
ENDBRANCH   1  12
TORSDOF 9
