REMARK  Name = AP6
REMARK  1 active torsions:
REMARK  status: ('A' for Active; 'I' for Inactive)
REMARK    1  A    between atoms: C_10  and  C_13
REMARK                            x       y       z     vdW  Elec       q    Type
REMARK                         _______ _______ _______ _____ _____    ______ ____
ROOT
ATOM      1  N   UNL     1      -1.660   1.339   0.000  0.00  0.00    +0.000 NA
ATOM      2  C   UNL     1      -2.374   0.926   0.000  0.00  0.00    +0.000 A 
ATOM      3  N   UNL     1      -3.089   1.339   0.000  0.00  0.00    +0.000 NA
ATOM      4  N   UNL     1      -2.374   0.101   0.000  0.00  0.00    +0.000 NA
ATOM      5  C   UNL     1      -1.660  -0.311   0.000  0.00  0.00    +0.000 A 
ATOM      6  N   UNL     1      -1.660  -1.136   0.000  0.00  0.00    +0.000 NA
ATOM      7  C   UNL     1      -0.945   0.101   0.000  0.00  0.00    +0.000 A 
ATOM      8  C   UNL     1      -0.945   0.926   0.000  0.00  0.00    +0.000 A 
ATOM      9  N   UNL     1      -0.231  -0.311   0.000  0.00  0.00    +0.000 NA
ATOM     10  C   UNL     1       0.483   0.101   0.000  0.00  0.00    +0.000 C 
ATOM     11  C   UNL     1       0.483   0.926   0.000  0.00  0.00    +0.000 C 
ATOM     12  N   UNL     1      -0.231   1.339   0.000  0.00  0.00    +0.000 NA
ENDROOT
BRANCH  10  13
ATOM     13  C   UNL     1       1.198  -0.311   0.000  0.00  0.00    +0.000 A 
ATOM     14  C   UNL     1       1.913   0.101   0.000  0.00  0.00    +0.000 A 
ATOM     15  C   UNL     1       1.198  -1.136   0.000  0.00  0.00    +0.000 A 
ATOM     16  C   UNL     1       2.627  -0.311   0.000  0.00  0.00    +0.000 A 
ATOM     17  C   UNL     1       1.913  -1.549   0.000  0.00  0.00    +0.000 A 
ATOM     18  C   UNL     1       2.627  -1.136   0.000  0.00  0.00    +0.000 A 
ENDBRANCH  10  13
TORSDOF 1
