REMARK  Name = APF
REMARK  5 active torsions:
REMARK  status: ('A' for Active; 'I' for Inactive)
REMARK    1  A    between atoms: N_4  and  C_5
REMARK    2  A    between atoms: C_5  and  C_6
REMARK    3  A    between atoms: C_5  and  C_8
REMARK    4  A    between atoms: C_6  and  C_7
REMARK    5  A    between atoms: C_8  and  C_13
REMARK                            x       y       z     vdW  Elec       q    Type
REMARK                         _______ _______ _______ _____ _____    ______ ____
ROOT
ATOM      1  C   UNL     1      -0.294  -0.110   0.000  0.00  0.00    +0.000 C 
ENDROOT
BRANCH   1   5
ATOM      2  C   UNL     1      -1.723  -1.760   0.000  0.00  0.00    +0.000 C 
ATOM      3  C   UNL     1      -1.008  -1.347   0.000  0.00  0.00    +0.000 C 
ATOM      4  O   UNL     1      -0.294  -1.760   0.000  0.00  0.00    +0.000 OA
ATOM      5  N   UNL     1      -1.008  -0.522   0.000  0.00  0.00    +0.000 NA
ENDBRANCH   1   5
BRANCH   1   6
ATOM      6  C   UNL     1       0.421  -0.522   0.000  0.00  0.00    +0.000 C 
ATOM      7  O   UNL     1       1.135  -0.110   0.000  0.00  0.00    +0.000 OA
BRANCH   6   8
ATOM      8  C   UNL     1       0.421  -1.347   0.000  0.00  0.00    +0.000 C 
ATOM      9  F   UNL     1      -0.404  -1.347   0.000  0.00  0.00    +0.000 F 
ATOM     10  F   UNL     1       1.246  -1.347   0.000  0.00  0.00    +0.000 F 
ATOM     11  F   UNL     1       0.421  -2.172   0.000  0.00  0.00    +0.000 F 
ENDBRANCH   6   8
ENDBRANCH   1   6
BRANCH   1  12
ATOM     12  C   UNL     1      -0.294   0.715   0.000  0.00  0.00    +0.000 C 
BRANCH  12  13
ATOM     13  C   UNL     1       0.421   1.127   0.000  0.00  0.00    +0.000 A 
ATOM     14  C   UNL     1       0.421   1.952   0.000  0.00  0.00    +0.000 A 
ATOM     15  C   UNL     1       1.135   2.365   0.000  0.00  0.00    +0.000 A 
ATOM     16  C   UNL     1       1.850   1.952   0.000  0.00  0.00    +0.000 A 
ATOM     17  C   UNL     1       1.850   1.127   0.000  0.00  0.00    +0.000 A 
ATOM     18  C   UNL     1       1.135   0.715   0.000  0.00  0.00    +0.000 A 
ENDBRANCH  12  13
ENDBRANCH   1  12
TORSDOF 5
