REMARK  Name = APJ
REMARK  4 active torsions:
REMARK  status: ('A' for Active; 'I' for Inactive)
REMARK    1  A    between atoms: N_3  and  C_10
REMARK    2  A    between atoms: N_3  and  C_13
REMARK    3  A    between atoms: N_6  and  C_19
REMARK    4  A    between atoms: C_14  and  C_16
REMARK                            x       y       z     vdW  Elec       q    Type
REMARK                         _______ _______ _______ _____ _____    ______ ____
ROOT
ATOM      1  N   UNL     1       0.024   0.261   0.000  0.00  0.00    +0.000 NA
ATOM      2  N   UNL     1      -1.405   0.261   0.000  0.00  0.00    +0.000 NA
ATOM      3  N   UNL     1      -0.691  -0.976   0.000  0.00  0.00    +0.000 NA
ATOM      4  C   UNL     1      -0.691  -0.151   0.000  0.00  0.00    +0.000 A 
ATOM      5  C   UNL     1       0.024   1.086   0.000  0.00  0.00    +0.000 A 
ATOM      6  C   UNL     1      -0.691   1.499   0.000  0.00  0.00    +0.000 A 
ATOM      7  C   UNL     1      -1.405   1.086   0.000  0.00  0.00    +0.000 A 
ENDROOT
BRANCH   3  10
ATOM      8  N   UNL     1      -3.619  -2.469   0.000  0.00  0.00    +0.000 NA
ATOM      9  N   UNL     1      -3.619  -1.134   0.000  0.00  0.00    +0.000 NA
ATOM     10  C   UNL     1      -1.405  -1.389   0.000  0.00  0.00    +0.000 A 
ATOM     11  C   UNL     1      -2.119  -0.976   0.000  0.00  0.00    +0.000 A 
ATOM     12  C   UNL     1      -2.834  -1.389   0.000  0.00  0.00    +0.000 A 
ATOM     13  C   UNL     1      -2.834  -2.214   0.000  0.00  0.00    +0.000 A 
ATOM     14  C   UNL     1      -2.119  -2.626   0.000  0.00  0.00    +0.000 A 
ATOM     15  C   UNL     1      -1.405  -2.214   0.000  0.00  0.00    +0.000 A 
ATOM     16  C   UNL     1      -4.104  -1.801   0.000  0.00  0.00    +0.000 A 
ENDBRANCH   3  10
BRANCH   5  17
ATOM     17  N   UNL     1       0.738   1.499   0.000  0.00  0.00    +0.000 NA
BRANCH  17  20
ATOM     18  N   UNL     1       1.539   0.266   0.000  0.00  0.00    +0.000 NA
ATOM     19  N   UNL     1       2.346   0.094   0.000  0.00  0.00    +0.000 NA
ATOM     20  C   UNL     1       1.453   1.086   0.000  0.00  0.00    +0.000 A 
ATOM     21  C   UNL     1       2.759   0.809   0.000  0.00  0.00    +0.000 A 
ATOM     22  C   UNL     1       2.207   1.422   0.000  0.00  0.00    +0.000 A 
BRANCH  21  23
ATOM     23  C   UNL     1       3.579   0.895   0.000  0.00  0.00    +0.000 C 
ATOM     24  C   UNL     1       4.333   0.559   0.000  0.00  0.00    +0.000 C 
ATOM     25  C   UNL     1       4.247   1.380   0.000  0.00  0.00    +0.000 C 
ENDBRANCH  21  23
ENDBRANCH  17  20
ENDBRANCH   5  17
TORSDOF 4
