REMARK  Name = APL
REMARK  5 active torsions:
REMARK  status: ('A' for Active; 'I' for Inactive)
REMARK    1  A    between atoms: N_4  and  C_5
REMARK    2  A    between atoms: C_5  and  C_6
REMARK    3  A    between atoms: C_5  and  C_8
REMARK    4  A    between atoms: C_6  and  C_7
REMARK    5  A    between atoms: C_8  and  C_14
REMARK                            x       y       z     vdW  Elec       q    Type
REMARK                         _______ _______ _______ _____ _____    ______ ____
ROOT
ATOM      1  C   UNL     1      -0.477   0.016   0.000  0.00  0.00    +0.000 C 
ENDROOT
BRANCH   1   5
ATOM      2  C   UNL     1      -2.192  -1.334   0.000  0.00  0.00    +0.000 C 
ATOM      3  C   UNL     1      -1.413  -1.064   0.000  0.00  0.00    +0.000 C 
ATOM      4  O   UNL     1      -0.789  -1.604   0.000  0.00  0.00    +0.000 OA
ATOM      5  N   UNL     1      -1.257  -0.254   0.000  0.00  0.00    +0.000 NA
ENDBRANCH   1   5
BRANCH   1   6
ATOM      6  C   UNL     1       0.146  -0.524   0.000  0.00  0.00    +0.000 C 
ATOM      7  O   UNL     1      -0.394  -1.148   0.000  0.00  0.00    +0.000 OA
ATOM      8  O   UNL     1       0.686   0.100   0.000  0.00  0.00    +0.000 OA
BRANCH   6   9
ATOM      9  C   UNL     1       0.770  -1.064   0.000  0.00  0.00    +0.000 C 
ATOM     10  F   UNL     1       0.230  -1.688   0.000  0.00  0.00    +0.000 F 
ATOM     11  F   UNL     1       1.310  -0.441   0.000  0.00  0.00    +0.000 F 
ATOM     12  F   UNL     1       1.393  -1.604   0.000  0.00  0.00    +0.000 F 
ENDBRANCH   6   9
ENDBRANCH   1   6
BRANCH   1  13
ATOM     13  C   UNL     1      -0.322   0.826   0.000  0.00  0.00    +0.000 C 
BRANCH  13  14
ATOM     14  C   UNL     1       0.458   1.096   0.000  0.00  0.00    +0.000 A 
ATOM     15  C   UNL     1       0.614   1.906   0.000  0.00  0.00    +0.000 A 
ATOM     16  C   UNL     1       1.393   2.176   0.000  0.00  0.00    +0.000 A 
ATOM     17  C   UNL     1       2.017   1.636   0.000  0.00  0.00    +0.000 A 
ATOM     18  C   UNL     1       1.861   0.826   0.000  0.00  0.00    +0.000 A 
ATOM     19  C   UNL     1       1.082   0.556   0.000  0.00  0.00    +0.000 A 
ENDBRANCH  13  14
ENDBRANCH   1  13
TORSDOF 5
