REMARK  Name = APP
REMARK  1 active torsions:
REMARK  status: ('A' for Active; 'I' for Inactive)
REMARK    1  A    between atoms: C_5  and  C_6
REMARK                            x       y       z     vdW  Elec       q    Type
REMARK                         _______ _______ _______ _____ _____    ______ ____
ROOT
ATOM      1  N   UNL     1       0.159   0.467   0.000  0.00  0.00    +0.000 N 
ATOM      2  C   UNL     1       0.874   0.879   0.000  0.00  0.00    +0.000 C 
ATOM      3  O   UNL     1       0.874   1.704   0.000  0.00  0.00    +0.000 OA
ATOM      4  C   UNL     1       1.588   0.467   0.000  0.00  0.00    +0.000 C 
ATOM      5  C   UNL     1       0.159  -0.358   0.000  0.00  0.00    +0.000 C 
ATOM      6  C   UNL     1      -0.555  -0.771   0.000  0.00  0.00    +0.000 C 
ATOM      7  C   UNL     1      -1.270  -0.358   0.000  0.00  0.00    +0.000 C 
ATOM      8  C   UNL     1      -1.270   0.467   0.000  0.00  0.00    +0.000 C 
ATOM      9  C   UNL     1      -0.555   0.879   0.000  0.00  0.00    +0.000 C 
ENDROOT
BRANCH   5  10
ATOM     10  C   UNL     1       0.874  -0.771   0.000  0.00  0.00    +0.000 C 
ATOM     11  O   UNL     1       1.588  -0.358   0.000  0.00  0.00    +0.000 OA
ATOM     12  O   UNL     1       0.874  -1.596   0.000  0.00  0.00    +0.000 OA
ENDBRANCH   5  10
TORSDOF 1
