REMARK  Name = ASE
REMARK  3 active torsions:
REMARK  status: ('A' for Active; 'I' for Inactive)
REMARK    1  A    between atoms: C_7  and  C_11
REMARK    2  A    between atoms: C_11  and  C_12
REMARK    3  A    between atoms: C_12  and  N_13
REMARK                            x       y       z     vdW  Elec       q    Type
REMARK                         _______ _______ _______ _____ _____    ______ ____
ROOT
ATOM      1  C   UNL     1      -2.133   0.922   0.000  0.00  0.00    +0.000 A 
ATOM      2  C   UNL     1      -1.326   0.751   0.000  0.00  0.00    +0.000 A 
ATOM      3  C   UNL     1      -1.071  -0.034   0.000  0.00  0.00    +0.000 A 
ATOM      4  C   UNL     1      -2.685   0.309   0.000  0.00  0.00    +0.000 A 
ATOM      5  C   UNL     1      -2.430  -0.475   0.000  0.00  0.00    +0.000 A 
ATOM      6  C   UNL     1      -1.623  -0.647   0.000  0.00  0.00    +0.000 A 
ATOM      7  C   UNL     1      -0.318  -0.369   0.000  0.00  0.00    +0.000 A 
ATOM      8  C   UNL     1      -0.404  -1.190   0.000  0.00  0.00    +0.000 A 
ATOM      9  N   UNL     1      -1.211  -1.361   0.000  0.00  0.00    +0.000 NA
ATOM     10  O   UNL     1      -2.388   1.707   0.000  0.00  0.00    +0.000 OA
ENDROOT
BRANCH   7  11
ATOM     11  C   UNL     1       0.397   0.043   0.000  0.00  0.00    +0.000 C 
BRANCH  11  12
ATOM     12  C   UNL     1       1.111  -0.369   0.000  0.00  0.00    +0.000 C 
BRANCH  12  13
ATOM     13  N   UNL     1       1.826   0.043   0.000  0.00  0.00    +0.000 NA
ATOM     14  C   UNL     1       2.540  -0.369   0.000  0.00  0.00    +0.000 C 
ATOM     15  C   UNL     1       3.255   0.043   0.000  0.00  0.00    +0.000 C 
ATOM     16  O   UNL     1       2.540  -1.194   0.000  0.00  0.00    +0.000 OA
ENDBRANCH  12  13
ENDBRANCH  11  12
ENDBRANCH   7  11
TORSDOF 3
