REMARK  Name = ASF
REMARK  6 active torsions:
REMARK  status: ('A' for Active; 'I' for Inactive)
REMARK    1  A    between atoms: C_2  and  C_3
REMARK    2  A    between atoms: C_3  and  C_4
REMARK    3  A    between atoms: C_4  and  S_12
REMARK    4  A    between atoms: C_5  and  C_6
REMARK    5  A    between atoms: C_5  and  S_12
REMARK    6  A    between atoms: C_6  and  C_7
REMARK                            x       y       z     vdW  Elec       q    Type
REMARK                         _______ _______ _______ _____ _____    ______ ____
ROOT
ATOM      1  O   UNL     1       0.490  -0.588   0.000  0.00  0.00    +0.000 OA
ATOM      2  O   UNL     1       1.030   0.972   0.000  0.00  0.00    +0.000 OA
ATOM      3  S   UNL     1       0.760   0.192   0.000  0.00  0.00    +0.000 S 
ENDROOT
BRANCH   3   4
ATOM      4  C   UNL     1      -0.019   0.462   0.000  0.00  0.00    +0.000 C 
BRANCH   4   5
ATOM      5  C   UNL     1      -0.643  -0.078   0.000  0.00  0.00    +0.000 C 
BRANCH   5   7
ATOM      6  C   UNL     1      -2.046  -0.348   0.000  0.00  0.00    +0.000 C 
ATOM      7  C   UNL     1      -1.422   0.192   0.000  0.00  0.00    +0.000 C 
ENDBRANCH   5   7
ENDBRANCH   4   5
ENDBRANCH   3   4
BRANCH   3   8
ATOM      8  C   UNL     1       1.540  -0.078   0.000  0.00  0.00    +0.000 C 
BRANCH   8   9
ATOM      9  C   UNL     1       2.164   0.462   0.000  0.00  0.00    +0.000 C 
BRANCH   9  10
ATOM     10  C   UNL     1       2.943   0.192   0.000  0.00  0.00    +0.000 C 
ATOM     11  O   UNL     1       3.567   0.732   0.000  0.00  0.00    +0.000 OA
ATOM     12  O   UNL     1       3.099  -0.618   0.000  0.00  0.00    +0.000 OA
ENDBRANCH   9  10
ENDBRANCH   8   9
ENDBRANCH   3   8
TORSDOF 6
