REMARK  Name = AT2
REMARK  3 active torsions:
REMARK  status: ('A' for Active; 'I' for Inactive)
REMARK    1  A    between atoms: C_7  and  N_11
REMARK    2  A    between atoms: C_15  and  O_17
REMARK    3  A    between atoms: O_17  and  C_18
REMARK                            x       y       z     vdW  Elec       q    Type
REMARK                         _______ _______ _______ _____ _____    ______ ____
ROOT
ATOM      1  C   UNL     1       0.422  -0.599   0.000  0.00  0.00    +0.000 C 
ATOM      2  C   UNL     1      -0.292  -1.011   0.000  0.00  0.00    +0.000 C 
ATOM      3  C   UNL     1      -1.007  -0.599   0.000  0.00  0.00    +0.000 C 
ATOM      4  N   UNL     1      -1.007   0.226   0.000  0.00  0.00    +0.000 N 
ATOM      5  C   UNL     1      -0.292   0.639   0.000  0.00  0.00    +0.000 C 
ATOM      6  C   UNL     1       0.422   0.226   0.000  0.00  0.00    +0.000 C 
ATOM      7  C   UNL     1      -1.722   0.639   0.000  0.00  0.00    +0.000 C 
ATOM      8  O   UNL     1      -1.722   1.464   0.000  0.00  0.00    +0.000 OA
ENDROOT
BRANCH   1  16
ATOM      9  C   UNL     1       2.565   1.464   0.000  0.00  0.00    +0.000 C 
ATOM     10  C   UNL     1       2.565   0.639   0.000  0.00  0.00    +0.000 A 
ATOM     11  C   UNL     1       3.280   0.226   0.000  0.00  0.00    +0.000 A 
ATOM     12  C   UNL     1       3.280  -0.599   0.000  0.00  0.00    +0.000 A 
ATOM     13  C   UNL     1       1.851  -0.599   0.000  0.00  0.00    +0.000 A 
ATOM     14  C   UNL     1       1.851   0.226   0.000  0.00  0.00    +0.000 A 
ATOM     15  N   UNL     1       2.565  -1.011   0.000  0.00  0.00    +0.000 NA
ATOM     16  N   UNL     1       1.136  -1.011   0.000  0.00  0.00    +0.000 NA
ENDBRANCH   1  16
BRANCH   7  17
ATOM     17  O   UNL     1      -2.436   0.226   0.000  0.00  0.00    +0.000 OA
BRANCH  17  18
ATOM     18  C   UNL     1      -3.150   0.639   0.000  0.00  0.00    +0.000 C 
ATOM     19  C   UNL     1      -3.865   0.226   0.000  0.00  0.00    +0.000 C 
ENDBRANCH  17  18
ENDBRANCH   7  17
TORSDOF 3
