REMARK  Name = AT5
REMARK  8 active torsions:
REMARK  status: ('A' for Active; 'I' for Inactive)
REMARK    1  A    between atoms: C_2  and  C_3
REMARK    2  A    between atoms: C_2  and  C_12
REMARK    3  A    between atoms: C_3  and  C_4
REMARK    4  A    between atoms: C_4  and  C_5
REMARK    5  A    between atoms: C_5  and  C_7
REMARK    6  A    between atoms: C_7  and  C_9
REMARK    7  A    between atoms: C_15  and  O_21
REMARK    8  A    between atoms: C_16  and  O_19
REMARK                            x       y       z     vdW  Elec       q    Type
REMARK                         _______ _______ _______ _____ _____    ______ ____
ROOT
ATOM      1  C   UNL     1      -0.677  -0.316   0.000  0.00  0.00    +0.000 A 
ATOM      2  C   UNL     1      -1.392  -0.729   0.000  0.00  0.00    +0.000 A 
ATOM      3  N   UNL     1      -2.106  -0.316   0.000  0.00  0.00    +0.000 NA
ATOM      4  C   UNL     1      -2.106   0.509   0.000  0.00  0.00    +0.000 A 
ATOM      5  C   UNL     1      -1.392   0.921   0.000  0.00  0.00    +0.000 A 
ATOM      6  C   UNL     1      -0.677   0.509   0.000  0.00  0.00    +0.000 A 
ATOM      7  O   UNL     1       0.037   0.921   0.000  0.00  0.00    +0.000 OA
ATOM      8  O   UNL     1      -1.392  -1.554   0.000  0.00  0.00    +0.000 OA
ENDROOT
BRANCH   4   9
ATOM      9  O   UNL     1      -2.821   0.921   0.000  0.00  0.00    +0.000 OA
ATOM     10  C   UNL     1      -3.535   0.509   0.000  0.00  0.00    +0.000 C 
ENDBRANCH   4   9
BRANCH   1  12
ATOM     11  O   UNL     1       0.037  -1.554   0.000  0.00  0.00    +0.000 OA
ATOM     12  C   UNL     1       0.037  -0.729   0.000  0.00  0.00    +0.000 C 
BRANCH  12  13
ATOM     13  C   UNL     1       0.752  -0.316   0.000  0.00  0.00    +0.000 C 
ATOM     14  C   UNL     1       0.752   0.509   0.000  0.00  0.00    +0.000 C 
BRANCH  13  15
ATOM     15  C   UNL     1       1.466  -0.729   0.000  0.00  0.00    +0.000 C 
BRANCH  15  16
ATOM     16  C   UNL     1       2.181  -0.316   0.000  0.00  0.00    +0.000 C 
ATOM     17  C   UNL     1       2.181   0.509   0.000  0.00  0.00    +0.000 C 
BRANCH  16  18
ATOM     18  C   UNL     1       2.895  -0.729   0.000  0.00  0.00    +0.000 C 
ATOM     19 CL   UNL     1       2.895  -1.554   0.000  0.00  0.00    +0.000 Cl
BRANCH  18  20
ATOM     20  C   UNL     1       3.610  -0.316   0.000  0.00  0.00    +0.000 C 
ATOM     21 CL   UNL     1       4.324  -0.729   0.000  0.00  0.00    +0.000 Cl
ENDBRANCH  18  20
ENDBRANCH  16  18
ENDBRANCH  15  16
ENDBRANCH  13  15
ENDBRANCH  12  13
ENDBRANCH   1  12
BRANCH   5  22
ATOM     22  O   UNL     1      -1.392   1.746   0.000  0.00  0.00    +0.000 OA
ATOM     23  C   UNL     1      -0.677   2.159   0.000  0.00  0.00    +0.000 C 
ENDBRANCH   5  22
TORSDOF 8
