REMARK  Name = AT6
REMARK  5 active torsions:
REMARK  status: ('A' for Active; 'I' for Inactive)
REMARK    1  A    between atoms: C_5  and  C_7
REMARK    2  A    between atoms: C_7  and  C_8
REMARK    3  A    between atoms: C_8  and  N_9
REMARK    4  A    between atoms: C_10  and  C_12
REMARK    5  A    between atoms: C_15  and  C_18
REMARK                            x       y       z     vdW  Elec       q    Type
REMARK                         _______ _______ _______ _____ _____    ______ ____
ROOT
ATOM      1  N   UNL     1       1.091  -0.155   0.000  0.00  0.00    +0.000 NA
ATOM      2  C   UNL     1       1.806   0.258   0.000  0.00  0.00    +0.000 C 
ATOM      3  O   UNL     1       1.806   1.083   0.000  0.00  0.00    +0.000 OA
ENDROOT
BRANCH   2   4
ATOM      4  C   UNL     1       2.520  -0.155   0.000  0.00  0.00    +0.000 A 
ATOM      5  C   UNL     1       3.235   0.258   0.000  0.00  0.00    +0.000 A 
ATOM      6  C   UNL     1       3.949  -0.155   0.000  0.00  0.00    +0.000 A 
ATOM      7  C   UNL     1       3.949  -0.980   0.000  0.00  0.00    +0.000 A 
ATOM      8  C   UNL     1       3.235  -1.392   0.000  0.00  0.00    +0.000 A 
ATOM      9  C   UNL     1       2.520  -0.980   0.000  0.00  0.00    +0.000 A 
BRANCH   7  10
ATOM     10  C   UNL     1       4.664  -1.392   0.000  0.00  0.00    +0.000 C 
ATOM     11  N   UNL     1       5.378  -1.805   0.000  0.00  0.00    +0.000 NA
ENDBRANCH   7  10
ENDBRANCH   2   4
BRANCH   1  12
ATOM     12  C   UNL     1       0.377   0.258   0.000  0.00  0.00    +0.000 C 
BRANCH  12  13
ATOM     13  C   UNL     1      -0.338  -0.155   0.000  0.00  0.00    +0.000 C 
BRANCH  13  18
ATOM     14  C   UNL     1      -2.481   0.258   0.000  0.00  0.00    +0.000 A 
ATOM     15  C   UNL     1      -2.481   1.083   0.000  0.00  0.00    +0.000 A 
ATOM     16  C   UNL     1      -1.766   1.495   0.000  0.00  0.00    +0.000 A 
ATOM     17  N   UNL     1      -1.052   1.083   0.000  0.00  0.00    +0.000 NA
ATOM     18  C   UNL     1      -1.052   0.258   0.000  0.00  0.00    +0.000 A 
ATOM     19  C   UNL     1      -1.766  -0.155   0.000  0.00  0.00    +0.000 A 
ATOM     20  N   UNL     1      -1.766   2.320   0.000  0.00  0.00    +0.000 NA
ATOM     21  C   UNL     1      -3.195  -0.155   0.000  0.00  0.00    +0.000 C 
ENDBRANCH  13  18
ENDBRANCH  12  13
ENDBRANCH   1  12
TORSDOF 5
