REMARK  Name = ATE
REMARK  0 active torsions:
REMARK  status: ('A' for Active; 'I' for Inactive)
REMARK                            x       y       z     vdW  Elec       q    Type
REMARK                         _______ _______ _______ _____ _____    ______ ____
ROOT
ATOM      1  O   UNL     1       3.229   0.474   0.000  0.00  0.00    +0.000 OA
ATOM      2  C   UNL     1       2.417   0.329   0.000  0.00  0.00    +0.000 C 
ATOM      3  C   UNL     1       2.136  -0.447   0.000  0.00  0.00    +0.000 C 
ATOM      4  C   UNL     1       1.324  -0.592   0.000  0.00  0.00    +0.000 C 
ATOM      5  C   UNL     1       1.885   0.960   0.000  0.00  0.00    +0.000 C 
ATOM      6  C   UNL     1       1.073   0.815   0.000  0.00  0.00    +0.000 C 
ATOM      7  C   UNL     1       0.541   1.445   0.000  0.00  0.00    +0.000 C 
ATOM      8  C   UNL     1       0.792   0.039   0.000  0.00  0.00    +0.000 C 
ATOM      9  C   UNL     1       0.512  -0.737   0.000  0.00  0.00    +0.000 C 
ATOM     10  C   UNL     1      -0.020  -0.106   0.000  0.00  0.00    +0.000 C 
ATOM     11  C   UNL     1      -0.300  -0.882   0.000  0.00  0.00    +0.000 C 
ATOM     12  C   UNL     1      -0.552   0.524   0.000  0.00  0.00    +0.000 C 
ATOM     13  C   UNL     1      -0.271   1.300   0.000  0.00  0.00    +0.000 C 
ATOM     14  C   UNL     1      -1.364   0.379   0.000  0.00  0.00    +0.000 C 
ATOM     15  C   UNL     1      -2.015   0.885   0.000  0.00  0.00    +0.000 C 
ATOM     16  C   UNL     1      -1.644  -0.397   0.000  0.00  0.00    +0.000 C 
ATOM     17  C   UNL     1      -1.112  -1.028   0.000  0.00  0.00    +0.000 C 
ATOM     18  C   UNL     1      -2.004  -1.139   0.000  0.00  0.00    +0.000 C 
ATOM     19  C   UNL     1      -2.469  -0.370   0.000  0.00  0.00    +0.000 C 
ATOM     20  C   UNL     1      -2.698   0.422   0.000  0.00  0.00    +0.000 C 
ENDROOT
TORSDOF 0
