REMARK  Name = ATU
REMARK  1 active torsions:
REMARK  status: ('A' for Active; 'I' for Inactive)
REMARK    1  A    between atoms: C_18  and  N_20
REMARK                            x       y       z     vdW  Elec       q    Type
REMARK                         _______ _______ _______ _____ _____    ______ ____
ROOT
ATOM      1  N   UNL     1       1.770  -1.280   0.000  0.00  0.00    +0.000 NA
ATOM      2  C   UNL     1       1.023  -1.631   0.000  0.00  0.00    +0.000 C 
ATOM      3  C   UNL     1       0.283  -1.266   0.000  0.00  0.00    +0.000 C 
ATOM      4  O   UNL     1       1.016  -2.456   0.000  0.00  0.00    +0.000 OA
ATOM      5  C   UNL     1       1.453   0.172   0.000  0.00  0.00    +0.000 A 
ATOM      6  C   UNL     1       1.961  -0.478   0.000  0.00  0.00    +0.000 A 
ATOM      7  C   UNL     1       2.778  -0.362   0.000  0.00  0.00    +0.000 A 
ATOM      8  C   UNL     1       3.087   0.403   0.000  0.00  0.00    +0.000 A 
ATOM      9  C   UNL     1       2.578   1.053   0.000  0.00  0.00    +0.000 A 
ATOM     10  C   UNL     1       1.761   0.937   0.000  0.00  0.00    +0.000 A 
ATOM     11  N   UNL     1       0.180   0.873   0.000  0.00  0.00    +0.000 NA
ATOM     12  C   UNL     1       0.107  -0.460   0.000  0.00  0.00    +0.000 A 
ATOM     13  C   UNL     1       0.628   0.180   0.000  0.00  0.00    +0.000 A 
ATOM     14  C   UNL     1      -0.662  -0.163   0.000  0.00  0.00    +0.000 A 
ATOM     15  C   UNL     1      -0.618   0.661   0.000  0.00  0.00    +0.000 A 
ATOM     16  C   UNL     1      -1.309   1.111   0.000  0.00  0.00    +0.000 A 
ATOM     17  C   UNL     1      -2.044   0.738   0.000  0.00  0.00    +0.000 A 
ATOM     18  C   UNL     1      -2.089  -0.086   0.000  0.00  0.00    +0.000 A 
ATOM     19  C   UNL     1      -1.398  -0.536   0.000  0.00  0.00    +0.000 A 
ENDROOT
BRANCH  18  20
ATOM     20  N   UNL     1      -2.825  -0.459   0.000  0.00  0.00    +0.000 N 
ATOM     21  O   UNL     1      -2.870  -1.282   0.000  0.00  0.00    +0.000 OA
ATOM     22  O   UNL     1      -3.516  -0.008   0.000  0.00  0.00    +0.000 OA
ENDBRANCH  18  20
TORSDOF 1
