REMARK  Name = ATX
REMARK  3 active torsions:
REMARK  status: ('A' for Active; 'I' for Inactive)
REMARK    1  A    between atoms: C_2  and  C_3
REMARK    2  A    between atoms: C_3  and  C_6
REMARK    3  A    between atoms: C_9  and  C_11
REMARK                            x       y       z     vdW  Elec       q    Type
REMARK                         _______ _______ _______ _____ _____    ______ ____
ROOT
ATOM      1  C   UNL     1       0.020  -0.640   0.000  0.00  0.00    +0.000 A 
ATOM      2  N   UNL     1      -0.805  -0.640   0.000  0.00  0.00    +0.000 NA
ATOM      3  N   UNL     1      -1.060   0.144   0.000  0.00  0.00    +0.000 NA
ATOM      4  C   UNL     1      -0.392   0.629   0.000  0.00  0.00    +0.000 A 
ATOM      5  O   UNL     1       0.275   0.144   0.000  0.00  0.00    +0.000 OA
ENDROOT
BRANCH   4   6
ATOM      6  C   UNL     1      -0.392   1.454   0.000  0.00  0.00    +0.000 C 
ATOM      7  C   UNL     1      -0.392   2.279   0.000  0.00  0.00    +0.000 C 
ATOM      8  C   UNL     1       0.433   1.454   0.000  0.00  0.00    +0.000 C 
ATOM      9  C   UNL     1      -1.217   1.454   0.000  0.00  0.00    +0.000 C 
ENDBRANCH   4   6
BRANCH   1  10
ATOM     10  C   UNL     1       0.505  -1.308   0.000  0.00  0.00    +0.000 C 
ATOM     11  O   UNL     1       1.325  -1.221   0.000  0.00  0.00    +0.000 OA
BRANCH  10  13
ATOM     12  N   UNL     1       0.654  -2.729   0.000  0.00  0.00    +0.000 NA
ATOM     13  C   UNL     1       0.169  -2.061   0.000  0.00  0.00    +0.000 C 
ATOM     14  C   UNL     1      -0.651  -2.147   0.000  0.00  0.00    +0.000 C 
ENDBRANCH  10  13
ENDBRANCH   1  10
TORSDOF 3
