REMARK  Name = AUP
REMARK  3 active torsions:
REMARK  status: ('A' for Active; 'I' for Inactive)
REMARK    1  A    between atoms: C_7  and  C_23
REMARK    2  A    between atoms: P_8  and  C_19
REMARK    3  A    between atoms: C_9  and  C_15
REMARK                            x       y       z     vdW  Elec       q    Type
REMARK                         _______ _______ _______ _____ _____    ______ ____
ROOT
ATOM      1  C   UNL     1       0.973  -0.491   0.000  0.00  0.00    +0.000 A 
ATOM      2  C   UNL     1       0.973   0.334   0.000  0.00  0.00    +0.000 A 
ATOM      3  C   UNL     1       1.688   0.746   0.000  0.00  0.00    +0.000 C 
ATOM      4  C   UNL     1       2.402   0.334   0.000  0.00  0.00    +0.000 C 
ATOM      5  C   UNL     1       2.402  -0.491   0.000  0.00  0.00    +0.000 C 
ATOM      6  C   UNL     1       1.688  -0.904   0.000  0.00  0.00    +0.000 C 
ATOM      7  C   UNL     1       0.189  -0.746   0.000  0.00  0.00    +0.000 A 
ATOM      8  P   UNL     1      -0.296  -0.079   0.000  0.00  0.00    +0.000 P 
ATOM      9  C   UNL     1       0.189   0.589   0.000  0.00  0.00    +0.000 A 
ENDROOT
BRANCH   9  15
ATOM     10  N   UNL     1      -0.873   1.545   0.000  0.00  0.00    +0.000 NA
ATOM     11  C   UNL     1      -1.128   2.329   0.000  0.00  0.00    +0.000 A 
ATOM     12  C   UNL     1      -0.576   2.942   0.000  0.00  0.00    +0.000 A 
ATOM     13  C   UNL     1       0.231   2.771   0.000  0.00  0.00    +0.000 A 
ATOM     14  C   UNL     1       0.486   1.986   0.000  0.00  0.00    +0.000 A 
ATOM     15  C   UNL     1      -0.066   1.373   0.000  0.00  0.00    +0.000 A 
ENDBRANCH   9  15
BRANCH   8  19
ATOM     16  C   UNL     1      -2.771  -0.079   0.000  0.00  0.00    +0.000 A 
ATOM     17  C   UNL     1      -2.359   0.636   0.000  0.00  0.00    +0.000 A 
ATOM     18  C   UNL     1      -1.534   0.636   0.000  0.00  0.00    +0.000 A 
ATOM     19  C   UNL     1      -1.121  -0.079   0.000  0.00  0.00    +0.000 A 
ATOM     20  C   UNL     1      -1.534  -0.793   0.000  0.00  0.00    +0.000 A 
ATOM     21  C   UNL     1      -2.359  -0.793   0.000  0.00  0.00    +0.000 A 
ENDBRANCH   8  19
BRANCH   7  23
ATOM     22  N   UNL     1      -0.873  -1.702   0.000  0.00  0.00    +0.000 NA
ATOM     23  C   UNL     1      -0.066  -1.531   0.000  0.00  0.00    +0.000 A 
ATOM     24  C   UNL     1       0.486  -2.144   0.000  0.00  0.00    +0.000 A 
ATOM     25  C   UNL     1       0.231  -2.929   0.000  0.00  0.00    +0.000 A 
ATOM     26  C   UNL     1      -0.576  -3.100   0.000  0.00  0.00    +0.000 A 
ATOM     27  C   UNL     1      -1.128  -2.487   0.000  0.00  0.00    +0.000 A 
ENDBRANCH   7  23
TORSDOF 3
