REMARK  Name = AUR
REMARK  8 active torsions:
REMARK  status: ('A' for Active; 'I' for Inactive)
REMARK    1  A    between atoms: C_2  and  C_3
REMARK    2  A    between atoms: C_5  and  O_15
REMARK    3  A    between atoms: C_8  and  C_18
REMARK    4  A    between atoms: C_12  and  O_15
REMARK    5  A    between atoms: C_19  and  C_20
REMARK    6  A    between atoms: C_21  and  C_22
REMARK    7  A    between atoms: C_23  and  C_24
REMARK    8  A    between atoms: C_26  and  O_32
REMARK                            x       y       z     vdW  Elec       q    Type
REMARK                         _______ _______ _______ _____ _____    ______ ____
ROOT
ATOM      1  C   UNL     1      -2.109   1.090   0.000  0.00  0.00    +0.000 C 
ATOM      2  C   UNL     1      -1.789   1.798   0.000  0.00  0.00    +0.000 C 
ATOM      3  C   UNL     1      -2.267   1.991   0.000  0.00  0.00    +0.000 C 
ATOM      4  C   UNL     1      -2.210   1.425   0.000  0.00  0.00    +0.000 C 
ATOM      5  C   UNL     1      -1.238   1.425   0.000  0.00  0.00    +0.000 C 
ATOM      6  C   UNL     1      -0.722   0.996   0.000  0.00  0.00    +0.000 C 
ATOM      7  C   UNL     1      -1.748   2.717   0.000  0.00  0.00    +0.000 C 
ATOM      8  C   UNL     1      -3.101   1.440   0.000  0.00  0.00    +0.000 C 
ATOM      9  O   UNL     1      -2.730   0.713   0.000  0.00  0.00    +0.000 OA
ATOM     10  O   UNL     1      -0.860   1.814   0.000  0.00  0.00    +0.000 OA
ATOM     11  O   UNL     1      -0.940   2.378   0.000  0.00  0.00    +0.000 OA
ENDROOT
BRANCH   6  12
ATOM     12  C   UNL     1      -0.149   0.330   0.000  0.00  0.00    +0.000 C 
ATOM     13  C   UNL     1       0.708   0.197   0.000  0.00  0.00    +0.000 C 
BRANCH  13  14
ATOM     14  C   UNL     1       1.006  -0.572   0.000  0.00  0.00    +0.000 C 
ATOM     15  C   UNL     1       1.822  -0.699   0.000  0.00  0.00    +0.000 C 
BRANCH  15  16
ATOM     16  C   UNL     1       2.120  -1.468   0.000  0.00  0.00    +0.000 C 
ATOM     17  C   UNL     1       2.935  -1.594   0.000  0.00  0.00    +0.000 C 
BRANCH  17  18
ATOM     18  C   UNL     1       3.233  -2.363   0.000  0.00  0.00    +0.000 A 
ATOM     19  C   UNL     1       4.049  -2.490   0.000  0.00  0.00    +0.000 A 
ATOM     20  C   UNL     1       4.347  -3.259   0.000  0.00  0.00    +0.000 A 
ATOM     21  C   UNL     1       3.830  -3.902   0.000  0.00  0.00    +0.000 A 
ATOM     22  C   UNL     1       3.015  -3.775   0.000  0.00  0.00    +0.000 A 
ATOM     23  C   UNL     1       4.566  -1.847   0.000  0.00  0.00    +0.000 C 
ATOM     24  O   UNL     1       2.716  -3.006   0.000  0.00  0.00    +0.000 OA
ATOM     25  O   UNL     1       2.498  -4.418   0.000  0.00  0.00    +0.000 OA
BRANCH  20  27
ATOM     26  C   UNL     1       5.679  -2.742   0.000  0.00  0.00    +0.000 C 
ATOM     27  O   UNL     1       5.162  -3.385   0.000  0.00  0.00    +0.000 OA
ENDBRANCH  20  27
ENDBRANCH  17  18
ENDBRANCH  15  16
ENDBRANCH  13  14
ENDBRANCH   6  12
BRANCH   1  29
ATOM     28  C   UNL     1      -1.717  -0.603   0.000  0.00  0.00    +0.000 C 
ATOM     29  C   UNL     1      -1.869   0.224   0.000  0.00  0.00    +0.000 C 
ENDBRANCH   1  29
BRANCH   3  30
ATOM     30  O   UNL     1      -2.863   2.662   0.000  0.00  0.00    +0.000 OA
BRANCH  30  32
ATOM     31  C   UNL     1      -4.333   2.659   0.000  0.00  0.00    +0.000 C 
ATOM     32  C   UNL     1      -3.627   3.084   0.000  0.00  0.00    +0.000 C 
ATOM     33  O   UNL     1      -3.642   3.909   0.000  0.00  0.00    +0.000 OA
ENDBRANCH  30  32
ENDBRANCH   3  30
TORSDOF 8
