REMARK  Name = AVE
REMARK  5 active torsions:
REMARK  status: ('A' for Active; 'I' for Inactive)
REMARK    1  A    between atoms: C_4  and  C_18
REMARK    2  A    between atoms: C_6  and  N_21
REMARK    3  A    between atoms: C_9  and  O_26
REMARK    4  A    between atoms: C_10  and  C_23
REMARK    5  A    between atoms: C_12  and  O_26
REMARK                            x       y       z     vdW  Elec       q    Type
REMARK                         _______ _______ _______ _____ _____    ______ ____
ROOT
ATOM      1  C   UNL     1      -1.771  -0.158   0.000  0.00  0.00    +0.000 C 
ATOM      2  C   UNL     1      -0.342  -0.158   0.000  0.00  0.00    +0.000 C 
ATOM      3  O   UNL     1      -1.771  -0.983   0.000  0.00  0.00    +0.000 OA
ATOM      4  N   UNL     1      -1.057   0.255   0.000  0.00  0.00    +0.000 NA
ATOM      5  O   UNL     1      -0.342  -0.983   0.000  0.00  0.00    +0.000 OA
ATOM      6  N   UNL     1       0.372   0.255   0.000  0.00  0.00    +0.000 NA
ENDROOT
BRANCH   1  15
ATOM      7  C   UNL     1      -3.914   1.079   0.000  0.00  0.00    +0.000 A 
ATOM      8  C   UNL     1      -3.200   1.492   0.000  0.00  0.00    +0.000 A 
ATOM      9  C   UNL     1      -2.486   1.079   0.000  0.00  0.00    +0.000 A 
ATOM     10 CL   UNL     1      -3.200  -0.983   0.000  0.00  0.00    +0.000 Cl
ATOM     11  C   UNL     1      -3.200  -0.158   0.000  0.00  0.00    +0.000 A 
ATOM     12  C   UNL     1      -3.914   0.255   0.000  0.00  0.00    +0.000 A 
ATOM     13  F   UNL     1      -4.629   1.492   0.000  0.00  0.00    +0.000 F 
ATOM     14  F   UNL     1      -3.200   2.317   0.000  0.00  0.00    +0.000 F 
ATOM     15  C   UNL     1      -2.486   0.255   0.000  0.00  0.00    +0.000 A 
ENDBRANCH   1  15
BRANCH   6  16
ATOM     16  C   UNL     1       1.087  -0.158   0.000  0.00  0.00    +0.000 A 
ATOM     17  C   UNL     1       1.087  -0.983   0.000  0.00  0.00    +0.000 A 
ATOM     18  C   UNL     1       2.516  -0.158   0.000  0.00  0.00    +0.000 A 
ATOM     19  C   UNL     1       1.801   0.255   0.000  0.00  0.00    +0.000 A 
ATOM     20  C   UNL     1       1.801  -1.395   0.000  0.00  0.00    +0.000 A 
ATOM     21  C   UNL     1       2.516  -0.983   0.000  0.00  0.00    +0.000 A 
BRANCH  21  22
ATOM     22  C   UNL     1       3.230  -1.395   0.000  0.00  0.00    +0.000 C 
ATOM     23  O   UNL     1       3.945  -0.983   0.000  0.00  0.00    +0.000 OA
ATOM     24  O   UNL     1       3.230  -2.220   0.000  0.00  0.00    +0.000 OA
ENDBRANCH  21  22
BRANCH  19  25
ATOM     25  O   UNL     1       1.801   1.079   0.000  0.00  0.00    +0.000 OA
BRANCH  25  26
ATOM     26  C   UNL     1       1.087   1.492   0.000  0.00  0.00    +0.000 C 
ATOM     27  F   UNL     1       1.499   2.206   0.000  0.00  0.00    +0.000 F 
ATOM     28  F   UNL     1       0.674   0.777   0.000  0.00  0.00    +0.000 F 
ATOM     29  F   UNL     1       0.372   1.905   0.000  0.00  0.00    +0.000 F 
ENDBRANCH  25  26
ENDBRANCH  19  25
ENDBRANCH   6  16
TORSDOF 5
