REMARK  Name = AXA
REMARK  5 active torsions:
REMARK  status: ('A' for Active; 'I' for Inactive)
REMARK    1  A    between atoms: C_11  and  C_12
REMARK    2  A    between atoms: C_12  and  N_13
REMARK    3  A    between atoms: C_14  and  C_16
REMARK    4  A    between atoms: C_29  and  C_30
REMARK    5  A    between atoms: C_30  and  C_31
REMARK                            x       y       z     vdW  Elec       q    Type
REMARK                         _______ _______ _______ _____ _____    ______ ____
ROOT
ATOM      1  C   UNL     1       0.749  -1.607   0.000  0.00  0.00    +0.000 A 
ATOM      2  N   UNL     1       0.197  -2.220   0.000  0.00  0.00    +0.000 NA
ATOM      3  N   UNL     1       0.494  -0.823   0.000  0.00  0.00    +0.000 NA
ATOM      4  C   UNL     1      -0.313  -0.651   0.000  0.00  0.00    +0.000 A 
ATOM      5  O   UNL     1      -0.568   0.134   0.000  0.00  0.00    +0.000 OA
ATOM      6  C   UNL     1      -0.865  -1.264   0.000  0.00  0.00    +0.000 A 
ATOM      7  C   UNL     1      -1.690  -1.264   0.000  0.00  0.00    +0.000 A 
ATOM      8  C   UNL     1      -0.610  -2.049   0.000  0.00  0.00    +0.000 A 
ATOM      9  S   UNL     1      -1.278  -2.534   0.000  0.00  0.00    +0.000 S 
ATOM     10  C   UNL     1      -1.945  -2.049   0.000  0.00  0.00    +0.000 A 
ATOM     11  C   UNL     1      -2.752  -2.220   0.000  0.00  0.00    +0.000 C 
ATOM     12  C   UNL     1      -3.304  -1.607   0.000  0.00  0.00    +0.000 C 
ATOM     13  C   UNL     1      -3.049  -0.823   0.000  0.00  0.00    +0.000 C 
ATOM     14  C   UNL     1      -2.242  -0.651   0.000  0.00  0.00    +0.000 C 
ENDROOT
BRANCH   1  16
ATOM     15  N   UNL     1       2.108  -1.166   0.000  0.00  0.00    +0.000 NA
ATOM     16  C   UNL     1       1.556  -1.779   0.000  0.00  0.00    +0.000 C 
ATOM     17  O   UNL     1       1.810  -2.563   0.000  0.00  0.00    +0.000 OA
BRANCH  15  18
ATOM     18  C   UNL     1       1.853  -0.381   0.000  0.00  0.00    +0.000 C 
BRANCH  18  29
ATOM     19  C   UNL     1       2.150   1.017   0.000  0.00  0.00    +0.000 A 
ATOM     20  C   UNL     1       2.702   1.630   0.000  0.00  0.00    +0.000 A 
ATOM     21  N   UNL     1       2.447   2.414   0.000  0.00  0.00    +0.000 NA
ATOM     22  C   UNL     1       2.999   3.027   0.000  0.00  0.00    +0.000 C 
ATOM     23  O   UNL     1       2.744   3.812   0.000  0.00  0.00    +0.000 OA
ATOM     24  C   UNL     1       3.806   2.856   0.000  0.00  0.00    +0.000 C 
ATOM     25  O   UNL     1       4.061   2.071   0.000  0.00  0.00    +0.000 OA
ATOM     26  C   UNL     1       3.509   1.458   0.000  0.00  0.00    +0.000 A 
ATOM     27  C   UNL     1       3.764   0.674   0.000  0.00  0.00    +0.000 A 
ATOM     28  C   UNL     1       3.212   0.060   0.000  0.00  0.00    +0.000 A 
ATOM     29  C   UNL     1       2.405   0.232   0.000  0.00  0.00    +0.000 A 
ENDBRANCH  18  29
ENDBRANCH  15  18
ENDBRANCH   1  16
BRANCH  14  30
ATOM     30  C   UNL     1      -1.987   0.134   0.000  0.00  0.00    +0.000 C 
BRANCH  30  31
ATOM     31  C   UNL     1      -2.539   0.747   0.000  0.00  0.00    +0.000 C 
ATOM     32  O   UNL     1      -3.346   0.575   0.000  0.00  0.00    +0.000 OA
ATOM     33  N   UNL     1      -2.284   1.531   0.000  0.00  0.00    +0.000 NA
ENDBRANCH  30  31
ENDBRANCH  14  30
TORSDOF 5
