REMARK  Name = AXX
REMARK  3 active torsions:
REMARK  status: ('A' for Active; 'I' for Inactive)
REMARK    1  A    between atoms: C_2  and  C_3
REMARK    2  A    between atoms: N_6  and  C_7
REMARK    3  A    between atoms: C_15  and  C_16
REMARK                            x       y       z     vdW  Elec       q    Type
REMARK                         _______ _______ _______ _____ _____    ______ ____
ROOT
ATOM      1  C   UNL     1      -0.211   0.108   0.000  0.00  0.00    +0.000 A 
ATOM      2  S   UNL     1       0.274   0.776   0.000  0.00  0.00    +0.000 S 
ATOM      3  C   UNL     1       1.058   0.521   0.000  0.00  0.00    +0.000 A 
ATOM      4  C   UNL     1       1.773   0.933   0.000  0.00  0.00    +0.000 C 
ATOM      5  C   UNL     1       2.487   0.521   0.000  0.00  0.00    +0.000 C 
ATOM      6  C   UNL     1       2.487  -0.304   0.000  0.00  0.00    +0.000 C 
ATOM      7  C   UNL     1       1.773  -0.717   0.000  0.00  0.00    +0.000 C 
ATOM      8  C   UNL     1       1.058  -0.304   0.000  0.00  0.00    +0.000 A 
ATOM      9  C   UNL     1       0.274  -0.559   0.000  0.00  0.00    +0.000 A 
ENDROOT
BRANCH   1  12
ATOM     10  O   UNL     1      -1.036   1.537   0.000  0.00  0.00    +0.000 OA
ATOM     11  C   UNL     1      -1.449   0.823   0.000  0.00  0.00    +0.000 C 
ATOM     12  N   UNL     1      -1.036   0.108   0.000  0.00  0.00    +0.000 NA
BRANCH  11  13
ATOM     13  C   UNL     1      -2.274   0.823   0.000  0.00  0.00    +0.000 C 
ATOM     14  C   UNL     1      -2.988   0.410   0.000  0.00  0.00    +0.000 C 
ATOM     15  C   UNL     1      -2.988   1.235   0.000  0.00  0.00    +0.000 C 
ENDBRANCH  11  13
ENDBRANCH   1  12
BRANCH   9  16
ATOM     16  C   UNL     1       0.019  -1.344   0.000  0.00  0.00    +0.000 C 
ATOM     17  O   UNL     1      -0.788  -1.515   0.000  0.00  0.00    +0.000 OA
ATOM     18  N   UNL     1       0.571  -1.957   0.000  0.00  0.00    +0.000 NA
ENDBRANCH   9  16
TORSDOF 3
