REMARK  Name = AYM
REMARK  4 active torsions:
REMARK  status: ('A' for Active; 'I' for Inactive)
REMARK    1  A    between atoms: C_5  and  C_8
REMARK    2  A    between atoms: C_9  and  C_10
REMARK    3  A    between atoms: N_12  and  C_14
REMARK    4  A    between atoms: C_14  and  C_15
REMARK                            x       y       z     vdW  Elec       q    Type
REMARK                         _______ _______ _______ _____ _____    ______ ____
ROOT
ATOM      1  C   UNL     1      -1.254  -0.800   0.000  0.00  0.00    +0.000 C 
ATOM      2  O   UNL     1      -1.666  -1.515   0.000  0.00  0.00    +0.000 OA
ATOM      3  N   UNL     1      -0.429  -0.800   0.000  0.00  0.00    +0.000 N 
ATOM      4  C   UNL     1      -0.016  -0.086   0.000  0.00  0.00    +0.000 C 
ENDROOT
BRANCH   1   6
ATOM      5  C   UNL     1      -1.254   0.629   0.000  0.00  0.00    +0.000 C 
ATOM      6  C   UNL     1      -1.666  -0.086   0.000  0.00  0.00    +0.000 C 
BRANCH   5  11
ATOM      7  N   UNL     1      -2.904   3.487   0.000  0.00  0.00    +0.000 NA
ATOM      8  C   UNL     1      -2.491   2.772   0.000  0.00  0.00    +0.000 A 
ATOM      9  N   UNL     1      -1.666   2.772   0.000  0.00  0.00    +0.000 NA
ATOM     10  C   UNL     1      -1.254   2.058   0.000  0.00  0.00    +0.000 A 
ATOM     11  C   UNL     1      -1.666   1.343   0.000  0.00  0.00    +0.000 A 
ATOM     12  C   UNL     1      -2.491   1.343   0.000  0.00  0.00    +0.000 A 
ATOM     13  C   UNL     1      -2.904   2.058   0.000  0.00  0.00    +0.000 A 
ENDBRANCH   5  11
ENDBRANCH   1   6
BRANCH   3  14
ATOM     14  C   UNL     1      -0.016  -1.515   0.000  0.00  0.00    +0.000 C 
BRANCH  14  15
ATOM     15  C   UNL     1       0.809  -1.515   0.000  0.00  0.00    +0.000 A 
ATOM     16  C   UNL     1       1.294  -2.182   0.000  0.00  0.00    +0.000 A 
ATOM     17  C   UNL     1       2.078  -1.927   0.000  0.00  0.00    +0.000 A 
ATOM     18  C   UNL     1       2.078  -1.102   0.000  0.00  0.00    +0.000 A 
ATOM     19  N   UNL     1       1.294  -0.847   0.000  0.00  0.00    +0.000 N 
ATOM     20  C   UNL     1       1.039  -0.063   0.000  0.00  0.00    +0.000 C 
ATOM     21  C   UNL     1       2.793  -2.340   0.000  0.00  0.00    +0.000 A 
ATOM     22  C   UNL     1       3.507  -1.927   0.000  0.00  0.00    +0.000 A 
ATOM     23  C   UNL     1       3.507  -1.102   0.000  0.00  0.00    +0.000 A 
ATOM     24  C   UNL     1       2.793  -0.690   0.000  0.00  0.00    +0.000 A 
ENDBRANCH  14  15
ENDBRANCH   3  14
TORSDOF 4
