REMARK  Name = AZL
REMARK  12 active torsions:
REMARK  status: ('A' for Active; 'I' for Inactive)
REMARK    1  A    between atoms: C_2  and  C_3
REMARK    2  A    between atoms: C_3  and  C_4
REMARK    3  A    between atoms: C_4  and  C_5
REMARK    4  A    between atoms: C_5  and  N_6
REMARK    5  A    between atoms: N_6  and  N_7
REMARK    6  A    between atoms: C_8  and  C_10
REMARK    7  A    between atoms: C_15  and  C_17
REMARK    8  A    between atoms: C_17  and  N_18
REMARK    9  A    between atoms: C_17  and  C_19
REMARK   10  A    between atoms: C_19  and  C_20
REMARK   11  A    between atoms: C_26  and  O_28
REMARK   12  A    between atoms: O_28  and  C_29
REMARK                            x       y       z     vdW  Elec       q    Type
REMARK                         _______ _______ _______ _____ _____    ______ ____
ROOT
ATOM      1  C   UNL     1       0.011  -0.926   0.000  0.00  0.00    +0.000 C 
ATOM      2  N   UNL     1       0.765  -0.590   0.000  0.00  0.00    +0.000 N 
ATOM      3  C   UNL     1       0.098  -1.746   0.000  0.00  0.00    +0.000 C 
ATOM      4  C   UNL     1       0.904  -1.918   0.000  0.00  0.00    +0.000 C 
ATOM      5  C   UNL     1       1.317  -1.203   0.000  0.00  0.00    +0.000 C 
ATOM      6  C   UNL     1       0.936   0.217   0.000  0.00  0.00    +0.000 C 
ATOM      7  O   UNL     1       0.323   0.769   0.000  0.00  0.00    +0.000 OA
ENDROOT
BRANCH   1   9
ATOM      8  N   UNL     1      -1.418  -0.926   0.000  0.00  0.00    +0.000 NA
ATOM      9  C   UNL     1      -0.703  -0.513   0.000  0.00  0.00    +0.000 C 
ATOM     10  O   UNL     1      -0.703   0.312   0.000  0.00  0.00    +0.000 OA
BRANCH   8  11
ATOM     11  N   UNL     1      -2.132  -0.513   0.000  0.00  0.00    +0.000 NA
BRANCH  11  12
ATOM     12  C   UNL     1      -2.847  -0.926   0.000  0.00  0.00    +0.000 C 
BRANCH  12  13
ATOM     13  C   UNL     1      -3.561  -0.513   0.000  0.00  0.00    +0.000 C 
BRANCH  13  14
ATOM     14  C   UNL     1      -4.276  -0.926   0.000  0.00  0.00    +0.000 C 
BRANCH  14  16
ATOM     15  N   UNL     1      -5.705  -0.926   0.000  0.00  0.00    +0.000 NA
ATOM     16  C   UNL     1      -4.990  -0.513   0.000  0.00  0.00    +0.000 C 
ENDBRANCH  14  16
ENDBRANCH  13  14
ENDBRANCH  12  13
ENDBRANCH  11  12
ENDBRANCH   8  11
ENDBRANCH   1   9
BRANCH   6  17
ATOM     17  C   UNL     1       1.721   0.472   0.000  0.00  0.00    +0.000 C 
BRANCH  17  18
ATOM     18  N   UNL     1       2.334  -0.080   0.000  0.00  0.00    +0.000 NA
ATOM     19  C   UNL     1       3.119   0.175   0.000  0.00  0.00    +0.000 C 
ATOM     20  O   UNL     1       3.290   0.982   0.000  0.00  0.00    +0.000 OA
BRANCH  19  21
ATOM     21  O   UNL     1       3.732  -0.377   0.000  0.00  0.00    +0.000 OA
BRANCH  21  22
ATOM     22  C   UNL     1       4.516  -0.122   0.000  0.00  0.00    +0.000 C 
ATOM     23  C   UNL     1       4.688   0.685   0.000  0.00  0.00    +0.000 C 
ENDBRANCH  21  22
ENDBRANCH  19  21
ENDBRANCH  17  18
BRANCH  17  24
ATOM     24  C   UNL     1       1.893   1.279   0.000  0.00  0.00    +0.000 C 
BRANCH  24  25
ATOM     25  C   UNL     1       1.280   1.831   0.000  0.00  0.00    +0.000 A 
ATOM     26  C   UNL     1       0.495   1.576   0.000  0.00  0.00    +0.000 A 
ATOM     27  C   UNL     1      -0.118   2.128   0.000  0.00  0.00    +0.000 A 
ATOM     28  C   UNL     1       0.053   2.935   0.000  0.00  0.00    +0.000 A 
ATOM     29  C   UNL     1       0.838   3.190   0.000  0.00  0.00    +0.000 A 
ATOM     30  C   UNL     1       1.451   2.638   0.000  0.00  0.00    +0.000 A 
ENDBRANCH  24  25
ENDBRANCH  17  24
ENDBRANCH   6  17
TORSDOF 12
