REMARK  Name = AZQ
REMARK  2 active torsions:
REMARK  status: ('A' for Active; 'I' for Inactive)
REMARK    1  A    between atoms: C_2  and  C_15
REMARK    2  A    between atoms: C_15  and  C_16
REMARK                            x       y       z     vdW  Elec       q    Type
REMARK                         _______ _______ _______ _____ _____    ______ ____
ROOT
ATOM      1  C   UNL     1      -0.284  -0.920   0.000  0.00  0.00    +0.000 C 
ATOM      2  C   UNL     1      -1.048  -0.609   0.000  0.00  0.00    +0.000 C 
ATOM      3  C   UNL     1      -0.988   0.214   0.000  0.00  0.00    +0.000 C 
ATOM      4  N   UNL     1      -0.186   0.411   0.000  0.00  0.00    +0.000 N 
ATOM      5  C   UNL     1       0.203   1.138   0.000  0.00  0.00    +0.000 C 
ATOM      6  N   UNL     1       1.028   1.164   0.000  0.00  0.00    +0.000 NA
ATOM      7  C   UNL     1       1.463   0.463   0.000  0.00  0.00    +0.000 A 
ATOM      8  C   UNL     1       2.287   0.488   0.000  0.00  0.00    +0.000 A 
ATOM      9  C   UNL     1       2.722  -0.213   0.000  0.00  0.00    +0.000 A 
ATOM     10  C   UNL     1       2.332  -0.940   0.000  0.00  0.00    +0.000 A 
ATOM     11  C   UNL     1       1.507  -0.966   0.000  0.00  0.00    +0.000 A 
ATOM     12  C   UNL     1       1.073  -0.265   0.000  0.00  0.00    +0.000 A 
ATOM     13  N   UNL     1       0.248  -0.290   0.000  0.00  0.00    +0.000 N 
ATOM     14  O   UNL     1      -0.088  -1.722   0.000  0.00  0.00    +0.000 OA
ATOM     15  O   UNL     1      -1.618   0.747   0.000  0.00  0.00    +0.000 OA
ATOM     16  N   UNL     1      -0.231   1.839   0.000  0.00  0.00    +0.000 N 
ATOM     17  C   UNL     1       0.159   2.566   0.000  0.00  0.00    +0.000 C 
ATOM     18  C   UNL     1      -1.056   1.813   0.000  0.00  0.00    +0.000 C 
ATOM     19  C   UNL     1       2.767  -1.641   0.000  0.00  0.00    +0.000 C 
ENDROOT
BRANCH   2  20
ATOM     20  C   UNL     1      -1.750  -1.043   0.000  0.00  0.00    +0.000 C 
BRANCH  20  21
ATOM     21  C   UNL     1      -2.477  -0.653   0.000  0.00  0.00    +0.000 C 
ATOM     22  C   UNL     1      -3.178  -1.088   0.000  0.00  0.00    +0.000 C 
ENDBRANCH  20  21
ENDBRANCH   2  20
TORSDOF 2
