REMARK  Name = AZX
REMARK  6 active torsions:
REMARK  status: ('A' for Active; 'I' for Inactive)
REMARK    1  A    between atoms: C_2  and  C_5
REMARK    2  A    between atoms: C_5  and  C_8
REMARK    3  A    between atoms: N_10  and  C_11
REMARK    4  A    between atoms: C_17  and  S_18
REMARK    5  A    between atoms: S_18  and  C_21
REMARK    6  A    between atoms: C_26  and  C_27
REMARK                            x       y       z     vdW  Elec       q    Type
REMARK                         _______ _______ _______ _____ _____    ______ ____
ROOT
ATOM      1  C   UNL     1      -1.059   1.250   0.000  0.00  0.00    +0.000 A 
ATOM      2  C   UNL     1      -0.344   1.663   0.000  0.00  0.00    +0.000 A 
ATOM      3  C   UNL     1       0.370   1.250   0.000  0.00  0.00    +0.000 A 
ATOM      4  C   UNL     1      -1.059   0.425   0.000  0.00  0.00    +0.000 A 
ATOM      5 CL   UNL     1      -1.773   0.013   0.000  0.00  0.00    +0.000 Cl
ATOM      6  C   UNL     1      -0.344   0.013   0.000  0.00  0.00    +0.000 A 
ATOM      7  C   UNL     1       0.370   0.425   0.000  0.00  0.00    +0.000 A 
ENDROOT
BRANCH   1  10
ATOM      8  C   UNL     1      -2.488   1.250   0.000  0.00  0.00    +0.000 C 
ATOM      9  O   UNL     1      -2.488   0.425   0.000  0.00  0.00    +0.000 OA
ATOM     10  N   UNL     1      -1.773   1.663   0.000  0.00  0.00    +0.000 NA
BRANCH   8  11
ATOM     11  C   UNL     1      -3.202   1.663   0.000  0.00  0.00    +0.000 C 
ATOM     12  O   UNL     1      -2.790   2.377   0.000  0.00  0.00    +0.000 OA
ATOM     13  C   UNL     1      -3.615   0.948   0.000  0.00  0.00    +0.000 C 
BRANCH  11  15
ATOM     14  F   UNL     1      -4.631   2.488   0.000  0.00  0.00    +0.000 F 
ATOM     15  C   UNL     1      -3.917   2.075   0.000  0.00  0.00    +0.000 C 
ATOM     16  F   UNL     1      -4.329   1.361   0.000  0.00  0.00    +0.000 F 
ATOM     17  F   UNL     1      -3.504   2.790   0.000  0.00  0.00    +0.000 F 
ENDBRANCH  11  15
ENDBRANCH   8  11
ENDBRANCH   1  10
BRANCH   7  18
ATOM     18  S   UNL     1       1.085   0.013   0.000  0.00  0.00    +0.000 S 
ATOM     19  O   UNL     1       0.672  -0.702   0.000  0.00  0.00    +0.000 OA
ATOM     20  O   UNL     1       1.497   0.727   0.000  0.00  0.00    +0.000 OA
BRANCH  18  21
ATOM     21  C   UNL     1       1.799  -0.400   0.000  0.00  0.00    +0.000 A 
ATOM     22  C   UNL     1       1.799  -1.225   0.000  0.00  0.00    +0.000 A 
ATOM     23  C   UNL     1       2.514  -1.637   0.000  0.00  0.00    +0.000 A 
ATOM     24  C   UNL     1       2.514   0.013   0.000  0.00  0.00    +0.000 A 
ATOM     25  C   UNL     1       3.228  -0.400   0.000  0.00  0.00    +0.000 A 
ATOM     26  C   UNL     1       3.228  -1.225   0.000  0.00  0.00    +0.000 A 
BRANCH  26  27
ATOM     27  C   UNL     1       3.943  -1.637   0.000  0.00  0.00    +0.000 C 
ATOM     28  O   UNL     1       4.657  -1.225   0.000  0.00  0.00    +0.000 OA
ATOM     29  N   UNL     1       3.943  -2.462   0.000  0.00  0.00    +0.000 N 
ATOM     30  C   UNL     1       4.657  -2.875   0.000  0.00  0.00    +0.000 C 
ATOM     31  C   UNL     1       3.228  -2.875   0.000  0.00  0.00    +0.000 C 
ENDBRANCH  26  27
ENDBRANCH  18  21
ENDBRANCH   7  18
TORSDOF 6
