REMARK  Name = B11
REMARK  8 active torsions:
REMARK  status: ('A' for Active; 'I' for Inactive)
REMARK    1  A    between atoms: C_5  and  C_8
REMARK    2  A    between atoms: C_8  and  N_9
REMARK    3  A    between atoms: N_9  and  C_10
REMARK    4  A    between atoms: N_13  and  S_16
REMARK    5  A    between atoms: S_16  and  N_17
REMARK    6  A    between atoms: N_17  and  C_20
REMARK    7  A    between atoms: C_22  and  O_26
REMARK    8  A    between atoms: O_26  and  C_27
REMARK                            x       y       z     vdW  Elec       q    Type
REMARK                         _______ _______ _______ _____ _____    ______ ____
ROOT
ATOM      1  S   UNL     1       0.146  -1.303   0.000  0.00  0.00    +0.000 S 
ATOM      2  O   UNL     1      -0.267  -0.589   0.000  0.00  0.00    +0.000 OA
ATOM      3  O   UNL     1       0.558  -2.017   0.000  0.00  0.00    +0.000 OA
ENDROOT
BRANCH   1   7
ATOM      4  C   UNL     1       2.289  -0.065   0.000  0.00  0.00    +0.000 C 
ATOM      5  C   UNL     1       2.289  -0.890   0.000  0.00  0.00    +0.000 C 
ATOM      6  C   UNL     1       1.575  -1.303   0.000  0.00  0.00    +0.000 C 
ATOM      7  N   UNL     1       0.860  -0.890   0.000  0.00  0.00    +0.000 NA
ATOM      8  C   UNL     1       0.860  -0.065   0.000  0.00  0.00    +0.000 C 
ATOM      9  C   UNL     1       1.575   0.347   0.000  0.00  0.00    +0.000 C 
BRANCH   4  10
ATOM     10  N   UNL     1       3.003   0.347   0.000  0.00  0.00    +0.000 NA
BRANCH  10  11
ATOM     11  C   UNL     1       3.003   1.172   0.000  0.00  0.00    +0.000 C 
BRANCH  11  16
ATOM     12  C   UNL     1       4.432   2.822   0.000  0.00  0.00    +0.000 A 
ATOM     13  C   UNL     1       5.147   2.410   0.000  0.00  0.00    +0.000 A 
ATOM     14  C   UNL     1       5.147   1.585   0.000  0.00  0.00    +0.000 A 
ATOM     15  C   UNL     1       4.432   1.172   0.000  0.00  0.00    +0.000 A 
ATOM     16  C   UNL     1       3.718   1.585   0.000  0.00  0.00    +0.000 A 
ATOM     17  C   UNL     1       3.718   2.410   0.000  0.00  0.00    +0.000 A 
ATOM     18  O   UNL     1       3.003   2.822   0.000  0.00  0.00    +0.000 OA
ENDBRANCH  11  16
ENDBRANCH  10  11
ENDBRANCH   4  10
ENDBRANCH   1   7
BRANCH   1  19
ATOM     19  N   UNL     1      -0.569  -1.715   0.000  0.00  0.00    +0.000 NA
BRANCH  19  20
ATOM     20  C   UNL     1      -1.283  -1.303   0.000  0.00  0.00    +0.000 A 
ATOM     21  C   UNL     1      -1.998  -1.715   0.000  0.00  0.00    +0.000 A 
ATOM     22  C   UNL     1      -2.712  -1.303   0.000  0.00  0.00    +0.000 A 
ATOM     23  C   UNL     1      -2.712  -0.478   0.000  0.00  0.00    +0.000 A 
ATOM     24  C   UNL     1      -1.998  -0.065   0.000  0.00  0.00    +0.000 A 
ATOM     25  C   UNL     1      -1.283  -0.478   0.000  0.00  0.00    +0.000 A 
BRANCH  22  26
ATOM     26  O   UNL     1      -3.427  -1.715   0.000  0.00  0.00    +0.000 OA
BRANCH  26  27
ATOM     27  C   UNL     1      -4.141  -1.303   0.000  0.00  0.00    +0.000 A 
ATOM     28  C   UNL     1      -4.856  -1.715   0.000  0.00  0.00    +0.000 A 
ATOM     29  C   UNL     1      -5.570  -1.303   0.000  0.00  0.00    +0.000 A 
ATOM     30  C   UNL     1      -5.570  -0.478   0.000  0.00  0.00    +0.000 A 
ATOM     31  C   UNL     1      -4.856  -0.065   0.000  0.00  0.00    +0.000 A 
ATOM     32  C   UNL     1      -4.141  -0.478   0.000  0.00  0.00    +0.000 A 
ATOM     33  F   UNL     1      -6.285  -0.065   0.000  0.00  0.00    +0.000 F 
ENDBRANCH  26  27
ENDBRANCH  22  26
ENDBRANCH  19  20
ENDBRANCH   1  19
TORSDOF 8
