REMARK  Name = B14
REMARK  2 active torsions:
REMARK  status: ('A' for Active; 'I' for Inactive)
REMARK    1  A    between atoms: C_18  and  C_21
REMARK    2  A    between atoms: C_24  and  C_27
REMARK                            x       y       z     vdW  Elec       q    Type
REMARK                         _______ _______ _______ _____ _____    ______ ____
ROOT
ATOM      1  C   UNL     1      -2.398  -0.311   0.000  0.00  0.00    +0.000 A 
ATOM      2  C   UNL     1      -3.199  -0.113   0.000  0.00  0.00    +0.000 A 
ATOM      3  C   UNL     1      -3.428   0.679   0.000  0.00  0.00    +0.000 A 
ATOM      4  C   UNL     1      -2.856   1.274   0.000  0.00  0.00    +0.000 A 
ATOM      5  C   UNL     1      -2.055   1.076   0.000  0.00  0.00    +0.000 A 
ATOM      6  C   UNL     1      -1.483   1.670   0.000  0.00  0.00    +0.000 C 
ATOM      7  N   UNL     1      -0.682   1.472   0.000  0.00  0.00    +0.000 NA
ATOM      8  C   UNL     1      -0.453   0.679   0.000  0.00  0.00    +0.000 C 
ATOM      9  N   UNL     1      -1.025   0.085   0.000  0.00  0.00    +0.000 NA
ATOM     10  C   UNL     1      -1.826   0.283   0.000  0.00  0.00    +0.000 A 
ATOM     11  F   UNL     1      -3.085   2.066   0.000  0.00  0.00    +0.000 F 
ATOM     12  F   UNL     1      -2.169  -1.104   0.000  0.00  0.00    +0.000 F 
ATOM     13  C   UNL     1       0.119   1.274   0.000  0.00  0.00    +0.000 C 
ATOM     14  C   UNL     1       0.920   1.076   0.000  0.00  0.00    +0.000 C 
ATOM     15  N   UNL     1       1.148   0.283   0.000  0.00  0.00    +0.000 N 
ATOM     16  C   UNL     1       0.576  -0.311   0.000  0.00  0.00    +0.000 C 
ATOM     17  C   UNL     1      -0.225  -0.113   0.000  0.00  0.00    +0.000 C 
ATOM     18  C   UNL     1       1.949   0.085   0.000  0.00  0.00    +0.000 C 
ATOM     19  O   UNL     1       2.521   0.679   0.000  0.00  0.00    +0.000 OA
ATOM     20  N   UNL     1      -1.712   2.463   0.000  0.00  0.00    +0.000 NA
ENDROOT
BRANCH  18  21
ATOM     21  C   UNL     1       2.178  -0.708   0.000  0.00  0.00    +0.000 A 
ATOM     22  C   UNL     1       2.979  -0.906   0.000  0.00  0.00    +0.000 A 
ATOM     23  N   UNL     1       3.208  -1.699   0.000  0.00  0.00    +0.000 NA
ATOM     24  C   UNL     1       2.636  -2.293   0.000  0.00  0.00    +0.000 A 
ATOM     25  C   UNL     1       1.835  -2.095   0.000  0.00  0.00    +0.000 A 
ATOM     26  C   UNL     1       1.606  -1.302   0.000  0.00  0.00    +0.000 A 
BRANCH  24  27
ATOM     27  C   UNL     1       2.865  -3.086   0.000  0.00  0.00    +0.000 C 
ATOM     28  N   UNL     1       3.093  -3.878   0.000  0.00  0.00    +0.000 NA
ENDBRANCH  24  27
ENDBRANCH  18  21
TORSDOF 2
