REMARK  Name = B18
REMARK  5 active torsions:
REMARK  status: ('A' for Active; 'I' for Inactive)
REMARK    1  A    between atoms: C_1  and  C_15
REMARK    2  A    between atoms: C_21  and  C_23
REMARK    3  A    between atoms: N_24  and  C_26
REMARK    4  A    between atoms: C_26  and  C_27
REMARK    5  A    between atoms: C_27  and  N_28
REMARK                            x       y       z     vdW  Elec       q    Type
REMARK                         _______ _______ _______ _____ _____    ______ ____
ROOT
ATOM      1  C   UNL     1      -1.313   1.383   0.000  0.00  0.00    +0.000 C 
ATOM      2  O   UNL     1      -0.978   2.136   0.000  0.00  0.00    +0.000 OA
ATOM      3  N   UNL     1      -0.828   0.715   0.000  0.00  0.00    +0.000 NA
ATOM      4  C   UNL     1      -0.008   0.801   0.000  0.00  0.00    +0.000 A 
ATOM      5  S   UNL     1       0.405   1.516   0.000  0.00  0.00    +0.000 S 
ATOM      6  C   UNL     1       1.212   1.344   0.000  0.00  0.00    +0.000 A 
ATOM      7  C   UNL     1       1.298   0.524   0.000  0.00  0.00    +0.000 A 
ATOM      8  N   UNL     1       0.544   0.188   0.000  0.00  0.00    +0.000 NA
ENDROOT
BRANCH   1   9
ATOM      9  C   UNL     1      -2.134   1.296   0.000  0.00  0.00    +0.000 A 
ATOM     10  C   UNL     1      -2.469   0.543   0.000  0.00  0.00    +0.000 A 
ATOM     11  C   UNL     1      -3.290   0.456   0.000  0.00  0.00    +0.000 A 
ATOM     12  C   UNL     1      -3.775   1.124   0.000  0.00  0.00    +0.000 A 
ATOM     13  C   UNL     1      -3.439   1.878   0.000  0.00  0.00    +0.000 A 
ATOM     14  C   UNL     1      -2.619   1.964   0.000  0.00  0.00    +0.000 A 
ATOM     15  C   UNL     1      -3.775  -0.211   0.000  0.00  0.00    +0.000 A 
ATOM     16  C   UNL     1      -4.559   0.044   0.000  0.00  0.00    +0.000 A 
ATOM     17  N   UNL     1      -4.559   0.869   0.000  0.00  0.00    +0.000 NA
ATOM     18  C   UNL     1      -3.603  -1.018   0.000  0.00  0.00    +0.000 C 
ATOM     19  C   UNL     1      -4.216  -1.570   0.000  0.00  0.00    +0.000 C 
ATOM     20  N   UNL     1      -5.001  -1.315   0.000  0.00  0.00    +0.000 NA
ATOM     21  C   UNL     1      -5.172  -0.508   0.000  0.00  0.00    +0.000 C 
ATOM     22  O   UNL     1      -5.957  -0.253   0.000  0.00  0.00    +0.000 OA
ATOM     23  C   UNL     1      -2.818  -1.273   0.000  0.00  0.00    +0.000 C 
ENDBRANCH   1   9
BRANCH   7  24
ATOM     24  C   UNL     1       2.013   0.111   0.000  0.00  0.00    +0.000 C 
ATOM     25  N   UNL     1       2.727   0.524   0.000  0.00  0.00    +0.000 NA
ATOM     26  O   UNL     1       2.013  -0.714   0.000  0.00  0.00    +0.000 OA
BRANCH  25  27
ATOM     27  C   UNL     1       3.442   0.111   0.000  0.00  0.00    +0.000 C 
BRANCH  27  28
ATOM     28  C   UNL     1       4.156   0.524   0.000  0.00  0.00    +0.000 C 
BRANCH  28  29
ATOM     29  N   UNL     1       4.870   0.111   0.000  0.00  0.00    +0.000 NA
ATOM     30  C   UNL     1       5.585   0.524   0.000  0.00  0.00    +0.000 C 
ATOM     31  C   UNL     1       4.870  -0.714   0.000  0.00  0.00    +0.000 C 
ENDBRANCH  28  29
ENDBRANCH  27  28
ENDBRANCH  25  27
ENDBRANCH   7  24
TORSDOF 5
