REMARK  Name = B1L
REMARK  5 active torsions:
REMARK  status: ('A' for Active; 'I' for Inactive)
REMARK    1  A    between atoms: C_5  and  C_8
REMARK    2  A    between atoms: N_10  and  C_11
REMARK    3  A    between atoms: C_12  and  O_18
REMARK    4  A    between atoms: O_18  and  C_19
REMARK    5  A    between atoms: C_19  and  C_21
REMARK                            x       y       z     vdW  Elec       q    Type
REMARK                         _______ _______ _______ _____ _____    ______ ____
ROOT
ATOM      1  C   UNL     1      -0.727  -1.057   0.000  0.00  0.00    +0.000 C 
ATOM      2  C   UNL     1       0.016  -1.415   0.000  0.00  0.00    +0.000 C 
ATOM      3  C   UNL     1       0.200  -2.219   0.000  0.00  0.00    +0.000 C 
ATOM      4  C   UNL     1      -0.314  -2.864   0.000  0.00  0.00    +0.000 C 
ATOM      5  C   UNL     1      -1.139  -2.864   0.000  0.00  0.00    +0.000 C 
ATOM      6  N   UNL     1      -1.654  -2.219   0.000  0.00  0.00    +0.000 NA
ATOM      7  C   UNL     1      -1.470  -1.415   0.000  0.00  0.00    +0.000 C 
ENDROOT
BRANCH   1  10
ATOM      8  C   UNL     1      -1.441   0.181   0.000  0.00  0.00    +0.000 C 
ATOM      9  O   UNL     1      -2.156  -0.232   0.000  0.00  0.00    +0.000 OA
ATOM     10  N   UNL     1      -0.727  -0.232   0.000  0.00  0.00    +0.000 NA
BRANCH   8  15
ATOM     11  O   UNL     1      -1.441   3.481   0.000  0.00  0.00    +0.000 OA
ATOM     12  C   UNL     1      -1.441   2.656   0.000  0.00  0.00    +0.000 A 
ATOM     13  C   UNL     1      -0.727   2.243   0.000  0.00  0.00    +0.000 A 
ATOM     14  C   UNL     1      -0.727   1.418   0.000  0.00  0.00    +0.000 A 
ATOM     15  C   UNL     1      -1.441   1.006   0.000  0.00  0.00    +0.000 A 
ATOM     16  C   UNL     1      -2.156   1.418   0.000  0.00  0.00    +0.000 A 
ATOM     17  C   UNL     1      -2.156   2.243   0.000  0.00  0.00    +0.000 A 
ENDBRANCH   8  15
ENDBRANCH   1  10
BRANCH   2  18
ATOM     18  O   UNL     1       0.661  -0.900   0.000  0.00  0.00    +0.000 OA
BRANCH  18  19
ATOM     19  C   UNL     1       0.538  -0.084   0.000  0.00  0.00    +0.000 C 
ATOM     20  O   UNL     1      -0.230   0.217   0.000  0.00  0.00    +0.000 OA
BRANCH  19  21
ATOM     21  C   UNL     1       1.183   0.430   0.000  0.00  0.00    +0.000 A 
ATOM     22  C   UNL     1       1.060   1.246   0.000  0.00  0.00    +0.000 A 
ATOM     23  C   UNL     1       1.706   1.760   0.000  0.00  0.00    +0.000 A 
ATOM     24  C   UNL     1       2.474   1.459   0.000  0.00  0.00    +0.000 A 
ATOM     25  C   UNL     1       2.596   0.643   0.000  0.00  0.00    +0.000 A 
ATOM     26  C   UNL     1       1.951   0.129   0.000  0.00  0.00    +0.000 A 
ATOM     27  O   UNL     1       3.119   1.973   0.000  0.00  0.00    +0.000 OA
ENDBRANCH  19  21
ENDBRANCH  18  19
ENDBRANCH   2  18
TORSDOF 5
