REMARK  Name = B21
REMARK  3 active torsions:
REMARK  status: ('A' for Active; 'I' for Inactive)
REMARK    1  A    between atoms: O_2  and  C_3
REMARK    2  A    between atoms: C_8  and  C_9
REMARK    3  A    between atoms: C_13  and  C_14
REMARK                            x       y       z     vdW  Elec       q    Type
REMARK                         _______ _______ _______ _____ _____    ______ ____
ROOT
ATOM      1  C   UNL     1      -0.000   0.894   0.000  0.00  0.00    +0.000 A 
ATOM      2  C   UNL     1      -0.000   1.719   0.000  0.00  0.00    +0.000 A 
ATOM      3  C   UNL     1      -0.715   2.131   0.000  0.00  0.00    +0.000 A 
ATOM      4  C   UNL     1      -1.429   1.719   0.000  0.00  0.00    +0.000 A 
ATOM      5  C   UNL     1      -1.429   0.894   0.000  0.00  0.00    +0.000 A 
ATOM      6  C   UNL     1      -0.715   0.481   0.000  0.00  0.00    +0.000 A 
ENDROOT
BRANCH   6   7
ATOM      7  C   UNL     1      -0.715  -0.344   0.000  0.00  0.00    +0.000 A 
ATOM      8  O   UNL     1      -0.047  -0.829   0.000  0.00  0.00    +0.000 OA
ATOM      9  C   UNL     1      -1.382  -0.829   0.000  0.00  0.00    +0.000 A 
ATOM     10  C   UNL     1      -1.127  -1.613   0.000  0.00  0.00    +0.000 A 
ATOM     11  C   UNL     1      -0.302  -1.613   0.000  0.00  0.00    +0.000 A 
BRANCH  11  12
ATOM     12  C   UNL     1       0.183  -2.281   0.000  0.00  0.00    +0.000 C 
ATOM     13  O   UNL     1       1.003  -2.195   0.000  0.00  0.00    +0.000 OA
ATOM     14  O   UNL     1      -0.153  -3.034   0.000  0.00  0.00    +0.000 OA
ENDBRANCH  11  12
ENDBRANCH   6   7
BRANCH   1  16
ATOM     15  C   UNL     1       1.429   0.894   0.000  0.00  0.00    +0.000 C 
ATOM     16  O   UNL     1       0.714   0.481   0.000  0.00  0.00    +0.000 OA
ENDBRANCH   1  16
TORSDOF 3
