REMARK  Name = B23
REMARK  3 active torsions:
REMARK  status: ('A' for Active; 'I' for Inactive)
REMARK    1  A    between atoms: C_2  and  C_4
REMARK    2  A    between atoms: C_8  and  C_9
REMARK    3  A    between atoms: C_14  and  N_15
REMARK                            x       y       z     vdW  Elec       q    Type
REMARK                         _______ _______ _______ _____ _____    ______ ____
ROOT
ATOM      1  C   UNL     1       0.209  -0.635   0.000  0.00  0.00    +0.000 A 
ATOM      2  C   UNL     1       1.029  -0.548   0.000  0.00  0.00    +0.000 A 
ATOM      3  C   UNL     1       1.514  -1.216   0.000  0.00  0.00    +0.000 A 
ATOM      4  C   UNL     1       1.179  -1.970   0.000  0.00  0.00    +0.000 A 
ATOM      5  C   UNL     1       0.358  -2.056   0.000  0.00  0.00    +0.000 A 
ATOM      6  C   UNL     1      -0.127  -1.388   0.000  0.00  0.00    +0.000 A 
ENDROOT
BRANCH   1  11
ATOM      7  C   UNL     1      -0.689   1.302   0.000  0.00  0.00    +0.000 A 
ATOM      8  O   UNL     1      -0.021   0.817   0.000  0.00  0.00    +0.000 OA
ATOM      9  C   UNL     1      -1.356   0.817   0.000  0.00  0.00    +0.000 A 
ATOM     10  C   UNL     1      -1.101   0.033   0.000  0.00  0.00    +0.000 A 
ATOM     11  C   UNL     1      -0.276   0.033   0.000  0.00  0.00    +0.000 A 
BRANCH   7  13
ATOM     12  O   UNL     1      -1.403   2.540   0.000  0.00  0.00    +0.000 OA
ATOM     13  C   UNL     1      -0.689   2.127   0.000  0.00  0.00    +0.000 C 
ATOM     14  O   UNL     1       0.026   2.540   0.000  0.00  0.00    +0.000 OA
ENDBRANCH   7  13
ENDBRANCH   1  11
BRANCH   6  15
ATOM     15  N   UNL     1      -0.947  -1.474   0.000  0.00  0.00    +0.000 N 
ATOM     16  O   UNL     1      -1.283  -2.228   0.000  0.00  0.00    +0.000 OA
ATOM     17  O   UNL     1      -1.432  -0.807   0.000  0.00  0.00    +0.000 OA
ENDBRANCH   6  15
TORSDOF 3
