REMARK  Name = B29
REMARK  5 active torsions:
REMARK  status: ('A' for Active; 'I' for Inactive)
REMARK    1  A    between atoms: C_13  and  C_14
REMARK    2  A    between atoms: C_19  and  C_20
REMARK    3  A    between atoms: C_20  and  C_21
REMARK    4  A    between atoms: C_21  and  P_22
REMARK    5  A    between atoms: C_21  and  P_26
REMARK                            x       y       z     vdW  Elec       q    Type
REMARK                         _______ _______ _______ _____ _____    ______ ____
ROOT
ATOM      1  C   UNL     1       0.904   1.577   0.000  0.00  0.00    +0.000 A 
ATOM      2  C   UNL     1       1.456   2.190   0.000  0.00  0.00    +0.000 A 
ATOM      3  C   UNL     1       0.097   1.748   0.000  0.00  0.00    +0.000 A 
ATOM      4  C   UNL     1      -0.158   2.533   0.000  0.00  0.00    +0.000 A 
ATOM      5  C   UNL     1       0.394   3.146   0.000  0.00  0.00    +0.000 A 
ATOM      6  C   UNL     1       1.201   2.974   0.000  0.00  0.00    +0.000 A 
ENDROOT
BRANCH   1  19
ATOM      7  C   UNL     1       3.046  -0.164   0.000  0.00  0.00    +0.000 A 
ATOM      8  C   UNL     1       3.598  -0.777   0.000  0.00  0.00    +0.000 A 
ATOM      9  C   UNL     1       4.405  -0.606   0.000  0.00  0.00    +0.000 A 
ATOM     10  C   UNL     1       4.660   0.179   0.000  0.00  0.00    +0.000 A 
ATOM     11  C   UNL     1       4.108   0.792   0.000  0.00  0.00    +0.000 A 
ATOM     12  C   UNL     1       3.301   0.620   0.000  0.00  0.00    +0.000 A 
ATOM     13  O   UNL     1       2.633   1.105   0.000  0.00  0.00    +0.000 OA
ATOM     14  C   UNL     1       1.966   0.620   0.000  0.00  0.00    +0.000 A 
ATOM     15  C   UNL     1       2.221  -0.164   0.000  0.00  0.00    +0.000 A 
ATOM     16  C   UNL     1       1.669  -0.777   0.000  0.00  0.00    +0.000 A 
ATOM     17  C   UNL     1       0.862  -0.606   0.000  0.00  0.00    +0.000 A 
ATOM     18  C   UNL     1       0.607   0.179   0.000  0.00  0.00    +0.000 A 
ATOM     19  C   UNL     1       1.159   0.792   0.000  0.00  0.00    +0.000 A 
ENDBRANCH   1  19
BRANCH   6  20
ATOM     20  C   UNL     1       1.753   3.587   0.000  0.00  0.00    +0.000 C 
BRANCH  20  21
ATOM     21  C   UNL     1       1.498   4.372   0.000  0.00  0.00    +0.000 C 
ATOM     22  O   UNL     1       1.243   5.157   0.000  0.00  0.00    +0.000 OA
BRANCH  21  23
ATOM     23  P   UNL     1       2.283   4.627   0.000  0.00  0.00    +0.000 P 
ATOM     24  O   UNL     1       3.067   4.882   0.000  0.00  0.00    +0.000 OA
ATOM     25  O   UNL     1       2.028   5.412   0.000  0.00  0.00    +0.000 OA
ATOM     26  O   UNL     1       2.538   3.842   0.000  0.00  0.00    +0.000 OA
ENDBRANCH  21  23
BRANCH  21  27
ATOM     27  P   UNL     1       0.714   4.117   0.000  0.00  0.00    +0.000 P 
ATOM     28  O   UNL     1       0.459   4.902   0.000  0.00  0.00    +0.000 OA
ATOM     29  O   UNL     1      -0.071   3.862   0.000  0.00  0.00    +0.000 OA
ATOM     30  O   UNL     1       0.969   3.332   0.000  0.00  0.00    +0.000 OA
ENDBRANCH  21  27
ENDBRANCH  20  21
ENDBRANCH   6  20
TORSDOF 5
