REMARK  Name = B2F
REMARK  3 active torsions:
REMARK  status: ('A' for Active; 'I' for Inactive)
REMARK    1  A    between atoms: C_2  and  C_3
REMARK    2  A    between atoms: C_2  and  B_10
REMARK    3  A    between atoms: C_3  and  C_4
REMARK                            x       y       z     vdW  Elec       q    Type
REMARK                         _______ _______ _______ _____ _____    ______ ____
ROOT
ATOM      1  C   UNL     1       0.559  -0.030   0.000  0.00  0.00    +0.000 C 
ENDROOT
BRANCH   1   2
ATOM      2  C   UNL     1      -0.155  -0.443   0.000  0.00  0.00    +0.000 A 
ATOM      3  C   UNL     1      -0.155  -1.268   0.000  0.00  0.00    +0.000 A 
ATOM      4  C   UNL     1      -0.870  -0.030   0.000  0.00  0.00    +0.000 A 
ATOM      5  C   UNL     1      -0.870  -1.680   0.000  0.00  0.00    +0.000 A 
ATOM      6  C   UNL     1      -1.584  -0.443   0.000  0.00  0.00    +0.000 A 
ATOM      7  C   UNL     1      -1.584  -1.268   0.000  0.00  0.00    +0.000 A 
ENDBRANCH   1   2
BRANCH   1   9
ATOM      8  N   UNL     1      -0.155   1.207   0.000  0.00  0.00    +0.000 NA
ATOM      9  C   UNL     1       0.559   0.795   0.000  0.00  0.00    +0.000 C 
BRANCH   9  10
ATOM     10  B   UNL     1       1.274   1.207   0.000  0.00  0.00    +0.000 B 
ATOM     11  O   UNL     1       1.274   2.032   0.000  0.00  0.00    +0.000 OA
ATOM     12  O   UNL     1       1.988   0.795   0.000  0.00  0.00    +0.000 OA
ENDBRANCH   9  10
ENDBRANCH   1   9
TORSDOF 3
