REMARK  Name = B2Y
REMARK  2 active torsions:
REMARK  status: ('A' for Active; 'I' for Inactive)
REMARK    1  A    between atoms: C_6  and  C_11
REMARK    2  A    between atoms: C_9  and  C_10
REMARK                            x       y       z     vdW  Elec       q    Type
REMARK                         _______ _______ _______ _____ _____    ______ ____
ROOT
ATOM      1  C   UNL     1       1.182   1.006   0.000  0.00  0.00    +0.000 A 
ATOM      2  C   UNL     1       1.897   0.594   0.000  0.00  0.00    +0.000 A 
ATOM      3  C   UNL     1       1.897  -0.231   0.000  0.00  0.00    +0.000 A 
ATOM      4  C   UNL     1       1.182  -0.644   0.000  0.00  0.00    +0.000 A 
ATOM      5  C   UNL     1       0.468  -0.231   0.000  0.00  0.00    +0.000 A 
ATOM      6  C   UNL     1       0.468   0.594   0.000  0.00  0.00    +0.000 A 
ENDROOT
BRANCH   5   9
ATOM      7  C   UNL     1      -0.961  -0.231   0.000  0.00  0.00    +0.000 A 
ATOM      8  C   UNL     1      -0.961  -1.881   0.000  0.00  0.00    +0.000 A 
ATOM      9  C   UNL     1      -0.247  -0.644   0.000  0.00  0.00    +0.000 A 
ATOM     10  C   UNL     1      -1.676  -0.644   0.000  0.00  0.00    +0.000 A 
ATOM     11  C   UNL     1      -1.676  -1.469   0.000  0.00  0.00    +0.000 A 
ATOM     12  C   UNL     1      -0.247  -1.469   0.000  0.00  0.00    +0.000 A 
ENDBRANCH   5   9
BRANCH   6  14
ATOM     13  N   UNL     1      -0.247   1.831   0.000  0.00  0.00    +0.000 NA
ATOM     14  C   UNL     1      -0.247   1.006   0.000  0.00  0.00    +0.000 C 
ENDBRANCH   6  14
TORSDOF 2
