REMARK  Name = B32
REMARK  15 active torsions:
REMARK  status: ('A' for Active; 'I' for Inactive)
REMARK    1  A    between atoms: C_1  and  C_2
REMARK    2  A    between atoms: C_1  and  C_32
REMARK    3  A    between atoms: C_2  and  C_3
REMARK    4  A    between atoms: C_3  and  C_4
REMARK    5  A    between atoms: C_4  and  C_5
REMARK    6  A    between atoms: C_5  and  C_6
REMARK    7  A    between atoms: C_6  and  C_7
REMARK    8  A    between atoms: C_7  and  C_8
REMARK    9  A    between atoms: C_8  and  N_9
REMARK   10  A    between atoms: N_9  and  C_10
REMARK   11  A    between atoms: C_10  and  C_11
REMARK   12  A    between atoms: C_11  and  S_12
REMARK   13  A    between atoms: S_12  and  C_13
REMARK   14  A    between atoms: C_13  and  C_14
REMARK   15  A    between atoms: C_20  and  N_21
REMARK                            x       y       z     vdW  Elec       q    Type
REMARK                         _______ _______ _______ _____ _____    ______ ____
ROOT
ATOM      1  C   UNL     1      -1.761  -0.118   0.000  0.00  0.00    +0.000 C 
ATOM      2  O   UNL     1      -2.515   0.218   0.000  0.00  0.00    +0.000 OA
ATOM      3  C   UNL     1      -1.847  -0.938   0.000  0.00  0.00    +0.000 C 
ATOM      4  O   UNL     1      -1.234  -1.490   0.000  0.00  0.00    +0.000 OA
ATOM      5  C   UNL     1      -2.654  -1.110   0.000  0.00  0.00    +0.000 C 
ATOM      6  O   UNL     1      -2.990  -1.863   0.000  0.00  0.00    +0.000 OA
ATOM      7  C   UNL     1      -3.067  -0.395   0.000  0.00  0.00    +0.000 C 
ENDROOT
BRANCH   7   8
ATOM      8  N   UNL     1      -3.887  -0.309   0.000  0.00  0.00    +0.000 N 
ATOM      9  C   UNL     1      -4.439  -0.922   0.000  0.00  0.00    +0.000 A 
ATOM     10  N   UNL     1      -5.193  -0.587   0.000  0.00  0.00    +0.000 NA
ATOM     11  C   UNL     1      -5.107   0.234   0.000  0.00  0.00    +0.000 A 
ATOM     12  C   UNL     1      -4.300   0.405   0.000  0.00  0.00    +0.000 A 
ATOM     13  N   UNL     1      -4.045   1.190   0.000  0.00  0.00    +0.000 NA
ATOM     14  C   UNL     1      -4.597   1.803   0.000  0.00  0.00    +0.000 A 
ATOM     15  N   UNL     1      -5.404   1.632   0.000  0.00  0.00    +0.000 NA
ATOM     16  C   UNL     1      -5.659   0.847   0.000  0.00  0.00    +0.000 A 
ATOM     17  N   UNL     1      -6.466   0.675   0.000  0.00  0.00    +0.000 NA
ENDBRANCH   7   8
BRANCH   1  18
ATOM     18  C   UNL     1      -1.047   0.295   0.000  0.00  0.00    +0.000 C 
BRANCH  18  19
ATOM     19  S   UNL     1      -0.332  -0.118   0.000  0.00  0.00    +0.000 S 
BRANCH  19  20
ATOM     20  C   UNL     1       0.382   0.295   0.000  0.00  0.00    +0.000 C 
BRANCH  20  21
ATOM     21  C   UNL     1       1.097  -0.118   0.000  0.00  0.00    +0.000 C 
BRANCH  21  22
ATOM     22  N   UNL     1       1.811   0.295   0.000  0.00  0.00    +0.000 NA
BRANCH  22  23
ATOM     23  C   UNL     1       2.526  -0.118   0.000  0.00  0.00    +0.000 C 
BRANCH  23  24
ATOM     24  C   UNL     1       3.240   0.295   0.000  0.00  0.00    +0.000 C 
BRANCH  24  25
ATOM     25  C   UNL     1       3.954  -0.118   0.000  0.00  0.00    +0.000 C 
BRANCH  25  26
ATOM     26  C   UNL     1       4.669   0.295   0.000  0.00  0.00    +0.000 C 
BRANCH  26  27
ATOM     27  C   UNL     1       5.383  -0.118   0.000  0.00  0.00    +0.000 C 
BRANCH  27  28
ATOM     28  C   UNL     1       6.098   0.295   0.000  0.00  0.00    +0.000 C 
BRANCH  28  29
ATOM     29  C   UNL     1       6.812  -0.118   0.000  0.00  0.00    +0.000 C 
BRANCH  29  30
ATOM     30  C   UNL     1       7.527   0.295   0.000  0.00  0.00    +0.000 C 
BRANCH  30  32
ATOM     31  C   UNL     1       8.956   0.295   0.000  0.00  0.00    +0.000 C 
ATOM     32  C   UNL     1       8.241  -0.118   0.000  0.00  0.00    +0.000 C 
ENDBRANCH  30  32
ENDBRANCH  29  30
ENDBRANCH  28  29
ENDBRANCH  27  28
ENDBRANCH  26  27
ENDBRANCH  25  26
ENDBRANCH  24  25
ENDBRANCH  23  24
ENDBRANCH  22  23
ENDBRANCH  21  22
ENDBRANCH  20  21
ENDBRANCH  19  20
ENDBRANCH  18  19
ENDBRANCH   1  18
TORSDOF 15
