REMARK  Name = B34
REMARK  4 active torsions:
REMARK  status: ('A' for Active; 'I' for Inactive)
REMARK    1  A    between atoms: C_8  and  C_12
REMARK    2  A    between atoms: N_15  and  C_22
REMARK    3  A    between atoms: C_16  and  C_17
REMARK    4  A    between atoms: C_22  and  C_23
REMARK                            x       y       z     vdW  Elec       q    Type
REMARK                         _______ _______ _______ _____ _____    ______ ____
ROOT
ATOM      1  C   UNL     1      -0.162   0.383   0.000  0.00  0.00    +0.000 C 
ATOM      2  C   UNL     1      -0.947   0.128   0.000  0.00  0.00    +0.000 C 
ATOM      3  O   UNL     1      -1.614   0.613   0.000  0.00  0.00    +0.000 OA
ATOM      4  N   UNL     1      -0.947  -0.697   0.000  0.00  0.00    +0.000 N 
ATOM      5  C   UNL     1      -0.162  -0.952   0.000  0.00  0.00    +0.000 C 
ATOM      6  C   UNL     1       0.323  -0.285   0.000  0.00  0.00    +0.000 C 
ATOM      7  O   UNL     1       1.148  -0.285   0.000  0.00  0.00    +0.000 OA
ENDROOT
BRANCH   1  15
ATOM      8  O   UNL     1       0.428   3.256   0.000  0.00  0.00    +0.000 OA
ATOM      9  S   UNL     1       0.093   2.502   0.000  0.00  0.00    +0.000 S 
ATOM     10  O   UNL     1      -0.622   2.915   0.000  0.00  0.00    +0.000 OA
ATOM     11  C   UNL     1       0.877   2.247   0.000  0.00  0.00    +0.000 A 
ATOM     12  C   UNL     1       1.592   2.660   0.000  0.00  0.00    +0.000 A 
ATOM     13  C   UNL     1       2.306   2.247   0.000  0.00  0.00    +0.000 A 
ATOM     14  N   UNL     1      -0.392   1.835   0.000  0.00  0.00    +0.000 NA
ATOM     15  C   UNL     1       0.093   1.167   0.000  0.00  0.00    +0.000 C 
ATOM     16  C   UNL     1       0.877   1.422   0.000  0.00  0.00    +0.000 A 
ATOM     17  C   UNL     1       1.592   1.010   0.000  0.00  0.00    +0.000 A 
ATOM     18  C   UNL     1       2.306   1.422   0.000  0.00  0.00    +0.000 A 
ENDBRANCH   1  15
BRANCH   5  19
ATOM     19  C   UNL     1       0.093  -1.737   0.000  0.00  0.00    +0.000 C 
ATOM     20  C   UNL     1      -0.460  -2.350   0.000  0.00  0.00    +0.000 C 
ATOM     21  C   UNL     1       0.900  -1.908   0.000  0.00  0.00    +0.000 C 
ENDBRANCH   5  19
BRANCH   4  22
ATOM     22  C   UNL     1      -1.614  -1.182   0.000  0.00  0.00    +0.000 C 
BRANCH  22  23
ATOM     23  C   UNL     1      -2.368  -0.847   0.000  0.00  0.00    +0.000 A 
ATOM     24  C   UNL     1      -2.454  -0.026   0.000  0.00  0.00    +0.000 A 
ATOM     25  C   UNL     1      -3.208   0.310   0.000  0.00  0.00    +0.000 A 
ATOM     26  C   UNL     1      -3.035  -1.331   0.000  0.00  0.00    +0.000 A 
ATOM     27  C   UNL     1      -3.789  -0.996   0.000  0.00  0.00    +0.000 A 
ATOM     28  C   UNL     1      -3.875  -0.175   0.000  0.00  0.00    +0.000 A 
ENDBRANCH  22  23
ENDBRANCH   4  22
TORSDOF 4
