REMARK  Name = B35
REMARK  7 active torsions:
REMARK  status: ('A' for Active; 'I' for Inactive)
REMARK    1  A    between atoms: C_1  and  O_11
REMARK    2  A    between atoms: C_4  and  C_8
REMARK    3  A    between atoms: C_8  and  C_9
REMARK    4  A    between atoms: C_8  and  C_13
REMARK    5  A    between atoms: C_13  and  C_14
REMARK    6  A    between atoms: C_16  and  N_26
REMARK    7  A    between atoms: C_19  and  O_20
REMARK                            x       y       z     vdW  Elec       q    Type
REMARK                         _______ _______ _______ _____ _____    ______ ____
ROOT
ATOM      1  C   UNL     1      -0.349  -0.331   0.000  0.00  0.00    +0.000 C 
ENDROOT
BRANCH   1   5
ATOM      2  C   UNL     1      -1.356  -2.592   0.000  0.00  0.00    +0.000 A 
ATOM      3  C   UNL     1      -1.841  -1.925   0.000  0.00  0.00    +0.000 A 
ATOM      4  C   UNL     1      -1.505  -1.171   0.000  0.00  0.00    +0.000 A 
ATOM      5  C   UNL     1      -0.685  -1.085   0.000  0.00  0.00    +0.000 A 
ATOM      6  C   UNL     1      -0.200  -1.752   0.000  0.00  0.00    +0.000 A 
ATOM      7  C   UNL     1      -0.535  -2.506   0.000  0.00  0.00    +0.000 A 
ATOM      8  F   UNL     1      -0.050  -3.173   0.000  0.00  0.00    +0.000 F 
BRANCH   2  10
ATOM      9  C   UNL     1      -1.206  -4.013   0.000  0.00  0.00    +0.000 C 
ATOM     10  O   UNL     1      -1.691  -3.346   0.000  0.00  0.00    +0.000 OA
ENDBRANCH   2  10
ENDBRANCH   1   5
BRANCH   1  12
ATOM     11  N   UNL     1      -0.579   1.121   0.000  0.00  0.00    +0.000 NA
ATOM     12  C   UNL     1      -0.834   0.336   0.000  0.00  0.00    +0.000 A 
ATOM     13  C   UNL     1      -1.246   1.606   0.000  0.00  0.00    +0.000 A 
ATOM     14  N   UNL     1      -1.914   1.121   0.000  0.00  0.00    +0.000 NA
ATOM     15  C   UNL     1      -1.659   0.336   0.000  0.00  0.00    +0.000 A 
ATOM     16  N   UNL     1      -1.246   2.431   0.000  0.00  0.00    +0.000 NA
ENDBRANCH   1  12
BRANCH   1  17
ATOM     17  C   UNL     1       0.471  -0.245   0.000  0.00  0.00    +0.000 C 
BRANCH  17  18
ATOM     18  C   UNL     1       0.807   0.509   0.000  0.00  0.00    +0.000 A 
ATOM     19  C   UNL     1       0.322   1.176   0.000  0.00  0.00    +0.000 A 
ATOM     20  C   UNL     1       0.658   1.930   0.000  0.00  0.00    +0.000 A 
ATOM     21  C   UNL     1       1.478   2.016   0.000  0.00  0.00    +0.000 A 
ATOM     22  C   UNL     1       1.963   1.349   0.000  0.00  0.00    +0.000 A 
ATOM     23  C   UNL     1       1.627   0.595   0.000  0.00  0.00    +0.000 A 
BRANCH  20  24
ATOM     24  N   UNL     1       0.173   2.597   0.000  0.00  0.00    +0.000 N 
ATOM     25  O   UNL     1      -0.648   2.511   0.000  0.00  0.00    +0.000 OA
ATOM     26  O   UNL     1       0.508   3.351   0.000  0.00  0.00    +0.000 OA
ENDBRANCH  20  24
BRANCH  23  27
ATOM     27  O   UNL     1       2.112  -0.072   0.000  0.00  0.00    +0.000 OA
ATOM     28  C   UNL     1       2.933   0.014   0.000  0.00  0.00    +0.000 C 
ENDBRANCH  23  27
ENDBRANCH  17  18
ENDBRANCH   1  17
TORSDOF 7
