REMARK  Name = B4N
REMARK  6 active torsions:
REMARK  status: ('A' for Active; 'I' for Inactive)
REMARK    1  A    between atoms: C_3  and  N_4
REMARK    2  A    between atoms: C_9  and  O_10
REMARK    3  A    between atoms: O_10  and  P_11
REMARK    4  A    between atoms: P_11  and  O_14
REMARK    5  A    between atoms: O_14  and  C_15
REMARK    6  A    between atoms: C_18  and  N_19
REMARK                            x       y       z     vdW  Elec       q    Type
REMARK                         _______ _______ _______ _____ _____    ______ ____
ROOT
ATOM      1  P   UNL     1       0.005  -0.091   0.000  0.00  0.00    +0.000 P 
ATOM      2  O   UNL     1      -0.408   0.623   0.000  0.00  0.00    +0.000 OA
ATOM      3  O   UNL     1       0.417  -0.805   0.000  0.00  0.00    +0.000 OA
ENDROOT
BRANCH   1   4
ATOM      4  O   UNL     1       0.719   0.321   0.000  0.00  0.00    +0.000 OA
BRANCH   4  10
ATOM      5  C   UNL     1       2.148   0.321   0.000  0.00  0.00    +0.000 A 
ATOM      6  C   UNL     1       2.863  -0.091   0.000  0.00  0.00    +0.000 A 
ATOM      7  C   UNL     1       2.863  -0.916   0.000  0.00  0.00    +0.000 A 
ATOM      8  C   UNL     1       2.148  -1.329   0.000  0.00  0.00    +0.000 A 
ATOM      9  C   UNL     1       1.434  -0.916   0.000  0.00  0.00    +0.000 A 
ATOM     10  C   UNL     1       1.434  -0.091   0.000  0.00  0.00    +0.000 A 
BRANCH   7  11
ATOM     11  N   UNL     1       3.577  -1.329   0.000  0.00  0.00    +0.000 N 
ATOM     12  O   UNL     1       3.577  -2.154   0.000  0.00  0.00    +0.000 OA
ATOM     13  O   UNL     1       4.292  -0.916   0.000  0.00  0.00    +0.000 OA
ENDBRANCH   7  11
ENDBRANCH   4  10
ENDBRANCH   1   4
BRANCH   1  14
ATOM     14  O   UNL     1      -0.710  -0.504   0.000  0.00  0.00    +0.000 OA
BRANCH  14  15
ATOM     15  C   UNL     1      -1.424  -0.091   0.000  0.00  0.00    +0.000 A 
ATOM     16  C   UNL     1      -2.139  -0.504   0.000  0.00  0.00    +0.000 A 
ATOM     17  C   UNL     1      -2.853  -0.091   0.000  0.00  0.00    +0.000 A 
ATOM     18  C   UNL     1      -2.853   0.734   0.000  0.00  0.00    +0.000 A 
ATOM     19  C   UNL     1      -2.139   1.146   0.000  0.00  0.00    +0.000 A 
ATOM     20  C   UNL     1      -1.424   0.734   0.000  0.00  0.00    +0.000 A 
BRANCH  18  21
ATOM     21  N   UNL     1      -3.567   1.146   0.000  0.00  0.00    +0.000 N 
ATOM     22  O   UNL     1      -4.282   0.734   0.000  0.00  0.00    +0.000 OA
ATOM     23  O   UNL     1      -3.567   1.971   0.000  0.00  0.00    +0.000 OA
ENDBRANCH  18  21
ENDBRANCH  14  15
ENDBRANCH   1  14
TORSDOF 6
