REMARK  Name = B5R
REMARK  7 active torsions:
REMARK  status: ('A' for Active; 'I' for Inactive)
REMARK    1  A    between atoms: C_8  and  O_9
REMARK    2  A    between atoms: O_9  and  C_10
REMARK    3  A    between atoms: C_10  and  C_11
REMARK    4  A    between atoms: C_11  and  C_14
REMARK    5  A    between atoms: N_16  and  C_17
REMARK    6  A    between atoms: C_21  and  C_22
REMARK    7  A    between atoms: C_24  and  C_25
REMARK                            x       y       z     vdW  Elec       q    Type
REMARK                         _______ _______ _______ _____ _____    ______ ____
ROOT
ATOM      1  C   UNL     1       0.391   0.060   0.000  0.00  0.00    +0.000 C 
ATOM      2  O   UNL     1       0.391   0.885   0.000  0.00  0.00    +0.000 OA
ATOM      3  N   UNL     1       1.105  -0.353   0.000  0.00  0.00    +0.000 NA
ENDROOT
BRANCH   3   4
ATOM      4  C   UNL     1       1.820   0.060   0.000  0.00  0.00    +0.000 A 
ATOM      5  C   UNL     1       1.820   0.885   0.000  0.00  0.00    +0.000 A 
ATOM      6  C   UNL     1       2.534  -0.353   0.000  0.00  0.00    +0.000 A 
ATOM      7  C   UNL     1       3.249   0.060   0.000  0.00  0.00    +0.000 A 
ATOM      8  C   UNL     1       3.249   0.885   0.000  0.00  0.00    +0.000 A 
ATOM      9  C   UNL     1       2.534   1.297   0.000  0.00  0.00    +0.000 A 
BRANCH   9  10
ATOM     10  C   UNL     1       2.534   2.122   0.000  0.00  0.00    +0.000 C 
ATOM     11  F   UNL     1       2.534   2.947   0.000  0.00  0.00    +0.000 F 
ATOM     12  F   UNL     1       3.359   2.122   0.000  0.00  0.00    +0.000 F 
ATOM     13  F   UNL     1       1.709   2.122   0.000  0.00  0.00    +0.000 F 
ENDBRANCH   9  10
BRANCH   8  14
ATOM     14  C   UNL     1       3.963   1.297   0.000  0.00  0.00    +0.000 C 
ATOM     15  N   UNL     1       4.678   1.710   0.000  0.00  0.00    +0.000 NA
ENDBRANCH   8  14
ENDBRANCH   3   4
BRANCH   1  16
ATOM     16  C   UNL     1      -0.324  -0.353   0.000  0.00  0.00    +0.000 C 
ATOM     17  O   UNL     1       0.089  -1.067   0.000  0.00  0.00    +0.000 OA
ATOM     18  C   UNL     1      -0.736   0.362   0.000  0.00  0.00    +0.000 C 
BRANCH  16  19
ATOM     19  C   UNL     1      -1.038  -0.765   0.000  0.00  0.00    +0.000 C 
BRANCH  19  20
ATOM     20  O   UNL     1      -1.753  -0.353   0.000  0.00  0.00    +0.000 OA
BRANCH  20  28
ATOM     21  C   UNL     1      -2.467  -1.590   0.000  0.00  0.00    +0.000 A 
ATOM     22  C   UNL     1      -3.182  -2.003   0.000  0.00  0.00    +0.000 A 
ATOM     23  F   UNL     1      -3.182  -2.828   0.000  0.00  0.00    +0.000 F 
ATOM     24  C   UNL     1      -3.896  -1.590   0.000  0.00  0.00    +0.000 A 
ATOM     25 CL   UNL     1      -4.611  -2.003   0.000  0.00  0.00    +0.000 Cl
ATOM     26  C   UNL     1      -3.896  -0.765   0.000  0.00  0.00    +0.000 A 
ATOM     27  C   UNL     1      -3.182  -0.353   0.000  0.00  0.00    +0.000 A 
ATOM     28  C   UNL     1      -2.467  -0.765   0.000  0.00  0.00    +0.000 A 
ENDBRANCH  20  28
ENDBRANCH  19  20
ENDBRANCH  16  19
ENDBRANCH   1  16
TORSDOF 7
