REMARK  Name = B66
REMARK  9 active torsions:
REMARK  status: ('A' for Active; 'I' for Inactive)
REMARK    1  A    between atoms: C_3  and  N_4
REMARK    2  A    between atoms: C_9  and  O_10
REMARK    3  A    between atoms: O_10  and  C_11
REMARK    4  A    between atoms: C_11  and  C_12
REMARK    5  A    between atoms: C_12  and  C_15
REMARK    6  A    between atoms: C_15  and  N_17
REMARK    7  A    between atoms: N_17  and  C_18
REMARK    8  A    between atoms: C_22  and  C_23
REMARK    9  A    between atoms: C_25  and  C_26
REMARK                            x       y       z     vdW  Elec       q    Type
REMARK                         _______ _______ _______ _____ _____    ______ ____
ROOT
ATOM      1  C   UNL     1       0.345   0.174   0.000  0.00  0.00    +0.000 C 
ATOM      2  O   UNL     1       0.345   0.999   0.000  0.00  0.00    +0.000 OA
ENDROOT
BRANCH   1   3
ATOM      3  C   UNL     1      -0.369  -0.239   0.000  0.00  0.00    +0.000 C 
ATOM      4  O   UNL     1       0.043  -0.953   0.000  0.00  0.00    +0.000 OA
ATOM      5  C   UNL     1      -0.782   0.476   0.000  0.00  0.00    +0.000 C 
BRANCH   3   6
ATOM      6  C   UNL     1      -1.084  -0.651   0.000  0.00  0.00    +0.000 C 
BRANCH   6   7
ATOM      7  O   UNL     1      -1.798  -0.239   0.000  0.00  0.00    +0.000 OA
BRANCH   7  13
ATOM      8  C   UNL     1      -2.513  -1.476   0.000  0.00  0.00    +0.000 A 
ATOM      9  C   UNL     1      -3.227  -1.889   0.000  0.00  0.00    +0.000 A 
ATOM     10  C   UNL     1      -3.942  -1.476   0.000  0.00  0.00    +0.000 A 
ATOM     11  C   UNL     1      -3.942  -0.651   0.000  0.00  0.00    +0.000 A 
ATOM     12  C   UNL     1      -3.227  -0.239   0.000  0.00  0.00    +0.000 A 
ATOM     13  C   UNL     1      -2.513  -0.651   0.000  0.00  0.00    +0.000 A 
BRANCH  10  14
ATOM     14  N   UNL     1      -4.656  -1.889   0.000  0.00  0.00    +0.000 N 
ATOM     15  O   UNL     1      -5.371  -1.476   0.000  0.00  0.00    +0.000 OA
ATOM     16  O   UNL     1      -4.656  -2.714   0.000  0.00  0.00    +0.000 OA
ENDBRANCH  10  14
ENDBRANCH   7  13
ENDBRANCH   6   7
ENDBRANCH   3   6
ENDBRANCH   1   3
BRANCH   1  17
ATOM     17  N   UNL     1       1.060  -0.239   0.000  0.00  0.00    +0.000 NA
BRANCH  17  18
ATOM     18  C   UNL     1       1.774   0.174   0.000  0.00  0.00    +0.000 A 
ATOM     19  C   UNL     1       1.774   0.999   0.000  0.00  0.00    +0.000 A 
ATOM     20  C   UNL     1       2.488  -0.239   0.000  0.00  0.00    +0.000 A 
ATOM     21  C   UNL     1       3.203   0.174   0.000  0.00  0.00    +0.000 A 
ATOM     22  C   UNL     1       3.203   0.999   0.000  0.00  0.00    +0.000 A 
ATOM     23  C   UNL     1       2.488   1.411   0.000  0.00  0.00    +0.000 A 
BRANCH  23  24
ATOM     24  C   UNL     1       2.488   2.236   0.000  0.00  0.00    +0.000 C 
ATOM     25  F   UNL     1       2.488   3.061   0.000  0.00  0.00    +0.000 F 
ATOM     26  F   UNL     1       3.313   2.236   0.000  0.00  0.00    +0.000 F 
ATOM     27  F   UNL     1       1.663   2.236   0.000  0.00  0.00    +0.000 F 
ENDBRANCH  23  24
BRANCH  22  28
ATOM     28  C   UNL     1       3.917   1.411   0.000  0.00  0.00    +0.000 C 
ATOM     29  N   UNL     1       4.632   1.824   0.000  0.00  0.00    +0.000 NA
ENDBRANCH  22  28
ENDBRANCH  17  18
ENDBRANCH   1  17
TORSDOF 9
