REMARK  Name = B67
REMARK  7 active torsions:
REMARK  status: ('A' for Active; 'I' for Inactive)
REMARK    1  A    between atoms: C_2  and  C_5
REMARK    2  A    between atoms: C_7  and  N_8
REMARK    3  A    between atoms: C_13  and  N_14
REMARK    4  A    between atoms: C_15  and  C_17
REMARK    5  A    between atoms: C_17  and  C_20
REMARK    6  A    between atoms: C_20  and  O_21
REMARK    7  A    between atoms: O_21  and  C_22
REMARK                            x       y       z     vdW  Elec       q    Type
REMARK                         _______ _______ _______ _____ _____    ______ ____
ROOT
ATOM      1  N   UNL     1      -1.060  -0.412   0.000  0.00  0.00    +0.000 NA
ATOM      2  C   UNL     1      -0.345   0.000   0.000  0.00  0.00    +0.000 C 
ATOM      3  O   UNL     1      -0.345   0.825   0.000  0.00  0.00    +0.000 OA
ENDROOT
BRANCH   1   9
ATOM      4  C   UNL     1      -2.489   1.238   0.000  0.00  0.00    +0.000 A 
ATOM      5  C   UNL     1      -1.774   0.825   0.000  0.00  0.00    +0.000 A 
ATOM      6  C   UNL     1      -3.203   0.825   0.000  0.00  0.00    +0.000 A 
ATOM      7  C   UNL     1      -3.203   0.000   0.000  0.00  0.00    +0.000 A 
ATOM      8  C   UNL     1      -2.489  -0.412   0.000  0.00  0.00    +0.000 A 
ATOM      9  C   UNL     1      -1.774   0.000   0.000  0.00  0.00    +0.000 A 
BRANCH   4  11
ATOM     10  F   UNL     1      -2.489   2.888   0.000  0.00  0.00    +0.000 F 
ATOM     11  C   UNL     1      -2.489   2.063   0.000  0.00  0.00    +0.000 C 
ATOM     12  F   UNL     1      -3.314   2.063   0.000  0.00  0.00    +0.000 F 
ATOM     13  F   UNL     1      -1.664   2.063   0.000  0.00  0.00    +0.000 F 
ENDBRANCH   4  11
BRANCH   6  14
ATOM     14  N   UNL     1      -3.918   1.238   0.000  0.00  0.00    +0.000 N 
ATOM     15  O   UNL     1      -4.632   0.825   0.000  0.00  0.00    +0.000 OA
ATOM     16  O   UNL     1      -3.918   2.063   0.000  0.00  0.00    +0.000 OA
ENDBRANCH   6  14
ENDBRANCH   1   9
BRANCH   2  17
ATOM     17  C   UNL     1       0.369  -0.412   0.000  0.00  0.00    +0.000 C 
ATOM     18  O   UNL     1      -0.043  -1.127   0.000  0.00  0.00    +0.000 OA
ATOM     19  C   UNL     1       0.782   0.302   0.000  0.00  0.00    +0.000 C 
BRANCH  17  20
ATOM     20  C   UNL     1       1.084  -0.825   0.000  0.00  0.00    +0.000 C 
BRANCH  20  21
ATOM     21  O   UNL     1       1.798  -0.412   0.000  0.00  0.00    +0.000 OA
BRANCH  21  22
ATOM     22  C   UNL     1       2.513  -0.825   0.000  0.00  0.00    +0.000 A 
ATOM     23  C   UNL     1       3.227  -0.412   0.000  0.00  0.00    +0.000 A 
ATOM     24  F   UNL     1       3.227   0.413   0.000  0.00  0.00    +0.000 F 
ATOM     25  C   UNL     1       3.942  -0.825   0.000  0.00  0.00    +0.000 A 
ATOM     26  F   UNL     1       4.656  -0.412   0.000  0.00  0.00    +0.000 F 
ATOM     27  C   UNL     1       3.942  -1.650   0.000  0.00  0.00    +0.000 A 
ATOM     28  F   UNL     1       4.656  -2.062   0.000  0.00  0.00    +0.000 F 
ATOM     29  C   UNL     1       3.227  -2.062   0.000  0.00  0.00    +0.000 A 
ATOM     30  F   UNL     1       3.227  -2.887   0.000  0.00  0.00    +0.000 F 
ATOM     31  C   UNL     1       2.513  -1.650   0.000  0.00  0.00    +0.000 A 
ATOM     32  F   UNL     1       1.798  -2.062   0.000  0.00  0.00    +0.000 F 
ENDBRANCH  21  22
ENDBRANCH  20  21
ENDBRANCH  17  20
ENDBRANCH   2  17
TORSDOF 7
