REMARK  Name = B72
REMARK  6 active torsions:
REMARK  status: ('A' for Active; 'I' for Inactive)
REMARK    1  A    between atoms: C_2  and  C_4
REMARK    2  A    between atoms: C_4  and  O_5
REMARK    3  A    between atoms: O_5  and  C_6
REMARK    4  A    between atoms: C_10  and  C_14
REMARK    5  A    between atoms: C_14  and  C_15
REMARK    6  A    between atoms: C_17  and  C_18
REMARK                            x       y       z     vdW  Elec       q    Type
REMARK                         _______ _______ _______ _____ _____    ______ ____
ROOT
ATOM      1  C   UNL     1       1.780   1.744   0.000  0.00  0.00    +0.000 A 
ATOM      2  C   UNL     1       1.066   2.157   0.000  0.00  0.00    +0.000 A 
ATOM      3  C   UNL     1       0.351   1.744   0.000  0.00  0.00    +0.000 A 
ATOM      4  C   UNL     1      -0.363   2.157   0.000  0.00  0.00    +0.000 C 
ATOM      5  C   UNL     1       0.351   0.919   0.000  0.00  0.00    +0.000 A 
ATOM      6  C   UNL     1       1.066   0.507   0.000  0.00  0.00    +0.000 A 
ATOM      7  C   UNL     1       1.780   0.919   0.000  0.00  0.00    +0.000 A 
ATOM      8  C   UNL     1       1.066  -0.318   0.000  0.00  0.00    +0.000 C 
ENDROOT
BRANCH   1   9
ATOM      9  O   UNL     1       2.495   2.157   0.000  0.00  0.00    +0.000 OA
BRANCH   9  10
ATOM     10  C   UNL     1       3.209   1.744   0.000  0.00  0.00    +0.000 C 
BRANCH  10  12
ATOM     11  O   UNL     1       4.638   1.744   0.000  0.00  0.00    +0.000 OA
ATOM     12  C   UNL     1       3.924   2.157   0.000  0.00  0.00    +0.000 C 
ATOM     13  O   UNL     1       3.924   2.982   0.000  0.00  0.00    +0.000 OA
ENDBRANCH  10  12
ENDBRANCH   9  10
ENDBRANCH   1   9
BRANCH   5  14
ATOM     14  C   UNL     1      -0.363   0.507   0.000  0.00  0.00    +0.000 C 
BRANCH  14  15
ATOM     15  C   UNL     1      -0.363  -0.318   0.000  0.00  0.00    +0.000 A 
ATOM     16  C   UNL     1      -1.078  -0.731   0.000  0.00  0.00    +0.000 A 
ATOM     17  C   UNL     1      -1.078  -1.556   0.000  0.00  0.00    +0.000 A 
ATOM     18  C   UNL     1      -0.363  -1.968   0.000  0.00  0.00    +0.000 A 
ATOM     19  O   UNL     1      -0.363  -2.793   0.000  0.00  0.00    +0.000 OA
ATOM     20  C   UNL     1       0.351  -1.556   0.000  0.00  0.00    +0.000 A 
ATOM     21  C   UNL     1       0.351  -0.731   0.000  0.00  0.00    +0.000 A 
BRANCH  17  22
ATOM     22  C   UNL     1      -1.792  -1.968   0.000  0.00  0.00    +0.000 C 
ATOM     23  C   UNL     1      -1.792  -2.793   0.000  0.00  0.00    +0.000 C 
ATOM     24  C   UNL     1      -2.507  -1.556   0.000  0.00  0.00    +0.000 C 
ENDBRANCH  17  22
ENDBRANCH  14  15
ENDBRANCH   5  14
TORSDOF 6
