REMARK  Name = B76
REMARK  7 active torsions:
REMARK  status: ('A' for Active; 'I' for Inactive)
REMARK    1  A    between atoms: C_6  and  C_7
REMARK    2  A    between atoms: C_12  and  C_13
REMARK    3  A    between atoms: C_18  and  O_19
REMARK    4  A    between atoms: O_19  and  C_20
REMARK    5  A    between atoms: C_20  and  C_21
REMARK    6  A    between atoms: C_21  and  P_22
REMARK    7  A    between atoms: C_21  and  P_26
REMARK                            x       y       z     vdW  Elec       q    Type
REMARK                         _______ _______ _______ _____ _____    ______ ____
ROOT
ATOM      1  C   UNL     1      -1.023  -0.274   0.000  0.00  0.00    +0.000 A 
ATOM      2  C   UNL     1      -0.439  -0.857   0.000  0.00  0.00    +0.000 A 
ATOM      3  C   UNL     1      -0.809   0.523   0.000  0.00  0.00    +0.000 A 
ATOM      4  C   UNL     1      -0.012   0.737   0.000  0.00  0.00    +0.000 A 
ATOM      5  C   UNL     1       0.571   0.153   0.000  0.00  0.00    +0.000 A 
ATOM      6  C   UNL     1       0.358  -0.644   0.000  0.00  0.00    +0.000 A 
ENDROOT
BRANCH   1  12
ATOM      7  C   UNL     1      -3.200  -0.118   0.000  0.00  0.00    +0.000 A 
ATOM      8  C   UNL     1      -2.403   0.096   0.000  0.00  0.00    +0.000 A 
ATOM      9  C   UNL     1      -3.413  -0.914   0.000  0.00  0.00    +0.000 A 
ATOM     10  C   UNL     1      -2.830  -1.498   0.000  0.00  0.00    +0.000 A 
ATOM     11  C   UNL     1      -2.033  -1.284   0.000  0.00  0.00    +0.000 A 
ATOM     12  C   UNL     1      -1.819  -0.487   0.000  0.00  0.00    +0.000 A 
BRANCH   7  18
ATOM     13  C   UNL     1      -4.580   0.252   0.000  0.00  0.00    +0.000 A 
ATOM     14  C   UNL     1      -5.163   0.836   0.000  0.00  0.00    +0.000 A 
ATOM     15  C   UNL     1      -4.950   1.633   0.000  0.00  0.00    +0.000 A 
ATOM     16  C   UNL     1      -4.153   1.846   0.000  0.00  0.00    +0.000 A 
ATOM     17  C   UNL     1      -3.570   1.263   0.000  0.00  0.00    +0.000 A 
ATOM     18  C   UNL     1      -3.783   0.466   0.000  0.00  0.00    +0.000 A 
ENDBRANCH   7  18
ENDBRANCH   1  12
BRANCH   6  19
ATOM     19  O   UNL     1       0.941  -1.227   0.000  0.00  0.00    +0.000 OA
BRANCH  19  20
ATOM     20  C   UNL     1       0.728  -2.024   0.000  0.00  0.00    +0.000 C 
BRANCH  20  21
ATOM     21  C   UNL     1       1.311  -2.607   0.000  0.00  0.00    +0.000 C 
ATOM     22  O   UNL     1       1.894  -3.191   0.000  0.00  0.00    +0.000 OA
BRANCH  21  23
ATOM     23  P   UNL     1       1.894  -2.024   0.000  0.00  0.00    +0.000 P 
ATOM     24  O   UNL     1       2.478  -1.441   0.000  0.00  0.00    +0.000 OA
ATOM     25  O   UNL     1       2.478  -2.607   0.000  0.00  0.00    +0.000 OA
ATOM     26  O   UNL     1       1.311  -1.441   0.000  0.00  0.00    +0.000 OA
ENDBRANCH  21  23
BRANCH  21  27
ATOM     27  P   UNL     1       0.728  -3.191   0.000  0.00  0.00    +0.000 P 
ATOM     28  O   UNL     1       0.144  -2.607   0.000  0.00  0.00    +0.000 OA
ATOM     29  O   UNL     1       1.311  -3.774   0.000  0.00  0.00    +0.000 OA
ATOM     30  O   UNL     1       0.144  -3.774   0.000  0.00  0.00    +0.000 OA
ENDBRANCH  21  27
ENDBRANCH  20  21
ENDBRANCH  19  20
ENDBRANCH   6  19
TORSDOF 7
