REMARK  Name = B77
REMARK  4 active torsions:
REMARK  status: ('A' for Active; 'I' for Inactive)
REMARK    1  A    between atoms: C_4  and  O_10
REMARK    2  A    between atoms: C_5  and  O_8
REMARK    3  A    between atoms: O_10  and  C_11
REMARK    4  A    between atoms: C_11  and  C_12
REMARK                            x       y       z     vdW  Elec       q    Type
REMARK                         _______ _______ _______ _____ _____    ______ ____
ROOT
ATOM      1  C   UNL     1      -1.411   2.235   0.000  0.00  0.00    +0.000 C 
ATOM      2  C   UNL     1      -1.411   1.410   0.000  0.00  0.00    +0.000 A 
ATOM      3  C   UNL     1      -0.696   0.998   0.000  0.00  0.00    +0.000 A 
ATOM      4  C   UNL     1      -0.696   0.172   0.000  0.00  0.00    +0.000 A 
ATOM      5  C   UNL     1      -1.411  -0.240   0.000  0.00  0.00    +0.000 A 
ATOM      6  C   UNL     1      -2.125   0.172   0.000  0.00  0.00    +0.000 A 
ATOM      7  C   UNL     1      -2.125   0.998   0.000  0.00  0.00    +0.000 A 
ENDROOT
BRANCH   5   8
ATOM      8  O   UNL     1      -1.411  -1.065   0.000  0.00  0.00    +0.000 OA
ATOM      9  C   UNL     1      -2.125  -1.478   0.000  0.00  0.00    +0.000 C 
ENDBRANCH   5   8
BRANCH   4  10
ATOM     10  O   UNL     1       0.018  -0.240   0.000  0.00  0.00    +0.000 OA
BRANCH  10  11
ATOM     11  C   UNL     1       0.733   0.172   0.000  0.00  0.00    +0.000 C 
BRANCH  11  12
ATOM     12  C   UNL     1       1.447  -0.240   0.000  0.00  0.00    +0.000 A 
ATOM     13  N   UNL     1       2.162   0.172   0.000  0.00  0.00    +0.000 NA
ATOM     14  C   UNL     1       2.876  -0.240   0.000  0.00  0.00    +0.000 A 
ATOM     15  C   UNL     1       2.876  -1.065   0.000  0.00  0.00    +0.000 A 
ATOM     16  C   UNL     1       2.162  -1.478   0.000  0.00  0.00    +0.000 A 
ATOM     17  C   UNL     1       1.447  -1.065   0.000  0.00  0.00    +0.000 A 
ENDBRANCH  11  12
ENDBRANCH  10  11
ENDBRANCH   4  10
TORSDOF 4
