REMARK  Name = B78
REMARK  4 active torsions:
REMARK  status: ('A' for Active; 'I' for Inactive)
REMARK    1  A    between atoms: C_3  and  O_10
REMARK    2  A    between atoms: C_5  and  O_8
REMARK    3  A    between atoms: O_10  and  C_11
REMARK    4  A    between atoms: C_11  and  C_12
REMARK                            x       y       z     vdW  Elec       q    Type
REMARK                         _______ _______ _______ _____ _____    ______ ____
ROOT
ATOM      1  C   UNL     1      -1.064   0.828   0.000  0.00  0.00    +0.000 C 
ATOM      2  C   UNL     1      -1.064   0.003   0.000  0.00  0.00    +0.000 A 
ATOM      3  C   UNL     1      -0.349  -0.409   0.000  0.00  0.00    +0.000 A 
ATOM      4  C   UNL     1      -0.349  -1.234   0.000  0.00  0.00    +0.000 A 
ATOM      5  C   UNL     1      -1.064  -1.647   0.000  0.00  0.00    +0.000 A 
ATOM      6  C   UNL     1      -1.778  -1.234   0.000  0.00  0.00    +0.000 A 
ATOM      7  C   UNL     1      -1.778  -0.409   0.000  0.00  0.00    +0.000 A 
ENDROOT
BRANCH   5   8
ATOM      8  O   UNL     1      -1.064  -2.472   0.000  0.00  0.00    +0.000 OA
ATOM      9  C   UNL     1      -1.778  -2.884   0.000  0.00  0.00    +0.000 C 
ENDBRANCH   5   8
BRANCH   3  10
ATOM     10  O   UNL     1       0.365   0.003   0.000  0.00  0.00    +0.000 OA
BRANCH  10  11
ATOM     11  C   UNL     1       0.365   0.828   0.000  0.00  0.00    +0.000 C 
BRANCH  11  12
ATOM     12  C   UNL     1       1.080   1.241   0.000  0.00  0.00    +0.000 A 
ATOM     13  C   UNL     1       1.080   2.066   0.000  0.00  0.00    +0.000 A 
ATOM     14  C   UNL     1       1.794   2.478   0.000  0.00  0.00    +0.000 A 
ATOM     15  N   UNL     1       2.509   2.066   0.000  0.00  0.00    +0.000 NA
ATOM     16  C   UNL     1       2.509   1.241   0.000  0.00  0.00    +0.000 A 
ATOM     17  C   UNL     1       1.794   0.828   0.000  0.00  0.00    +0.000 A 
ENDBRANCH  11  12
ENDBRANCH  10  11
ENDBRANCH   3  10
TORSDOF 4
