REMARK  Name = B97
REMARK  1 active torsions:
REMARK  status: ('A' for Active; 'I' for Inactive)
REMARK    1  A    between atoms: C_10  and  C_14
REMARK                            x       y       z     vdW  Elec       q    Type
REMARK                         _______ _______ _______ _____ _____    ______ ____
ROOT
ATOM      1  C   UNL     1      -0.096  -0.113   0.000  0.00  0.00    +0.000 A 
ATOM      2  C   UNL     1       0.353  -2.249   0.000  0.00  0.00    +0.000 A 
ATOM      3  C   UNL     1      -0.408  -2.568   0.000  0.00  0.00    +0.000 A 
ATOM      4  C   UNL     1       0.665   0.207   0.000  0.00  0.00    +0.000 A 
ATOM      5  C   UNL     1      -0.200  -0.931   0.000  0.00  0.00    +0.000 A 
ATOM      6  C   UNL     1      -0.961  -1.250   0.000  0.00  0.00    +0.000 A 
ATOM      7  C   UNL     1       0.457  -1.430   0.000  0.00  0.00    +0.000 A 
ATOM      8  C   UNL     1      -1.707  -0.898   0.000  0.00  0.00    +0.000 A 
ATOM      9  C   UNL     1      -1.065  -2.068   0.000  0.00  0.00    +0.000 A 
ATOM     10  C   UNL     1       1.322  -0.293   0.000  0.00  0.00    +0.000 A 
ATOM     11  C   UNL     1      -2.272  -1.499   0.000  0.00  0.00    +0.000 A 
ATOM     12  C   UNL     1      -3.094  -1.432   0.000  0.00  0.00    +0.000 C 
ATOM     13  C   UNL     1      -2.536   0.336   0.000  0.00  0.00    +0.000 C 
ATOM     14  C   UNL     1      -3.306   0.040   0.000  0.00  0.00    +0.000 C 
ATOM     15  C   UNL     1      -3.907   0.605   0.000  0.00  0.00    +0.000 C 
ATOM     16  N   UNL     1       1.218  -1.111   0.000  0.00  0.00    +0.000 NA
ATOM     17  N   UNL     1      -1.824  -0.082   0.000  0.00  0.00    +0.000 NA
ATOM     18  N   UNL     1      -3.554  -0.747   0.000  0.00  0.00    +0.000 NA
ATOM     19  O   UNL     1      -3.512  -2.144   0.000  0.00  0.00    +0.000 OA
ATOM     20  S   UNL     1      -1.875  -2.222   0.000  0.00  0.00    +0.000 S 
ENDROOT
BRANCH  10  24
ATOM     21  C   UNL     1       2.187   0.845   0.000  0.00  0.00    +0.000 A 
ATOM     22  C   UNL     1       2.947   1.164   0.000  0.00  0.00    +0.000 A 
ATOM     23  C   UNL     1       2.739  -0.473   0.000  0.00  0.00    +0.000 A 
ATOM     24  C   UNL     1       2.083   0.026   0.000  0.00  0.00    +0.000 A 
ATOM     25  C   UNL     1       3.604   0.665   0.000  0.00  0.00    +0.000 A 
ATOM     26  C   UNL     1       4.365   0.984   0.000  0.00  0.00    +0.000 C 
ATOM     27  N   UNL     1       3.500  -0.154   0.000  0.00  0.00    +0.000 NA
ENDBRANCH  10  24
TORSDOF 1
