REMARK  Name = B98
REMARK  2 active torsions:
REMARK  status: ('A' for Active; 'I' for Inactive)
REMARK    1  A    between atoms: C_6  and  O_18
REMARK    2  A    between atoms: C_11  and  C_13
REMARK                            x       y       z     vdW  Elec       q    Type
REMARK                         _______ _______ _______ _____ _____    ______ ____
ROOT
ATOM      1  C   UNL     1       2.368  -0.127   0.000  0.00  0.00    +0.000 A 
ATOM      2  C   UNL     1       1.827  -0.750   0.000  0.00  0.00    +0.000 A 
ATOM      3  C   UNL     1       1.290   0.811   0.000  0.00  0.00    +0.000 A 
ATOM      4  C   UNL     1       0.749   0.188   0.000  0.00  0.00    +0.000 A 
ATOM      5  C   UNL     1      -0.076   0.174   0.000  0.00  0.00    +0.000 A 
ATOM      6  C   UNL     1       2.100   0.653   0.000  0.00  0.00    +0.000 A 
ATOM      7  C   UNL     1       1.017  -0.592   0.000  0.00  0.00    +0.000 A 
ATOM      8  C   UNL     1      -0.318  -0.615   0.000  0.00  0.00    +0.000 A 
ATOM      9  C   UNL     1      -1.085  -0.918   0.000  0.00  0.00    +0.000 C 
ATOM     10  C   UNL     1      -1.365   0.915   0.000  0.00  0.00    +0.000 C 
ATOM     11  C   UNL     1      -1.925   0.309   0.000  0.00  0.00    +0.000 C 
ATOM     12  N   UNL     1      -0.542   0.855   0.000  0.00  0.00    +0.000 NA
ATOM     13  N   UNL     1      -1.800  -0.507   0.000  0.00  0.00    +0.000 NA
ATOM     14  O   UNL     1      -1.145  -1.740   0.000  0.00  0.00    +0.000 OA
ATOM     15  S   UNL     1       0.358  -1.088   0.000  0.00  0.00    +0.000 S 
ENDROOT
BRANCH   6  17
ATOM     16  C   UNL     1       3.451   1.118   0.000  0.00  0.00    +0.000 C 
ATOM     17  O   UNL     1       2.641   1.276   0.000  0.00  0.00    +0.000 OA
ENDBRANCH   6  17
BRANCH  11  18
ATOM     18  C   UNL     1      -2.714   0.550   0.000  0.00  0.00    +0.000 C 
ATOM     19  N   UNL     1      -3.317  -0.012   0.000  0.00  0.00    +0.000 NA
ENDBRANCH  11  18
TORSDOF 2
