REMARK  Name = BAF
REMARK  6 active torsions:
REMARK  status: ('A' for Active; 'I' for Inactive)
REMARK    1  A    between atoms: N_1  and  C_4
REMARK    2  A    between atoms: C_4  and  N_6
REMARK    3  A    between atoms: C_7  and  C_9
REMARK    4  A    between atoms: C_9  and  N_11
REMARK    5  A    between atoms: C_12  and  O_14
REMARK    6  A    between atoms: O_14  and  C_15
REMARK                            x       y       z     vdW  Elec       q    Type
REMARK                         _______ _______ _______ _____ _____    ______ ____
ROOT
ATOM      1  C   UNL     1      -0.185   0.070   0.000  0.00  0.00    +0.000 C 
ATOM      2  C   UNL     1      -0.185   0.895   0.000  0.00  0.00    +0.000 C 
ENDROOT
BRANCH   1   4
ATOM      3  N   UNL     1      -1.614   0.070   0.000  0.00  0.00    +0.000 NA
ATOM      4  C   UNL     1      -0.899  -0.342   0.000  0.00  0.00    +0.000 C 
ATOM      5  O   UNL     1      -0.899  -1.167   0.000  0.00  0.00    +0.000 OA
BRANCH   3   6
ATOM      6  C   UNL     1      -2.328  -0.342   0.000  0.00  0.00    +0.000 C 
ATOM      7  C   UNL     1      -2.328  -1.167   0.000  0.00  0.00    +0.000 C 
BRANCH   6   8
ATOM      8  N   UNL     1      -3.043   0.070   0.000  0.00  0.00    +0.000 NA
ATOM      9  C   UNL     1      -3.757  -0.342   0.000  0.00  0.00    +0.000 C 
ATOM     10  O   UNL     1      -4.472   0.070   0.000  0.00  0.00    +0.000 OA
ENDBRANCH   6   8
ENDBRANCH   3   6
ENDBRANCH   1   4
BRANCH   1  11
ATOM     11  N   UNL     1       0.530  -0.342   0.000  0.00  0.00    +0.000 NA
ATOM     12  C   UNL     1       1.244   0.070   0.000  0.00  0.00    +0.000 C 
ATOM     13  O   UNL     1       1.244   0.895   0.000  0.00  0.00    +0.000 OA
BRANCH  12  14
ATOM     14  O   UNL     1       1.959  -0.342   0.000  0.00  0.00    +0.000 OA
BRANCH  14  15
ATOM     15  C   UNL     1       2.673   0.070   0.000  0.00  0.00    +0.000 C 
ATOM     16  C   UNL     1       3.388   0.483   0.000  0.00  0.00    +0.000 C 
ATOM     17  C   UNL     1       3.086  -0.644   0.000  0.00  0.00    +0.000 C 
ATOM     18  C   UNL     1       2.261   0.785   0.000  0.00  0.00    +0.000 C 
ENDBRANCH  14  15
ENDBRANCH  12  14
ENDBRANCH   1  11
TORSDOF 6
