REMARK  Name = BAI
REMARK  3 active torsions:
REMARK  status: ('A' for Active; 'I' for Inactive)
REMARK    1  A    between atoms: C_1  and  C_7
REMARK    2  A    between atoms: C_8  and  C_9
REMARK    3  A    between atoms: C_9  and  C_20
REMARK                            x       y       z     vdW  Elec       q    Type
REMARK                         _______ _______ _______ _____ _____    ______ ____
ROOT
ATOM      1  C   UNL     1      -0.521  -1.744   0.000  0.00  0.00    +0.000 A 
ATOM      2  C   UNL     1      -1.236  -1.331   0.000  0.00  0.00    +0.000 A 
ATOM      3  C   UNL     1      -1.236  -0.506   0.000  0.00  0.00    +0.000 A 
ATOM      4  C   UNL     1      -0.521  -0.094   0.000  0.00  0.00    +0.000 A 
ATOM      5  C   UNL     1       0.193  -0.506   0.000  0.00  0.00    +0.000 A 
ATOM      6  C   UNL     1       0.193  -1.331   0.000  0.00  0.00    +0.000 A 
ATOM      7  C   UNL     1       0.471   0.799   0.000  0.00  0.00    +0.000 A 
ATOM      8  N   UNL     1      -0.350   0.713   0.000  0.00  0.00    +0.000 NA
ATOM      9  N   UNL     1       0.806   0.046   0.000  0.00  0.00    +0.000 NA
ENDROOT
BRANCH   1  10
ATOM     10  C   UNL     1      -0.521  -2.569   0.000  0.00  0.00    +0.000 C 
ATOM     11  N   UNL     1      -1.236  -2.981   0.000  0.00  0.00    +0.000 NA
ATOM     12  N   UNL     1       0.193  -2.981   0.000  0.00  0.00    +0.000 NA
ENDBRANCH   1  10
BRANCH   7  13
ATOM     13  C   UNL     1       0.883   1.514   0.000  0.00  0.00    +0.000 C 
BRANCH  13  20
ATOM     14  C   UNL     1       4.407   1.926   0.000  0.00  0.00    +0.000 A 
ATOM     15  C   UNL     1       4.407   1.101   0.000  0.00  0.00    +0.000 A 
ATOM     16  C   UNL     1       3.692   0.689   0.000  0.00  0.00    +0.000 A 
ATOM     17  C   UNL     1       2.978   1.101   0.000  0.00  0.00    +0.000 A 
ATOM     18  C   UNL     1       2.978   1.926   0.000  0.00  0.00    +0.000 A 
ATOM     19  C   UNL     1       3.692   2.339   0.000  0.00  0.00    +0.000 A 
ATOM     20  C   UNL     1       1.708   1.514   0.000  0.00  0.00    +0.000 A 
ATOM     21  N   UNL     1       2.193   0.846   0.000  0.00  0.00    +0.000 NA
ATOM     22  N   UNL     1       2.193   2.181   0.000  0.00  0.00    +0.000 NA
ENDBRANCH  13  20
ENDBRANCH   7  13
TORSDOF 3
