REMARK  Name = BAN
REMARK  10 active torsions:
REMARK  status: ('A' for Active; 'I' for Inactive)
REMARK    1  A    between atoms: C_3  and  C_5
REMARK    2  A    between atoms: C_5  and  C_6
REMARK    3  A    between atoms: C_5  and  C_13
REMARK    4  A    between atoms: C_6  and  C_7
REMARK    5  A    between atoms: N_15  and  C_16
REMARK    6  A    between atoms: C_16  and  C_18
REMARK    7  A    between atoms: N_20  and  C_21
REMARK    8  A    between atoms: C_21  and  C_22
REMARK    9  A    between atoms: C_24  and  N_33
REMARK   10  A    between atoms: C_27  and  N_30
REMARK                            x       y       z     vdW  Elec       q    Type
REMARK                         _______ _______ _______ _____ _____    ______ ____
ROOT
ATOM      1  C   UNL     1      -0.351  -2.105   0.000  0.00  0.00    +0.000 C 
ATOM      2  C   UNL     1      -0.195  -2.915   0.000  0.00  0.00    +0.000 C 
ENDROOT
BRANCH   1   5
ATOM      3  C   UNL     1      -1.754  -2.375   0.000  0.00  0.00    +0.000 C 
ATOM      4  O   UNL     1      -1.599  -3.185   0.000  0.00  0.00    +0.000 OA
ATOM      5  N   UNL     1      -1.131  -1.835   0.000  0.00  0.00    +0.000 NA
BRANCH   3   6
ATOM      6  C   UNL     1      -2.534  -2.105   0.000  0.00  0.00    +0.000 C 
BRANCH   6   9
ATOM      7  O   UNL     1      -3.625  -0.215   0.000  0.00  0.00    +0.000 OA
ATOM      8  N   UNL     1      -3.469  -1.025   0.000  0.00  0.00    +0.000 NA
ATOM      9  C   UNL     1      -2.690  -1.295   0.000  0.00  0.00    +0.000 C 
ATOM     10  O   UNL     1      -2.066  -0.755   0.000  0.00  0.00    +0.000 OA
ENDBRANCH   6   9
BRANCH   6  11
ATOM     11  C   UNL     1      -3.158  -2.645   0.000  0.00  0.00    +0.000 C 
BRANCH  11  12
ATOM     12  C   UNL     1      -3.937  -2.375   0.000  0.00  0.00    +0.000 A 
ATOM     13  C   UNL     1      -4.561  -2.915   0.000  0.00  0.00    +0.000 A 
ATOM     14  C   UNL     1      -4.093  -1.565   0.000  0.00  0.00    +0.000 A 
ATOM     15  C   UNL     1      -5.340  -2.645   0.000  0.00  0.00    +0.000 A 
ATOM     16  C   UNL     1      -4.873  -1.295   0.000  0.00  0.00    +0.000 A 
ATOM     17  C   UNL     1      -5.496  -1.835   0.000  0.00  0.00    +0.000 A 
ENDBRANCH  11  12
ENDBRANCH   6  11
ENDBRANCH   3   6
ENDBRANCH   1   5
BRANCH   1  18
ATOM     18  C   UNL     1       0.273  -1.565   0.000  0.00  0.00    +0.000 C 
ATOM     19  O   UNL     1       0.117  -0.755   0.000  0.00  0.00    +0.000 OA
ATOM     20  N   UNL     1       1.052  -1.835   0.000  0.00  0.00    +0.000 NA
BRANCH  20  21
ATOM     21  C   UNL     1       1.676  -1.295   0.000  0.00  0.00    +0.000 C 
BRANCH  21  22
ATOM     22  C   UNL     1       2.455  -1.565   0.000  0.00  0.00    +0.000 C 
ATOM     23  O   UNL     1       2.611  -2.375   0.000  0.00  0.00    +0.000 OA
ATOM     24  N   UNL     1       3.079  -1.025   0.000  0.00  0.00    +0.000 NA
BRANCH  24  25
ATOM     25  C   UNL     1       3.858  -1.295   0.000  0.00  0.00    +0.000 A 
ATOM     26  C   UNL     1       4.482  -0.755   0.000  0.00  0.00    +0.000 A 
ATOM     27  C   UNL     1       5.262  -1.025   0.000  0.00  0.00    +0.000 A 
ATOM     28  C   UNL     1       5.418  -1.835   0.000  0.00  0.00    +0.000 A 
ATOM     29  C   UNL     1       4.794  -2.375   0.000  0.00  0.00    +0.000 A 
ATOM     30  C   UNL     1       4.014  -2.105   0.000  0.00  0.00    +0.000 A 
BRANCH  28  31
ATOM     31  N   UNL     1       6.197  -2.105   0.000  0.00  0.00    +0.000 N 
ATOM     32  O   UNL     1       6.821  -1.565   0.000  0.00  0.00    +0.000 OA
ATOM     33  O   UNL     1       6.353  -2.915   0.000  0.00  0.00    +0.000 OA
ENDBRANCH  28  31
ENDBRANCH  24  25
ENDBRANCH  21  22
ENDBRANCH  20  21
ENDBRANCH   1  18
TORSDOF 10
