REMARK  Name = BAP
REMARK  0 active torsions:
REMARK  status: ('A' for Active; 'I' for Inactive)
REMARK                            x       y       z     vdW  Elec       q    Type
REMARK                         _______ _______ _______ _____ _____    ______ ____
ROOT
ATOM      1  C   UNL     1      -2.817  -0.465   0.000  0.00  0.00    +0.000 A 
ATOM      2  C   UNL     1      -3.087   0.315   0.000  0.00  0.00    +0.000 A 
ATOM      3  C   UNL     1      -2.547   0.939   0.000  0.00  0.00    +0.000 A 
ATOM      4  C   UNL     1      -1.737   0.782   0.000  0.00  0.00    +0.000 A 
ATOM      5  C   UNL     1      -1.197   1.406   0.000  0.00  0.00    +0.000 A 
ATOM      6  C   UNL     1      -0.387   1.250   0.000  0.00  0.00    +0.000 A 
ATOM      7  C   UNL     1      -0.117   0.471   0.000  0.00  0.00    +0.000 A 
ATOM      8  C   UNL     1       0.693   0.315   0.000  0.00  0.00    +0.000 A 
ATOM      9  C   UNL     1       0.964  -0.465   0.000  0.00  0.00    +0.000 A 
ATOM     10  C   UNL     1       0.423  -1.088   0.000  0.00  0.00    +0.000 A 
ATOM     11  C   UNL     1      -0.387  -0.932   0.000  0.00  0.00    +0.000 A 
ATOM     12  C   UNL     1      -0.927  -1.556   0.000  0.00  0.00    +0.000 A 
ATOM     13  C   UNL     1      -1.737  -1.400   0.000  0.00  0.00    +0.000 A 
ATOM     14  C   UNL     1      -2.007  -0.621   0.000  0.00  0.00    +0.000 A 
ATOM     15  C   UNL     1      -1.467   0.003   0.000  0.00  0.00    +0.000 A 
ATOM     16  C   UNL     1      -0.657  -0.153   0.000  0.00  0.00    +0.000 A 
ATOM     17  C   UNL     1       1.774  -0.621   0.000  0.00  0.00    +0.000 C 
ATOM     18  O   UNL     1       2.044  -1.400   0.000  0.00  0.00    +0.000 OA
ATOM     19  C   UNL     1       2.314   0.003   0.000  0.00  0.00    +0.000 C 
ATOM     20  O   UNL     1       3.124  -0.153   0.000  0.00  0.00    +0.000 OA
ATOM     21  C   UNL     1       2.044   0.782   0.000  0.00  0.00    +0.000 C 
ATOM     22  O   UNL     1       2.584   1.406   0.000  0.00  0.00    +0.000 OA
ATOM     23  C   UNL     1       1.234   0.939   0.000  0.00  0.00    +0.000 C 
ENDROOT
TORSDOF 0
