REMARK  Name = BAS
REMARK  3 active torsions:
REMARK  status: ('A' for Active; 'I' for Inactive)
REMARK    1  A    between atoms: N_3  and  C_4
REMARK    2  A    between atoms: C_4  and  C_5
REMARK    3  A    between atoms: C_4  and  C_7
REMARK                            x       y       z     vdW  Elec       q    Type
REMARK                         _______ _______ _______ _____ _____    ______ ____
ROOT
ATOM      1  C   UNL     1      -0.038   0.470   0.000  0.00  0.00    +0.000 C 
ENDROOT
BRANCH   1   2
ATOM      2  C   UNL     1      -0.038  -0.355   0.000  0.00  0.00    +0.000 A 
ATOM      3  C   UNL     1       0.676  -0.768   0.000  0.00  0.00    +0.000 A 
ATOM      4  C   UNL     1       0.676  -1.593   0.000  0.00  0.00    +0.000 A 
ATOM      5  C   UNL     1      -0.038  -2.005   0.000  0.00  0.00    +0.000 A 
ATOM      6  C   UNL     1      -0.753  -1.593   0.000  0.00  0.00    +0.000 A 
ATOM      7  C   UNL     1      -0.753  -0.768   0.000  0.00  0.00    +0.000 A 
ENDBRANCH   1   2
BRANCH   1  10
ATOM      8  C   UNL     1      -0.753   1.707   0.000  0.00  0.00    +0.000 C 
ATOM      9  O   UNL     1      -1.467   2.120   0.000  0.00  0.00    +0.000 OA
ATOM     10  N   UNL     1      -0.753   0.882   0.000  0.00  0.00    +0.000 NA
ENDBRANCH   1  10
BRANCH   1  11
ATOM     11  C   UNL     1       0.676   0.882   0.000  0.00  0.00    +0.000 C 
ATOM     12  C   UNL     1       1.391   0.470   0.000  0.00  0.00    +0.000 C 
ENDBRANCH   1  11
TORSDOF 3
