REMARK  Name = BB1
REMARK  9 active torsions:
REMARK  status: ('A' for Active; 'I' for Inactive)
REMARK    1  A    between atoms: C_1  and  C_2
REMARK    2  A    between atoms: C_1  and  N_11
REMARK    3  A    between atoms: C_2  and  C_3
REMARK    4  A    between atoms: C_2  and  C_7
REMARK    5  A    between atoms: N_5  and  C_6
REMARK    6  A    between atoms: C_6  and  C_15
REMARK    7  A    between atoms: C_6  and  C_20
REMARK    8  A    between atoms: C_7  and  C_8
REMARK    9  A    between atoms: C_8  and  C_9
REMARK                            x       y       z     vdW  Elec       q    Type
REMARK                         _______ _______ _______ _____ _____    ______ ____
ROOT
ATOM      1  C   UNL     1       0.355  -0.002   0.000  0.00  0.00    +0.000 C 
ATOM      2  O   UNL     1       0.355   0.823   0.000  0.00  0.00    +0.000 OA
ATOM      3  N   UNL     1      -0.359  -0.415   0.000  0.00  0.00    +0.000 NA
ENDROOT
BRANCH   3   4
ATOM      4  C   UNL     1      -1.074  -0.002   0.000  0.00  0.00    +0.000 C 
BRANCH   4   5
ATOM      5  C   UNL     1      -1.788  -0.415   0.000  0.00  0.00    +0.000 C 
ATOM      6  N   UNL     1      -2.503  -0.002   0.000  0.00  0.00    +0.000 N 
ATOM      7  C   UNL     1      -3.217  -0.415   0.000  0.00  0.00    +0.000 C 
ATOM      8  C   UNL     1      -2.503   0.823   0.000  0.00  0.00    +0.000 C 
ATOM      9  O   UNL     1      -1.788  -1.240   0.000  0.00  0.00    +0.000 OA
ENDBRANCH   4   5
BRANCH   4  10
ATOM     10  C   UNL     1      -1.074   0.823   0.000  0.00  0.00    +0.000 C 
ATOM     11  C   UNL     1      -1.074   1.648   0.000  0.00  0.00    +0.000 C 
ATOM     12  C   UNL     1      -1.899   0.823   0.000  0.00  0.00    +0.000 C 
ATOM     13  C   UNL     1      -0.249   0.823   0.000  0.00  0.00    +0.000 C 
ENDBRANCH   4  10
ENDBRANCH   3   4
BRANCH   1  14
ATOM     14  C   UNL     1       1.069  -0.415   0.000  0.00  0.00    +0.000 C 
BRANCH  14  15
ATOM     15  C   UNL     1       1.069  -1.240   0.000  0.00  0.00    +0.000 C 
BRANCH  15  16
ATOM     16  N   UNL     1       1.784  -1.652   0.000  0.00  0.00    +0.000 N 
ATOM     17  C   UNL     1       2.498  -1.240   0.000  0.00  0.00    +0.000 C 
ATOM     18  O   UNL     1       3.213  -1.652   0.000  0.00  0.00    +0.000 OA
ATOM     19  O   UNL     1       1.784  -2.477   0.000  0.00  0.00    +0.000 OA
ENDBRANCH  15  16
ENDBRANCH  14  15
BRANCH  14  20
ATOM     20  C   UNL     1       1.784  -0.002   0.000  0.00  0.00    +0.000 C 
BRANCH  20  21
ATOM     21  C   UNL     1       2.498  -0.415   0.000  0.00  0.00    +0.000 C 
BRANCH  21  22
ATOM     22  C   UNL     1       3.213  -0.002   0.000  0.00  0.00    +0.000 C 
ATOM     23  C   UNL     1       3.927  -0.415   0.000  0.00  0.00    +0.000 C 
ENDBRANCH  21  22
ENDBRANCH  20  21
ENDBRANCH  14  20
ENDBRANCH   1  14
TORSDOF 9
