REMARK  Name = BBB
REMARK  9 active torsions:
REMARK  status: ('A' for Active; 'I' for Inactive)
REMARK    1  A    between atoms: C_2  and  C_3
REMARK    2  A    between atoms: C_3  and  O_4
REMARK    3  A    between atoms: O_4  and  C_5
REMARK    4  A    between atoms: C_5  and  N_6
REMARK    5  A    between atoms: C_13  and  C_14
REMARK    6  A    between atoms: C_14  and  C_15
REMARK    7  A    between atoms: C_20  and  O_21
REMARK    8  A    between atoms: O_21  and  C_22
REMARK    9  A    between atoms: C_22  and  C_23
REMARK                            x       y       z     vdW  Elec       q    Type
REMARK                         _______ _______ _______ _____ _____    ______ ____
ROOT
ATOM      1  C   UNL     1       2.011  -0.790   0.000  0.00  0.00    +0.000 C 
ENDROOT
BRANCH   1   9
ATOM      2  N   UNL     1      -0.133  -0.378   0.000  0.00  0.00    +0.000 N 
ATOM      3  C   UNL     1      -0.133   0.447   0.000  0.00  0.00    +0.000 A 
ATOM      4  O   UNL     1      -0.847   0.860   0.000  0.00  0.00    +0.000 OA
ATOM      5  N   UNL     1       0.582   0.860   0.000  0.00  0.00    +0.000 NA
ATOM      6  C   UNL     1       1.296   0.447   0.000  0.00  0.00    +0.000 A 
ATOM      7  O   UNL     1       2.011   0.860   0.000  0.00  0.00    +0.000 OA
ATOM      8  C   UNL     1       0.582  -0.790   0.000  0.00  0.00    +0.000 A 
ATOM      9  C   UNL     1       1.296  -0.378   0.000  0.00  0.00    +0.000 A 
ATOM     10  O   UNL     1       0.582  -1.615   0.000  0.00  0.00    +0.000 OA
BRANCH   2  11
ATOM     11  C   UNL     1      -0.847  -0.790   0.000  0.00  0.00    +0.000 C 
BRANCH  11  12
ATOM     12  O   UNL     1      -1.562  -0.378   0.000  0.00  0.00    +0.000 OA
BRANCH  12  13
ATOM     13  C   UNL     1      -2.276  -0.790   0.000  0.00  0.00    +0.000 C 
BRANCH  13  15
ATOM     14  O   UNL     1      -3.705  -0.790   0.000  0.00  0.00    +0.000 OA
ATOM     15  C   UNL     1      -2.991  -0.378   0.000  0.00  0.00    +0.000 C 
ENDBRANCH  13  15
ENDBRANCH  12  13
ENDBRANCH  11  12
ENDBRANCH   2  11
ENDBRANCH   1   9
BRANCH   1  16
ATOM     16  C   UNL     1       2.725  -0.378   0.000  0.00  0.00    +0.000 A 
ATOM     17  C   UNL     1       2.725   0.447   0.000  0.00  0.00    +0.000 A 
ATOM     18  C   UNL     1       3.439   0.860   0.000  0.00  0.00    +0.000 A 
ATOM     19  C   UNL     1       4.154   0.447   0.000  0.00  0.00    +0.000 A 
ATOM     20  C   UNL     1       3.439  -0.790   0.000  0.00  0.00    +0.000 A 
ATOM     21  C   UNL     1       4.154  -0.378   0.000  0.00  0.00    +0.000 A 
BRANCH  21  22
ATOM     22  O   UNL     1       4.869  -0.790   0.000  0.00  0.00    +0.000 OA
BRANCH  22  23
ATOM     23  C   UNL     1       5.583  -0.378   0.000  0.00  0.00    +0.000 C 
BRANCH  23  24
ATOM     24  C   UNL     1       6.297  -0.790   0.000  0.00  0.00    +0.000 A 
ATOM     25  C   UNL     1       7.012  -0.378   0.000  0.00  0.00    +0.000 A 
ATOM     26  C   UNL     1       7.726  -0.790   0.000  0.00  0.00    +0.000 A 
ATOM     27  C   UNL     1       7.726  -1.615   0.000  0.00  0.00    +0.000 A 
ATOM     28  C   UNL     1       7.012  -2.028   0.000  0.00  0.00    +0.000 A 
ATOM     29  C   UNL     1       6.297  -1.615   0.000  0.00  0.00    +0.000 A 
ENDBRANCH  23  24
ENDBRANCH  22  23
ENDBRANCH  21  22
ENDBRANCH   1  16
TORSDOF 9
