REMARK  Name = BBH
REMARK  6 active torsions:
REMARK  status: ('A' for Active; 'I' for Inactive)
REMARK    1  A    between atoms: C_1  and  S_9
REMARK    2  A    between atoms: C_4  and  O_7
REMARK    3  A    between atoms: S_9  and  N_12
REMARK    4  A    between atoms: C_13  and  C_19
REMARK    5  A    between atoms: N_16  and  C_23
REMARK    6  A    between atoms: C_23  and  C_26
REMARK                            x       y       z     vdW  Elec       q    Type
REMARK                         _______ _______ _______ _____ _____    ______ ____
ROOT
ATOM      1  N   UNL     1       0.060   0.038   0.000  0.00  0.00    +0.000 NA
ATOM      2  C   UNL     1      -0.655   0.451   0.000  0.00  0.00    +0.000 C 
ATOM      3  C   UNL     1      -0.655   1.276   0.000  0.00  0.00    +0.000 C 
ATOM      4  C   UNL     1       0.060   1.688   0.000  0.00  0.00    +0.000 C 
ATOM      5  N   UNL     1       0.774   1.276   0.000  0.00  0.00    +0.000 N 
ATOM      6  C   UNL     1       0.774   0.451   0.000  0.00  0.00    +0.000 C 
ATOM      7  O   UNL     1       0.060   2.513   0.000  0.00  0.00    +0.000 OA
ENDROOT
BRANCH   2   8
ATOM      8  C   UNL     1      -1.369   0.038   0.000  0.00  0.00    +0.000 C 
ATOM      9  N   UNL     1      -1.369  -0.787   0.000  0.00  0.00    +0.000 NA
ATOM     10  O   UNL     1      -2.084  -1.199   0.000  0.00  0.00    +0.000 OA
ATOM     11  O   UNL     1      -2.084   0.451   0.000  0.00  0.00    +0.000 OA
ENDBRANCH   2   8
BRANCH   1  12
ATOM     12  S   UNL     1       0.060  -0.787   0.000  0.00  0.00    +0.000 S 
ATOM     13  O   UNL     1       0.885  -0.787   0.000  0.00  0.00    +0.000 OA
ATOM     14  O   UNL     1      -0.765  -0.787   0.000  0.00  0.00    +0.000 OA
BRANCH  12  15
ATOM     15  C   UNL     1       0.060  -1.612   0.000  0.00  0.00    +0.000 A 
ATOM     16  C   UNL     1       0.774  -2.024   0.000  0.00  0.00    +0.000 A 
ATOM     17  C   UNL     1       0.774  -2.849   0.000  0.00  0.00    +0.000 A 
ATOM     18  C   UNL     1       0.060  -3.262   0.000  0.00  0.00    +0.000 A 
ATOM     19  C   UNL     1      -0.655  -2.849   0.000  0.00  0.00    +0.000 A 
ATOM     20  C   UNL     1      -0.655  -2.024   0.000  0.00  0.00    +0.000 A 
BRANCH  18  21
ATOM     21  O   UNL     1       0.060  -4.087   0.000  0.00  0.00    +0.000 OA
ATOM     22  C   UNL     1      -0.655  -4.499   0.000  0.00  0.00    +0.000 C 
ENDBRANCH  18  21
ENDBRANCH  12  15
ENDBRANCH   1  12
BRANCH   5  23
ATOM     23  C   UNL     1       1.489   1.688   0.000  0.00  0.00    +0.000 C 
BRANCH  23  26
ATOM     24  C   UNL     1       2.203   3.751   0.000  0.00  0.00    +0.000 A 
ATOM     25  C   UNL     1       2.203   2.926   0.000  0.00  0.00    +0.000 A 
ATOM     26  C   UNL     1       1.489   2.513   0.000  0.00  0.00    +0.000 A 
ATOM     27  C   UNL     1       0.774   2.926   0.000  0.00  0.00    +0.000 A 
ATOM     28  C   UNL     1       0.774   3.751   0.000  0.00  0.00    +0.000 A 
ATOM     29  C   UNL     1       1.489   4.163   0.000  0.00  0.00    +0.000 A 
ENDBRANCH  23  26
ENDBRANCH   5  23
TORSDOF 6
