REMARK  Name = BBL
REMARK  5 active torsions:
REMARK  status: ('A' for Active; 'I' for Inactive)
REMARK    1  A    between atoms: C_2  and  CA_4
REMARK    2  A    between atoms: CA_4  and  N_6
REMARK    3  A    between atoms: C_7  and  O_9
REMARK    4  A    between atoms: O_9  and  C_10
REMARK    5  A    between atoms: C_10  and  C_11
REMARK                            x       y       z     vdW  Elec       q    Type
REMARK                         _______ _______ _______ _____ _____    ______ ____
ROOT
ATOM      1  N   ALA A   1      -1.434  -0.255   0.000  0.00  0.00    +0.000 NA
ATOM      2  C   UNK A   0      -0.720   0.158   0.000  0.00  0.00    +0.000 C 
ATOM      3  O   UNK A   0      -0.720   0.983   0.000  0.00  0.00    +0.000 OA
ENDROOT
BRANCH   1   4
ATOM      4  CA  ALA A   1      -2.149   0.158   0.000  0.00  0.00    +0.000 C 
ATOM      5  CB  ALA A   1      -2.149   0.983   0.000  0.00  0.00    +0.000 C 
BRANCH   4   7
ATOM      6  O   ALA A   1      -3.578   0.158   0.000  0.00  0.00    +0.000 OA
ATOM      7  C   ALA A   1      -2.863  -0.255   0.000  0.00  0.00    +0.000 C 
ATOM      8  OXT ALA A   1      -2.863  -1.080   0.000  0.00  0.00    +0.000 OA
ENDBRANCH   4   7
ENDBRANCH   1   4
BRANCH   2   9
ATOM      9  O   UNK A   0      -0.005  -0.255   0.000  0.00  0.00    +0.000 OA
BRANCH   9  10
ATOM     10  C   UNK A   0       0.709   0.158   0.000  0.00  0.00    +0.000 C 
BRANCH  10  11
ATOM     11  C   UNK A   0       1.423  -0.255   0.000  0.00  0.00    +0.000 A 
ATOM     12  C   UNK A   0       2.138   0.158   0.000  0.00  0.00    +0.000 A 
ATOM     13  C   UNK A   0       2.852  -0.255   0.000  0.00  0.00    +0.000 A 
ATOM     14  C   UNK A   0       2.852  -1.080   0.000  0.00  0.00    +0.000 A 
ATOM     15  C   UNK A   0       2.138  -1.492   0.000  0.00  0.00    +0.000 A 
ATOM     16  C   UNK A   0       1.423  -1.080   0.000  0.00  0.00    +0.000 A 
ENDBRANCH  10  11
ENDBRANCH   9  10
ENDBRANCH   2   9
TORSDOF 5
