REMARK  Name = BBS
REMARK  2 active torsions:
REMARK  status: ('A' for Active; 'I' for Inactive)
REMARK    1  A    between atoms: C_2  and  C_10
REMARK    2  A    between atoms: C_7  and  S_11
REMARK                            x       y       z     vdW  Elec       q    Type
REMARK                         _______ _______ _______ _____ _____    ______ ____
ROOT
ATOM      1  C   UNL     1       0.676  -0.123   0.000  0.00  0.00    +0.000 A 
ATOM      2  C   UNL     1       0.676  -0.949   0.000  0.00  0.00    +0.000 A 
ATOM      3  C   UNL     1      -0.039  -1.361   0.000  0.00  0.00    +0.000 A 
ATOM      4  C   UNL     1      -0.753  -0.949   0.000  0.00  0.00    +0.000 A 
ATOM      5  C   UNL     1      -0.753  -0.123   0.000  0.00  0.00    +0.000 A 
ATOM      6  C   UNL     1      -0.039   0.289   0.000  0.00  0.00    +0.000 A 
ENDROOT
BRANCH   6   8
ATOM      7  C   UNL     1      -0.039   1.939   0.000  0.00  0.00    +0.000 C 
ATOM      8  C   UNL     1      -0.039   1.114   0.000  0.00  0.00    +0.000 C 
ATOM      9  C   UNL     1      -0.864   1.114   0.000  0.00  0.00    +0.000 C 
ATOM     10  C   UNL     1       0.786   1.114   0.000  0.00  0.00    +0.000 C 
ENDBRANCH   6   8
BRANCH   3  11
ATOM     11  S   UNL     1      -0.039  -2.186   0.000  0.00  0.00    +0.000 S 
ATOM     12  O   UNL     1      -0.039  -3.011   0.000  0.00  0.00    +0.000 OA
ATOM     13  O   UNL     1      -0.864  -2.186   0.000  0.00  0.00    +0.000 OA
ATOM     14  O   UNL     1       0.786  -2.186   0.000  0.00  0.00    +0.000 OA
ENDBRANCH   3  11
TORSDOF 2
