REMARK  Name = BC1
REMARK  5 active torsions:
REMARK  status: ('A' for Active; 'I' for Inactive)
REMARK    1  A    between atoms: C_2  and  C_4
REMARK    2  A    between atoms: C_4  and  C_5
REMARK    3  A    between atoms: C_5  and  N_6
REMARK    4  A    between atoms: C_7  and  C_9
REMARK    5  A    between atoms: C_9  and  C_10
REMARK                            x       y       z     vdW  Elec       q    Type
REMARK                         _______ _______ _______ _____ _____    ______ ____
ROOT
ATOM      1  C   UNL     1       0.288   0.234   0.000  0.00  0.00    +0.000 C 
ATOM      2  C   UNL     1       0.571  -0.541   0.000  0.00  0.00    +0.000 A 
ATOM      3  C   UNL     1       0.040  -1.173   0.000  0.00  0.00    +0.000 A 
ATOM      4  C   UNL     1       0.322  -1.949   0.000  0.00  0.00    +0.000 A 
ATOM      5  C   UNL     1       1.135  -2.092   0.000  0.00  0.00    +0.000 A 
ATOM      6  C   UNL     1       1.665  -1.460   0.000  0.00  0.00    +0.000 A 
ATOM      7  C   UNL     1       1.383  -0.685   0.000  0.00  0.00    +0.000 A 
ATOM      8  N   UNL     1       1.913  -0.053   0.000  0.00  0.00    +0.000 N 
ATOM      9  C   UNL     1       1.631   0.723   0.000  0.00  0.00    +0.000 A 
ATOM     10  C   UNL     1       0.819   0.866   0.000  0.00  0.00    +0.000 A 
ATOM     11  C   UNL     1       0.536   1.641   0.000  0.00  0.00    +0.000 A 
ATOM     12  C   UNL     1       1.067   2.273   0.000  0.00  0.00    +0.000 A 
ATOM     13  C   UNL     1       1.879   2.130   0.000  0.00  0.00    +0.000 A 
ATOM     14  C   UNL     1       2.161   1.355   0.000  0.00  0.00    +0.000 A 
ATOM     15  C   UNL     1       2.726  -0.196   0.000  0.00  0.00    +0.000 C 
ENDROOT
BRANCH   1  17
ATOM     16  N   UNL     1      -1.141   0.234   0.000  0.00  0.00    +0.000 NA
ATOM     17  C   UNL     1      -0.426  -0.179   0.000  0.00  0.00    +0.000 C 
ATOM     18  O   UNL     1      -0.426  -1.004   0.000  0.00  0.00    +0.000 OA
BRANCH  16  19
ATOM     19  C   UNL     1      -1.855  -0.179   0.000  0.00  0.00    +0.000 C 
BRANCH  19  20
ATOM     20  C   UNL     1      -2.570   0.234   0.000  0.00  0.00    +0.000 C 
BRANCH  20  22
ATOM     21  O   UNL     1      -3.998   0.234   0.000  0.00  0.00    +0.000 OA
ATOM     22  C   UNL     1      -3.284  -0.179   0.000  0.00  0.00    +0.000 C 
ATOM     23  O   UNL     1      -3.284  -1.004   0.000  0.00  0.00    +0.000 OA
ENDBRANCH  20  22
ENDBRANCH  19  20
ENDBRANCH  16  19
ENDBRANCH   1  17
BRANCH   1  24
ATOM     24  C   UNL     1      -0.242   0.866   0.000  0.00  0.00    +0.000 C 
ATOM     25  N   UNL     1      -0.772   1.498   0.000  0.00  0.00    +0.000 NA
ENDBRANCH   1  24
TORSDOF 5
