REMARK  Name = BD4
REMARK  3 active torsions:
REMARK  status: ('A' for Active; 'I' for Inactive)
REMARK    1  A    between atoms: N_20  and  C_21
REMARK    2  A    between atoms: C_21  and  C_22
REMARK    3  A    between atoms: C_22  and  C_23
REMARK                            x       y       z     vdW  Elec       q    Type
REMARK                         _______ _______ _______ _____ _____    ______ ____
ROOT
ATOM      1  O   UNL     1       3.901  -0.556   0.000  0.00  0.00    +0.000 OA
ATOM      2  C   UNL     1       3.120  -0.823   0.000  0.00  0.00    +0.000 C 
ATOM      3  N   UNL     1       2.878  -1.611   0.000  0.00  0.00    +0.000 NA
ATOM      4  C   UNL     1       2.053  -1.624   0.000  0.00  0.00    +0.000 C 
ATOM      5  O   UNL     1       1.578  -2.299   0.000  0.00  0.00    +0.000 OA
ATOM      6  C   UNL     1       1.786  -0.843   0.000  0.00  0.00    +0.000 A 
ATOM      7  C   UNL     1       2.446  -0.348   0.000  0.00  0.00    +0.000 A 
ATOM      8  C   UNL     1       2.347   0.471   0.000  0.00  0.00    +0.000 A 
ATOM      9  C   UNL     1       3.007   0.966   0.000  0.00  0.00    +0.000 C 
ATOM     10  C   UNL     1       1.588   0.795   0.000  0.00  0.00    +0.000 A 
ATOM     11  C   UNL     1       0.928   0.300   0.000  0.00  0.00    +0.000 A 
ATOM     12  C   UNL     1       1.027  -0.519   0.000  0.00  0.00    +0.000 A 
ATOM     13  C   UNL     1       0.279  -0.866   0.000  0.00  0.00    +0.000 A 
ATOM     14  C   UNL     1       0.036  -1.655   0.000  0.00  0.00    +0.000 A 
ATOM     15  C   UNL     1      -0.769  -1.838   0.000  0.00  0.00    +0.000 A 
ATOM     16  C   UNL     1      -1.012  -2.627   0.000  0.00  0.00    +0.000 C 
ATOM     17  C   UNL     1      -1.330  -1.234   0.000  0.00  0.00    +0.000 A 
ATOM     18  C   UNL     1      -1.087  -0.445   0.000  0.00  0.00    +0.000 A 
ATOM     19  C   UNL     1      -0.283  -0.262   0.000  0.00  0.00    +0.000 A 
ATOM     20  N   UNL     1       0.119   0.459   0.000  0.00  0.00    +0.000 N 
ENDROOT
BRANCH  20  21
ATOM     21  C   UNL     1      -0.228   1.208   0.000  0.00  0.00    +0.000 C 
BRANCH  21  22
ATOM     22  C   UNL     1      -1.050   1.281   0.000  0.00  0.00    +0.000 C 
BRANCH  22  23
ATOM     23  C   UNL     1      -1.397   2.030   0.000  0.00  0.00    +0.000 C 
ATOM     24  N   UNL     1      -2.218   2.104   0.000  0.00  0.00    +0.000 NA
ENDBRANCH  22  23
ENDBRANCH  21  22
ENDBRANCH  20  21
TORSDOF 3
