REMARK  Name = BDB
REMARK  3 active torsions:
REMARK  status: ('A' for Active; 'I' for Inactive)
REMARK    1  A    between atoms: B_1  and  C_4
REMARK    2  A    between atoms: C_7  and  C_10
REMARK    3  A    between atoms: C_13  and  B_16
REMARK                            x       y       z     vdW  Elec       q    Type
REMARK                         _______ _______ _______ _____ _____    ______ ____
ROOT
ATOM      1  C   UNL     1       0.014   2.067   0.000  0.00  0.00    +0.000 A 
ATOM      2  C   UNL     1       0.728   1.655   0.000  0.00  0.00    +0.000 A 
ATOM      3  C   UNL     1       0.728   0.830   0.000  0.00  0.00    +0.000 A 
ATOM      4  C   UNL     1       0.014   0.417   0.000  0.00  0.00    +0.000 A 
ATOM      5  C   UNL     1      -0.701   0.830   0.000  0.00  0.00    +0.000 A 
ATOM      6  C   UNL     1      -0.701   1.655   0.000  0.00  0.00    +0.000 A 
ENDROOT
BRANCH   4   7
ATOM      7  C   UNL     1       0.014  -0.408   0.000  0.00  0.00    +0.000 A 
ATOM      8  C   UNL     1       0.728  -0.820   0.000  0.00  0.00    +0.000 A 
ATOM      9  C   UNL     1       0.728  -1.645   0.000  0.00  0.00    +0.000 A 
ATOM     10  C   UNL     1       0.014  -2.058   0.000  0.00  0.00    +0.000 A 
ATOM     11  C   UNL     1      -0.701  -1.645   0.000  0.00  0.00    +0.000 A 
ATOM     12  C   UNL     1      -0.701  -0.820   0.000  0.00  0.00    +0.000 A 
BRANCH  10  13
ATOM     13  B   UNL     1       0.014  -2.883   0.000  0.00  0.00    +0.000 B 
ATOM     14  O   UNL     1       0.728  -3.295   0.000  0.00  0.00    +0.000 OA
ATOM     15  O   UNL     1      -0.701  -3.295   0.000  0.00  0.00    +0.000 OA
ENDBRANCH  10  13
ENDBRANCH   4   7
BRANCH   1  16
ATOM     16  B   UNL     1       0.014   2.892   0.000  0.00  0.00    +0.000 B 
ATOM     17  O   UNL     1      -0.701   3.305   0.000  0.00  0.00    +0.000 OA
ATOM     18  O   UNL     1       0.728   3.305   0.000  0.00  0.00    +0.000 OA
ENDBRANCH   1  16
TORSDOF 3
