REMARK  Name = BDE
REMARK  3 active torsions:
REMARK  status: ('A' for Active; 'I' for Inactive)
REMARK    1  A    between atoms: C_6  and  C_7
REMARK    2  A    between atoms: N_9  and  N_10
REMARK    3  A    between atoms: C_11  and  C_12
REMARK                            x       y       z     vdW  Elec       q    Type
REMARK                         _______ _______ _______ _____ _____    ______ ____
ROOT
ATOM      1  N   UNL     1      -1.244   0.169   0.000  0.00  0.00    +0.000 NA
ATOM      2  C   UNL     1      -1.958  -0.244   0.000  0.00  0.00    +0.000 C 
ENDROOT
BRANCH   2   3
ATOM      3  C   UNL     1      -2.673   0.169   0.000  0.00  0.00    +0.000 A 
ATOM      4  C   UNL     1      -3.387  -0.244   0.000  0.00  0.00    +0.000 A 
ATOM      5  C   UNL     1      -4.101   0.169   0.000  0.00  0.00    +0.000 A 
ATOM      6 BR   UNL     1      -4.816  -0.244   0.000  0.00  0.00    +0.000 Br
ATOM      7  C   UNL     1      -4.101   0.994   0.000  0.00  0.00    +0.000 A 
ATOM      8  O   UNL     1      -4.816   1.406   0.000  0.00  0.00    +0.000 OA
ATOM      9  C   UNL     1      -3.387   1.406   0.000  0.00  0.00    +0.000 A 
ATOM     10 BR   UNL     1      -3.387   2.231   0.000  0.00  0.00    +0.000 Br
ATOM     11  C   UNL     1      -2.673   0.994   0.000  0.00  0.00    +0.000 A 
ATOM     12  O   UNL     1      -1.958   1.406   0.000  0.00  0.00    +0.000 OA
ENDBRANCH   2   3
BRANCH   1  15
ATOM     13  C   UNL     1       0.185   0.169   0.000  0.00  0.00    +0.000 C 
ATOM     14  O   UNL     1       0.185   0.994   0.000  0.00  0.00    +0.000 OA
ATOM     15  N   UNL     1      -0.529  -0.244   0.000  0.00  0.00    +0.000 NA
BRANCH  13  21
ATOM     16  C   UNL     1       1.614   0.169   0.000  0.00  0.00    +0.000 A 
ATOM     17  C   UNL     1       2.329  -0.244   0.000  0.00  0.00    +0.000 A 
ATOM     18  C   UNL     1       2.329  -1.069   0.000  0.00  0.00    +0.000 A 
ATOM     19  N   UNL     1       1.614  -1.481   0.000  0.00  0.00    +0.000 NA
ATOM     20  C   UNL     1       0.900  -1.069   0.000  0.00  0.00    +0.000 A 
ATOM     21  C   UNL     1       0.900  -0.244   0.000  0.00  0.00    +0.000 A 
ENDBRANCH  13  21
ENDBRANCH   1  15
TORSDOF 3
