REMARK  Name = BDI
REMARK  3 active torsions:
REMARK  status: ('A' for Active; 'I' for Inactive)
REMARK    1  A    between atoms: C_2  and  C_3
REMARK    2  A    between atoms: C_3  and  C_4
REMARK    3  A    between atoms: C_4  and  C_5
REMARK                            x       y       z     vdW  Elec       q    Type
REMARK                         _______ _______ _______ _____ _____    ______ ____
ROOT
ATOM      1  N   UNL     1       0.441  -0.392   0.000  0.00  0.00    +0.000 NA
ATOM      2  C   UNL     1      -0.044   0.276   0.000  0.00  0.00    +0.000 A 
ATOM      3  N   UNL     1       0.441   0.943   0.000  0.00  0.00    +0.000 NA
ATOM      4  C   UNL     1       1.226   0.688   0.000  0.00  0.00    +0.000 A 
ATOM      5  C   UNL     1       1.940   1.101   0.000  0.00  0.00    +0.000 A 
ATOM      6  N   UNL     1       2.655   0.688   0.000  0.00  0.00    +0.000 NA
ATOM      7  N   UNL     1       2.655  -0.137   0.000  0.00  0.00    +0.000 NA
ATOM      8  C   UNL     1       1.940  -0.549   0.000  0.00  0.00    +0.000 A 
ATOM      9  O   UNL     1       1.940  -1.374   0.000  0.00  0.00    +0.000 OA
ATOM     10  C   UNL     1       1.226  -0.137   0.000  0.00  0.00    +0.000 A 
ATOM     11  O   UNL     1       1.940   1.926   0.000  0.00  0.00    +0.000 OA
ENDROOT
BRANCH   2  12
ATOM     12  C   UNL     1      -0.869   0.276   0.000  0.00  0.00    +0.000 C 
BRANCH  12  13
ATOM     13  C   UNL     1      -1.281  -0.439   0.000  0.00  0.00    +0.000 C 
BRANCH  13  14
ATOM     14  C   UNL     1      -2.106  -0.439   0.000  0.00  0.00    +0.000 C 
ATOM     15  C   UNL     1      -2.519  -1.153   0.000  0.00  0.00    +0.000 C 
ENDBRANCH  13  14
ENDBRANCH  12  13
ENDBRANCH   2  12
TORSDOF 3
