REMARK  Name = BDL
REMARK  7 active torsions:
REMARK  status: ('A' for Active; 'I' for Inactive)
REMARK    1  A    between atoms: C_2  and  C_4
REMARK    2  A    between atoms: C_4  and  C_5
REMARK    3  A    between atoms: C_4  and  N_9
REMARK    4  A    between atoms: C_5  and  C_6
REMARK    5  A    between atoms: N_9  and  S_10
REMARK    6  A    between atoms: S_10  and  C_13
REMARK    7  A    between atoms: C_18  and  C_19
REMARK                            x       y       z     vdW  Elec       q    Type
REMARK                         _______ _______ _______ _____ _____    ______ ____
ROOT
ATOM      1  S   UNL     1       0.095   0.425   0.000  0.00  0.00    +0.000 S 
ATOM      2  O   UNL     1      -0.317  -0.289   0.000  0.00  0.00    +0.000 OA
ATOM      3  O   UNL     1       0.508   1.140   0.000  0.00  0.00    +0.000 OA
ENDROOT
BRANCH   1   4
ATOM      4  C   UNL     1       0.810   0.013   0.000  0.00  0.00    +0.000 A 
ATOM      5  C   UNL     1       1.524   0.425   0.000  0.00  0.00    +0.000 A 
ATOM      6  C   UNL     1       2.239   0.013   0.000  0.00  0.00    +0.000 A 
ATOM      7  C   UNL     1       0.810  -0.812   0.000  0.00  0.00    +0.000 A 
ATOM      8  C   UNL     1       1.524  -1.224   0.000  0.00  0.00    +0.000 A 
ATOM      9  C   UNL     1       2.239  -0.812   0.000  0.00  0.00    +0.000 A 
BRANCH   9  10
ATOM     10  C   UNL     1       2.953  -1.224   0.000  0.00  0.00    +0.000 A 
ATOM     11  C   UNL     1       3.668  -0.812   0.000  0.00  0.00    +0.000 A 
ATOM     12  C   UNL     1       4.382  -1.224   0.000  0.00  0.00    +0.000 A 
ATOM     13  C   UNL     1       4.382  -2.050   0.000  0.00  0.00    +0.000 A 
ATOM     14  C   UNL     1       3.668  -2.462   0.000  0.00  0.00    +0.000 A 
ATOM     15  C   UNL     1       2.953  -2.050   0.000  0.00  0.00    +0.000 A 
ENDBRANCH   9  10
ENDBRANCH   1   4
BRANCH   1  16
ATOM     16  N   UNL     1      -0.619   0.838   0.000  0.00  0.00    +0.000 NA
BRANCH  16  17
ATOM     17  C   UNL     1      -1.334   0.425   0.000  0.00  0.00    +0.000 C 
BRANCH  17  19
ATOM     18  O   UNL     1      -0.619  -0.812   0.000  0.00  0.00    +0.000 OA
ATOM     19  C   UNL     1      -1.334  -0.400   0.000  0.00  0.00    +0.000 C 
ATOM     20  O   UNL     1      -2.048  -0.812   0.000  0.00  0.00    +0.000 OA
ENDBRANCH  17  19
BRANCH  17  21
ATOM     21  C   UNL     1      -2.048   0.838   0.000  0.00  0.00    +0.000 C 
BRANCH  21  22
ATOM     22  C   UNL     1      -2.763   0.425   0.000  0.00  0.00    +0.000 C 
ATOM     23  C   UNL     1      -3.477   0.838   0.000  0.00  0.00    +0.000 C 
ATOM     24  C   UNL     1      -2.763  -0.400   0.000  0.00  0.00    +0.000 C 
ENDBRANCH  21  22
ENDBRANCH  17  21
ENDBRANCH  16  17
ENDBRANCH   1  16
TORSDOF 7
