REMARK  Name = BDS
REMARK  7 active torsions:
REMARK  status: ('A' for Active; 'I' for Inactive)
REMARK    1  A    between atoms: C_1  and  C_2
REMARK    2  A    between atoms: C_1  and  C_5
REMARK    3  A    between atoms: C_1  and  C_15
REMARK    4  A    between atoms: C_5  and  C_6
REMARK    5  A    between atoms: C_15  and  C_16
REMARK    6  A    between atoms: C_15  and  C_19
REMARK    7  A    between atoms: C_19  and  C_20
REMARK                            x       y       z     vdW  Elec       q    Type
REMARK                         _______ _______ _______ _____ _____    ______ ____
ROOT
ATOM      1  C   UNL     1       0.273   0.164   0.000  0.00  0.00    +0.000 C 
ENDROOT
BRANCH   1   2
ATOM      2  C   UNL     1       0.987  -0.248   0.000  0.00  0.00    +0.000 C 
ATOM      3  O   UNL     1       0.987  -1.073   0.000  0.00  0.00    +0.000 OA
ATOM      4  O   UNL     1       1.702   0.164   0.000  0.00  0.00    +0.000 OA
ENDBRANCH   1   2
BRANCH   1   5
ATOM      5  C   UNL     1       0.273   0.989   0.000  0.00  0.00    +0.000 C 
BRANCH   5   6
ATOM      6  C   UNL     1       0.987   1.402   0.000  0.00  0.00    +0.000 A 
ATOM      7  C   UNL     1       0.987   2.227   0.000  0.00  0.00    +0.000 A 
ATOM      8  C   UNL     1       1.702   2.639   0.000  0.00  0.00    +0.000 A 
ATOM      9  C   UNL     1       2.416   2.227   0.000  0.00  0.00    +0.000 A 
ATOM     10  O   UNL     1       3.201   2.482   0.000  0.00  0.00    +0.000 OA
ATOM     11  C   UNL     1       3.686   1.814   0.000  0.00  0.00    +0.000 C 
ATOM     12  O   UNL     1       3.201   1.147   0.000  0.00  0.00    +0.000 OA
ATOM     13  C   UNL     1       2.416   1.402   0.000  0.00  0.00    +0.000 A 
ATOM     14  C   UNL     1       1.702   0.989   0.000  0.00  0.00    +0.000 A 
ENDBRANCH   5   6
ENDBRANCH   1   5
BRANCH   1  15
ATOM     15  C   UNL     1      -0.442  -0.248   0.000  0.00  0.00    +0.000 C 
BRANCH  15  16
ATOM     16  C   UNL     1      -1.156   0.164   0.000  0.00  0.00    +0.000 C 
ATOM     17  O   UNL     1      -1.871  -0.248   0.000  0.00  0.00    +0.000 OA
ATOM     18  O   UNL     1      -1.156   0.989   0.000  0.00  0.00    +0.000 OA
ENDBRANCH  15  16
BRANCH  15  19
ATOM     19  C   UNL     1      -0.442  -1.073   0.000  0.00  0.00    +0.000 C 
BRANCH  19  20
ATOM     20  C   UNL     1      -1.156  -1.486   0.000  0.00  0.00    +0.000 A 
ATOM     21  C   UNL     1      -1.156  -2.311   0.000  0.00  0.00    +0.000 A 
ATOM     22  C   UNL     1      -1.871  -2.723   0.000  0.00  0.00    +0.000 A 
ATOM     23  C   UNL     1      -2.585  -2.311   0.000  0.00  0.00    +0.000 A 
ATOM     24  O   UNL     1      -3.370  -2.566   0.000  0.00  0.00    +0.000 OA
ATOM     25  C   UNL     1      -3.855  -1.898   0.000  0.00  0.00    +0.000 C 
ATOM     26  O   UNL     1      -3.370  -1.231   0.000  0.00  0.00    +0.000 OA
ATOM     27  C   UNL     1      -2.585  -1.486   0.000  0.00  0.00    +0.000 A 
ATOM     28  C   UNL     1      -1.871  -1.073   0.000  0.00  0.00    +0.000 A 
ENDBRANCH  19  20
ENDBRANCH  15  19
ENDBRANCH   1  15
TORSDOF 7
