REMARK  Name = BEK
REMARK  2 active torsions:
REMARK  status: ('A' for Active; 'I' for Inactive)
REMARK    1  A    between atoms: C_1  and  C_4
REMARK    2  A    between atoms: C_11  and  O_14
REMARK                            x       y       z     vdW  Elec       q    Type
REMARK                         _______ _______ _______ _____ _____    ______ ____
ROOT
ATOM      1  C   UNL     1       0.584   0.443   0.000  0.00  0.00    +0.000 A 
ATOM      2  C   UNL     1       0.584  -0.382   0.000  0.00  0.00    +0.000 A 
ATOM      3  C   UNL     1      -0.131   0.856   0.000  0.00  0.00    +0.000 A 
ATOM      4  F   UNL     1       1.298  -0.794   0.000  0.00  0.00    +0.000 F 
ATOM      5  F   UNL     1      -0.131   1.681   0.000  0.00  0.00    +0.000 F 
ATOM      6  C   UNL     1      -0.131  -0.794   0.000  0.00  0.00    +0.000 A 
ATOM      7  C   UNL     1      -0.845   0.443   0.000  0.00  0.00    +0.000 A 
ATOM      8  C   UNL     1      -0.845  -0.382   0.000  0.00  0.00    +0.000 A 
ATOM      9  F   UNL     1      -0.131  -1.619   0.000  0.00  0.00    +0.000 F 
ATOM     10  F   UNL     1      -1.560   0.856   0.000  0.00  0.00    +0.000 F 
ENDROOT
BRANCH   1  11
ATOM     11  C   UNL     1       1.298   0.856   0.000  0.00  0.00    +0.000 C 
ATOM     12  O   UNL     1       1.298   1.681   0.000  0.00  0.00    +0.000 OA
ATOM     13  N   UNL     1       2.013   0.443   0.000  0.00  0.00    +0.000 NA
ENDBRANCH   1  11
BRANCH   8  14
ATOM     14  O   UNL     1      -1.560  -0.794   0.000  0.00  0.00    +0.000 OA
ATOM     15  C   UNL     1      -1.560  -1.619   0.000  0.00  0.00    +0.000 C 
ENDBRANCH   8  14
TORSDOF 2
