REMARK  Name = Betaine.mol
REMARK  2 active torsions:
REMARK  status: ('A' for Active; 'I' for Inactive)
REMARK    1  A    between atoms: C_2  and  C_4
REMARK    2  A    between atoms: C_4  and  N_5
REMARK                            x       y       z     vdW  Elec       q    Type
REMARK                         _______ _______ _______ _____ _____    ______ ____
ROOT
ATOM      1  C   UNL     1       0.000  -0.468   0.000  0.00  0.00    +0.000 C 
ENDROOT
BRANCH   1   2
ATOM      2  N   UNL     1       0.715  -0.055   0.000  0.00  0.00    +0.000 N 
ATOM      3  C   UNL     1       0.302   0.659   0.000  0.00  0.00    +0.000 C 
ATOM      4  C   UNL     1       1.429   0.357   0.000  0.00  0.00    +0.000 C 
ATOM      5  C   UNL     1       1.127  -0.770   0.000  0.00  0.00    +0.000 C 
ENDBRANCH   1   2
BRANCH   1   7
ATOM      6  O   UNL     1      -1.429  -0.468   0.000  0.00  0.00    +0.000 OA
ATOM      7  C   UNL     1      -0.715  -0.055   0.000  0.00  0.00    +0.000 C 
ATOM      8  O   UNL     1      -0.715   0.770   0.000  0.00  0.00    +0.000 OA
ENDBRANCH   1   7
TORSDOF 2
