REMARK  Name = Betulinic acid
REMARK  4 active torsions:
REMARK  status: ('A' for Active; 'I' for Inactive)
REMARK    1  A    between atoms: O_1  and  C_26
REMARK    2  A    between atoms: O_2  and  C_28
REMARK    3  A    between atoms: C_11  and  C_28
REMARK    4  A    between atoms: C_19  and  C_31
REMARK                            x       y       z     vdW  Elec       q    Type
REMARK                         _______ _______ _______ _____ _____    ______ ____
ROOT
ATOM      1  C   UNL     1       7.080   4.181   0.000  0.00  0.00    +0.000 C 
ATOM      2  C   UNL     1       7.769   4.579   0.000  0.00  0.00    +0.000 C 
ATOM      3  C   UNL     1       6.389   4.579   0.000  0.00  0.00    +0.000 C 
ATOM      4  C   UNL     1       7.769   5.376   0.000  0.00  0.00    +0.000 C 
ATOM      5  C   UNL     1       5.664   4.175   0.000  0.00  0.00    +0.000 C 
ATOM      6  C   UNL     1       8.482   5.802   0.000  0.00  0.00    +0.000 C 
ATOM      7  C   UNL     1       5.658   3.345   0.000  0.00  0.00    +0.000 C 
ATOM      8  C   UNL     1       9.204   5.392   0.000  0.00  0.00    +0.000 C 
ATOM      9  C   UNL     1       7.092   3.351   0.000  0.00  0.00    +0.000 C 
ATOM     10  C   UNL     1       6.389   5.376   0.000  0.00  0.00    +0.000 C 
ATOM     11  C   UNL     1       8.482   4.153   0.000  0.00  0.00    +0.000 C 
ATOM     12  C   UNL     1       7.080   5.774   0.000  0.00  0.00    +0.000 C 
ATOM     13  C   UNL     1       6.377   2.930   0.000  0.00  0.00    +0.000 C 
ATOM     14  C   UNL     1       9.204   4.562   0.000  0.00  0.00    +0.000 C 
ATOM     15  C   UNL     1       4.913   2.907   0.000  0.00  0.00    +0.000 C 
ATOM     16  C   UNL     1       8.649   6.610   0.000  0.00  0.00    +0.000 C 
ATOM     17  C   UNL     1       4.926   4.625   0.000  0.00  0.00    +0.000 C 
ATOM     18  C   UNL     1       7.592   3.570   0.000  0.00  0.00    +0.000 C 
ATOM     19  C   UNL     1       8.042   3.830   0.000  0.00  0.00    +0.000 C 
ATOM     20  C   UNL     1       9.811   5.951   0.000  0.00  0.00    +0.000 C 
ATOM     21  C   UNL     1       9.469   6.702   0.000  0.00  0.00    +0.000 C 
ATOM     22  C   UNL     1       5.670   4.972   0.000  0.00  0.00    +0.000 C 
ATOM     23  C   UNL     1       4.164   3.340   0.000  0.00  0.00    +0.000 C 
ATOM     24  C   UNL     1       4.171   4.204   0.000  0.00  0.00    +0.000 C 
ATOM     25  C   UNL     1       4.517   2.216   0.000  0.00  0.00    +0.000 C 
ATOM     26  C   UNL     1       5.314   2.219   0.000  0.00  0.00    +0.000 C 
ENDROOT
BRANCH  16  27
ATOM     27  C   UNL     1       8.113   7.199   0.000  0.00  0.00    +0.000 C 
ATOM     28  C   UNL     1       8.354   7.958   0.000  0.00  0.00    +0.000 C 
ATOM     29  C   UNL     1       7.334   7.028   0.000  0.00  0.00    +0.000 C 
ENDBRANCH  16  27
BRANCH  23  30
ATOM     30  O   UNL     1       3.472   2.944   0.000  0.00  0.00    +0.000 OA
ATOM     31  H   UNL     1       3.046   3.192   0.000  0.00  0.00    +0.000 HD
ENDBRANCH  23  30
BRANCH   8  33
ATOM     32  O   UNL     1       9.903   4.203   0.000  0.00  0.00    +0.000 OA
ATOM     33  C   UNL     1       9.897   4.999   0.000  0.00  0.00    +0.000 C 
BRANCH  33  34
ATOM     34  O   UNL     1      10.584   5.403   0.000  0.00  0.00    +0.000 OA
ATOM     35  H   UNL     1      11.013   5.159   0.000  0.00  0.00    +0.000 HD
ENDBRANCH  33  34
ENDBRANCH   8  33
TORSDOF 4
