REMARK  Name = BEY
REMARK  9 active torsions:
REMARK  status: ('A' for Active; 'I' for Inactive)
REMARK    1  A    between atoms: P_2  and  C_4
REMARK    2  A    between atoms: P_2  and  C_14
REMARK    3  A    between atoms: C_4  and  C_5
REMARK    4  A    between atoms: C_5  and  C_6
REMARK    5  A    between atoms: C_6  and  C_7
REMARK    6  A    between atoms: C_14  and  C_15
REMARK    7  A    between atoms: C_15  and  C_16
REMARK    8  A    between atoms: C_15  and  C_19
REMARK    9  A    between atoms: C_19  and  C_20
REMARK                            x       y       z     vdW  Elec       q    Type
REMARK                         _______ _______ _______ _____ _____    ______ ____
ROOT
ATOM      1  O   UNL     1       0.212  -0.611   0.000  0.00  0.00    +0.000 OA
ATOM      2  P   UNL     1      -0.058   0.168   0.000  0.00  0.00    +0.000 P 
ATOM      3  O   UNL     1      -0.328   0.948   0.000  0.00  0.00    +0.000 OA
ENDROOT
BRANCH   2   4
ATOM      4  C   UNL     1      -0.838  -0.102   0.000  0.00  0.00    +0.000 C 
ATOM      5  N   UNL     1      -0.994  -0.912   0.000  0.00  0.00    +0.000 NA
BRANCH   4   6
ATOM      6  C   UNL     1      -1.461   0.438   0.000  0.00  0.00    +0.000 C 
BRANCH   6   7
ATOM      7  C   UNL     1      -2.241   0.168   0.000  0.00  0.00    +0.000 C 
BRANCH   7   8
ATOM      8  C   UNL     1      -2.865   0.708   0.000  0.00  0.00    +0.000 A 
ATOM      9  C   UNL     1      -3.644   0.438   0.000  0.00  0.00    +0.000 A 
ATOM     10  C   UNL     1      -4.268   0.979   0.000  0.00  0.00    +0.000 A 
ATOM     11  C   UNL     1      -4.112   1.789   0.000  0.00  0.00    +0.000 A 
ATOM     12  C   UNL     1      -3.332   2.059   0.000  0.00  0.00    +0.000 A 
ATOM     13  C   UNL     1      -2.709   1.518   0.000  0.00  0.00    +0.000 A 
ENDBRANCH   7   8
ENDBRANCH   6   7
ENDBRANCH   4   6
ENDBRANCH   2   4
BRANCH   2  14
ATOM     14  C   UNL     1       0.722   0.438   0.000  0.00  0.00    +0.000 C 
BRANCH  14  15
ATOM     15  C   UNL     1       1.345  -0.102   0.000  0.00  0.00    +0.000 C 
BRANCH  15  16
ATOM     16  C   UNL     1       1.189  -0.912   0.000  0.00  0.00    +0.000 C 
ATOM     17  O   UNL     1       1.813  -1.452   0.000  0.00  0.00    +0.000 OA
ATOM     18  O   UNL     1       0.410  -1.182   0.000  0.00  0.00    +0.000 OA
ENDBRANCH  15  16
BRANCH  15  19
ATOM     19  C   UNL     1       2.125   0.168   0.000  0.00  0.00    +0.000 C 
BRANCH  19  20
ATOM     20  C   UNL     1       2.748  -0.372   0.000  0.00  0.00    +0.000 A 
ATOM     21  C   UNL     1       3.528  -0.102   0.000  0.00  0.00    +0.000 A 
ATOM     22  C   UNL     1       4.152  -0.642   0.000  0.00  0.00    +0.000 A 
ATOM     23  C   UNL     1       3.996  -1.452   0.000  0.00  0.00    +0.000 A 
ATOM     24  C   UNL     1       3.216  -1.722   0.000  0.00  0.00    +0.000 A 
ATOM     25  C   UNL     1       2.592  -1.182   0.000  0.00  0.00    +0.000 A 
ENDBRANCH  19  20
ENDBRANCH  15  19
ENDBRANCH  14  15
ENDBRANCH   2  14
TORSDOF 9
