REMARK  Name = BFU
REMARK  4 active torsions:
REMARK  status: ('A' for Active; 'I' for Inactive)
REMARK    1  A    between atoms: N_11  and  C_12
REMARK    2  A    between atoms: C_14  and  C_15
REMARK    3  A    between atoms: C_20  and  C_23
REMARK    4  A    between atoms: C_23  and  C_25
REMARK                            x       y       z     vdW  Elec       q    Type
REMARK                         _______ _______ _______ _____ _____    ______ ____
ROOT
ATOM      1  C   UNL     1       0.717  -0.265   0.000  0.00  0.00    +0.000 C 
ATOM      2  C   UNL     1       1.130  -0.980   0.000  0.00  0.00    +0.000 C 
ATOM      3  C   UNL     1       0.305  -0.980   0.000  0.00  0.00    +0.000 C 
ENDROOT
BRANCH   1  14
ATOM      4 BR   UNL     1       4.289   3.447   0.000  0.00  0.00    +0.000 Br
ATOM      5  C   UNL     1       3.575   3.035   0.000  0.00  0.00    +0.000 A 
ATOM      6  C   UNL     1       3.575   2.210   0.000  0.00  0.00    +0.000 A 
ATOM      7  N   UNL     1       2.861   1.797   0.000  0.00  0.00    +0.000 NA
ATOM      8  C   UNL     1       2.146   2.210   0.000  0.00  0.00    +0.000 A 
ATOM      9  C   UNL     1       2.146   3.035   0.000  0.00  0.00    +0.000 A 
ATOM     10  C   UNL     1       2.861   3.447   0.000  0.00  0.00    +0.000 A 
ATOM     11  N   UNL     1       1.431   1.797   0.000  0.00  0.00    +0.000 NA
ATOM     12  C   UNL     1       1.431   0.972   0.000  0.00  0.00    +0.000 C 
ATOM     13  O   UNL     1       2.146   0.560   0.000  0.00  0.00    +0.000 OA
ATOM     14  N   UNL     1       0.717   0.560   0.000  0.00  0.00    +0.000 NA
ENDBRANCH   1  14
BRANCH   3  15
ATOM     15  C   UNL     1      -0.410  -1.392   0.000  0.00  0.00    +0.000 A 
ATOM     16  C   UNL     1      -0.410  -2.217   0.000  0.00  0.00    +0.000 A 
ATOM     17  F   UNL     1       0.305  -2.630   0.000  0.00  0.00    +0.000 F 
ATOM     18  C   UNL     1      -1.124  -2.630   0.000  0.00  0.00    +0.000 A 
ATOM     19  C   UNL     1      -1.839  -2.217   0.000  0.00  0.00    +0.000 A 
ATOM     20  C   UNL     1      -1.839  -1.392   0.000  0.00  0.00    +0.000 A 
ATOM     21  C   UNL     1      -1.124  -0.980   0.000  0.00  0.00    +0.000 A 
ATOM     22  O   UNL     1      -1.124  -0.155   0.000  0.00  0.00    +0.000 OA
BRANCH  20  23
ATOM     23  C   UNL     1      -2.553  -0.980   0.000  0.00  0.00    +0.000 C 
ATOM     24  O   UNL     1      -2.553  -0.155   0.000  0.00  0.00    +0.000 OA
BRANCH  23  25
ATOM     25  C   UNL     1      -3.268  -1.392   0.000  0.00  0.00    +0.000 C 
ATOM     26  C   UNL     1      -3.268  -2.217   0.000  0.00  0.00    +0.000 C 
ENDBRANCH  23  25
ENDBRANCH  20  23
ENDBRANCH   3  15
TORSDOF 4
