REMARK  Name = BGL
REMARK  9 active torsions:
REMARK  status: ('A' for Active; 'I' for Inactive)
REMARK    1  A    between atoms: C_3  and  O_4
REMARK    2  A    between atoms: O_4  and  C_13
REMARK    3  A    between atoms: C_9  and  C_11
REMARK    4  A    between atoms: C_13  and  C_14
REMARK    5  A    between atoms: C_14  and  C_15
REMARK    6  A    between atoms: C_15  and  C_16
REMARK    7  A    between atoms: C_16  and  C_17
REMARK    8  A    between atoms: C_17  and  C_18
REMARK    9  A    between atoms: C_18  and  C_19
REMARK                            x       y       z     vdW  Elec       q    Type
REMARK                         _______ _______ _______ _____ _____    ______ ____
ROOT
ATOM      1  C   UNL     1      -2.434   0.638   0.000  0.00  0.00    +0.000 C 
ATOM      2  O   UNL     1      -2.434   1.463   0.000  0.00  0.00    +0.000 OA
ATOM      3  C   UNL     1      -1.719   0.225   0.000  0.00  0.00    +0.000 C 
ATOM      4  C   UNL     1      -1.719  -0.600   0.000  0.00  0.00    +0.000 C 
ATOM      5  O   UNL     1      -1.005  -1.012   0.000  0.00  0.00    +0.000 OA
ATOM      6  C   UNL     1      -2.434  -1.012   0.000  0.00  0.00    +0.000 C 
ATOM      7  O   UNL     1      -2.434  -1.837   0.000  0.00  0.00    +0.000 OA
ATOM      8  C   UNL     1      -3.148  -0.600   0.000  0.00  0.00    +0.000 C 
ATOM      9  O   UNL     1      -3.148   0.225   0.000  0.00  0.00    +0.000 OA
ENDROOT
BRANCH   8  10
ATOM     10  C   UNL     1      -3.863  -1.012   0.000  0.00  0.00    +0.000 C 
ATOM     11  O   UNL     1      -4.577  -0.600   0.000  0.00  0.00    +0.000 OA
ENDBRANCH   8  10
BRANCH   3  12
ATOM     12  O   UNL     1      -1.005   0.638   0.000  0.00  0.00    +0.000 OA
BRANCH  12  13
ATOM     13  C   UNL     1      -0.290   0.225   0.000  0.00  0.00    +0.000 C 
BRANCH  13  14
ATOM     14  C   UNL     1       0.424   0.638   0.000  0.00  0.00    +0.000 C 
BRANCH  14  15
ATOM     15  C   UNL     1       1.139   0.225   0.000  0.00  0.00    +0.000 C 
BRANCH  15  16
ATOM     16  C   UNL     1       1.853   0.638   0.000  0.00  0.00    +0.000 C 
BRANCH  16  17
ATOM     17  C   UNL     1       2.568   0.225   0.000  0.00  0.00    +0.000 C 
BRANCH  17  18
ATOM     18  C   UNL     1       3.282   0.638   0.000  0.00  0.00    +0.000 C 
BRANCH  18  19
ATOM     19  C   UNL     1       3.996   0.225   0.000  0.00  0.00    +0.000 C 
ATOM     20  C   UNL     1       4.711   0.638   0.000  0.00  0.00    +0.000 C 
ENDBRANCH  18  19
ENDBRANCH  17  18
ENDBRANCH  16  17
ENDBRANCH  15  16
ENDBRANCH  14  15
ENDBRANCH  13  14
ENDBRANCH  12  13
ENDBRANCH   3  12
TORSDOF 9
