REMARK  Name = BGU
REMARK  0 active torsions:
REMARK  status: ('A' for Active; 'I' for Inactive)
REMARK                            x       y       z     vdW  Elec       q    Type
REMARK                         _______ _______ _______ _____ _____    ______ ____
ROOT
ATOM      1  N   UNL     1      -1.645   0.603   0.000  0.00  0.00    +0.000 NA
ATOM      2  C   UNL     1      -0.860   0.348   0.000  0.00  0.00    +0.000 A 
ATOM      3  C   UNL     1      -0.146   0.760   0.000  0.00  0.00    +0.000 A 
ATOM      4  C   UNL     1       0.569   0.348   0.000  0.00  0.00    +0.000 A 
ATOM      5  C   UNL     1       0.569  -0.477   0.000  0.00  0.00    +0.000 A 
ATOM      6  C   UNL     1      -0.146  -0.890   0.000  0.00  0.00    +0.000 A 
ATOM      7  C   UNL     1      -0.860  -0.477   0.000  0.00  0.00    +0.000 A 
ATOM      8  N   UNL     1      -1.645  -0.732   0.000  0.00  0.00    +0.000 NA
ATOM      9  C   UNL     1      -2.130  -0.065   0.000  0.00  0.00    +0.000 A 
ATOM     10  N   UNL     1      -2.955  -0.065   0.000  0.00  0.00    +0.000 NA
ATOM     11  N   UNL     1       1.283  -0.890   0.000  0.00  0.00    +0.000 NA
ATOM     12  C   UNL     1       1.998  -0.477   0.000  0.00  0.00    +0.000 A 
ATOM     13  N   UNL     1       2.712  -0.890   0.000  0.00  0.00    +0.000 NA
ATOM     14  N   UNL     1       1.998   0.348   0.000  0.00  0.00    +0.000 NA
ATOM     15  C   UNL     1       1.283   0.760   0.000  0.00  0.00    +0.000 A 
ATOM     16  O   UNL     1       1.283   1.585   0.000  0.00  0.00    +0.000 OA
ENDROOT
TORSDOF 0
