REMARK  Name = BH7
REMARK  11 active torsions:
REMARK  status: ('A' for Active; 'I' for Inactive)
REMARK    1  A    between atoms: C_8  and  C_10
REMARK    2  A    between atoms: C_10  and  C_11
REMARK    3  A    between atoms: C_11  and  C_12
REMARK    4  A    between atoms: C_12  and  C_13
REMARK    5  A    between atoms: C_13  and  C_14
REMARK    6  A    between atoms: N_16  and  C_17
REMARK    7  A    between atoms: C_17  and  C_18
REMARK    8  A    between atoms: C_18  and  C_19
REMARK    9  A    between atoms: C_19  and  C_20
REMARK   10  A    between atoms: C_20  and  C_21
REMARK   11  A    between atoms: C_21  and  C_22
REMARK                            x       y       z     vdW  Elec       q    Type
REMARK                         _______ _______ _______ _____ _____    ______ ____
ROOT
ATOM      1  C   UNL     1      -0.799   0.154   0.000  0.00  0.00    +0.000 C 
ENDROOT
BRANCH   1   2
ATOM      2  C   UNL     1      -0.085  -0.258   0.000  0.00  0.00    +0.000 C 
BRANCH   2   3
ATOM      3  C   UNL     1       0.629   0.154   0.000  0.00  0.00    +0.000 C 
ATOM      4  O   UNL     1       0.629   0.979   0.000  0.00  0.00    +0.000 OA
ATOM      5  N   UNL     1       1.344  -0.258   0.000  0.00  0.00    +0.000 NA
BRANCH   5   6
ATOM      6  C   UNL     1       2.058   0.154   0.000  0.00  0.00    +0.000 C 
BRANCH   6   7
ATOM      7  C   UNL     1       2.773  -0.258   0.000  0.00  0.00    +0.000 C 
BRANCH   7   8
ATOM      8  C   UNL     1       3.487   0.154   0.000  0.00  0.00    +0.000 C 
BRANCH   8   9
ATOM      9  C   UNL     1       4.202  -0.258   0.000  0.00  0.00    +0.000 C 
BRANCH   9  10
ATOM     10  C   UNL     1       4.916   0.154   0.000  0.00  0.00    +0.000 C 
BRANCH  10  11
ATOM     11  C   UNL     1       5.631  -0.258   0.000  0.00  0.00    +0.000 C 
ATOM     12  O   UNL     1       6.345   0.154   0.000  0.00  0.00    +0.000 OA
ATOM     13  O   UNL     1       5.631  -1.083   0.000  0.00  0.00    +0.000 OA
ENDBRANCH  10  11
ENDBRANCH   9  10
ENDBRANCH   8   9
ENDBRANCH   7   8
ENDBRANCH   6   7
ENDBRANCH   5   6
ENDBRANCH   2   3
ENDBRANCH   1   2
BRANCH   1  14
ATOM     14  C   UNL     1      -1.514  -0.258   0.000  0.00  0.00    +0.000 C 
BRANCH  14  15
ATOM     15  C   UNL     1      -2.228   0.154   0.000  0.00  0.00    +0.000 C 
BRANCH  15  23
ATOM     16  N   UNL     1      -5.002  -0.200   0.000  0.00  0.00    +0.000 NA
ATOM     17  C   UNL     1      -4.249  -0.536   0.000  0.00  0.00    +0.000 C 
ATOM     18  C   UNL     1      -3.697   0.077   0.000  0.00  0.00    +0.000 C 
ATOM     19  N   UNL     1      -4.109   0.792   0.000  0.00  0.00    +0.000 NA
ATOM     20  C   UNL     1      -4.916   0.620   0.000  0.00  0.00    +0.000 C 
ATOM     21  C   UNL     1      -3.836  -1.250   0.000  0.00  0.00    +0.000 C 
ATOM     22  S   UNL     1      -3.029  -1.079   0.000  0.00  0.00    +0.000 S 
ATOM     23  C   UNL     1      -2.943  -0.258   0.000  0.00  0.00    +0.000 C 
ATOM     24  O   UNL     1      -5.529   1.172   0.000  0.00  0.00    +0.000 OA
ENDBRANCH  15  23
ENDBRANCH  14  15
ENDBRANCH   1  14
TORSDOF 11
