REMARK  Name = BHB
REMARK  5 active torsions:
REMARK  status: ('A' for Active; 'I' for Inactive)
REMARK    1  A    between atoms: C_4  and  C_14
REMARK    2  A    between atoms: C_14  and  S_15
REMARK    3  A    between atoms: S_15  and  C_16
REMARK    4  A    between atoms: C_16  and  C_17
REMARK    5  A    between atoms: C_17  and  N_18
REMARK                            x       y       z     vdW  Elec       q    Type
REMARK                         _______ _______ _______ _____ _____    ______ ____
ROOT
ATOM      1  N   UNL     1      -1.476   2.397   0.000  0.00  0.00    +0.000 NA
ATOM      2  C   UNL     1      -1.476   1.572   0.000  0.00  0.00    +0.000 A 
ATOM      3  C   UNL     1      -0.762   1.159   0.000  0.00  0.00    +0.000 A 
ATOM      4  C   UNL     1      -0.762   0.334   0.000  0.00  0.00    +0.000 A 
ATOM      5  C   UNL     1      -1.476  -0.078   0.000  0.00  0.00    +0.000 A 
ATOM      6  N   UNL     1      -1.476  -0.903   0.000  0.00  0.00    +0.000 NA
ATOM      7  C   UNL     1      -2.191  -1.316   0.000  0.00  0.00    +0.000 A 
ATOM      8  N   UNL     1      -2.191  -2.141   0.000  0.00  0.00    +0.000 NA
ATOM      9  N   UNL     1      -2.905  -0.903   0.000  0.00  0.00    +0.000 NA
ATOM     10  C   UNL     1      -2.905  -0.078   0.000  0.00  0.00    +0.000 A 
ATOM     11  O   UNL     1      -3.620   0.334   0.000  0.00  0.00    +0.000 OA
ATOM     12  C   UNL     1      -2.191   0.334   0.000  0.00  0.00    +0.000 A 
ATOM     13  C   UNL     1      -2.191   1.159   0.000  0.00  0.00    +0.000 A 
ENDROOT
BRANCH   4  14
ATOM     14  C   UNL     1      -0.047  -0.078   0.000  0.00  0.00    +0.000 C 
BRANCH  14  15
ATOM     15  S   UNL     1       0.667   0.334   0.000  0.00  0.00    +0.000 S 
BRANCH  15  16
ATOM     16  C   UNL     1       1.382  -0.078   0.000  0.00  0.00    +0.000 C 
BRANCH  16  17
ATOM     17  C   UNL     1       2.096   0.334   0.000  0.00  0.00    +0.000 C 
BRANCH  17  18
ATOM     18  N   UNL     1       2.811  -0.078   0.000  0.00  0.00    +0.000 NA
ATOM     19  C   UNL     1       3.525   0.334   0.000  0.00  0.00    +0.000 C 
ATOM     20  C   UNL     1       2.811  -0.903   0.000  0.00  0.00    +0.000 C 
ENDBRANCH  17  18
ENDBRANCH  16  17
ENDBRANCH  15  16
ENDBRANCH  14  15
ENDBRANCH   4  14
TORSDOF 5
