REMARK  Name = BHM
REMARK  5 active torsions:
REMARK  status: ('A' for Active; 'I' for Inactive)
REMARK    1  A    between atoms: C_2  and  C_3
REMARK    2  A    between atoms: C_3  and  C_6
REMARK    3  A    between atoms: N_8  and  C_9
REMARK    4  A    between atoms: C_13  and  N_14
REMARK    5  A    between atoms: C_17  and  C_18
REMARK                            x       y       z     vdW  Elec       q    Type
REMARK                         _______ _______ _______ _____ _____    ______ ____
ROOT
ATOM      1  C   UNL     1       0.423  -0.422   0.000  0.00  0.00    +0.000 A 
ATOM      2  C   UNL     1       0.423   0.403   0.000  0.00  0.00    +0.000 A 
ATOM      3  C   UNL     1       1.138  -0.835   0.000  0.00  0.00    +0.000 A 
ATOM      4  C   UNL     1       1.852  -0.422   0.000  0.00  0.00    +0.000 A 
ATOM      5  C   UNL     1       1.852   0.403   0.000  0.00  0.00    +0.000 A 
ATOM      6  C   UNL     1       1.138   0.815   0.000  0.00  0.00    +0.000 A 
ENDROOT
BRANCH   6   7
ATOM      7  C   UNL     1       1.138   1.640   0.000  0.00  0.00    +0.000 C 
ATOM      8  F   UNL     1       1.138   2.465   0.000  0.00  0.00    +0.000 F 
ATOM      9  F   UNL     1       1.963   1.640   0.000  0.00  0.00    +0.000 F 
ATOM     10  F   UNL     1       0.313   1.640   0.000  0.00  0.00    +0.000 F 
ENDBRANCH   6   7
BRANCH   1  13
ATOM     11  C   UNL     1      -1.006  -0.422   0.000  0.00  0.00    +0.000 C 
ATOM     12  O   UNL     1      -1.006   0.403   0.000  0.00  0.00    +0.000 OA
ATOM     13  N   UNL     1      -0.291  -0.835   0.000  0.00  0.00    +0.000 NA
BRANCH  11  14
ATOM     14  C   UNL     1      -1.720  -0.835   0.000  0.00  0.00    +0.000 C 
ATOM     15  O   UNL     1      -1.308  -1.549   0.000  0.00  0.00    +0.000 OA
ATOM     16  C   UNL     1      -2.133  -0.120   0.000  0.00  0.00    +0.000 C 
BRANCH  14  18
ATOM     17 BR   UNL     1      -3.149  -0.835   0.000  0.00  0.00    +0.000 Br
ATOM     18  C   UNL     1      -2.435  -1.247   0.000  0.00  0.00    +0.000 C 
ENDBRANCH  14  18
ENDBRANCH  11  14
ENDBRANCH   1  13
BRANCH   5  19
ATOM     19  N   UNL     1       2.567   0.815   0.000  0.00  0.00    +0.000 N 
ATOM     20  O   UNL     1       2.567   1.640   0.000  0.00  0.00    +0.000 OA
ATOM     21  O   UNL     1       3.281   0.403   0.000  0.00  0.00    +0.000 OA
ENDBRANCH   5  19
TORSDOF 5
