REMARK  Name = BHY
REMARK  9 active torsions:
REMARK  status: ('A' for Active; 'I' for Inactive)
REMARK    1  A    between atoms: N_1  and  S_12
REMARK    2  A    between atoms: N_1  and  C_23
REMARK    3  A    between atoms: N_3  and  S_10
REMARK    4  A    between atoms: N_3  and  C_26
REMARK    5  A    between atoms: C_4  and  C_18
REMARK    6  A    between atoms: C_7  and  C_21
REMARK    7  A    between atoms: C_8  and  C_22
REMARK    8  A    between atoms: C_21  and  C_26
REMARK    9  A    between atoms: C_22  and  C_23
REMARK                            x       y       z     vdW  Elec       q    Type
REMARK                         _______ _______ _______ _____ _____    ______ ____
ROOT
ATOM      1  C   UNL     1      -0.841  -1.937   0.000  0.00  0.00    +0.000 A 
ATOM      2  C   UNL     1      -0.126  -0.699   0.000  0.00  0.00    +0.000 A 
ATOM      3  C   UNL     1      -1.555  -0.699   0.000  0.00  0.00    +0.000 A 
ATOM      4  C   UNL     1      -1.555  -1.524   0.000  0.00  0.00    +0.000 A 
ATOM      5  C   UNL     1      -0.126  -1.524   0.000  0.00  0.00    +0.000 A 
ATOM      6  C   UNL     1      -0.841  -0.287   0.000  0.00  0.00    +0.000 A 
ENDROOT
BRANCH   2  10
ATOM      7  C   UNL     1       2.017   0.538   0.000  0.00  0.00    +0.000 A 
ATOM      8  C   UNL     1       2.017  -0.287   0.000  0.00  0.00    +0.000 A 
ATOM      9  C   UNL     1       1.303  -0.699   0.000  0.00  0.00    +0.000 A 
ATOM     10  C   UNL     1       0.588  -0.287   0.000  0.00  0.00    +0.000 A 
ATOM     11  C   UNL     1       0.588   0.538   0.000  0.00  0.00    +0.000 A 
ATOM     12  C   UNL     1       1.303   0.951   0.000  0.00  0.00    +0.000 A 
BRANCH   7  13
ATOM     13  C   UNL     1       2.732   0.951   0.000  0.00  0.00    +0.000 C 
ATOM     14  C   UNL     1       3.446   0.538   0.000  0.00  0.00    +0.000 C 
BRANCH  13  15
ATOM     15  C   UNL     1       2.732   1.776   0.000  0.00  0.00    +0.000 C 
BRANCH  15  16
ATOM     16  N   UNL     1       3.446   2.188   0.000  0.00  0.00    +0.000 NA
BRANCH  16  18
ATOM     17  O   UNL     1       3.446   3.838   0.000  0.00  0.00    +0.000 OA
ATOM     18  S   UNL     1       3.446   3.013   0.000  0.00  0.00    +0.000 S 
ATOM     19  O   UNL     1       4.271   3.013   0.000  0.00  0.00    +0.000 OA
ATOM     20  C   UNL     1       2.621   3.013   0.000  0.00  0.00    +0.000 C 
ENDBRANCH  16  18
ENDBRANCH  15  16
ENDBRANCH  13  15
ENDBRANCH   7  13
ENDBRANCH   2  10
BRANCH   4  21
ATOM     21  C   UNL     1      -2.270  -1.937   0.000  0.00  0.00    +0.000 C 
ATOM     22  C   UNL     1      -2.270  -2.762   0.000  0.00  0.00    +0.000 C 
BRANCH  21  23
ATOM     23  C   UNL     1      -2.984  -1.524   0.000  0.00  0.00    +0.000 C 
BRANCH  23  24
ATOM     24  N   UNL     1      -3.699  -1.937   0.000  0.00  0.00    +0.000 NA
BRANCH  24  26
ATOM     25  O   UNL     1      -5.128  -1.112   0.000  0.00  0.00    +0.000 OA
ATOM     26  S   UNL     1      -4.413  -1.524   0.000  0.00  0.00    +0.000 S 
ATOM     27  O   UNL     1      -4.826  -2.239   0.000  0.00  0.00    +0.000 OA
ATOM     28  C   UNL     1      -4.001  -0.810   0.000  0.00  0.00    +0.000 C 
ENDBRANCH  24  26
ENDBRANCH  23  24
ENDBRANCH  21  23
ENDBRANCH   4  21
TORSDOF 9
