REMARK  Name = BI3
REMARK  5 active torsions:
REMARK  status: ('A' for Active; 'I' for Inactive)
REMARK    1  A    between atoms: C_2  and  C_3
REMARK    2  A    between atoms: C_3  and  C_4
REMARK    3  A    between atoms: C_4  and  N_5
REMARK    4  A    between atoms: C_13  and  C_14
REMARK    5  A    between atoms: C_20  and  C_21
REMARK                            x       y       z     vdW  Elec       q    Type
REMARK                         _______ _______ _______ _____ _____    ______ ____
ROOT
ATOM      1  C   UNL     1       0.679   1.246   0.000  0.00  0.00    +0.000 C 
ATOM      2  C   UNL     1       0.679   2.071   0.000  0.00  0.00    +0.000 C 
ATOM      3  O   UNL     1       0.011   2.556   0.000  0.00  0.00    +0.000 OA
ATOM      4  N   UNL     1       1.463   2.326   0.000  0.00  0.00    +0.000 NA
ATOM      5  C   UNL     1       1.948   1.658   0.000  0.00  0.00    +0.000 C 
ATOM      6  O   UNL     1       2.773   1.658   0.000  0.00  0.00    +0.000 OA
ATOM      7  C   UNL     1       1.463   0.991   0.000  0.00  0.00    +0.000 C 
ENDROOT
BRANCH   1  16
ATOM      8  N   UNL     1      -0.773  -0.319   0.000  0.00  0.00    +0.000 N 
ATOM      9  C   UNL     1       0.011  -0.064   0.000  0.00  0.00    +0.000 A 
ATOM     10  C   UNL     1      -1.258   0.348   0.000  0.00  0.00    +0.000 A 
ATOM     11  C   UNL     1      -2.079   0.435   0.000  0.00  0.00    +0.000 A 
ATOM     12  C   UNL     1      -2.414   1.188   0.000  0.00  0.00    +0.000 A 
ATOM     13  C   UNL     1      -1.929   1.856   0.000  0.00  0.00    +0.000 A 
ATOM     14  C   UNL     1      -1.109   1.770   0.000  0.00  0.00    +0.000 A 
ATOM     15  C   UNL     1      -0.773   1.016   0.000  0.00  0.00    +0.000 A 
ATOM     16  C   UNL     1       0.011   0.761   0.000  0.00  0.00    +0.000 A 
BRANCH   8  17
ATOM     17  C   UNL     1      -1.028  -1.104   0.000  0.00  0.00    +0.000 C 
BRANCH  17  18
ATOM     18  C   UNL     1      -1.835  -1.275   0.000  0.00  0.00    +0.000 C 
BRANCH  18  20
ATOM     19  N   UNL     1      -2.897  -2.231   0.000  0.00  0.00    +0.000 NA
ATOM     20  C   UNL     1      -2.090  -2.060   0.000  0.00  0.00    +0.000 C 
ENDBRANCH  18  20
ENDBRANCH  17  18
ENDBRANCH   8  17
ENDBRANCH   1  16
BRANCH   7  21
ATOM     21  C   UNL     1       1.718   0.206   0.000  0.00  0.00    +0.000 A 
ATOM     22  C   UNL     1       2.503  -0.049   0.000  0.00  0.00    +0.000 A 
ATOM     23  C   UNL     1       3.217   0.364   0.000  0.00  0.00    +0.000 A 
ATOM     24  C   UNL     1       3.932  -0.049   0.000  0.00  0.00    +0.000 A 
ATOM     25  C   UNL     1       3.932  -0.874   0.000  0.00  0.00    +0.000 A 
ATOM     26  C   UNL     1       3.217  -1.286   0.000  0.00  0.00    +0.000 A 
ATOM     27  C   UNL     1       2.503  -0.874   0.000  0.00  0.00    +0.000 A 
ATOM     28  N   UNL     1       1.718  -1.129   0.000  0.00  0.00    +0.000 NA
ATOM     29  C   UNL     1       1.233  -0.461   0.000  0.00  0.00    +0.000 A 
ENDBRANCH   7  21
TORSDOF 5
