REMARK  Name = BI5
REMARK  5 active torsions:
REMARK  status: ('A' for Active; 'I' for Inactive)
REMARK    1  A    between atoms: C_2  and  C_7
REMARK    2  A    between atoms: C_7  and  N_8
REMARK    3  A    between atoms: C_9  and  C_10
REMARK    4  A    between atoms: C_13  and  O_16
REMARK    5  A    between atoms: O_16  and  C_17
REMARK                            x       y       z     vdW  Elec       q    Type
REMARK                         _______ _______ _______ _____ _____    ______ ____
ROOT
ATOM      1  C   UNL     1       1.137   0.285   0.000  0.00  0.00    +0.000 A 
ATOM      2  C   UNL     1       1.852  -0.128   0.000  0.00  0.00    +0.000 A 
ATOM      3  C   UNL     1       1.852  -0.953   0.000  0.00  0.00    +0.000 A 
ATOM      4  C   UNL     1       1.137  -1.365   0.000  0.00  0.00    +0.000 A 
ATOM      5  C   UNL     1       0.423  -0.953   0.000  0.00  0.00    +0.000 A 
ATOM      6  C   UNL     1       0.423  -0.128   0.000  0.00  0.00    +0.000 A 
ENDROOT
BRANCH   1   8
ATOM      7  N   UNL     1       0.423   1.522   0.000  0.00  0.00    +0.000 NA
ATOM      8  C   UNL     1       1.137   1.110   0.000  0.00  0.00    +0.000 C 
ATOM      9  O   UNL     1       1.852   1.522   0.000  0.00  0.00    +0.000 OA
BRANCH   7  10
ATOM     10  C   UNL     1       0.423   2.348   0.000  0.00  0.00    +0.000 C 
BRANCH  10  12
ATOM     11  N   UNL     1      -0.292   3.585   0.000  0.00  0.00    +0.000 NA
ATOM     12  C   UNL     1      -0.292   2.760   0.000  0.00  0.00    +0.000 A 
ATOM     13  C   UNL     1      -1.006   2.348   0.000  0.00  0.00    +0.000 A 
ATOM     14  C   UNL     1      -1.721   2.760   0.000  0.00  0.00    +0.000 A 
ATOM     15  C   UNL     1      -1.721   3.585   0.000  0.00  0.00    +0.000 A 
ATOM     16  C   UNL     1      -1.006   3.998   0.000  0.00  0.00    +0.000 A 
ENDBRANCH  10  12
ENDBRANCH   7  10
ENDBRANCH   1   8
BRANCH   4  17
ATOM     17  O   UNL     1       1.137  -2.190   0.000  0.00  0.00    +0.000 OA
BRANCH  17  18
ATOM     18  C   UNL     1       0.423  -2.603   0.000  0.00  0.00    +0.000 A 
ATOM     19  C   UNL     1       0.423  -3.428   0.000  0.00  0.00    +0.000 A 
ATOM     20  C   UNL     1      -0.292  -3.840   0.000  0.00  0.00    +0.000 A 
ATOM     21  C   UNL     1      -1.006  -3.428   0.000  0.00  0.00    +0.000 A 
ATOM     22  C   UNL     1      -1.006  -2.603   0.000  0.00  0.00    +0.000 A 
ATOM     23  C   UNL     1      -0.292  -2.190   0.000  0.00  0.00    +0.000 A 
ENDBRANCH  17  18
ENDBRANCH   4  17
TORSDOF 5
