REMARK  Name = BI9
REMARK  5 active torsions:
REMARK  status: ('A' for Active; 'I' for Inactive)
REMARK    1  A    between atoms: N_6  and  C_7
REMARK    2  A    between atoms: C_9  and  O_10
REMARK    3  A    between atoms: C_14  and  N_15
REMARK    4  A    between atoms: N_23  and  C_24
REMARK    5  A    between atoms: C_29  and  C_30
REMARK                            x       y       z     vdW  Elec       q    Type
REMARK                         _______ _______ _______ _____ _____    ______ ____
ROOT
ATOM      1  N   UNL     1       4.733   0.070   0.000  0.00  0.00    +0.000 NA
ATOM      2  C   UNL     1       4.733   0.895   0.000  0.00  0.00    +0.000 A 
ATOM      3  N   UNL     1       4.018   1.308   0.000  0.00  0.00    +0.000 NA
ATOM      4  N   UNL     1       5.447   1.308   0.000  0.00  0.00    +0.000 NA
ATOM      5  C   UNL     1       5.447   2.132   0.000  0.00  0.00    +0.000 A 
ATOM      6  C   UNL     1       4.733   2.545   0.000  0.00  0.00    +0.000 A 
ATOM      7 CL   UNL     1       4.733   3.370   0.000  0.00  0.00    +0.000 Cl
ATOM      8  C   UNL     1       4.018   2.132   0.000  0.00  0.00    +0.000 A 
ATOM      9  N   UNL     1       3.304   2.545   0.000  0.00  0.00    +0.000 NA
ENDROOT
BRANCH   1  15
ATOM     10  C   UNL     1       6.876  -1.167   0.000  0.00  0.00    +0.000 A 
ATOM     11  C   UNL     1       6.162  -1.580   0.000  0.00  0.00    +0.000 A 
ATOM     12  C   UNL     1       5.447  -1.167   0.000  0.00  0.00    +0.000 A 
ATOM     13  C   UNL     1       6.876  -0.343   0.000  0.00  0.00    +0.000 A 
ATOM     14  C   UNL     1       6.162   0.070   0.000  0.00  0.00    +0.000 A 
ATOM     15  C   UNL     1       5.447  -0.343   0.000  0.00  0.00    +0.000 A 
BRANCH  10  21
ATOM     16  C   UNL     1       8.305  -1.167   0.000  0.00  0.00    +0.000 C 
ATOM     17  C   UNL     1       9.020  -1.580   0.000  0.00  0.00    +0.000 C 
ATOM     18  O   UNL     1       9.020  -2.405   0.000  0.00  0.00    +0.000 OA
ATOM     19  C   UNL     1       8.305  -2.817   0.000  0.00  0.00    +0.000 C 
ATOM     20  C   UNL     1       7.591  -2.405   0.000  0.00  0.00    +0.000 C 
ATOM     21  N   UNL     1       7.591  -1.580   0.000  0.00  0.00    +0.000 N 
ENDBRANCH  10  21
BRANCH  12  22
ATOM     22  O   UNL     1       4.733  -1.580   0.000  0.00  0.00    +0.000 OA
ATOM     23  C   UNL     1       4.018  -1.167   0.000  0.00  0.00    +0.000 C 
ENDBRANCH  12  22
ENDBRANCH   1  15
BRANCH   9  24
ATOM     24  C   UNL     1       2.590   2.132   0.000  0.00  0.00    +0.000 A 
ATOM     25  C   UNL     1       2.590   1.308   0.000  0.00  0.00    +0.000 A 
ATOM     26  C   UNL     1       1.875   0.895   0.000  0.00  0.00    +0.000 A 
ATOM     27  C   UNL     1       1.161   1.308   0.000  0.00  0.00    +0.000 A 
ATOM     28  C   UNL     1       1.161   2.132   0.000  0.00  0.00    +0.000 A 
ATOM     29  C   UNL     1       1.875   2.545   0.000  0.00  0.00    +0.000 A 
BRANCH  29  30
ATOM     30  C   UNL     1       1.875   3.370   0.000  0.00  0.00    +0.000 C 
ATOM     31  O   UNL     1       1.161   3.783   0.000  0.00  0.00    +0.000 OA
ATOM     32  N   UNL     1       2.590   3.783   0.000  0.00  0.00    +0.000 NA
ATOM     33  C   UNL     1       2.590   4.607   0.000  0.00  0.00    +0.000 C 
ENDBRANCH  29  30
ENDBRANCH   9  24
TORSDOF 5
