REMARK  Name = BIA
REMARK  7 active torsions:
REMARK  status: ('A' for Active; 'I' for Inactive)
REMARK    1  A    between atoms: N_1  and  C_25
REMARK    2  A    between atoms: C_5  and  C_10
REMARK    3  A    between atoms: C_5  and  C_18
REMARK    4  A    between atoms: N_12  and  C_24
REMARK    5  A    between atoms: C_18  and  C_23
REMARK    6  A    between atoms: N_19  and  C_23
REMARK    7  A    between atoms: C_20  and  C_27
REMARK                            x       y       z     vdW  Elec       q    Type
REMARK                         _______ _______ _______ _____ _____    ______ ____
ROOT
ATOM      1  N   UNL     1      -1.555  -0.333   0.000  0.00  0.00    +0.000 N 
ATOM      2  C   UNL     1      -0.126  -0.333   0.000  0.00  0.00    +0.000 C 
ATOM      3  C   UNL     1      -0.841   0.905   0.000  0.00  0.00    +0.000 C 
ATOM      4  C   UNL     1      -1.555   0.492   0.000  0.00  0.00    +0.000 C 
ATOM      5  N   UNL     1      -0.126   0.492   0.000  0.00  0.00    +0.000 NA
ATOM      6  C   UNL     1      -0.841  -0.745   0.000  0.00  0.00    +0.000 C 
ENDROOT
BRANCH   1  11
ATOM      7  C   UNL     1      -2.269  -1.570   0.000  0.00  0.00    +0.000 A 
ATOM      8  C   UNL     1      -2.984  -1.982   0.000  0.00  0.00    +0.000 A 
ATOM      9  C   UNL     1      -3.698  -0.745   0.000  0.00  0.00    +0.000 A 
ATOM     10  C   UNL     1      -2.984  -0.333   0.000  0.00  0.00    +0.000 A 
ATOM     11  C   UNL     1      -2.269  -0.745   0.000  0.00  0.00    +0.000 A 
ATOM     12  C   UNL     1      -3.698  -1.570   0.000  0.00  0.00    +0.000 A 
BRANCH   9  13
ATOM     13  C   UNL     1      -4.413  -0.333   0.000  0.00  0.00    +0.000 C 
ATOM     14  F   UNL     1      -5.127   0.080   0.000  0.00  0.00    +0.000 F 
ATOM     15  F   UNL     1      -4.000   0.382   0.000  0.00  0.00    +0.000 F 
ATOM     16  F   UNL     1      -4.825  -1.047   0.000  0.00  0.00    +0.000 F 
ENDBRANCH   9  13
ENDBRANCH   1  11
BRANCH   5  17
ATOM     17  C   UNL     1       0.588   0.905   0.000  0.00  0.00    +0.000 C 
BRANCH  17  18
ATOM     18  C   UNL     1       1.303   0.492   0.000  0.00  0.00    +0.000 C 
BRANCH  18  19
ATOM     19  C   UNL     1       2.017   0.905   0.000  0.00  0.00    +0.000 C 
ATOM     20  O   UNL     1       2.017   1.730   0.000  0.00  0.00    +0.000 OA
BRANCH  19  25
ATOM     21  C   UNL     1       3.446   0.905   0.000  0.00  0.00    +0.000 A 
ATOM     22  O   UNL     1       4.875  -0.745   0.000  0.00  0.00    +0.000 OA
ATOM     23  C   UNL     1       4.161   0.492   0.000  0.00  0.00    +0.000 A 
ATOM     24  O   UNL     1       4.875   0.905   0.000  0.00  0.00    +0.000 OA
ATOM     25  C   UNL     1       2.732   0.492   0.000  0.00  0.00    +0.000 A 
ATOM     26  C   UNL     1       2.732  -0.333   0.000  0.00  0.00    +0.000 A 
ATOM     27  C   UNL     1       3.446  -0.745   0.000  0.00  0.00    +0.000 A 
ATOM     28  C   UNL     1       4.161  -0.333   0.000  0.00  0.00    +0.000 A 
BRANCH  27  29
ATOM     29  N   UNL     1       3.446  -1.570   0.000  0.00  0.00    +0.000 N 
ATOM     30  O   UNL     1       4.161  -1.982   0.000  0.00  0.00    +0.000 OA
ATOM     31  O   UNL     1       2.732  -1.982   0.000  0.00  0.00    +0.000 OA
ENDBRANCH  27  29
ENDBRANCH  19  25
ENDBRANCH  18  19
ENDBRANCH  17  18
ENDBRANCH   5  17
TORSDOF 7
