REMARK  Name = BIC
REMARK  3 active torsions:
REMARK  status: ('A' for Active; 'I' for Inactive)
REMARK    1  A    between atoms: C_1  and  C_11
REMARK    2  A    between atoms: C_6  and  C_14
REMARK    3  A    between atoms: C_14  and  C_15
REMARK                            x       y       z     vdW  Elec       q    Type
REMARK                         _______ _______ _______ _____ _____    ______ ____
ROOT
ATOM      1  C   UNL     1      -2.199  -0.162   0.000  0.00  0.00    +0.000 C 
ATOM      2  C   UNL     1      -2.684   0.505   0.000  0.00  0.00    +0.000 C 
ATOM      3  C   UNL     1      -2.199   1.173   0.000  0.00  0.00    +0.000 C 
ATOM      4  C   UNL     1      -0.700   1.330   0.000  0.00  0.00    +0.000 C 
ATOM      5  C   UNL     1       0.015   0.918   0.000  0.00  0.00    +0.000 C 
ATOM      6  C   UNL     1       0.015   0.093   0.000  0.00  0.00    +0.000 C 
ATOM      7  C   UNL     1      -0.700  -0.320   0.000  0.00  0.00    +0.000 C 
ATOM      8  N   UNL     1      -1.414   0.918   0.000  0.00  0.00    +0.000 NA
ATOM      9  N   UNL     1      -1.414   0.093   0.000  0.00  0.00    +0.000 N 
ATOM     10  O   UNL     1      -0.700  -1.145   0.000  0.00  0.00    +0.000 OA
ATOM     11  N   UNL     1       0.839   0.064   0.000  0.00  0.00    +0.000 NA
ENDROOT
BRANCH   1  12
ATOM     12  C   UNL     1      -2.454  -0.947   0.000  0.00  0.00    +0.000 C 
ATOM     13  O   UNL     1      -1.902  -1.560   0.000  0.00  0.00    +0.000 OA
ENDBRANCH   1  12
BRANCH   6  14
ATOM     14  C   UNL     1       0.452  -0.607   0.000  0.00  0.00    +0.000 C 
BRANCH  14  15
ATOM     15  C   UNL     1       1.276  -0.578   0.000  0.00  0.00    +0.000 A 
ATOM     16  C   UNL     1       1.663   0.150   0.000  0.00  0.00    +0.000 A 
ATOM     17  C   UNL     1       2.488   0.179   0.000  0.00  0.00    +0.000 A 
ATOM     18  C   UNL     1       2.925  -0.520   0.000  0.00  0.00    +0.000 A 
ATOM     19  C   UNL     1       2.538  -1.249   0.000  0.00  0.00    +0.000 A 
ATOM     20  C   UNL     1       1.713  -1.278   0.000  0.00  0.00    +0.000 A 
ENDBRANCH  14  15
ENDBRANCH   6  14
TORSDOF 3
