REMARK  Name = BIE
REMARK  3 active torsions:
REMARK  status: ('A' for Active; 'I' for Inactive)
REMARK    1  A    between atoms: C_2  and  C_3
REMARK    2  A    between atoms: C_2  and  C_14
REMARK    3  A    between atoms: C_6  and  N_7
REMARK                            x       y       z     vdW  Elec       q    Type
REMARK                         _______ _______ _______ _____ _____    ______ ____
ROOT
ATOM      1  C   UNL     1       0.251  -0.070   0.000  0.00  0.00    +0.000 A 
ATOM      2  C   UNL     1      -0.463  -0.483   0.000  0.00  0.00    +0.000 A 
ATOM      3  C   UNL     1      -0.463  -1.308   0.000  0.00  0.00    +0.000 A 
ATOM      4  C   UNL     1       0.966  -0.483   0.000  0.00  0.00    +0.000 A 
ATOM      5  C   UNL     1       0.966  -1.308   0.000  0.00  0.00    +0.000 A 
ATOM      6  O   UNL     1       1.680  -1.720   0.000  0.00  0.00    +0.000 OA
ATOM      7  C   UNL     1       0.251  -1.720   0.000  0.00  0.00    +0.000 A 
ATOM      8  O   UNL     1       0.251  -2.546   0.000  0.00  0.00    +0.000 OA
ENDROOT
BRANCH   4   9
ATOM      9  N   UNL     1       1.680  -0.070   0.000  0.00  0.00    +0.000 N 
ATOM     10  O   UNL     1       1.680   0.754   0.000  0.00  0.00    +0.000 OA
ATOM     11  O   UNL     1       2.395  -0.483   0.000  0.00  0.00    +0.000 OA
ENDBRANCH   4   9
BRANCH   1  13
ATOM     12  O   UNL     1       0.966   1.167   0.000  0.00  0.00    +0.000 OA
ATOM     13  C   UNL     1       0.251   0.754   0.000  0.00  0.00    +0.000 C 
BRANCH  13  14
ATOM     14  C   UNL     1      -0.463   1.167   0.000  0.00  0.00    +0.000 A 
ATOM     15  C   UNL     1      -1.178   0.754   0.000  0.00  0.00    +0.000 A 
ATOM     16  C   UNL     1      -0.463   1.992   0.000  0.00  0.00    +0.000 A 
ATOM     17  C   UNL     1      -1.178   2.405   0.000  0.00  0.00    +0.000 A 
ATOM     18  C   UNL     1      -1.892   1.992   0.000  0.00  0.00    +0.000 A 
ATOM     19  C   UNL     1      -1.892   1.167   0.000  0.00  0.00    +0.000 A 
ENDBRANCH  13  14
ENDBRANCH   1  13
TORSDOF 3
