REMARK  Name = BIF
REMARK  4 active torsions:
REMARK  status: ('A' for Active; 'I' for Inactive)
REMARK    1  A    between atoms: CA_2  and  C_3
REMARK    2  A    between atoms: CA_2  and  C_5
REMARK    3  A    between atoms: C_5  and  C_6
REMARK    4  A    between atoms: C_9  and  C_16
REMARK                            x       y       z     vdW  Elec       q    Type
REMARK                         _______ _______ _______ _____ _____    ______ ____
ROOT
ATOM      1  C   UNL     1       2.605   0.012   0.000  0.00  0.00    +0.000 A 
ATOM      2  C   UNL     1       3.319  -0.401   0.000  0.00  0.00    +0.000 A 
ATOM      3  C   UNL     1       3.319  -1.226   0.000  0.00  0.00    +0.000 A 
ATOM      4  C   UNL     1       2.605  -1.638   0.000  0.00  0.00    +0.000 A 
ATOM      5  C   UNL     1       1.890  -1.226   0.000  0.00  0.00    +0.000 A 
ATOM      6  C   UNL     1       1.890  -0.401   0.000  0.00  0.00    +0.000 A 
ENDROOT
BRANCH   4  11
ATOM      7  C   UNL     1       3.319  -3.701   0.000  0.00  0.00    +0.000 A 
ATOM      8  C   UNL     1       2.605  -4.113   0.000  0.00  0.00    +0.000 A 
ATOM      9  C   UNL     1       1.890  -3.701   0.000  0.00  0.00    +0.000 A 
ATOM     10  C   UNL     1       1.890  -2.876   0.000  0.00  0.00    +0.000 A 
ATOM     11  C   UNL     1       2.605  -2.463   0.000  0.00  0.00    +0.000 A 
ATOM     12  C   UNL     1       3.319  -2.876   0.000  0.00  0.00    +0.000 A 
ENDBRANCH   4  11
BRANCH   1  13
ATOM     13  C   UNL     1       2.605   0.837   0.000  0.00  0.00    +0.000 C 
BRANCH  13  15
ATOM     14  N   UNL     1       1.176   0.837   0.000  0.00  0.00    +0.000 NA
ATOM     15  CA  UNL     1       1.890   1.249   0.000  0.00  0.00    +0.000 C 
BRANCH  15  16
ATOM     16  C   UNL     1       1.890   2.074   0.000  0.00  0.00    +0.000 C 
ATOM     17  O   UNL     1       1.176   2.487   0.000  0.00  0.00    +0.000 OA
ATOM     18  OXT UNL     1       2.605   2.487   0.000  0.00  0.00    +0.000 OA
ENDBRANCH  15  16
ENDBRANCH  13  15
ENDBRANCH   1  13
TORSDOF 4
