REMARK  Name = BIG
REMARK  7 active torsions:
REMARK  status: ('A' for Active; 'I' for Inactive)
REMARK    1  A    between atoms: C_7  and  C_8
REMARK    2  A    between atoms: C_8  and  S_9
REMARK    3  A    between atoms: S_9  and  C_10
REMARK    4  A    between atoms: C_10  and  C_11
REMARK    5  A    between atoms: C_11  and  C_12
REMARK    6  A    between atoms: N_15  and  C_17
REMARK    7  A    between atoms: C_17  and  C_22
REMARK                            x       y       z     vdW  Elec       q    Type
REMARK                         _______ _______ _______ _____ _____    ______ ____
ROOT
ATOM      1  O   UNL     1       0.421   1.842   0.000  0.00  0.00    +0.000 OA
ATOM      2  C   UNL     1      -0.192   1.290   0.000  0.00  0.00    +0.000 C 
ATOM      3  C   UNL     1      -0.106   0.469   0.000  0.00  0.00    +0.000 C 
ATOM      4  C   UNL     1      -0.859   0.134   0.000  0.00  0.00    +0.000 C 
ATOM      5  N   UNL     1      -1.411   0.747   0.000  0.00  0.00    +0.000 NA
ATOM      6  C   UNL     1      -0.999   1.461   0.000  0.00  0.00    +0.000 C 
ENDROOT
BRANCH   3   7
ATOM      7  C   UNL     1       0.609   0.057   0.000  0.00  0.00    +0.000 C 
BRANCH   7   8
ATOM      8  S   UNL     1       1.323   0.469   0.000  0.00  0.00    +0.000 S 
BRANCH   8   9
ATOM      9  C   UNL     1       2.038   0.057   0.000  0.00  0.00    +0.000 C 
BRANCH   9  10
ATOM     10  C   UNL     1       2.752   0.469   0.000  0.00  0.00    +0.000 C 
BRANCH  10  11
ATOM     11  C   UNL     1       3.467   0.057   0.000  0.00  0.00    +0.000 C 
ATOM     12  C   UNL     1       4.181   0.469   0.000  0.00  0.00    +0.000 C 
ENDBRANCH  10  11
ENDBRANCH   9  10
ENDBRANCH   8   9
ENDBRANCH   7   8
ENDBRANCH   3   7
BRANCH   5  13
ATOM     13  C   UNL     1      -2.232   0.660   0.000  0.00  0.00    +0.000 C 
BRANCH  13  22
ATOM     14  C   UNL     1      -4.795  -0.115   0.000  0.00  0.00    +0.000 A 
ATOM     15  C   UNL     1      -3.461  -1.085   0.000  0.00  0.00    +0.000 A 
ATOM     16  C   UNL     1      -3.374  -0.265   0.000  0.00  0.00    +0.000 A 
ATOM     17  C   UNL     1      -2.155  -0.808   0.000  0.00  0.00    +0.000 A 
ATOM     18  N   UNL     1      -2.707  -1.421   0.000  0.00  0.00    +0.000 NA
ATOM     19  C   UNL     1      -4.214  -1.421   0.000  0.00  0.00    +0.000 A 
ATOM     20  N   UNL     1      -4.301  -2.241   0.000  0.00  0.00    +0.000 NA
ATOM     21  N   UNL     1      -4.042   0.220   0.000  0.00  0.00    +0.000 NA
ATOM     22  C   UNL     1      -2.567  -0.093   0.000  0.00  0.00    +0.000 A 
ATOM     23  N   UNL     1      -4.882  -0.936   0.000  0.00  0.00    +0.000 NA
ENDBRANCH  13  22
ENDBRANCH   5  13
TORSDOF 7
