REMARK  Name = BIH
REMARK  2 active torsions:
REMARK  status: ('A' for Active; 'I' for Inactive)
REMARK    1  A    between atoms: S_2  and  C_5
REMARK    2  A    between atoms: C_14  and  S_15
REMARK                            x       y       z     vdW  Elec       q    Type
REMARK                         _______ _______ _______ _____ _____    ______ ____
ROOT
ATOM      1  C   UNL     1      -1.468  -0.463   0.000  0.00  0.00    +0.000 A 
ATOM      2  C   UNL     1      -1.468   0.362   0.000  0.00  0.00    +0.000 A 
ATOM      3  C   UNL     1      -0.753   0.774   0.000  0.00  0.00    +0.000 A 
ATOM      4  C   UNL     1      -0.039   0.362   0.000  0.00  0.00    +0.000 A 
ATOM      5  C   UNL     1       0.676   0.774   0.000  0.00  0.00    +0.000 A 
ATOM      6  C   UNL     1      -0.039  -0.463   0.000  0.00  0.00    +0.000 A 
ATOM      7  C   UNL     1      -0.753  -0.876   0.000  0.00  0.00    +0.000 A 
ATOM      8  C   UNL     1       0.676  -0.876   0.000  0.00  0.00    +0.000 A 
ATOM      9  C   UNL     1       1.390  -0.463   0.000  0.00  0.00    +0.000 A 
ATOM     10  C   UNL     1       1.390   0.362   0.000  0.00  0.00    +0.000 A 
ENDROOT
BRANCH   1  12
ATOM     11  O   UNL     1      -2.897  -1.288   0.000  0.00  0.00    +0.000 OA
ATOM     12  S   UNL     1      -2.182  -0.876   0.000  0.00  0.00    +0.000 S 
ATOM     13  O   UNL     1      -1.770  -1.590   0.000  0.00  0.00    +0.000 OA
ATOM     14  O   UNL     1      -2.595  -0.161   0.000  0.00  0.00    +0.000 OA
ENDBRANCH   1  12
BRANCH  10  15
ATOM     15  S   UNL     1       2.105   0.774   0.000  0.00  0.00    +0.000 S 
ATOM     16  O   UNL     1       2.819   1.187   0.000  0.00  0.00    +0.000 OA
ATOM     17  O   UNL     1       2.517   0.060   0.000  0.00  0.00    +0.000 OA
ATOM     18  O   UNL     1       1.692   1.489   0.000  0.00  0.00    +0.000 OA
ENDBRANCH  10  15
TORSDOF 2
