REMARK  Name = BIR
REMARK  9 active torsions:
REMARK  status: ('A' for Active; 'I' for Inactive)
REMARK    1  A    between atoms: C_2  and  P_4
REMARK    2  A    between atoms: P_4  and  C_7
REMARK    3  A    between atoms: C_7  and  C_8
REMARK    4  A    between atoms: C_8  and  C_9
REMARK    5  A    between atoms: C_8  and  C_17
REMARK    6  A    between atoms: N_11  and  CA_12
REMARK    7  A    between atoms: CA_12  and  C_14
REMARK    8  A    between atoms: C_17  and  C_18
REMARK    9  A    between atoms: C_21  and  C_24
REMARK                            x       y       z     vdW  Elec       q    Type
REMARK                         _______ _______ _______ _____ _____    ______ ____
ROOT
ATOM      1  C   UNK A   0      -1.232   0.152   0.000  0.00  0.00    +0.000 C 
ENDROOT
BRANCH   1   2
ATOM      2  C   UNK A   0      -0.692  -0.472   0.000  0.00  0.00    +0.000 C 
ATOM      3  O   UNK A   0      -0.962  -1.251   0.000  0.00  0.00    +0.000 OA
ATOM      4  N   ALA A   1       0.118  -0.316   0.000  0.00  0.00    +0.000 NA
BRANCH   4   5
ATOM      5  CA  ALA A   1       0.659  -0.940   0.000  0.00  0.00    +0.000 C 
ATOM      6  CB  ALA A   1       0.389  -1.719   0.000  0.00  0.00    +0.000 C 
BRANCH   5   7
ATOM      7  C   ALA A   1       1.469  -0.784   0.000  0.00  0.00    +0.000 C 
ATOM      8  O   ALA A   1       1.739  -0.004   0.000  0.00  0.00    +0.000 OA
ATOM      9  OXT ALA A   1       2.009  -1.407   0.000  0.00  0.00    +0.000 OA
ENDBRANCH   5   7
ENDBRANCH   4   5
ENDBRANCH   1   2
BRANCH   1  10
ATOM     10  C   UNK A   0      -0.962   0.931   0.000  0.00  0.00    +0.000 C 
BRANCH  10  11
ATOM     11  C   UNK A   0      -0.151   1.087   0.000  0.00  0.00    +0.000 A 
ATOM     12  C   UNK A   0       0.118   1.867   0.000  0.00  0.00    +0.000 A 
ATOM     13  C   UNK A   0       0.929   2.023   0.000  0.00  0.00    +0.000 A 
ATOM     14  C   UNK A   0       1.469   1.399   0.000  0.00  0.00    +0.000 A 
ATOM     15  C   UNK A   0       1.199   0.620   0.000  0.00  0.00    +0.000 A 
ATOM     16  C   UNK A   0       0.389   0.464   0.000  0.00  0.00    +0.000 A 
BRANCH  14  17
ATOM     17  C   UNK A   0       2.279   1.555   0.000  0.00  0.00    +0.000 A 
ATOM     18  C   UNK A   0       2.549   2.334   0.000  0.00  0.00    +0.000 A 
ATOM     19  C   UNK A   0       3.359   2.490   0.000  0.00  0.00    +0.000 A 
ATOM     20  C   UNK A   0       3.899   1.867   0.000  0.00  0.00    +0.000 A 
ATOM     21  C   UNK A   0       3.629   1.087   0.000  0.00  0.00    +0.000 A 
ATOM     22  C   UNK A   0       2.819   0.931   0.000  0.00  0.00    +0.000 A 
ENDBRANCH  14  17
ENDBRANCH  10  11
ENDBRANCH   1  10
BRANCH   1  23
ATOM     23  C   UNK A   0      -2.042  -0.004   0.000  0.00  0.00    +0.000 C 
BRANCH  23  24
ATOM     24  P   UNK A   0      -2.312  -0.784   0.000  0.00  0.00    +0.000 P 
ATOM     25  O   UNK A   0      -1.532  -1.054   0.000  0.00  0.00    +0.000 OA
ATOM     26  O   UNK A   0      -3.091  -0.514   0.000  0.00  0.00    +0.000 OA
BRANCH  24  28
ATOM     27  C   UNK A   0      -2.042  -2.187   0.000  0.00  0.00    +0.000 C 
ATOM     28  C   UNK A   0      -2.582  -1.563   0.000  0.00  0.00    +0.000 C 
ATOM     29  N   UNK A   0      -3.392  -1.719   0.000  0.00  0.00    +0.000 NA
ENDBRANCH  24  28
ENDBRANCH  23  24
ENDBRANCH   1  23
TORSDOF 9
