REMARK  Name = BIT
REMARK  1 active torsions:
REMARK  status: ('A' for Active; 'I' for Inactive)
REMARK    1  A    between atoms: N_16  and  C_17
REMARK                            x       y       z     vdW  Elec       q    Type
REMARK                         _______ _______ _______ _____ _____    ______ ____
ROOT
ATOM      1  O   UNL     1       0.340   2.150   0.000  0.00  0.00    +0.000 OA
ATOM      2  C   UNL     1       0.340   1.325   0.000  0.00  0.00    +0.000 C 
ATOM      3  C   UNL     1       1.054   0.913   0.000  0.00  0.00    +0.000 A 
ATOM      4  C   UNL     1       1.769   1.325   0.000  0.00  0.00    +0.000 A 
ATOM      5  C   UNL     1       2.483   0.913   0.000  0.00  0.00    +0.000 A 
ATOM      6  C   UNL     1       3.198   1.325   0.000  0.00  0.00    +0.000 C 
ATOM      7  C   UNL     1       2.483   0.088   0.000  0.00  0.00    +0.000 A 
ATOM      8  C   UNL     1       1.054   0.088   0.000  0.00  0.00    +0.000 A 
ATOM      9  C   UNL     1       1.769  -0.325   0.000  0.00  0.00    +0.000 A 
ATOM     10  C   UNL     1      -0.374   0.913   0.000  0.00  0.00    +0.000 C 
ATOM     11  C   UNL     1      -0.374   0.088   0.000  0.00  0.00    +0.000 C 
ATOM     12  N   UNL     1       0.340  -0.325   0.000  0.00  0.00    +0.000 NA
ATOM     13  O   UNL     1      -0.461   1.733   0.000  0.00  0.00    +0.000 OA
ATOM     14  C   UNL     1      -1.159   1.168   0.000  0.00  0.00    +0.000 C 
ATOM     15  C   UNL     1      -1.644   0.500   0.000  0.00  0.00    +0.000 C 
ATOM     16  N   UNL     1      -1.159  -0.167   0.000  0.00  0.00    +0.000 N 
ENDROOT
BRANCH  16  17
ATOM     17  C   UNL     1      -1.414  -0.952   0.000  0.00  0.00    +0.000 A 
ATOM     18  C   UNL     1      -0.862  -1.565   0.000  0.00  0.00    +0.000 A 
ATOM     19  C   UNL     1      -1.117  -2.349   0.000  0.00  0.00    +0.000 A 
ATOM     20  C   UNL     1      -1.924  -2.521   0.000  0.00  0.00    +0.000 A 
ATOM     21  C   UNL     1      -2.476  -1.908   0.000  0.00  0.00    +0.000 A 
ATOM     22  C   UNL     1      -2.221  -1.123   0.000  0.00  0.00    +0.000 A 
ENDBRANCH  16  17
TORSDOF 1
