REMARK  Name = BJH
REMARK  5 active torsions:
REMARK  status: ('A' for Active; 'I' for Inactive)
REMARK    1  A    between atoms: C_1  and  C_2
REMARK    2  A    between atoms: C_1  and  C_13
REMARK    3  A    between atoms: C_2  and  N_3
REMARK    4  A    between atoms: C_2  and  B_10
REMARK    5  A    between atoms: C_7  and  C_17
REMARK                            x       y       z     vdW  Elec       q    Type
REMARK                         _______ _______ _______ _____ _____    ______ ____
ROOT
ATOM      1  C   UNL     1       1.072   0.047   0.000  0.00  0.00    +0.000 A 
ATOM      2  C   UNL     1       0.358   0.460   0.000  0.00  0.00    +0.000 A 
ATOM      3  C   UNL     1       1.786   0.460   0.000  0.00  0.00    +0.000 A 
ATOM      4  C   UNL     1       0.358   1.285   0.000  0.00  0.00    +0.000 A 
ATOM      5  C   UNL     1       1.786   1.285   0.000  0.00  0.00    +0.000 A 
ATOM      6  C   UNL     1       1.072   1.697   0.000  0.00  0.00    +0.000 A 
ATOM      7  O   UNL     1      -0.357   1.697   0.000  0.00  0.00    +0.000 OA
ENDROOT
BRANCH   6   8
ATOM      8  C   UNL     1       1.072   2.522   0.000  0.00  0.00    +0.000 C 
ATOM      9  O   UNL     1       0.358   2.935   0.000  0.00  0.00    +0.000 OA
ATOM     10  O   UNL     1       1.786   2.935   0.000  0.00  0.00    +0.000 OA
ENDBRANCH   6   8
BRANCH   2  11
ATOM     11  C   UNL     1      -0.357   0.047   0.000  0.00  0.00    +0.000 C 
BRANCH  11  12
ATOM     12  C   UNL     1      -0.357  -0.778   0.000  0.00  0.00    +0.000 C 
BRANCH  12  13
ATOM     13  N   UNL     1      -1.071  -1.190   0.000  0.00  0.00    +0.000 NA
ATOM     14  C   UNL     1      -1.071  -2.015   0.000  0.00  0.00    +0.000 C 
ATOM     15  C   UNL     1      -1.786  -2.428   0.000  0.00  0.00    +0.000 C 
ATOM     16  O   UNL     1      -0.357  -2.428   0.000  0.00  0.00    +0.000 OA
ENDBRANCH  12  13
BRANCH  12  17
ATOM     17  B   UNL     1       0.358  -1.190   0.000  0.00  0.00    +0.000 B 
ATOM     18  O   UNL     1       1.072  -0.778   0.000  0.00  0.00    +0.000 OA
ATOM     19  O   UNL     1       0.358  -2.015   0.000  0.00  0.00    +0.000 OA
ENDBRANCH  12  17
ENDBRANCH  11  12
ENDBRANCH   2  11
TORSDOF 5
