REMARK  Name = BJI
REMARK  5 active torsions:
REMARK  status: ('A' for Active; 'I' for Inactive)
REMARK    1  A    between atoms: C_1  and  C_2
REMARK    2  A    between atoms: C_1  and  C_13
REMARK    3  A    between atoms: C_2  and  N_3
REMARK    4  A    between atoms: C_2  and  B_10
REMARK    5  A    between atoms: C_7  and  C_17
REMARK                            x       y       z     vdW  Elec       q    Type
REMARK                         _______ _______ _______ _____ _____    ______ ____
ROOT
ATOM      1  C   UNL     1      -0.383   0.128   0.000  0.00  0.00    +0.000 C 
ENDROOT
BRANCH   1   3
ATOM      2  C   UNL     1       1.046   0.128   0.000  0.00  0.00    +0.000 A 
ATOM      3  C   UNL     1       0.332   0.540   0.000  0.00  0.00    +0.000 A 
ATOM      4  C   UNL     1       1.760   0.540   0.000  0.00  0.00    +0.000 A 
ATOM      5  C   UNL     1       0.332   1.365   0.000  0.00  0.00    +0.000 A 
ATOM      6  C   UNL     1       1.760   1.365   0.000  0.00  0.00    +0.000 A 
ATOM      7  C   UNL     1       1.046   1.778   0.000  0.00  0.00    +0.000 A 
BRANCH   7   8
ATOM      8  C   UNL     1       1.046   2.603   0.000  0.00  0.00    +0.000 C 
ATOM      9  O   UNL     1       0.332   3.015   0.000  0.00  0.00    +0.000 OA
ATOM     10  O   UNL     1       1.760   3.015   0.000  0.00  0.00    +0.000 OA
ENDBRANCH   7   8
ENDBRANCH   1   3
BRANCH   1  11
ATOM     11  C   UNL     1      -0.383  -0.697   0.000  0.00  0.00    +0.000 C 
BRANCH  11  12
ATOM     12  N   UNL     1      -1.097  -1.110   0.000  0.00  0.00    +0.000 NA
ATOM     13  C   UNL     1      -1.097  -1.935   0.000  0.00  0.00    +0.000 C 
ATOM     14  C   UNL     1      -1.812  -2.347   0.000  0.00  0.00    +0.000 C 
ATOM     15  O   UNL     1      -0.383  -2.347   0.000  0.00  0.00    +0.000 OA
ENDBRANCH  11  12
BRANCH  11  16
ATOM     16  B   UNL     1       0.332  -1.110   0.000  0.00  0.00    +0.000 B 
ATOM     17  O   UNL     1       1.046  -0.697   0.000  0.00  0.00    +0.000 OA
ATOM     18  O   UNL     1       0.332  -1.935   0.000  0.00  0.00    +0.000 OA
ENDBRANCH  11  16
ENDBRANCH   1  11
TORSDOF 5
