REMARK  Name = BJM
REMARK  3 active torsions:
REMARK  status: ('A' for Active; 'I' for Inactive)
REMARK    1  A    between atoms: C_1  and  C_2
REMARK    2  A    between atoms: C_2  and  C_17
REMARK    3  A    between atoms: C_13  and  C_23
REMARK                            x       y       z     vdW  Elec       q    Type
REMARK                         _______ _______ _______ _____ _____    ______ ____
ROOT
ATOM      1  C   UNL     1       0.208  -0.025   0.000  0.00  0.00    +0.000 C 
ATOM      2  N   UNL     1       0.922  -0.438   0.000  0.00  0.00    +0.000 NA
ENDROOT
BRANCH   1   3
ATOM      3  C   UNL     1       0.208   0.800   0.000  0.00  0.00    +0.000 C 
ATOM      4  C   UNL     1      -0.528   0.426   0.000  0.00  0.00    +0.000 C 
ATOM      5  C   UNL     1      -0.078   1.216   0.000  0.00  0.00    +0.000 C 
ATOM      6  C   UNL     1       0.657   2.337   0.000  0.00  0.00    +0.000 C 
ATOM      7  C   UNL     1       1.393   1.216   0.000  0.00  0.00    +0.000 C 
ATOM      8  C   UNL     1      -0.078   1.964   0.000  0.00  0.00    +0.000 C 
ATOM      9  C   UNL     1       0.657   0.843   0.000  0.00  0.00    +0.000 C 
ATOM     10  C   UNL     1       1.393   1.964   0.000  0.00  0.00    +0.000 C 
ATOM     11  C   UNL     1       0.208   1.547   0.000  0.00  0.00    +0.000 C 
ATOM     12  C   UNL     1       0.943   0.426   0.000  0.00  0.00    +0.000 C 
ATOM     13  O   UNL     1      -0.876   1.427   0.000  0.00  0.00    +0.000 OA
ENDBRANCH   1   3
BRANCH   1  17
ATOM     14  C   UNL     1      -0.094  -2.533   0.000  0.00  0.00    +0.000 C 
ATOM     15  C   UNL     1       0.713  -2.361   0.000  0.00  0.00    +0.000 C 
ATOM     16  C   UNL     1      -0.919  -2.533   0.000  0.00  0.00    +0.000 C 
ATOM     17  C   UNL     1      -0.507  -0.438   0.000  0.00  0.00    +0.000 C 
ATOM     18  N   UNL     1      -0.507  -1.263   0.000  0.00  0.00    +0.000 N 
ATOM     19  O   UNL     1      -1.221  -0.025   0.000  0.00  0.00    +0.000 OA
ATOM     20  C   UNL     1       0.161  -1.748   0.000  0.00  0.00    +0.000 C 
ATOM     21  C   UNL     1      -1.174  -1.748   0.000  0.00  0.00    +0.000 C 
BRANCH  21  22
ATOM     22  C   UNL     1      -1.959  -1.493   0.000  0.00  0.00    +0.000 C 
ATOM     23  N   UNL     1      -2.743  -1.238   0.000  0.00  0.00    +0.000 NA
ENDBRANCH  21  22
ENDBRANCH   1  17
TORSDOF 3
