REMARK  Name = BJP
REMARK  7 active torsions:
REMARK  status: ('A' for Active; 'I' for Inactive)
REMARK    1  A    between atoms: C_1  and  C_2
REMARK    2  A    between atoms: C_1  and  C_9
REMARK    3  A    between atoms: C_2  and  B_6
REMARK    4  A    between atoms: C_2  and  N_24
REMARK    5  A    between atoms: C_3  and  C_13
REMARK    6  A    between atoms: C_15  and  C_21
REMARK    7  A    between atoms: C_21  and  C_22
REMARK                            x       y       z     vdW  Elec       q    Type
REMARK                         _______ _______ _______ _____ _____    ______ ____
ROOT
ATOM      1  C   UNL     1      -0.158   0.619   0.000  0.00  0.00    +0.000 C 
ENDROOT
BRANCH   1   2
ATOM      2  B   UNL     1      -0.571  -0.096   0.000  0.00  0.00    +0.000 B 
ATOM      3  O   UNL     1      -0.158  -0.810   0.000  0.00  0.00    +0.000 OA
ATOM      4  O   UNL     1      -1.395  -0.096   0.000  0.00  0.00    +0.000 OA
ENDBRANCH   1   2
BRANCH   1   7
ATOM      5  C   UNL     1       1.079  -0.096   0.000  0.00  0.00    +0.000 C 
ATOM      6  O   UNL     1       0.667  -0.810   0.000  0.00  0.00    +0.000 OA
ATOM      7  N   UNL     1       0.667   0.619   0.000  0.00  0.00    +0.000 NA
BRANCH   5   8
ATOM      8  C   UNL     1       1.905  -0.096   0.000  0.00  0.00    +0.000 C 
BRANCH   8   9
ATOM      9  C   UNL     1       2.317  -0.810   0.000  0.00  0.00    +0.000 A 
ATOM     10  C   UNL     1       3.142  -0.810   0.000  0.00  0.00    +0.000 A 
ATOM     11  C   UNL     1       3.554  -1.525   0.000  0.00  0.00    +0.000 A 
ATOM     12  C   UNL     1       3.142  -2.239   0.000  0.00  0.00    +0.000 A 
ATOM     13  C   UNL     1       2.317  -2.239   0.000  0.00  0.00    +0.000 A 
ATOM     14  C   UNL     1       1.905  -1.525   0.000  0.00  0.00    +0.000 A 
ENDBRANCH   8   9
ENDBRANCH   5   8
ENDBRANCH   1   7
BRANCH   1  15
ATOM     15  C   UNL     1      -0.571   1.333   0.000  0.00  0.00    +0.000 C 
BRANCH  15  17
ATOM     16  C   UNL     1      -1.808   2.048   0.000  0.00  0.00    +0.000 A 
ATOM     17  C   UNL     1      -1.395   1.333   0.000  0.00  0.00    +0.000 A 
ATOM     18  C   UNL     1      -2.633   2.048   0.000  0.00  0.00    +0.000 A 
ATOM     19  C   UNL     1      -1.808   0.619   0.000  0.00  0.00    +0.000 A 
ATOM     20  C   UNL     1      -3.046   1.333   0.000  0.00  0.00    +0.000 A 
ATOM     21  C   UNL     1      -2.633   0.619   0.000  0.00  0.00    +0.000 A 
BRANCH  21  22
ATOM     22  C   UNL     1      -3.046  -0.096   0.000  0.00  0.00    +0.000 C 
ATOM     23  O   UNL     1      -3.870  -0.096   0.000  0.00  0.00    +0.000 OA
ATOM     24  O   UNL     1      -2.633  -0.810   0.000  0.00  0.00    +0.000 OA
ENDBRANCH  21  22
ENDBRANCH  15  17
ENDBRANCH   1  15
TORSDOF 7
