REMARK  Name = BL4
REMARK  1 active torsions:
REMARK  status: ('A' for Active; 'I' for Inactive)
REMARK    1  A    between atoms: N_7  and  C_8
REMARK                            x       y       z     vdW  Elec       q    Type
REMARK                         _______ _______ _______ _____ _____    ______ ____
ROOT
ATOM      1  O   UNL     1      -0.444  -1.996   0.000  0.00  0.00    +0.000 OA
ATOM      2  C   UNL     1      -0.444  -1.171   0.000  0.00  0.00    +0.000 C 
ATOM      3  C   UNL     1       0.270  -0.759   0.000  0.00  0.00    +0.000 C 
ATOM      4  O   UNL     1       0.357  -1.579   0.000  0.00  0.00    +0.000 OA
ATOM      5  C   UNL     1       1.055  -1.014   0.000  0.00  0.00    +0.000 C 
ATOM      6  C   UNL     1       1.540  -0.346   0.000  0.00  0.00    +0.000 C 
ATOM      7  N   UNL     1       1.055   0.321   0.000  0.00  0.00    +0.000 N 
ATOM      8  C   UNL     1       0.270   0.066   0.000  0.00  0.00    +0.000 C 
ATOM      9  N   UNL     1      -0.444   0.478   0.000  0.00  0.00    +0.000 NA
ATOM     10  C   UNL     1      -1.159   0.066   0.000  0.00  0.00    +0.000 A 
ATOM     11  C   UNL     1      -1.159  -0.759   0.000  0.00  0.00    +0.000 A 
ATOM     12  C   UNL     1      -1.873   0.478   0.000  0.00  0.00    +0.000 A 
ATOM     13  C   UNL     1      -2.588   0.066   0.000  0.00  0.00    +0.000 A 
ATOM     14  C   UNL     1      -2.588  -0.759   0.000  0.00  0.00    +0.000 A 
ATOM     15  C   UNL     1      -1.873  -1.171   0.000  0.00  0.00    +0.000 A 
ATOM     16  C   UNL     1      -1.873  -1.996   0.000  0.00  0.00    +0.000 C 
ENDROOT
BRANCH   7  17
ATOM     17  C   UNL     1       1.310   1.105   0.000  0.00  0.00    +0.000 A 
ATOM     18  C   UNL     1       2.117   1.277   0.000  0.00  0.00    +0.000 A 
ATOM     19  C   UNL     1       2.372   2.062   0.000  0.00  0.00    +0.000 A 
ATOM     20  C   UNL     1       1.820   2.675   0.000  0.00  0.00    +0.000 A 
ATOM     21  C   UNL     1       1.013   2.503   0.000  0.00  0.00    +0.000 A 
ATOM     22  C   UNL     1       0.758   1.719   0.000  0.00  0.00    +0.000 A 
ENDBRANCH   7  17
TORSDOF 1
