REMARK  Name = BL6
REMARK  1 active torsions:
REMARK  status: ('A' for Active; 'I' for Inactive)
REMARK    1  A    between atoms: C_10  and  N_16
REMARK                            x       y       z     vdW  Elec       q    Type
REMARK                         _______ _______ _______ _____ _____    ______ ____
ROOT
ATOM      1  C   UNL     1       1.022   1.119   0.000  0.00  0.00    +0.000 A 
ATOM      2  C   UNL     1       0.308   1.532   0.000  0.00  0.00    +0.000 C 
ATOM      3  C   UNL     1      -0.407   1.119   0.000  0.00  0.00    +0.000 C 
ATOM      4  C   UNL     1      -1.191   1.374   0.000  0.00  0.00    +0.000 C 
ATOM      5  C   UNL     1      -1.676   0.707   0.000  0.00  0.00    +0.000 C 
ATOM      6  C   UNL     1       1.737   1.532   0.000  0.00  0.00    +0.000 A 
ATOM      7  C   UNL     1       2.451   0.294   0.000  0.00  0.00    +0.000 A 
ATOM      8  C   UNL     1       1.022   0.294   0.000  0.00  0.00    +0.000 A 
ATOM      9  C   UNL     1      -0.407   0.294   0.000  0.00  0.00    +0.000 C 
ATOM     10  O   UNL     1       0.308   2.357   0.000  0.00  0.00    +0.000 OA
ATOM     11  O   UNL     1      -0.493   1.940   0.000  0.00  0.00    +0.000 OA
ATOM     12  N   UNL     1      -1.191   0.039   0.000  0.00  0.00    +0.000 N 
ATOM     13  N   UNL     1       0.308  -0.118   0.000  0.00  0.00    +0.000 NA
ATOM     14  C   UNL     1       1.737  -0.118   0.000  0.00  0.00    +0.000 A 
ATOM     15  C   UNL     1       3.166  -0.118   0.000  0.00  0.00    +0.000 C 
ATOM     16  C   UNL     1       2.451   1.119   0.000  0.00  0.00    +0.000 A 
ENDROOT
BRANCH  12  17
ATOM     17  C   UNL     1      -1.446  -0.745   0.000  0.00  0.00    +0.000 A 
ATOM     18  C   UNL     1      -0.894  -1.358   0.000  0.00  0.00    +0.000 A 
ATOM     19  C   UNL     1      -1.149  -2.143   0.000  0.00  0.00    +0.000 A 
ATOM     20  C   UNL     1      -2.253  -0.917   0.000  0.00  0.00    +0.000 A 
ATOM     21  C   UNL     1      -2.508  -1.701   0.000  0.00  0.00    +0.000 A 
ATOM     22  C   UNL     1      -1.956  -2.314   0.000  0.00  0.00    +0.000 A 
ENDBRANCH  12  17
TORSDOF 1
