REMARK  Name = BL7
REMARK  1 active torsions:
REMARK  status: ('A' for Active; 'I' for Inactive)
REMARK    1  A    between atoms: N_7  and  C_8
REMARK                            x       y       z     vdW  Elec       q    Type
REMARK                         _______ _______ _______ _____ _____    ______ ____
ROOT
ATOM      1  O   UNL     1      -0.502  -2.163   0.000  0.00  0.00    +0.000 OA
ATOM      2  C   UNL     1      -0.502  -1.337   0.000  0.00  0.00    +0.000 C 
ATOM      3  C   UNL     1       0.212  -0.925   0.000  0.00  0.00    +0.000 C 
ATOM      4  O   UNL     1       0.299  -1.746   0.000  0.00  0.00    +0.000 OA
ATOM      5  C   UNL     1       0.997  -1.180   0.000  0.00  0.00    +0.000 C 
ATOM      6  C   UNL     1       1.482  -0.512   0.000  0.00  0.00    +0.000 C 
ATOM      7  N   UNL     1       0.997   0.155   0.000  0.00  0.00    +0.000 N 
ATOM      8  C   UNL     1       0.212  -0.100   0.000  0.00  0.00    +0.000 C 
ATOM      9  N   UNL     1      -0.502   0.312   0.000  0.00  0.00    +0.000 NA
ATOM     10  C   UNL     1      -1.217  -0.100   0.000  0.00  0.00    +0.000 A 
ATOM     11  C   UNL     1      -1.217  -0.925   0.000  0.00  0.00    +0.000 A 
ATOM     12  C   UNL     1      -1.931   0.312   0.000  0.00  0.00    +0.000 A 
ATOM     13  C   UNL     1      -2.646  -0.100   0.000  0.00  0.00    +0.000 A 
ATOM     14  C   UNL     1      -2.646  -0.925   0.000  0.00  0.00    +0.000 A 
ATOM     15  C   UNL     1      -1.931  -1.337   0.000  0.00  0.00    +0.000 A 
ENDROOT
BRANCH   7  16
ATOM     16  C   UNL     1       1.252   0.940   0.000  0.00  0.00    +0.000 A 
ATOM     17  C   UNL     1       0.700   1.553   0.000  0.00  0.00    +0.000 A 
ATOM     18  C   UNL     1       0.955   2.337   0.000  0.00  0.00    +0.000 A 
ATOM     19  C   UNL     1       1.762   2.509   0.000  0.00  0.00    +0.000 A 
ATOM     20  C   UNL     1       2.314   1.896   0.000  0.00  0.00    +0.000 A 
ATOM     21  C   UNL     1       2.059   1.111   0.000  0.00  0.00    +0.000 A 
ENDBRANCH   7  16
TORSDOF 1
