REMARK  Name = BLN
REMARK  10 active torsions:
REMARK  status: ('A' for Active; 'I' for Inactive)
REMARK    1  A    between atoms: N_9  and  C_10
REMARK    2  A    between atoms: C_10  and  C_11
REMARK    3  A    between atoms: C_10  and  C_15
REMARK    4  A    between atoms: C_11  and  C_12
REMARK    5  A    between atoms: C_17  and  O_19
REMARK    6  A    between atoms: C_17  and  C_29
REMARK    7  A    between atoms: N_18  and  C_29
REMARK    8  A    between atoms: O_19  and  C_20
REMARK    9  A    between atoms: C_20  and  C_21
REMARK   10  A    between atoms: C_27  and  C_29
REMARK                            x       y       z     vdW  Elec       q    Type
REMARK                         _______ _______ _______ _____ _____    ______ ____
ROOT
ATOM      1  C   UNL     1      -0.302   0.108   0.000  0.00  0.00    +0.000 C 
ATOM      2  O   UNL     1      -0.103  -0.693   0.000  0.00  0.00    +0.000 OA
ATOM      3  N   UNL     1       0.293   0.680   0.000  0.00  0.00    +0.000 NA
ENDROOT
BRANCH   1   4
ATOM      4  C   UNL     1      -1.094   0.336   0.000  0.00  0.00    +0.000 C 
BRANCH   4  13
ATOM      5  C   UNL     1      -1.491  -1.036   0.000  0.00  0.00    +0.000 C 
ATOM      6  C   UNL     1      -1.887  -2.409   0.000  0.00  0.00    +0.000 C 
ATOM      7  C   UNL     1      -2.481  -2.981   0.000  0.00  0.00    +0.000 C 
ATOM      8  C   UNL     1      -3.472  -1.952   0.000  0.00  0.00    +0.000 C 
ATOM      9  C   UNL     1      -2.878  -1.380   0.000  0.00  0.00    +0.000 C 
ATOM     10  O   UNL     1      -0.698  -1.265   0.000  0.00  0.00    +0.000 OA
ATOM     11  O   UNL     1      -3.274  -2.753   0.000  0.00  0.00    +0.000 OA
ATOM     12  N   UNL     1      -2.085  -1.609   0.000  0.00  0.00    +0.000 N 
ATOM     13  N   UNL     1      -1.689  -0.236   0.000  0.00  0.00    +0.000 NA
ENDBRANCH   4  13
BRANCH   4  14
ATOM     14  C   UNL     1      -1.292   1.137   0.000  0.00  0.00    +0.000 C 
BRANCH  14  15
ATOM     15  C   UNL     1      -2.085   1.366   0.000  0.00  0.00    +0.000 C 
ATOM     16  C   UNL     1      -2.680   0.794   0.000  0.00  0.00    +0.000 C 
ATOM     17  C   UNL     1      -2.283   2.167   0.000  0.00  0.00    +0.000 C 
ENDBRANCH  14  15
ENDBRANCH   4  14
ENDBRANCH   1   4
BRANCH   3  18
ATOM     18  C   UNL     1       1.085   0.451   0.000  0.00  0.00    +0.000 C 
BRANCH  18  19
ATOM     19  C   UNL     1       1.284  -0.350   0.000  0.00  0.00    +0.000 C 
ATOM     20  N   UNL     1       1.482  -1.151   0.000  0.00  0.00    +0.000 NA
ENDBRANCH  18  19
BRANCH  18  21
ATOM     21  C   UNL     1       1.680   1.023   0.000  0.00  0.00    +0.000 C 
BRANCH  21  22
ATOM     22  O   UNL     1       2.473   0.794   0.000  0.00  0.00    +0.000 OA
BRANCH  22  23
ATOM     23  C   UNL     1       3.067   1.366   0.000  0.00  0.00    +0.000 C 
BRANCH  23  24
ATOM     24  C   UNL     1       3.860   1.137   0.000  0.00  0.00    +0.000 A 
ATOM     25  C   UNL     1       4.454   1.709   0.000  0.00  0.00    +0.000 A 
ATOM     26  C   UNL     1       5.247   1.480   0.000  0.00  0.00    +0.000 A 
ATOM     27  C   UNL     1       5.445   0.680   0.000  0.00  0.00    +0.000 A 
ATOM     28  C   UNL     1       4.851   0.108   0.000  0.00  0.00    +0.000 A 
ATOM     29  C   UNL     1       4.058   0.336   0.000  0.00  0.00    +0.000 A 
ENDBRANCH  23  24
ENDBRANCH  22  23
ENDBRANCH  21  22
ENDBRANCH  18  21
ENDBRANCH   3  18
TORSDOF 10
