REMARK  Name = BLZ
REMARK  7 active torsions:
REMARK  status: ('A' for Active; 'I' for Inactive)
REMARK    1  A    between atoms: O_2  and  C_3
REMARK    2  A    between atoms: N_8  and  C_9
REMARK    3  A    between atoms: C_11  and  O_12
REMARK    4  A    between atoms: O_12  and  C_13
REMARK    5  A    between atoms: C_13  and  C_15
REMARK    6  A    between atoms: C_22  and  C_24
REMARK    7  A    between atoms: C_29  and  O_30
REMARK                            x       y       z     vdW  Elec       q    Type
REMARK                         _______ _______ _______ _____ _____    ______ ____
ROOT
ATOM      1  C   UNL     1      -1.312  -2.459   0.000  0.00  0.00    +0.000 A 
ATOM      2  C   UNL     1      -0.827  -1.791   0.000  0.00  0.00    +0.000 A 
ATOM      3  C   UNL     1      -1.312  -1.124   0.000  0.00  0.00    +0.000 A 
ATOM      4  C   UNL     1      -2.096  -1.379   0.000  0.00  0.00    +0.000 A 
ATOM      5  S   UNL     1      -2.096  -2.204   0.000  0.00  0.00    +0.000 S 
ENDROOT
BRANCH   1  11
ATOM      6  C   UNL     1       1.157  -4.323   0.000  0.00  0.00    +0.000 A 
ATOM      7  C   UNL     1       0.443  -4.736   0.000  0.00  0.00    +0.000 A 
ATOM      8  C   UNL     1      -0.272  -4.323   0.000  0.00  0.00    +0.000 A 
ATOM      9  N   UNL     1      -1.057  -4.578   0.000  0.00  0.00    +0.000 NA
ATOM     10  C   UNL     1      -1.542  -3.911   0.000  0.00  0.00    +0.000 A 
ATOM     11  N   UNL     1      -1.057  -3.243   0.000  0.00  0.00    +0.000 N 
ATOM     12  C   UNL     1      -0.272  -3.498   0.000  0.00  0.00    +0.000 A 
ATOM     13  C   UNL     1       0.443  -3.086   0.000  0.00  0.00    +0.000 A 
ATOM     14  C   UNL     1       1.157  -3.498   0.000  0.00  0.00    +0.000 A 
BRANCH   6  16
ATOM     15  C   UNL     1       2.586  -4.323   0.000  0.00  0.00    +0.000 C 
ATOM     16  O   UNL     1       1.871  -4.736   0.000  0.00  0.00    +0.000 OA
ENDBRANCH   6  16
BRANCH  14  17
ATOM     17  O   UNL     1       1.871  -3.086   0.000  0.00  0.00    +0.000 OA
ATOM     18  C   UNL     1       1.871  -2.261   0.000  0.00  0.00    +0.000 C 
ENDBRANCH  14  17
ENDBRANCH   1  11
BRANCH   4  19
ATOM     19  C   UNL     1      -2.764  -0.894   0.000  0.00  0.00    +0.000 C 
ATOM     20  O   UNL     1      -3.517  -1.229   0.000  0.00  0.00    +0.000 OA
ATOM     21  N   UNL     1      -2.677  -0.073   0.000  0.00  0.00    +0.000 NA
ENDBRANCH   4  19
BRANCH   3  22
ATOM     22  O   UNL     1      -1.057  -0.339   0.000  0.00  0.00    +0.000 OA
BRANCH  22  23
ATOM     23  C   UNL     1      -0.250  -0.168   0.000  0.00  0.00    +0.000 C 
ATOM     24  C   UNL     1       0.302  -0.781   0.000  0.00  0.00    +0.000 C 
BRANCH  23  25
ATOM     25  C   UNL     1       0.005   0.617   0.000  0.00  0.00    +0.000 A 
ATOM     26  C   UNL     1      -0.547   1.230   0.000  0.00  0.00    +0.000 A 
ATOM     27  C   UNL     1      -0.292   2.015   0.000  0.00  0.00    +0.000 A 
ATOM     28  C   UNL     1       0.515   2.186   0.000  0.00  0.00    +0.000 A 
ATOM     29  C   UNL     1       1.067   1.573   0.000  0.00  0.00    +0.000 A 
ATOM     30  C   UNL     1       0.812   0.788   0.000  0.00  0.00    +0.000 A 
ATOM     31 CL   UNL     1       1.364   0.175   0.000  0.00  0.00    +0.000 Cl
ENDBRANCH  23  25
ENDBRANCH  22  23
ENDBRANCH   3  22
TORSDOF 7
