REMARK  Name = BN3
REMARK  7 active torsions:
REMARK  status: ('A' for Active; 'I' for Inactive)
REMARK    1  A    between atoms: C_3  and  C_9
REMARK    2  A    between atoms: N_11  and  C_12
REMARK    3  A    between atoms: C_15  and  O_16
REMARK    4  A    between atoms: O_16  and  C_17
REMARK    5  A    between atoms: C_17  and  C_18
REMARK    6  A    between atoms: C_18  and  C_19
REMARK    7  A    between atoms: C_19  and  C_26
REMARK                            x       y       z     vdW  Elec       q    Type
REMARK                         _______ _______ _______ _____ _____    ______ ____
ROOT
ATOM      1  N   UNL     1      -2.180   0.636   0.000  0.00  0.00    +0.000 NA
ATOM      2  C   UNL     1      -2.895   0.223   0.000  0.00  0.00    +0.000 C 
ATOM      3  O   UNL     1      -2.895  -0.602   0.000  0.00  0.00    +0.000 OA
ATOM      4  N   UNL     1      -0.751   0.636   0.000  0.00  0.00    +0.000 NA
ATOM      5  C   UNL     1      -1.466   0.223   0.000  0.00  0.00    +0.000 C 
ATOM      6  O   UNL     1      -1.466  -0.602   0.000  0.00  0.00    +0.000 OA
ENDROOT
BRANCH   2   9
ATOM      7  C   UNL     1      -4.324   1.873   0.000  0.00  0.00    +0.000 A 
ATOM      8  C   UNL     1      -3.609   1.461   0.000  0.00  0.00    +0.000 A 
ATOM      9  C   UNL     1      -3.609   0.636   0.000  0.00  0.00    +0.000 A 
ATOM     10  C   UNL     1      -4.324   0.223   0.000  0.00  0.00    +0.000 A 
ATOM     11 CL   UNL     1      -4.324  -0.602   0.000  0.00  0.00    +0.000 Cl
ATOM     12  C   UNL     1      -5.038   0.636   0.000  0.00  0.00    +0.000 A 
ATOM     13  C   UNL     1      -5.038   1.461   0.000  0.00  0.00    +0.000 A 
ATOM     14 CL   UNL     1      -5.753   1.873   0.000  0.00  0.00    +0.000 Cl
ENDBRANCH   2   9
BRANCH   4  15
ATOM     15  C   UNL     1      -0.037   0.223   0.000  0.00  0.00    +0.000 A 
ATOM     16  C   UNL     1       0.677   0.636   0.000  0.00  0.00    +0.000 A 
ATOM     17  C   UNL     1       1.392   0.223   0.000  0.00  0.00    +0.000 A 
ATOM     18  C   UNL     1       1.392  -0.602   0.000  0.00  0.00    +0.000 A 
ATOM     19  C   UNL     1       0.677  -1.014   0.000  0.00  0.00    +0.000 A 
ATOM     20  C   UNL     1      -0.037  -0.602   0.000  0.00  0.00    +0.000 A 
ATOM     21 CL   UNL     1      -0.751  -1.014   0.000  0.00  0.00    +0.000 Cl
BRANCH  18  22
ATOM     22  O   UNL     1       2.106  -1.014   0.000  0.00  0.00    +0.000 OA
BRANCH  22  23
ATOM     23  C   UNL     1       2.821  -0.602   0.000  0.00  0.00    +0.000 C 
BRANCH  23  24
ATOM     24  C   UNL     1       3.535  -1.014   0.000  0.00  0.00    +0.000 C 
BRANCH  24  25
ATOM     25  C   UNL     1       4.250  -0.602   0.000  0.00  0.00    +0.000 C 
BRANCH  25  26
ATOM     26  C   UNL     1       4.964  -1.014   0.000  0.00  0.00    +0.000 C 
ATOM     27  O   UNL     1       5.679  -0.602   0.000  0.00  0.00    +0.000 OA
ATOM     28  O   UNL     1       4.964  -1.839   0.000  0.00  0.00    +0.000 OA
ENDBRANCH  25  26
ENDBRANCH  24  25
ENDBRANCH  23  24
ENDBRANCH  22  23
ENDBRANCH  18  22
ENDBRANCH   4  15
TORSDOF 7
