REMARK  Name = BN4
REMARK  7 active torsions:
REMARK  status: ('A' for Active; 'I' for Inactive)
REMARK    1  A    between atoms: C_3  and  C_9
REMARK    2  A    between atoms: N_11  and  C_12
REMARK    3  A    between atoms: C_15  and  O_16
REMARK    4  A    between atoms: O_16  and  C_17
REMARK    5  A    between atoms: C_17  and  C_18
REMARK    6  A    between atoms: C_18  and  C_19
REMARK    7  A    between atoms: C_19  and  C_26
REMARK                            x       y       z     vdW  Elec       q    Type
REMARK                         _______ _______ _______ _____ _____    ______ ____
ROOT
ATOM      1  C   UNL     1       0.278   0.359   0.000  0.00  0.00    +0.000 A 
ATOM      2  C   UNL     1       0.992   0.771   0.000  0.00  0.00    +0.000 A 
ATOM      3  C   UNL     1       1.707   0.359   0.000  0.00  0.00    +0.000 A 
ATOM      4  C   UNL     1       1.707  -0.466   0.000  0.00  0.00    +0.000 A 
ATOM      5  C   UNL     1       0.992  -0.879   0.000  0.00  0.00    +0.000 A 
ATOM      6  C   UNL     1       0.278  -0.466   0.000  0.00  0.00    +0.000 A 
ATOM      7  C   UNL     1      -0.437  -0.879   0.000  0.00  0.00    +0.000 C 
ATOM      8  C   UNL     1       0.992  -1.704   0.000  0.00  0.00    +0.000 C 
ENDROOT
BRANCH   1  12
ATOM      9  N   UNL     1      -1.866   0.771   0.000  0.00  0.00    +0.000 NA
ATOM     10  C   UNL     1      -2.580   0.359   0.000  0.00  0.00    +0.000 C 
ATOM     11  O   UNL     1      -2.580  -0.466   0.000  0.00  0.00    +0.000 OA
ATOM     12  N   UNL     1      -0.437   0.771   0.000  0.00  0.00    +0.000 NA
ATOM     13  C   UNL     1      -1.151   0.359   0.000  0.00  0.00    +0.000 C 
ATOM     14  O   UNL     1      -1.151  -0.466   0.000  0.00  0.00    +0.000 OA
BRANCH  10  17
ATOM     15  C   UNL     1      -4.009   2.009   0.000  0.00  0.00    +0.000 A 
ATOM     16  C   UNL     1      -3.295   1.596   0.000  0.00  0.00    +0.000 A 
ATOM     17  C   UNL     1      -3.295   0.771   0.000  0.00  0.00    +0.000 A 
ATOM     18  C   UNL     1      -4.009   0.359   0.000  0.00  0.00    +0.000 A 
ATOM     19 CL   UNL     1      -4.009  -0.466   0.000  0.00  0.00    +0.000 Cl
ATOM     20  C   UNL     1      -4.723   0.771   0.000  0.00  0.00    +0.000 A 
ATOM     21  C   UNL     1      -4.723   1.596   0.000  0.00  0.00    +0.000 A 
ATOM     22 CL   UNL     1      -5.438   2.009   0.000  0.00  0.00    +0.000 Cl
ENDBRANCH  10  17
ENDBRANCH   1  12
BRANCH   4  23
ATOM     23  O   UNL     1       2.421  -0.879   0.000  0.00  0.00    +0.000 OA
BRANCH  23  24
ATOM     24  C   UNL     1       3.136  -0.466   0.000  0.00  0.00    +0.000 C 
BRANCH  24  25
ATOM     25  C   UNL     1       3.850  -0.879   0.000  0.00  0.00    +0.000 C 
BRANCH  25  26
ATOM     26  C   UNL     1       4.565  -0.466   0.000  0.00  0.00    +0.000 C 
BRANCH  26  27
ATOM     27  C   UNL     1       5.279  -0.879   0.000  0.00  0.00    +0.000 C 
ATOM     28  O   UNL     1       5.994  -0.466   0.000  0.00  0.00    +0.000 OA
ATOM     29  O   UNL     1       5.279  -1.704   0.000  0.00  0.00    +0.000 OA
ENDBRANCH  26  27
ENDBRANCH  25  26
ENDBRANCH  24  25
ENDBRANCH  23  24
ENDBRANCH   4  23
TORSDOF 7
