REMARK  Name = BN5
REMARK  8 active torsions:
REMARK  status: ('A' for Active; 'I' for Inactive)
REMARK    1  A    between atoms: C_3  and  C_9
REMARK    2  A    between atoms: N_11  and  C_12
REMARK    3  A    between atoms: O_17  and  C_18
REMARK    4  A    between atoms: O_17  and  C_25
REMARK    5  A    between atoms: C_18  and  C_19
REMARK    6  A    between atoms: C_19  and  C_20
REMARK    7  A    between atoms: C_20  and  C_21
REMARK    8  A    between atoms: C_21  and  C_22
REMARK                            x       y       z     vdW  Elec       q    Type
REMARK                         _______ _______ _______ _____ _____    ______ ____
ROOT
ATOM      1  C   UNL     1      -0.262   0.253   0.000  0.00  0.00    +0.000 A 
ATOM      2  C   UNL     1      -0.262   1.078   0.000  0.00  0.00    +0.000 A 
ATOM      3  C   UNL     1       0.453   1.490   0.000  0.00  0.00    +0.000 A 
ATOM      4  C   UNL     1       0.453  -0.985   0.000  0.00  0.00    +0.000 C 
ATOM      5  C   UNL     1       1.167   1.078   0.000  0.00  0.00    +0.000 A 
ATOM      6  C   UNL     1       1.167   0.253   0.000  0.00  0.00    +0.000 A 
ATOM      7  C   UNL     1       0.453  -0.160   0.000  0.00  0.00    +0.000 A 
ENDROOT
BRANCH   1  11
ATOM      8  N   UNL     1      -2.405  -0.160   0.000  0.00  0.00    +0.000 NA
ATOM      9  C   UNL     1      -3.120   0.253   0.000  0.00  0.00    +0.000 C 
ATOM     10  O   UNL     1      -3.120   1.078   0.000  0.00  0.00    +0.000 OA
ATOM     11  N   UNL     1      -0.976  -0.160   0.000  0.00  0.00    +0.000 NA
ATOM     12  C   UNL     1      -1.691   0.253   0.000  0.00  0.00    +0.000 C 
ATOM     13  O   UNL     1      -1.691   1.078   0.000  0.00  0.00    +0.000 OA
BRANCH   9  16
ATOM     14  C   UNL     1      -5.263  -0.160   0.000  0.00  0.00    +0.000 A 
ATOM     15  C   UNL     1      -4.549   0.253   0.000  0.00  0.00    +0.000 A 
ATOM     16  C   UNL     1      -3.834  -0.160   0.000  0.00  0.00    +0.000 A 
ATOM     17  C   UNL     1      -3.834  -0.985   0.000  0.00  0.00    +0.000 A 
ATOM     18 CL   UNL     1      -3.120  -1.397   0.000  0.00  0.00    +0.000 Cl
ATOM     19  C   UNL     1      -4.549  -1.397   0.000  0.00  0.00    +0.000 A 
ATOM     20  C   UNL     1      -5.263  -0.985   0.000  0.00  0.00    +0.000 A 
ATOM     21 CL   UNL     1      -5.978  -1.397   0.000  0.00  0.00    +0.000 Cl
ENDBRANCH   9  16
ENDBRANCH   1  11
BRANCH   6  22
ATOM     22  O   UNL     1       1.882  -0.160   0.000  0.00  0.00    +0.000 OA
BRANCH  22  23
ATOM     23  C   UNL     1       2.596   0.253   0.000  0.00  0.00    +0.000 C 
BRANCH  23  24
ATOM     24  C   UNL     1       3.311  -0.160   0.000  0.00  0.00    +0.000 C 
BRANCH  24  25
ATOM     25  C   UNL     1       4.025   0.253   0.000  0.00  0.00    +0.000 C 
BRANCH  25  26
ATOM     26  C   UNL     1       4.739  -0.160   0.000  0.00  0.00    +0.000 C 
BRANCH  26  27
ATOM     27  C   UNL     1       5.454   0.253   0.000  0.00  0.00    +0.000 C 
ATOM     28  O   UNL     1       6.168  -0.160   0.000  0.00  0.00    +0.000 OA
ATOM     29  O   UNL     1       5.454   1.078   0.000  0.00  0.00    +0.000 OA
ENDBRANCH  26  27
ENDBRANCH  25  26
ENDBRANCH  24  25
ENDBRANCH  23  24
ENDBRANCH  22  23
ENDBRANCH   6  22
TORSDOF 8
