REMARK  Name = BNI
REMARK  7 active torsions:
REMARK  status: ('A' for Active; 'I' for Inactive)
REMARK    1  A    between atoms: C_1  and  C_2
REMARK    2  A    between atoms: C_2  and  C_3
REMARK    3  A    between atoms: C_3  and  C_4
REMARK    4  A    between atoms: C_4  and  C_5
REMARK    5  A    between atoms: C_5  and  C_6
REMARK    6  A    between atoms: N_16  and  C_17
REMARK    7  A    between atoms: C_20  and  N_23
REMARK                            x       y       z     vdW  Elec       q    Type
REMARK                         _______ _______ _______ _____ _____    ______ ____
ROOT
ATOM      1  C   UNL     1       0.741  -0.097   0.000  0.00  0.00    +0.000 C 
ENDROOT
BRANCH   1   2
ATOM      2  C   UNL     1       1.456  -0.510   0.000  0.00  0.00    +0.000 C 
ATOM      3  O   UNL     1       1.456  -1.335   0.000  0.00  0.00    +0.000 OA
ATOM      4  N   UNL     1       2.170  -0.097   0.000  0.00  0.00    +0.000 NA
BRANCH   4   5
ATOM      5  C   UNL     1       2.885  -0.510   0.000  0.00  0.00    +0.000 A 
ATOM      6  C   UNL     1       3.599  -0.097   0.000  0.00  0.00    +0.000 A 
ATOM      7  C   UNL     1       4.314  -0.510   0.000  0.00  0.00    +0.000 A 
ATOM      8  C   UNL     1       4.314  -1.335   0.000  0.00  0.00    +0.000 A 
ATOM      9  C   UNL     1       3.599  -1.747   0.000  0.00  0.00    +0.000 A 
ATOM     10  C   UNL     1       2.885  -1.335   0.000  0.00  0.00    +0.000 A 
BRANCH   8  11
ATOM     11  N   UNL     1       5.028  -1.747   0.000  0.00  0.00    +0.000 N 
ATOM     12  O   UNL     1       5.743  -1.335   0.000  0.00  0.00    +0.000 OA
ATOM     13  O   UNL     1       5.028  -2.572   0.000  0.00  0.00    +0.000 OA
ENDBRANCH   8  11
ENDBRANCH   4   5
ENDBRANCH   1   2
BRANCH   1  14
ATOM     14  C   UNL     1       0.027  -0.510   0.000  0.00  0.00    +0.000 C 
BRANCH  14  15
ATOM     15  C   UNL     1      -0.688  -0.097   0.000  0.00  0.00    +0.000 C 
BRANCH  15  16
ATOM     16  C   UNL     1      -1.402  -0.510   0.000  0.00  0.00    +0.000 C 
BRANCH  16  17
ATOM     17  C   UNL     1      -2.117  -0.097   0.000  0.00  0.00    +0.000 C 
ATOM     18  C   UNL     1      -3.422   0.180   0.000  0.00  0.00    +0.000 C 
ATOM     19  C   UNL     1      -2.203   0.723   0.000  0.00  0.00    +0.000 C 
ATOM     20  C   UNL     1      -3.010   0.895   0.000  0.00  0.00    +0.000 C 
ATOM     21  C   UNL     1      -2.342   2.051   0.000  0.00  0.00    +0.000 C 
ATOM     22  O   UNL     1      -2.171   2.858   0.000  0.00  0.00    +0.000 OA
ATOM     23  N   UNL     1      -3.096   1.715   0.000  0.00  0.00    +0.000 NA
ATOM     24  N   UNL     1      -1.790   1.438   0.000  0.00  0.00    +0.000 NA
ATOM     25  S   UNL     1      -2.870  -0.433   0.000  0.00  0.00    +0.000 S 
ENDBRANCH  16  17
ENDBRANCH  15  16
ENDBRANCH  14  15
ENDBRANCH   1  14
TORSDOF 7
