REMARK  Name = BNT
REMARK  1 active torsions:
REMARK  status: ('A' for Active; 'I' for Inactive)
REMARK    1  A    between atoms: C_2  and  C_4
REMARK                            x       y       z     vdW  Elec       q    Type
REMARK                         _______ _______ _______ _____ _____    ______ ____
ROOT
ATOM      1  C   UNL     1       0.341  -0.185   0.000  0.00  0.00    +0.000 C 
ATOM      2  C   UNL     1       0.341  -1.010   0.000  0.00  0.00    +0.000 C 
ATOM      3  O   UNL     1       1.056  -1.423   0.000  0.00  0.00    +0.000 OA
ATOM      4  C   UNL     1      -0.373  -1.423   0.000  0.00  0.00    +0.000 C 
ATOM      5 BR   UNL     1      -0.373  -2.248   0.000  0.00  0.00    +0.000 Br
ATOM      6  C   UNL     1      -1.088  -1.010   0.000  0.00  0.00    +0.000 C 
ATOM      7  C   UNL     1      -1.802  -1.423   0.000  0.00  0.00    +0.000 C 
ATOM      8  C   UNL     1      -1.088  -0.185   0.000  0.00  0.00    +0.000 C 
ATOM      9  O   UNL     1      -1.802   0.227   0.000  0.00  0.00    +0.000 OA
ATOM     10  C   UNL     1      -0.373   0.227   0.000  0.00  0.00    +0.000 C 
ATOM     11 BR   UNL     1      -0.373   1.052   0.000  0.00  0.00    +0.000 Br
ENDROOT
BRANCH   1  13
ATOM     12  C   UNL     1       1.056   1.052   0.000  0.00  0.00    +0.000 C 
ATOM     13  C   UNL     1       1.056   0.227   0.000  0.00  0.00    +0.000 C 
ATOM     14  C   UNL     1       1.770  -0.185   0.000  0.00  0.00    +0.000 C 
ENDBRANCH   1  13
TORSDOF 1
