REMARK  Name = BOS
REMARK  3 active torsions:
REMARK  status: ('A' for Active; 'I' for Inactive)
REMARK    1  A    between atoms: S_2  and  C_5
REMARK    2  A    between atoms: C_8  and  N_11
REMARK    3  A    between atoms: C_12  and  C_14
REMARK                            x       y       z     vdW  Elec       q    Type
REMARK                         _______ _______ _______ _____ _____    ______ ____
ROOT
ATOM      1  C   UNL     1      -0.037   2.175   0.000  0.00  0.00    +0.000 A 
ATOM      2  C   UNL     1       0.677   1.763   0.000  0.00  0.00    +0.000 A 
ATOM      3  C   UNL     1       0.677   0.938   0.000  0.00  0.00    +0.000 A 
ATOM      4  C   UNL     1      -0.037   0.525   0.000  0.00  0.00    +0.000 A 
ATOM      5  C   UNL     1      -0.752   0.938   0.000  0.00  0.00    +0.000 A 
ATOM      6  C   UNL     1      -0.752   1.763   0.000  0.00  0.00    +0.000 A 
ENDROOT
BRANCH   1   8
ATOM      7  N   UNL     1      -0.037   3.825   0.000  0.00  0.00    +0.000 NA
ATOM      8  S   UNL     1      -0.037   3.001   0.000  0.00  0.00    +0.000 S 
ATOM      9  O   UNL     1      -0.862   3.001   0.000  0.00  0.00    +0.000 OA
ATOM     10  O   UNL     1       0.788   3.001   0.000  0.00  0.00    +0.000 OA
ENDBRANCH   1   8
BRANCH   4  11
ATOM     11  N   UNL     1      -0.037  -0.299   0.000  0.00  0.00    +0.000 NA
ATOM     12  C   UNL     1       0.677  -0.712   0.000  0.00  0.00    +0.000 C 
ATOM     13  O   UNL     1       1.392  -0.299   0.000  0.00  0.00    +0.000 OA
BRANCH  12  14
ATOM     14  C   UNL     1       0.677  -1.537   0.000  0.00  0.00    +0.000 A 
ATOM     15  C   UNL     1       1.392  -1.950   0.000  0.00  0.00    +0.000 A 
ATOM     16  C   UNL     1       1.392  -2.775   0.000  0.00  0.00    +0.000 A 
ATOM     17  C   UNL     1       0.677  -3.187   0.000  0.00  0.00    +0.000 A 
ATOM     18  C   UNL     1      -0.037  -2.775   0.000  0.00  0.00    +0.000 A 
ATOM     19  C   UNL     1      -0.037  -1.950   0.000  0.00  0.00    +0.000 A 
ATOM     20  S   UNL     1      -0.752  -1.537   0.000  0.00  0.00    +0.000 S 
ENDBRANCH  12  14
ENDBRANCH   4  11
TORSDOF 3
