REMARK  Name = BP3
REMARK  1 active torsions:
REMARK  status: ('A' for Active; 'I' for Inactive)
REMARK    1  A    between atoms: C_1  and  C_9
REMARK                            x       y       z     vdW  Elec       q    Type
REMARK                         _______ _______ _______ _____ _____    ______ ____
ROOT
ATOM      1  C   UNL     1      -0.392  -0.229   0.000  0.00  0.00    +0.000 A 
ATOM      2  C   UNL     1       0.322  -0.641   0.000  0.00  0.00    +0.000 A 
ATOM      3  O   UNL     1       1.037  -0.229   0.000  0.00  0.00    +0.000 OA
ATOM      4  C   UNL     1       0.322  -1.466   0.000  0.00  0.00    +0.000 A 
ATOM      5  O   UNL     1       1.037  -1.879   0.000  0.00  0.00    +0.000 OA
ATOM      6  C   UNL     1      -0.392  -1.879   0.000  0.00  0.00    +0.000 A 
ATOM      7  C   UNL     1      -1.107  -1.466   0.000  0.00  0.00    +0.000 A 
ATOM      8  C   UNL     1      -1.107  -0.641   0.000  0.00  0.00    +0.000 A 
ENDROOT
BRANCH   1   9
ATOM      9  C   UNL     1      -0.392   0.597   0.000  0.00  0.00    +0.000 A 
ATOM     10  C   UNL     1      -1.107   1.009   0.000  0.00  0.00    +0.000 A 
ATOM     11  C   UNL     1      -1.107   1.834   0.000  0.00  0.00    +0.000 A 
ATOM     12  C   UNL     1      -0.392   2.247   0.000  0.00  0.00    +0.000 A 
ATOM     13  C   UNL     1       0.322   1.834   0.000  0.00  0.00    +0.000 A 
ATOM     14  C   UNL     1       0.322   1.009   0.000  0.00  0.00    +0.000 A 
ATOM     15 CL   UNL     1      -1.821   0.597   0.000  0.00  0.00    +0.000 Cl
ENDBRANCH   1   9
TORSDOF 1
