REMARK  Name = BP4
REMARK  3 active torsions:
REMARK  status: ('A' for Active; 'I' for Inactive)
REMARK    1  A    between atoms: C_1  and  C_2
REMARK    2  A    between atoms: C_1  and  C_7
REMARK    3  A    between atoms: C_4  and  C_12
REMARK                            x       y       z     vdW  Elec       q    Type
REMARK                         _______ _______ _______ _____ _____    ______ ____
ROOT
ATOM      1  C   UNL     1       0.275   0.274   0.000  0.00  0.00    +0.000 A 
ATOM      2  C   UNL     1       0.989  -0.139   0.000  0.00  0.00    +0.000 A 
ATOM      3  C   UNL     1       0.989  -0.964   0.000  0.00  0.00    +0.000 A 
ATOM      4  C   UNL     1       0.275  -1.376   0.000  0.00  0.00    +0.000 A 
ATOM      5  C   UNL     1      -0.440  -0.964   0.000  0.00  0.00    +0.000 A 
ATOM      6  C   UNL     1      -0.440  -0.139   0.000  0.00  0.00    +0.000 A 
ENDROOT
BRANCH   1   9
ATOM      7  C   UNL     1       0.275   2.749   0.000  0.00  0.00    +0.000 A 
ATOM      8  C   UNL     1       0.989   1.512   0.000  0.00  0.00    +0.000 A 
ATOM      9  C   UNL     1       0.275   1.099   0.000  0.00  0.00    +0.000 A 
ATOM     10  C   UNL     1       0.989   2.337   0.000  0.00  0.00    +0.000 A 
ATOM     11  C   UNL     1      -0.440   1.512   0.000  0.00  0.00    +0.000 A 
ATOM     12  C   UNL     1      -0.440   2.337   0.000  0.00  0.00    +0.000 A 
ENDBRANCH   1   9
BRANCH   4  13
ATOM     13  C   UNL     1       0.275  -2.201   0.000  0.00  0.00    +0.000 C 
BRANCH  13  14
ATOM     14  C   UNL     1      -0.440  -2.614   0.000  0.00  0.00    +0.000 C 
ATOM     15  O   UNL     1      -0.440  -3.438   0.000  0.00  0.00    +0.000 OA
ATOM     16  O   UNL     1      -1.155  -2.201   0.000  0.00  0.00    +0.000 OA
ENDBRANCH  13  14
ENDBRANCH   4  13
TORSDOF 3
