REMARK  Name = BP6
REMARK  1 active torsions:
REMARK  status: ('A' for Active; 'I' for Inactive)
REMARK    1  A    between atoms: C_1  and  C_9
REMARK                            x       y       z     vdW  Elec       q    Type
REMARK                         _______ _______ _______ _____ _____    ______ ____
ROOT
ATOM      1  C   UNL     1      -0.155  -0.310   0.000  0.00  0.00    +0.000 A 
ATOM      2  C   UNL     1       0.559  -0.723   0.000  0.00  0.00    +0.000 A 
ATOM      3  O   UNL     1       1.274  -0.310   0.000  0.00  0.00    +0.000 OA
ATOM      4  C   UNL     1       0.559  -1.548   0.000  0.00  0.00    +0.000 A 
ATOM      5  O   UNL     1       1.274  -1.960   0.000  0.00  0.00    +0.000 OA
ATOM      6  C   UNL     1      -0.155  -1.960   0.000  0.00  0.00    +0.000 A 
ATOM      7  C   UNL     1      -0.870  -1.548   0.000  0.00  0.00    +0.000 A 
ATOM      8  C   UNL     1      -0.870  -0.723   0.000  0.00  0.00    +0.000 A 
ENDROOT
BRANCH   1   9
ATOM      9  C   UNL     1      -0.155   0.515   0.000  0.00  0.00    +0.000 A 
ATOM     10  C   UNL     1      -0.870   0.927   0.000  0.00  0.00    +0.000 A 
ATOM     11  C   UNL     1      -0.870   1.752   0.000  0.00  0.00    +0.000 A 
ATOM     12  C   UNL     1      -0.155   2.165   0.000  0.00  0.00    +0.000 A 
ATOM     13  C   UNL     1       0.559   1.752   0.000  0.00  0.00    +0.000 A 
ATOM     14  C   UNL     1       0.559   0.927   0.000  0.00  0.00    +0.000 A 
ATOM     15 CL   UNL     1      -1.584   0.515   0.000  0.00  0.00    +0.000 Cl
ATOM     16 CL   UNL     1       1.274   0.515   0.000  0.00  0.00    +0.000 Cl
ENDBRANCH   1   9
TORSDOF 1
