REMARK  Name = BP7
REMARK  1 active torsions:
REMARK  status: ('A' for Active; 'I' for Inactive)
REMARK    1  A    between atoms: C_1  and  C_9
REMARK                            x       y       z     vdW  Elec       q    Type
REMARK                         _______ _______ _______ _____ _____    ______ ____
ROOT
ATOM      1  C   UNL     1      -0.236  -0.130   0.000  0.00  0.00    +0.000 A 
ATOM      2  C   UNL     1       0.479  -0.542   0.000  0.00  0.00    +0.000 A 
ATOM      3  C   UNL     1       0.479  -1.367   0.000  0.00  0.00    +0.000 A 
ATOM      4  O   UNL     1       1.193  -1.780   0.000  0.00  0.00    +0.000 OA
ATOM      5  C   UNL     1      -0.236  -1.780   0.000  0.00  0.00    +0.000 A 
ATOM      6  O   UNL     1      -0.236  -2.605   0.000  0.00  0.00    +0.000 OA
ATOM      7  C   UNL     1      -0.950  -1.367   0.000  0.00  0.00    +0.000 A 
ATOM      8  C   UNL     1      -0.950  -0.542   0.000  0.00  0.00    +0.000 A 
ENDROOT
BRANCH   1   9
ATOM      9  C   UNL     1      -0.236   0.695   0.000  0.00  0.00    +0.000 A 
ATOM     10  C   UNL     1      -0.950   1.107   0.000  0.00  0.00    +0.000 A 
ATOM     11  C   UNL     1      -0.950   1.933   0.000  0.00  0.00    +0.000 A 
ATOM     12  C   UNL     1      -0.236   2.345   0.000  0.00  0.00    +0.000 A 
ATOM     13  C   UNL     1       0.479   1.933   0.000  0.00  0.00    +0.000 A 
ATOM     14  C   UNL     1       0.479   1.107   0.000  0.00  0.00    +0.000 A 
ENDBRANCH   1   9
TORSDOF 1
