REMARK  Name = BPG
REMARK  5 active torsions:
REMARK  status: ('A' for Active; 'I' for Inactive)
REMARK    1  A    between atoms: C_1  and  C_3
REMARK    2  A    between atoms: C_3  and  C_4
REMARK    3  A    between atoms: C_4  and  C_5
REMARK    4  A    between atoms: C_5  and  N_6
REMARK    5  A    between atoms: N_10  and  C_20
REMARK                            x       y       z     vdW  Elec       q    Type
REMARK                         _______ _______ _______ _____ _____    ______ ____
ROOT
ATOM      1  N   UNL     1      -0.963  -0.907   0.000  0.00  0.00    +0.000 N 
ATOM      2  C   UNL     1      -0.209  -0.571   0.000  0.00  0.00    +0.000 A 
ATOM      3  N   UNL     1       0.046   0.213   0.000  0.00  0.00    +0.000 NA
ATOM      4  C   UNL     1       0.853   0.385   0.000  0.00  0.00    +0.000 A 
ATOM      5  N   UNL     1       1.108   1.169   0.000  0.00  0.00    +0.000 NA
ATOM      6  N   UNL     1       1.405  -0.228   0.000  0.00  0.00    +0.000 NA
ATOM      7  C   UNL     1       1.150  -1.013   0.000  0.00  0.00    +0.000 A 
ATOM      8  O   UNL     1       1.702  -1.626   0.000  0.00  0.00    +0.000 OA
ATOM      9  C   UNL     1       0.343  -1.184   0.000  0.00  0.00    +0.000 A 
ATOM     10  N   UNL     1      -0.069  -1.899   0.000  0.00  0.00    +0.000 NA
ATOM     11  C   UNL     1      -0.876  -1.727   0.000  0.00  0.00    +0.000 A 
ENDROOT
BRANCH   5  15
ATOM     12  C   UNL     1       3.529   1.684   0.000  0.00  0.00    +0.000 A 
ATOM     13  C   UNL     1       3.274   0.899   0.000  0.00  0.00    +0.000 A 
ATOM     14  C   UNL     1       2.467   0.728   0.000  0.00  0.00    +0.000 A 
ATOM     15  C   UNL     1       1.915   1.341   0.000  0.00  0.00    +0.000 A 
ATOM     16  C   UNL     1       2.170   2.126   0.000  0.00  0.00    +0.000 A 
ATOM     17  C   UNL     1       2.977   2.297   0.000  0.00  0.00    +0.000 A 
ENDBRANCH   5  15
BRANCH   1  18
ATOM     18  C   UNL     1      -1.677  -0.494   0.000  0.00  0.00    +0.000 C 
BRANCH  18  19
ATOM     19  C   UNL     1      -2.392  -0.907   0.000  0.00  0.00    +0.000 C 
BRANCH  19  20
ATOM     20  C   UNL     1      -3.106  -0.494   0.000  0.00  0.00    +0.000 C 
BRANCH  20  21
ATOM     21  C   UNL     1      -3.821  -0.907   0.000  0.00  0.00    +0.000 C 
ATOM     22  O   UNL     1      -4.535  -0.494   0.000  0.00  0.00    +0.000 OA
ENDBRANCH  20  21
ENDBRANCH  19  20
ENDBRANCH  18  19
ENDBRANCH   1  18
TORSDOF 5
