REMARK  Name = BPI
REMARK  0 active torsions:
REMARK  status: ('A' for Active; 'I' for Inactive)
REMARK                            x       y       z     vdW  Elec       q    Type
REMARK                         _______ _______ _______ _____ _____    ______ ____
ROOT
ATOM      1  C   UNL     1       0.334   0.712   0.000  0.00  0.00    +0.000 C 
ATOM      2  C   UNL     1       1.048   1.124   0.000  0.00  0.00    +0.000 C 
ATOM      3  O   UNL     1       1.048   1.949   0.000  0.00  0.00    +0.000 OA
ATOM      4  C   UNL     1       1.762   0.712   0.000  0.00  0.00    +0.000 C 
ATOM      5  O   UNL     1       2.477   1.124   0.000  0.00  0.00    +0.000 OA
ATOM      6  C   UNL     1       1.762  -0.113   0.000  0.00  0.00    +0.000 C 
ATOM      7  O   UNL     1       2.477  -0.526   0.000  0.00  0.00    +0.000 OA
ATOM      8  C   UNL     1       1.048  -1.351   0.000  0.00  0.00    +0.000 A 
ATOM      9  C   UNL     1       0.334  -1.763   0.000  0.00  0.00    +0.000 A 
ATOM     10  C   UNL     1      -1.095  -1.763   0.000  0.00  0.00    +0.000 A 
ATOM     11  C   UNL     1      -1.810  -1.351   0.000  0.00  0.00    +0.000 A 
ATOM     12  C   UNL     1      -2.524  -0.113   0.000  0.00  0.00    +0.000 A 
ATOM     13  C   UNL     1      -2.524   0.712   0.000  0.00  0.00    +0.000 A 
ATOM     14  C   UNL     1      -1.810   1.124   0.000  0.00  0.00    +0.000 A 
ATOM     15  C   UNL     1      -1.095   0.712   0.000  0.00  0.00    +0.000 A 
ATOM     16  C   UNL     1       0.334  -0.113   0.000  0.00  0.00    +0.000 A 
ATOM     17  C   UNL     1       1.048  -0.526   0.000  0.00  0.00    +0.000 A 
ATOM     18  C   UNL     1      -0.381  -1.351   0.000  0.00  0.00    +0.000 A 
ATOM     19  C   UNL     1      -0.381  -0.526   0.000  0.00  0.00    +0.000 A 
ATOM     20  C   UNL     1      -1.095  -0.113   0.000  0.00  0.00    +0.000 A 
ATOM     21  C   UNL     1      -1.810  -0.526   0.000  0.00  0.00    +0.000 A 
ENDROOT
TORSDOF 0
