REMARK  Name = BPM
REMARK  6 active torsions:
REMARK  status: ('A' for Active; 'I' for Inactive)
REMARK    1  A    between atoms: C_1  and  C_2
REMARK    2  A    between atoms: C_1  and  C_13
REMARK    3  A    between atoms: C_7  and  O_8
REMARK    4  A    between atoms: O_8  and  P_9
REMARK    5  A    between atoms: C_18  and  O_19
REMARK    6  A    between atoms: O_19  and  P_20
REMARK                            x       y       z     vdW  Elec       q    Type
REMARK                         _______ _______ _______ _____ _____    ______ ____
ROOT
ATOM      1  C   UNL     1      -0.832   0.545   0.000  0.00  0.00    +0.000 C 
ENDROOT
BRANCH   1   2
ATOM      2  C   UNL     1      -0.117   0.958   0.000  0.00  0.00    +0.000 A 
ATOM      3  C   UNL     1      -0.117   1.783   0.000  0.00  0.00    +0.000 A 
ATOM      4  C   UNL     1       0.597   2.195   0.000  0.00  0.00    +0.000 A 
ATOM      5  C   UNL     1       1.312   0.958   0.000  0.00  0.00    +0.000 A 
ATOM      6  C   UNL     1       0.597   0.545   0.000  0.00  0.00    +0.000 A 
ATOM      7  C   UNL     1       1.312   1.783   0.000  0.00  0.00    +0.000 A 
BRANCH   7   8
ATOM      8  O   UNL     1       2.026   2.195   0.000  0.00  0.00    +0.000 OA
BRANCH   8   9
ATOM      9  P   UNL     1       2.026   3.020   0.000  0.00  0.00    +0.000 P 
ATOM     10  O   UNL     1       2.026   3.845   0.000  0.00  0.00    +0.000 OA
ATOM     11  O   UNL     1       2.851   3.020   0.000  0.00  0.00    +0.000 OA
ATOM     12  O   UNL     1       1.201   3.020   0.000  0.00  0.00    +0.000 OA
ENDBRANCH   8   9
ENDBRANCH   7   8
ENDBRANCH   1   2
BRANCH   1  13
ATOM     13  C   UNL     1      -0.832  -0.280   0.000  0.00  0.00    +0.000 A 
ATOM     14  C   UNL     1      -0.117  -0.692   0.000  0.00  0.00    +0.000 A 
ATOM     15  C   UNL     1      -0.117  -1.517   0.000  0.00  0.00    +0.000 A 
ATOM     16  C   UNL     1      -1.546  -1.517   0.000  0.00  0.00    +0.000 A 
ATOM     17  C   UNL     1      -1.546  -0.692   0.000  0.00  0.00    +0.000 A 
ATOM     18  C   UNL     1      -0.832  -1.930   0.000  0.00  0.00    +0.000 A 
BRANCH  18  19
ATOM     19  O   UNL     1      -0.832  -2.755   0.000  0.00  0.00    +0.000 OA
BRANCH  19  20
ATOM     20  P   UNL     1      -1.546  -3.167   0.000  0.00  0.00    +0.000 P 
ATOM     21  O   UNL     1      -2.261  -3.580   0.000  0.00  0.00    +0.000 OA
ATOM     22  O   UNL     1      -1.134  -3.882   0.000  0.00  0.00    +0.000 OA
ATOM     23  O   UNL     1      -1.959  -2.453   0.000  0.00  0.00    +0.000 OA
ENDBRANCH  19  20
ENDBRANCH  18  19
ENDBRANCH   1  13
TORSDOF 6
