REMARK  Name = BPQ
REMARK  4 active torsions:
REMARK  status: ('A' for Active; 'I' for Inactive)
REMARK    1  A    between atoms: C_6  and  C_7
REMARK    2  A    between atoms: C_7  and  N_8
REMARK    3  A    between atoms: C_14  and  O_20
REMARK    4  A    between atoms: C_17  and  O_20
REMARK                            x       y       z     vdW  Elec       q    Type
REMARK                         _______ _______ _______ _____ _____    ______ ____
ROOT
ATOM      1  C   UNL     1      -3.803   0.234   0.000  0.00  0.00    +0.000 A 
ATOM      2  N   UNL     1      -3.251   0.847   0.000  0.00  0.00    +0.000 NA
ATOM      3  C   UNL     1      -2.444   0.675   0.000  0.00  0.00    +0.000 A 
ATOM      4  O   UNL     1      -1.892   1.288   0.000  0.00  0.00    +0.000 OA
ATOM      5  C   UNL     1      -2.189  -0.109   0.000  0.00  0.00    +0.000 A 
ATOM      6  C   UNL     1      -1.436  -0.445   0.000  0.00  0.00    +0.000 A 
ATOM      7  C   UNL     1      -1.522  -1.265   0.000  0.00  0.00    +0.000 A 
ATOM      8  N   UNL     1      -2.329  -1.437   0.000  0.00  0.00    +0.000 NA
ATOM      9  C   UNL     1      -2.741  -0.723   0.000  0.00  0.00    +0.000 A 
ATOM     10  N   UNL     1      -3.548  -0.551   0.000  0.00  0.00    +0.000 NA
ATOM     11  N   UNL     1      -4.610   0.405   0.000  0.00  0.00    +0.000 NA
ENDROOT
BRANCH   6  12
ATOM     12  C   UNL     1      -0.721  -0.032   0.000  0.00  0.00    +0.000 C 
BRANCH  12  13
ATOM     13  N   UNL     1      -0.007  -0.445   0.000  0.00  0.00    +0.000 NA
ATOM     14  C   UNL     1       0.708  -0.032   0.000  0.00  0.00    +0.000 C 
ATOM     15  O   UNL     1       0.708   0.793   0.000  0.00  0.00    +0.000 OA
BRANCH  14  16
ATOM     16  O   UNL     1       1.422  -0.445   0.000  0.00  0.00    +0.000 OA
BRANCH  16  18
ATOM     17  C   UNL     1       2.851   0.380   0.000  0.00  0.00    +0.000 C 
ATOM     18  C   UNL     1       2.137  -0.032   0.000  0.00  0.00    +0.000 C 
ATOM     19  C   UNL     1       2.549  -0.747   0.000  0.00  0.00    +0.000 C 
ATOM     20  C   UNL     1       1.724   0.682   0.000  0.00  0.00    +0.000 C 
ENDBRANCH  16  18
ENDBRANCH  14  16
ENDBRANCH  12  13
ENDBRANCH   6  12
TORSDOF 4
