REMARK  Name = BPR
REMARK  2 active torsions:
REMARK  status: ('A' for Active; 'I' for Inactive)
REMARK    1  A    between atoms: C_2  and  C_3
REMARK    2  A    between atoms: C_11  and  B_15
REMARK                            x       y       z     vdW  Elec       q    Type
REMARK                         _______ _______ _______ _____ _____    ______ ____
ROOT
ATOM      1  C   UNL     1      -0.501  -0.528   0.000  0.00  0.00    +0.000 C 
ATOM      2  O   UNL     1      -0.837  -1.282   0.000  0.00  0.00    +0.000 OA
ATOM      3  N   UNL     1       0.319  -0.442   0.000  0.00  0.00    +0.000 N 
ATOM      4  C   UNL     1       0.732   0.272   0.000  0.00  0.00    +0.000 C 
ATOM      5  C   UNL     1       0.871  -1.055   0.000  0.00  0.00    +0.000 C 
ATOM      6  C   UNL     1       1.625  -0.720   0.000  0.00  0.00    +0.000 C 
ATOM      7  C   UNL     1       1.539   0.101   0.000  0.00  0.00    +0.000 C 
ENDROOT
BRANCH   1   9
ATOM      8  N   UNL     1      -0.731   0.923   0.000  0.00  0.00    +0.000 NA
ATOM      9  C   UNL     1      -0.986   0.139   0.000  0.00  0.00    +0.000 C 
ATOM     10  C   UNL     1      -1.811   0.139   0.000  0.00  0.00    +0.000 C 
ATOM     11  C   UNL     1      -2.066   0.923   0.000  0.00  0.00    +0.000 C 
ATOM     12  C   UNL     1      -1.399   1.409   0.000  0.00  0.00    +0.000 C 
ENDBRANCH   1   9
BRANCH   5  15
ATOM     13  O   UNL     1       1.313  -2.414   0.000  0.00  0.00    +0.000 OA
ATOM     14  O   UNL     1      -0.085  -2.117   0.000  0.00  0.00    +0.000 OA
ATOM     15  B   UNL     1       0.700  -1.862   0.000  0.00  0.00    +0.000 B 
ENDBRANCH   5  15
TORSDOF 2
