REMARK  Name = BPS
REMARK  2 active torsions:
REMARK  status: ('A' for Active; 'I' for Inactive)
REMARK    1  A    between atoms: C_2  and  C_7
REMARK    2  A    between atoms: C_3  and  S_13
REMARK                            x       y       z     vdW  Elec       q    Type
REMARK                         _______ _______ _______ _____ _____    ______ ____
ROOT
ATOM      1  C   UNL     1      -1.083   0.235   0.000  0.00  0.00    +0.000 A 
ATOM      2  C   UNL     1      -0.369  -0.178   0.000  0.00  0.00    +0.000 A 
ATOM      3  C   UNL     1      -0.369  -1.003   0.000  0.00  0.00    +0.000 A 
ATOM      4  C   UNL     1      -1.083  -1.415   0.000  0.00  0.00    +0.000 A 
ATOM      5  C   UNL     1      -1.798  -1.003   0.000  0.00  0.00    +0.000 A 
ATOM      6  C   UNL     1      -1.798  -0.178   0.000  0.00  0.00    +0.000 A 
ENDROOT
BRANCH   2   7
ATOM      7  C   UNL     1       0.345   0.235   0.000  0.00  0.00    +0.000 A 
ATOM      8  C   UNL     1       0.345   1.060   0.000  0.00  0.00    +0.000 A 
ATOM      9  C   UNL     1       1.060   1.472   0.000  0.00  0.00    +0.000 A 
ATOM     10  C   UNL     1       1.774   1.060   0.000  0.00  0.00    +0.000 A 
ATOM     11  C   UNL     1       1.774   0.235   0.000  0.00  0.00    +0.000 A 
ATOM     12  C   UNL     1       1.060  -0.178   0.000  0.00  0.00    +0.000 A 
ENDBRANCH   2   7
BRANCH   3  13
ATOM     13  S   UNL     1       0.345  -1.415   0.000  0.00  0.00    +0.000 S 
ATOM     14  O   UNL     1       0.345  -2.240   0.000  0.00  0.00    +0.000 OA
ATOM     15  O   UNL     1       1.060  -1.003   0.000  0.00  0.00    +0.000 OA
ENDBRANCH   3  13
TORSDOF 2
