REMARK  Name = BPX
REMARK  7 active torsions:
REMARK  status: ('A' for Active; 'I' for Inactive)
REMARK    1  A    between atoms: C_6  and  C_7
REMARK    2  A    between atoms: C_7  and  C_8
REMARK    3  A    between atoms: C_8  and  C_9
REMARK    4  A    between atoms: C_8  and  C_12
REMARK    5  A    between atoms: C_12  and  C_13
REMARK    6  A    between atoms: C_13  and  C_16
REMARK    7  A    between atoms: C_16  and  N_17
REMARK                            x       y       z     vdW  Elec       q    Type
REMARK                         _______ _______ _______ _____ _____    ______ ____
ROOT
ATOM      1  C   UNL     1      -0.157  -0.183   0.000  0.00  0.00    +0.000 C 
ENDROOT
BRANCH   1   2
ATOM      2  C   UNL     1      -0.157   0.642   0.000  0.00  0.00    +0.000 C 
ATOM      3  O   UNL     1      -0.871   1.054   0.000  0.00  0.00    +0.000 OA
ATOM      4  O   UNL     1       0.558   1.054   0.000  0.00  0.00    +0.000 OA
ENDBRANCH   1   2
BRANCH   1   5
ATOM      5  C   UNL     1      -0.871  -0.596   0.000  0.00  0.00    +0.000 C 
BRANCH   5  11
ATOM      6  C   UNL     1      -2.300  -0.596   0.000  0.00  0.00    +0.000 A 
ATOM      7  C   UNL     1      -3.015  -0.183   0.000  0.00  0.00    +0.000 A 
ATOM      8  C   UNL     1      -3.015   0.642   0.000  0.00  0.00    +0.000 A 
ATOM      9  C   UNL     1      -2.300   1.054   0.000  0.00  0.00    +0.000 A 
ATOM     10  C   UNL     1      -1.586   0.642   0.000  0.00  0.00    +0.000 A 
ATOM     11  C   UNL     1      -1.586  -0.183   0.000  0.00  0.00    +0.000 A 
ENDBRANCH   5  11
ENDBRANCH   1   5
BRANCH   1  12
ATOM     12  C   UNL     1       0.558  -0.596   0.000  0.00  0.00    +0.000 C 
BRANCH  12  13
ATOM     13  C   UNL     1       1.272  -0.183   0.000  0.00  0.00    +0.000 C 
ATOM     14  O   UNL     1       1.685  -0.898   0.000  0.00  0.00    +0.000 OA
ATOM     15  O   UNL     1       0.860   0.531   0.000  0.00  0.00    +0.000 OA
BRANCH  13  16
ATOM     16  C   UNL     1       1.987   0.229   0.000  0.00  0.00    +0.000 C 
BRANCH  16  17
ATOM     17  N   UNL     1       2.701  -0.183   0.000  0.00  0.00    +0.000 N 
ATOM     18  O   UNL     1       3.416   0.229   0.000  0.00  0.00    +0.000 OA
ATOM     19  O   UNL     1       2.701  -1.008   0.000  0.00  0.00    +0.000 OA
ENDBRANCH  16  17
ENDBRANCH  13  16
ENDBRANCH  12  13
ENDBRANCH   1  12
TORSDOF 7
