REMARK  Name = BPY
REMARK  1 active torsions:
REMARK  status: ('A' for Active; 'I' for Inactive)
REMARK    1  A    between atoms: C_2  and  C_7
REMARK                            x       y       z     vdW  Elec       q    Type
REMARK                         _______ _______ _______ _____ _____    ______ ____
ROOT
ATOM      1  C   UNL     1      -1.107   0.392   0.000  0.00  0.00    +0.000 A 
ATOM      2  C   UNL     1      -0.392  -0.021   0.000  0.00  0.00    +0.000 A 
ATOM      3  C   UNL     1      -0.392  -0.846   0.000  0.00  0.00    +0.000 A 
ATOM      4  C   UNL     1      -1.107  -1.258   0.000  0.00  0.00    +0.000 A 
ATOM      5  C   UNL     1      -1.821  -0.846   0.000  0.00  0.00    +0.000 A 
ATOM      6  C   UNL     1      -1.821  -0.021   0.000  0.00  0.00    +0.000 A 
ATOM      7  O   UNL     1      -1.107  -2.083   0.000  0.00  0.00    +0.000 OA
ATOM      8  O   UNL     1       0.322  -1.258   0.000  0.00  0.00    +0.000 OA
ENDROOT
BRANCH   2   9
ATOM      9  C   UNL     1       0.322   0.392   0.000  0.00  0.00    +0.000 A 
ATOM     10  C   UNL     1       0.322   1.217   0.000  0.00  0.00    +0.000 A 
ATOM     11  C   UNL     1       1.037   1.629   0.000  0.00  0.00    +0.000 A 
ATOM     12  C   UNL     1       1.751   1.217   0.000  0.00  0.00    +0.000 A 
ATOM     13  C   UNL     1       1.751   0.392   0.000  0.00  0.00    +0.000 A 
ATOM     14  C   UNL     1       1.037  -0.021   0.000  0.00  0.00    +0.000 A 
ENDBRANCH   2   9
TORSDOF 1
