REMARK  Name = BPZ
REMARK  2 active torsions:
REMARK  status: ('A' for Active; 'I' for Inactive)
REMARK    1  A    between atoms: C_7  and  C_8
REMARK    2  A    between atoms: C_8  and  C_14
REMARK                            x       y       z     vdW  Elec       q    Type
REMARK                         _______ _______ _______ _____ _____    ______ ____
ROOT
ATOM      1  C   UNL     1       0.236  -0.185   0.000  0.00  0.00    +0.000 C 
ATOM      2  C   UNL     1      -0.046  -0.960   0.000  0.00  0.00    +0.000 C 
ATOM      3  C   UNL     1       0.484  -1.592   0.000  0.00  0.00    +0.000 C 
ATOM      4  C   UNL     1       1.048  -0.042   0.000  0.00  0.00    +0.000 C 
ATOM      5  C   UNL     1       1.579  -0.674   0.000  0.00  0.00    +0.000 C 
ATOM      6  C   UNL     1       1.296  -1.449   0.000  0.00  0.00    +0.000 C 
ENDROOT
BRANCH   1  13
ATOM      7  O   UNL     1       0.236   3.115   0.000  0.00  0.00    +0.000 OA
ATOM      8  C   UNL     1       0.236   2.290   0.000  0.00  0.00    +0.000 A 
ATOM      9  C   UNL     1      -0.479   1.878   0.000  0.00  0.00    +0.000 A 
ATOM     10  C   UNL     1      -0.479   1.053   0.000  0.00  0.00    +0.000 A 
ATOM     11  C   UNL     1       0.950   1.878   0.000  0.00  0.00    +0.000 A 
ATOM     12  C   UNL     1       0.950   1.053   0.000  0.00  0.00    +0.000 A 
ATOM     13  C   UNL     1       0.236   0.640   0.000  0.00  0.00    +0.000 A 
ENDBRANCH   1  13
BRANCH   1  14
ATOM     14  C   UNL     1      -0.577  -0.042   0.000  0.00  0.00    +0.000 A 
ATOM     15  C   UNL     1      -0.859   0.734   0.000  0.00  0.00    +0.000 A 
ATOM     16  C   UNL     1      -1.671   0.877   0.000  0.00  0.00    +0.000 A 
ATOM     17  C   UNL     1      -2.202   0.245   0.000  0.00  0.00    +0.000 A 
ATOM     18  O   UNL     1      -3.014   0.388   0.000  0.00  0.00    +0.000 OA
ATOM     19  C   UNL     1      -1.919  -0.530   0.000  0.00  0.00    +0.000 A 
ATOM     20  C   UNL     1      -1.107  -0.674   0.000  0.00  0.00    +0.000 A 
ENDBRANCH   1  14
TORSDOF 2
