REMARK  Name = BQM
REMARK  6 active torsions:
REMARK  status: ('A' for Active; 'I' for Inactive)
REMARK    1  A    between atoms: C_2  and  C_5
REMARK    2  A    between atoms: C_6  and  C_7
REMARK    3  A    between atoms: C_11  and  S_12
REMARK    4  A    between atoms: S_12  and  C_13
REMARK    5  A    between atoms: C_22  and  C_23
REMARK    6  A    between atoms: C_24  and  C_25
REMARK                            x       y       z     vdW  Elec       q    Type
REMARK                         _______ _______ _______ _____ _____    ______ ____
ROOT
ATOM      1  C   UNL     1       0.386   1.307   0.000  0.00  0.00    +0.000 A 
ATOM      2  C   UNL     1      -0.329   0.894   0.000  0.00  0.00    +0.000 A 
ATOM      3  C   UNL     1       1.100   0.894   0.000  0.00  0.00    +0.000 A 
ATOM      4  C   UNL     1       1.100   0.069   0.000  0.00  0.00    +0.000 A 
ATOM      5  C   UNL     1       0.386  -0.343   0.000  0.00  0.00    +0.000 A 
ATOM      6  C   UNL     1      -0.329   0.069   0.000  0.00  0.00    +0.000 A 
ENDROOT
BRANCH   1   8
ATOM      7  F   UNL     1       0.386   2.957   0.000  0.00  0.00    +0.000 F 
ATOM      8  C   UNL     1       0.386   2.132   0.000  0.00  0.00    +0.000 C 
ATOM      9  F   UNL     1       1.211   2.132   0.000  0.00  0.00    +0.000 F 
ATOM     10  F   UNL     1      -0.439   2.132   0.000  0.00  0.00    +0.000 F 
ENDBRANCH   1   8
BRANCH   2  11
ATOM     11  C   UNL     1      -1.043   1.307   0.000  0.00  0.00    +0.000 C 
ATOM     12  F   UNL     1      -1.758   1.719   0.000  0.00  0.00    +0.000 F 
ATOM     13  F   UNL     1      -1.456   0.592   0.000  0.00  0.00    +0.000 F 
ATOM     14  F   UNL     1      -0.872   2.114   0.000  0.00  0.00    +0.000 F 
ENDBRANCH   2  11
BRANCH   6  15
ATOM     15  C   UNL     1      -1.043  -0.343   0.000  0.00  0.00    +0.000 C 
ATOM     16  C   UNL     1      -1.043  -1.168   0.000  0.00  0.00    +0.000 C 
BRANCH  16  17
ATOM     17  C   UNL     1      -1.758  -1.581   0.000  0.00  0.00    +0.000 C 
ATOM     18  O   UNL     1      -2.472  -1.168   0.000  0.00  0.00    +0.000 OA
ATOM     19  N   UNL     1      -1.758  -2.406   0.000  0.00  0.00    +0.000 N 
ATOM     20  C   UNL     1      -1.043  -2.818   0.000  0.00  0.00    +0.000 C 
ATOM     21  C   UNL     1      -1.043  -3.643   0.000  0.00  0.00    +0.000 C 
ATOM     22  O   UNL     1      -1.758  -4.056   0.000  0.00  0.00    +0.000 OA
ATOM     23  C   UNL     1      -2.472  -3.643   0.000  0.00  0.00    +0.000 C 
ATOM     24  C   UNL     1      -2.472  -2.818   0.000  0.00  0.00    +0.000 C 
ENDBRANCH  16  17
ENDBRANCH   6  15
BRANCH   3  25
ATOM     25  S   UNL     1       1.815   1.307   0.000  0.00  0.00    +0.000 S 
BRANCH  25  26
ATOM     26  C   UNL     1       2.529   0.894   0.000  0.00  0.00    +0.000 A 
ATOM     27  C   UNL     1       3.244   1.307   0.000  0.00  0.00    +0.000 A 
ATOM     28  C   UNL     1       3.958   0.894   0.000  0.00  0.00    +0.000 A 
ATOM     29  N   UNL     1       4.673   1.307   0.000  0.00  0.00    +0.000 NA
ATOM     30  C   UNL     1       3.958   0.069   0.000  0.00  0.00    +0.000 A 
ATOM     31  C   UNL     1       3.244  -0.343   0.000  0.00  0.00    +0.000 A 
ATOM     32  C   UNL     1       2.529   0.069   0.000  0.00  0.00    +0.000 A 
ENDBRANCH  25  26
ENDBRANCH   3  25
TORSDOF 6
