REMARK  Name = BR3
REMARK  2 active torsions:
REMARK  status: ('A' for Active; 'I' for Inactive)
REMARK    1  A    between atoms: C_4  and  C_5
REMARK    2  A    between atoms: C_5  and  P_6
REMARK                            x       y       z     vdW  Elec       q    Type
REMARK                         _______ _______ _______ _____ _____    ______ ____
ROOT
ATOM      1  C   UNL     1      -3.064   0.900   0.000  0.00  0.00    +0.000 A 
ATOM      2  C   UNL     1      -2.349   0.487   0.000  0.00  0.00    +0.000 A 
ATOM      3  O   UNL     1      -1.635   0.900   0.000  0.00  0.00    +0.000 OA
ATOM      4  C   UNL     1      -0.920   0.487   0.000  0.00  0.00    +0.000 C 
ATOM      5  C   UNL     1      -0.920  -0.338   0.000  0.00  0.00    +0.000 C 
ATOM      6  C   UNL     1      -1.635  -0.750   0.000  0.00  0.00    +0.000 C 
ATOM      7  C   UNL     1      -2.349  -0.338   0.000  0.00  0.00    +0.000 A 
ATOM      8  C   UNL     1      -3.064  -0.750   0.000  0.00  0.00    +0.000 A 
ATOM      9  C   UNL     1      -3.778  -0.338   0.000  0.00  0.00    +0.000 A 
ATOM     10  C   UNL     1      -3.778   0.487   0.000  0.00  0.00    +0.000 A 
ATOM     11  C   UNL     1      -4.493  -0.750   0.000  0.00  0.00    +0.000 C 
ENDROOT
BRANCH   4  12
ATOM     12  C   UNL     1      -0.206   0.900   0.000  0.00  0.00    +0.000 C 
BRANCH  12  13
ATOM     13  P   UNL     1       0.508   0.487   0.000  0.00  0.00    +0.000 P 
ATOM     14  O   UNL     1       1.223   0.900   0.000  0.00  0.00    +0.000 OA
ATOM     15  O   UNL     1       0.508  -0.338   0.000  0.00  0.00    +0.000 OA
ATOM     16  H   UNL     1       0.508   1.216   0.000  0.00  0.00    +0.000 HD
ENDBRANCH  12  13
ENDBRANCH   4  12
TORSDOF 2
