REMARK  Name = BRK
REMARK  5 active torsions:
REMARK  status: ('A' for Active; 'I' for Inactive)
REMARK    1  A    between atoms: O_2  and  C_3
REMARK    2  A    between atoms: C_8  and  C_9
REMARK    3  A    between atoms: C_9  and  C_11
REMARK    4  A    between atoms: N_17  and  C_18
REMARK    5  A    between atoms: C_21  and  O_22
REMARK                            x       y       z     vdW  Elec       q    Type
REMARK                         _______ _______ _______ _____ _____    ______ ____
ROOT
ATOM      1  C   UNL     1      -0.341   0.241   0.000  0.00  0.00    +0.000 A 
ATOM      2  S   UNL     1       0.327  -0.244   0.000  0.00  0.00    +0.000 S 
ATOM      3  C   UNL     1      -1.008  -0.244   0.000  0.00  0.00    +0.000 A 
ATOM      4  N   UNL     1      -1.793   0.011   0.000  0.00  0.00    +0.000 NA
ATOM      5  N   UNL     1      -0.753  -1.029   0.000  0.00  0.00    +0.000 NA
ATOM      6  C   UNL     1       0.072  -1.029   0.000  0.00  0.00    +0.000 A 
ATOM      7  N   UNL     1       0.556  -1.696   0.000  0.00  0.00    +0.000 NA
ENDROOT
BRANCH   7   8
ATOM      8  C   UNL     1       1.377  -1.610   0.000  0.00  0.00    +0.000 A 
ATOM      9  C   UNL     1       1.713  -0.856   0.000  0.00  0.00    +0.000 A 
ATOM     10  C   UNL     1       2.533  -0.770   0.000  0.00  0.00    +0.000 A 
ATOM     11  C   UNL     1       3.018  -1.437   0.000  0.00  0.00    +0.000 A 
ATOM     12  C   UNL     1       2.682  -2.191   0.000  0.00  0.00    +0.000 A 
ATOM     13  C   UNL     1       1.862  -2.277   0.000  0.00  0.00    +0.000 A 
BRANCH  11  14
ATOM     14  O   UNL     1       3.838  -1.351   0.000  0.00  0.00    +0.000 OA
ATOM     15  C   UNL     1       4.174  -0.598   0.000  0.00  0.00    +0.000 C 
ENDBRANCH  11  14
ENDBRANCH   7   8
BRANCH   1  16
ATOM     16  C   UNL     1      -0.341   1.066   0.000  0.00  0.00    +0.000 C 
ATOM     17  O   UNL     1       0.374   1.478   0.000  0.00  0.00    +0.000 OA
BRANCH  16  23
ATOM     18  C   UNL     1      -2.484   2.303   0.000  0.00  0.00    +0.000 A 
ATOM     19  C   UNL     1      -1.770   2.716   0.000  0.00  0.00    +0.000 A 
ATOM     20  C   UNL     1      -1.055   2.303   0.000  0.00  0.00    +0.000 A 
ATOM     21  C   UNL     1      -2.484   1.478   0.000  0.00  0.00    +0.000 A 
ATOM     22  C   UNL     1      -1.770   1.066   0.000  0.00  0.00    +0.000 A 
ATOM     23  C   UNL     1      -1.055   1.478   0.000  0.00  0.00    +0.000 A 
BRANCH  18  25
ATOM     24  C   UNL     1      -3.913   2.303   0.000  0.00  0.00    +0.000 C 
ATOM     25  O   UNL     1      -3.199   2.716   0.000  0.00  0.00    +0.000 OA
ENDBRANCH  18  25
ENDBRANCH  16  23
ENDBRANCH   1  16
TORSDOF 5
