REMARK  Name = BRN
REMARK  5 active torsions:
REMARK  status: ('A' for Active; 'I' for Inactive)
REMARK    1  A    between atoms: C_1  and  N_10
REMARK    2  A    between atoms: C_4  and  C_7
REMARK    3  A    between atoms: N_10  and  N_11
REMARK    4  A    between atoms: N_12  and  C_13
REMARK    5  A    between atoms: C_16  and  C_19
REMARK                            x       y       z     vdW  Elec       q    Type
REMARK                         _______ _______ _______ _____ _____    ______ ____
ROOT
ATOM      1  N   UNL     1      -0.521   0.359   0.000  0.00  0.00    +0.000 NA
ATOM      2  N   UNL     1      -0.521   1.184   0.000  0.00  0.00    +0.000 NA
ENDROOT
BRANCH   2   3
ATOM      3  C   UNL     1       0.193   1.597   0.000  0.00  0.00    +0.000 A 
ATOM      4  C   UNL     1       0.193   2.422   0.000  0.00  0.00    +0.000 A 
ATOM      5  C   UNL     1       0.908   2.834   0.000  0.00  0.00    +0.000 A 
ATOM      6  C   UNL     1       1.622   2.422   0.000  0.00  0.00    +0.000 A 
ATOM      7  C   UNL     1       1.622   1.597   0.000  0.00  0.00    +0.000 A 
ATOM      8  C   UNL     1       0.908   1.184   0.000  0.00  0.00    +0.000 A 
BRANCH   6   9
ATOM      9  C   UNL     1       2.337   2.834   0.000  0.00  0.00    +0.000 C 
ATOM     10  N   UNL     1       2.337   3.659   0.000  0.00  0.00    +0.000 NA
ATOM     11  N   UNL     1       3.051   2.422   0.000  0.00  0.00    +0.000 NA
ENDBRANCH   6   9
ENDBRANCH   2   3
BRANCH   1  12
ATOM     12  N   UNL     1      -1.236  -0.053   0.000  0.00  0.00    +0.000 NA
BRANCH  12  13
ATOM     13  C   UNL     1      -1.236  -0.878   0.000  0.00  0.00    +0.000 A 
ATOM     14  C   UNL     1      -0.521  -1.291   0.000  0.00  0.00    +0.000 A 
ATOM     15  C   UNL     1      -0.521  -2.116   0.000  0.00  0.00    +0.000 A 
ATOM     16  C   UNL     1      -1.236  -2.528   0.000  0.00  0.00    +0.000 A 
ATOM     17  C   UNL     1      -1.950  -2.116   0.000  0.00  0.00    +0.000 A 
ATOM     18  C   UNL     1      -1.950  -1.291   0.000  0.00  0.00    +0.000 A 
BRANCH  16  19
ATOM     19  C   UNL     1      -1.236  -3.353   0.000  0.00  0.00    +0.000 C 
ATOM     20  N   UNL     1      -1.950  -3.766   0.000  0.00  0.00    +0.000 NA
ATOM     21  N   UNL     1      -0.521  -3.766   0.000  0.00  0.00    +0.000 NA
ENDBRANCH  16  19
ENDBRANCH  12  13
ENDBRANCH   1  12
TORSDOF 5
