REMARK  Name = BRS
REMARK  4 active torsions:
REMARK  status: ('A' for Active; 'I' for Inactive)
REMARK    1  A    between atoms: N_1  and  C_12
REMARK    2  A    between atoms: N_4  and  C_8
REMARK    3  A    between atoms: C_10  and  C_21
REMARK    4  A    between atoms: C_15  and  C_21
REMARK                            x       y       z     vdW  Elec       q    Type
REMARK                         _______ _______ _______ _____ _____    ______ ____
ROOT
ATOM      1  C   UNL     1       0.554   1.946   0.000  0.00  0.00    +0.000 A 
ATOM      2  C   UNL     1       1.268   1.534   0.000  0.00  0.00    +0.000 A 
ATOM      3  C   UNL     1       1.268   0.709   0.000  0.00  0.00    +0.000 A 
ATOM      4  C   UNL     1       0.554   0.296   0.000  0.00  0.00    +0.000 A 
ATOM      5  C   UNL     1      -0.161   0.709   0.000  0.00  0.00    +0.000 A 
ATOM      6  C   UNL     1      -0.161   1.534   0.000  0.00  0.00    +0.000 A 
ATOM      7  O   UNL     1      -0.875   0.296   0.000  0.00  0.00    +0.000 OA
ENDROOT
BRANCH   6   8
ATOM      8  N   UNL     1      -0.875   1.946   0.000  0.00  0.00    +0.000 N 
ATOM      9  O   UNL     1      -0.875   2.771   0.000  0.00  0.00    +0.000 OA
ATOM     10  O   UNL     1      -1.590   1.534   0.000  0.00  0.00    +0.000 OA
ENDBRANCH   6   8
BRANCH   2  11
ATOM     11  N   UNL     1       1.983   1.946   0.000  0.00  0.00    +0.000 N 
ATOM     12  O   UNL     1       2.697   1.534   0.000  0.00  0.00    +0.000 OA
ATOM     13  O   UNL     1       1.983   2.771   0.000  0.00  0.00    +0.000 OA
ENDBRANCH   2  11
BRANCH   4  14
ATOM     14  C   UNL     1       0.554  -0.529   0.000  0.00  0.00    +0.000 C 
ATOM     15  C   UNL     1       1.268  -0.942   0.000  0.00  0.00    +0.000 C 
BRANCH  14  17
ATOM     16  C   UNL     1      -0.875  -0.529   0.000  0.00  0.00    +0.000 A 
ATOM     17  C   UNL     1      -0.161  -0.942   0.000  0.00  0.00    +0.000 A 
ATOM     18  C   UNL     1      -0.161  -1.766   0.000  0.00  0.00    +0.000 A 
ATOM     19  C   UNL     1      -0.875  -2.179   0.000  0.00  0.00    +0.000 A 
ATOM     20  C   UNL     1      -1.590  -1.766   0.000  0.00  0.00    +0.000 A 
ATOM     21  C   UNL     1      -1.590  -0.942   0.000  0.00  0.00    +0.000 A 
ATOM     22 CL   UNL     1      -2.304  -2.179   0.000  0.00  0.00    +0.000 Cl
ENDBRANCH  14  17
ENDBRANCH   4  14
TORSDOF 4
