REMARK  Name = BRV
REMARK  2 active torsions:
REMARK  status: ('A' for Active; 'I' for Inactive)
REMARK    1  A    between atoms: C_1  and  C_5
REMARK    2  A    between atoms: C_2  and  C_11
REMARK                            x       y       z     vdW  Elec       q    Type
REMARK                         _______ _______ _______ _____ _____    ______ ____
ROOT
ATOM      1  C   UNL     1       0.820   0.514   0.000  0.00  0.00    +0.000 A 
ATOM      2  C   UNL     1       0.820  -0.311   0.000  0.00  0.00    +0.000 A 
ATOM      3  C   UNL     1       0.106  -0.724   0.000  0.00  0.00    +0.000 A 
ATOM      4  C   UNL     1      -0.609  -0.311   0.000  0.00  0.00    +0.000 A 
ATOM      5  N   UNL     1       1.535   0.926   0.000  0.00  0.00    +0.000 NA
ATOM      6 BR   UNL     1      -1.323  -0.724   0.000  0.00  0.00    +0.000 Br
ATOM      7 BR   UNL     1       1.535  -0.724   0.000  0.00  0.00    +0.000 Br
ATOM      8 BR   UNL     1       0.106   1.752   0.000  0.00  0.00    +0.000 Br
ATOM      9  C   UNL     1      -0.609   0.514   0.000  0.00  0.00    +0.000 A 
ATOM     10  C   UNL     1       0.106   0.926   0.000  0.00  0.00    +0.000 A 
ENDROOT
BRANCH   3  11
ATOM     11  C   UNL     1       0.106  -1.548   0.000  0.00  0.00    +0.000 C 
ATOM     12  O   UNL     1      -0.609  -1.961   0.000  0.00  0.00    +0.000 OA
ATOM     13  O   UNL     1       0.820  -1.961   0.000  0.00  0.00    +0.000 OA
ENDBRANCH   3  11
BRANCH   9  14
ATOM     14  C   UNL     1      -1.323   0.926   0.000  0.00  0.00    +0.000 C 
ATOM     15  O   UNL     1      -2.038   0.514   0.000  0.00  0.00    +0.000 OA
ATOM     16  O   UNL     1      -1.323   1.752   0.000  0.00  0.00    +0.000 OA
ENDBRANCH   9  14
TORSDOF 2
