REMARK  Name = BRX
REMARK  6 active torsions:
REMARK  status: ('A' for Active; 'I' for Inactive)
REMARK    1  A    between atoms: C_2  and  C_18
REMARK    2  A    between atoms: N_3  and  CA_4
REMARK    3  A    between atoms: CA_4  and  C_5
REMARK    4  A    between atoms: CA_4  and  C_7
REMARK    5  A    between atoms: C_7  and  C_9
REMARK    6  A    between atoms: C_12  and  N_13
REMARK                            x       y       z     vdW  Elec       q    Type
REMARK                         _______ _______ _______ _____ _____    ______ ____
ROOT
ATOM      1  C   UNL     1      21.416  19.725   0.000  0.00  0.00    +0.000 C 
ATOM      2  O   UNL     1      21.416  18.900   0.000  0.00  0.00    +0.000 OA
ENDROOT
BRANCH   1   3
ATOM      3  C   UNL     1      20.702  20.138   0.000  0.00  0.00    +0.000 A 
ATOM      4  C   UNL     1      19.988  19.725   0.000  0.00  0.00    +0.000 A 
ATOM      5  C   UNL     1      19.273  20.138   0.000  0.00  0.00    +0.000 A 
ATOM      6  C   UNL     1      19.273  20.963   0.000  0.00  0.00    +0.000 A 
ATOM      7  C   UNL     1      19.988  21.375   0.000  0.00  0.00    +0.000 A 
ATOM      8  C   UNL     1      20.702  20.963   0.000  0.00  0.00    +0.000 A 
BRANCH   6   9
ATOM      9  N   UNL     1      18.559  21.375   0.000  0.00  0.00    +0.000 N 
ATOM     10  O   UNL     1      18.559  22.200   0.000  0.00  0.00    +0.000 OA
ATOM     11  O   UNL     1      17.844  20.963   0.000  0.00  0.00    +0.000 OA
ENDBRANCH   6   9
ENDBRANCH   1   3
BRANCH   1  12
ATOM     12  CA  UNL     1      22.131  20.138   0.000  0.00  0.00    +0.000 C 
BRANCH  12  15
ATOM     13  O   UNL     1      23.560  20.963   0.000  0.00  0.00    +0.000 OA
ATOM     14  C   UNL     1      23.560  20.138   0.000  0.00  0.00    +0.000 C 
ATOM     15  N   UNL     1      22.846  19.725   0.000  0.00  0.00    +0.000 NA
BRANCH  14  16
ATOM     16  C   UNL     1      24.274  19.725   0.000  0.00  0.00    +0.000 C 
ATOM     17 BR   UNL     1      24.989  20.138   0.000  0.00  0.00    +0.000 Br
ATOM     18 BR   UNL     1      24.274  18.900   0.000  0.00  0.00    +0.000 Br
ENDBRANCH  14  16
ENDBRANCH  12  15
BRANCH  12  19
ATOM     19  C   UNL     1      22.131  20.963   0.000  0.00  0.00    +0.000 C 
ATOM     20  O   UNL     1      21.416  21.375   0.000  0.00  0.00    +0.000 OA
ENDBRANCH  12  19
ENDBRANCH   1  12
TORSDOF 6
