REMARK  Name = BS1
REMARK  2 active torsions:
REMARK  status: ('A' for Active; 'I' for Inactive)
REMARK    1  A    between atoms: C_9  and  O_11
REMARK    2  A    between atoms: O_11  and  C_12
REMARK                            x       y       z     vdW  Elec       q    Type
REMARK                         _______ _______ _______ _____ _____    ______ ____
ROOT
ATOM      1  C   UNL     1       1.094   0.616   0.000  0.00  0.00    +0.000 C 
ATOM      2  C   UNL     1       0.449   1.130   0.000  0.00  0.00    +0.000 A 
ATOM      3  C   UNL     1      -0.266   0.718   0.000  0.00  0.00    +0.000 A 
ATOM      4  C   UNL     1      -0.980   1.130   0.000  0.00  0.00    +0.000 A 
ATOM      5  C   UNL     1      -0.980   1.955   0.000  0.00  0.00    +0.000 A 
ATOM      6  C   UNL     1      -0.266   2.368   0.000  0.00  0.00    +0.000 A 
ATOM      7  C   UNL     1       0.449   1.955   0.000  0.00  0.00    +0.000 A 
ATOM      8  C   UNL     1       1.094   2.470   0.000  0.00  0.00    +0.000 C 
ATOM      9  C   UNL     1       1.898   2.286   0.000  0.00  0.00    +0.000 C 
ATOM     10  C   UNL     1       2.256   1.543   0.000  0.00  0.00    +0.000 A 
ATOM     11  C   UNL     1       3.079   1.604   0.000  0.00  0.00    +0.000 A 
ATOM     12  C   UNL     1       3.544   0.923   0.000  0.00  0.00    +0.000 A 
ATOM     13  C   UNL     1       3.186   0.179   0.000  0.00  0.00    +0.000 A 
ATOM     14  C   UNL     1       2.363   0.118   0.000  0.00  0.00    +0.000 A 
ATOM     15  C   UNL     1       1.898   0.799   0.000  0.00  0.00    +0.000 A 
ENDROOT
BRANCH   1  16
ATOM     16  O   UNL     1       0.910  -0.189   0.000  0.00  0.00    +0.000 OA
BRANCH  16  25
ATOM     17  C   UNL     1      -2.126  -1.271   0.000  0.00  0.00    +0.000 C 
ATOM     18  N   UNL     1      -1.450  -1.744   0.000  0.00  0.00    +0.000 N 
ATOM     19  C   UNL     1      -1.718  -2.524   0.000  0.00  0.00    +0.000 C 
ATOM     20  C   UNL     1      -0.896  -1.295   0.000  0.00  0.00    +0.000 C 
ATOM     21  C   UNL     1      -0.276  -1.764   0.000  0.00  0.00    +0.000 C 
ATOM     22  C   UNL     1      -0.046  -2.453   0.000  0.00  0.00    +0.000 C 
ATOM     23  C   UNL     1      -0.626  -1.788   0.000  0.00  0.00    +0.000 C 
ATOM     24  C   UNL     1      -0.706  -0.385   0.000  0.00  0.00    +0.000 C 
ATOM     25  C   UNL     1       0.122  -0.432   0.000  0.00  0.00    +0.000 C 
ATOM     26  C   UNL     1      -0.410  -0.840   0.000  0.00  0.00    +0.000 C 
ENDBRANCH  16  25
ENDBRANCH   1  16
TORSDOF 2
