REMARK  Name = BSB
REMARK  4 active torsions:
REMARK  status: ('A' for Active; 'I' for Inactive)
REMARK    1  A    between atoms: C_3  and  S_11
REMARK    2  A    between atoms: C_6  and  C_7
REMARK    3  A    between atoms: N_9  and  C_10
REMARK    4  A    between atoms: C_10  and  C_15
REMARK                            x       y       z     vdW  Elec       q    Type
REMARK                         _______ _______ _______ _____ _____    ______ ____
ROOT
ATOM      1  C   UNL     1       0.776  -0.596   0.000  0.00  0.00    +0.000 A 
ATOM      2  C   UNL     1       1.490  -1.008   0.000  0.00  0.00    +0.000 A 
ATOM      3  C   UNL     1       1.490  -1.833   0.000  0.00  0.00    +0.000 A 
ATOM      4  C   UNL     1       0.776  -2.246   0.000  0.00  0.00    +0.000 A 
ATOM      5  C   UNL     1       0.061  -1.833   0.000  0.00  0.00    +0.000 A 
ATOM      6  C   UNL     1       0.061  -1.008   0.000  0.00  0.00    +0.000 A 
ENDROOT
BRANCH   3   7
ATOM      7  S   UNL     1       2.205  -2.246   0.000  0.00  0.00    +0.000 S 
ATOM      8  N   UNL     1       2.919  -2.658   0.000  0.00  0.00    +0.000 NA
ATOM      9  O   UNL     1       2.617  -1.531   0.000  0.00  0.00    +0.000 OA
ATOM     10  O   UNL     1       1.792  -2.960   0.000  0.00  0.00    +0.000 OA
ENDBRANCH   3   7
BRANCH   6  11
ATOM     11  C   UNL     1      -0.653  -0.596   0.000  0.00  0.00    +0.000 C 
ATOM     12  O   UNL     1      -1.368  -1.008   0.000  0.00  0.00    +0.000 OA
ATOM     13  N   UNL     1      -0.653   0.229   0.000  0.00  0.00    +0.000 NA
BRANCH  13  14
ATOM     14  C   UNL     1      -1.368   0.642   0.000  0.00  0.00    +0.000 C 
BRANCH  14  15
ATOM     15  C   UNL     1      -1.368   1.467   0.000  0.00  0.00    +0.000 A 
ATOM     16  C   UNL     1      -2.082   1.879   0.000  0.00  0.00    +0.000 A 
ATOM     17  C   UNL     1      -2.082   2.704   0.000  0.00  0.00    +0.000 A 
ATOM     18  C   UNL     1      -1.368   3.117   0.000  0.00  0.00    +0.000 A 
ATOM     19  C   UNL     1      -0.653   2.704   0.000  0.00  0.00    +0.000 A 
ATOM     20  C   UNL     1      -0.653   1.879   0.000  0.00  0.00    +0.000 A 
ENDBRANCH  14  15
ENDBRANCH  13  14
ENDBRANCH   6  11
TORSDOF 4
