REMARK  Name = BSI
REMARK  4 active torsions:
REMARK  status: ('A' for Active; 'I' for Inactive)
REMARK    1  A    between atoms: C_5  and  C_26
REMARK    2  A    between atoms: C_7  and  S_19
REMARK    3  A    between atoms: C_8  and  C_11
REMARK    4  A    between atoms: N_18  and  S_19
REMARK                            x       y       z     vdW  Elec       q    Type
REMARK                         _______ _______ _______ _____ _____    ______ ____
ROOT
ATOM      1  O   UNL     1      -0.927   0.620   0.000  0.00  0.00    +0.000 OA
ATOM      2  S   UNL     1      -0.514  -0.094   0.000  0.00  0.00    +0.000 S 
ATOM      3  O   UNL     1      -0.102  -0.809   0.000  0.00  0.00    +0.000 OA
ENDROOT
BRANCH   2  13
ATOM      4  C   UNL     1      -4.087  -0.507   0.000  0.00  0.00    +0.000 A 
ATOM      5  C   UNL     1      -3.372  -0.094   0.000  0.00  0.00    +0.000 A 
ATOM      6  C   UNL     1      -2.658  -0.507   0.000  0.00  0.00    +0.000 A 
ATOM      7  C   UNL     1      -1.943  -0.094   0.000  0.00  0.00    +0.000 C 
ATOM      8  C   UNL     1      -1.229  -1.332   0.000  0.00  0.00    +0.000 C 
ATOM      9  C   UNL     1      -1.943  -1.744   0.000  0.00  0.00    +0.000 C 
ATOM     10  C   UNL     1      -2.658  -1.332   0.000  0.00  0.00    +0.000 A 
ATOM     11  C   UNL     1      -3.372  -1.744   0.000  0.00  0.00    +0.000 A 
ATOM     12  C   UNL     1      -4.087  -1.332   0.000  0.00  0.00    +0.000 A 
ATOM     13  N   UNL     1      -1.229  -0.507   0.000  0.00  0.00    +0.000 NA
BRANCH   8  14
ATOM     14  C   UNL     1      -0.514  -1.744   0.000  0.00  0.00    +0.000 C 
ATOM     15  O   UNL     1       0.200  -1.332   0.000  0.00  0.00    +0.000 OA
ATOM     16  O   UNL     1      -0.514  -2.569   0.000  0.00  0.00    +0.000 OA
ENDBRANCH   8  14
ENDBRANCH   2  13
BRANCH   2  17
ATOM     17  C   UNL     1       0.200   0.318   0.000  0.00  0.00    +0.000 A 
ATOM     18  C   UNL     1       1.629   1.143   0.000  0.00  0.00    +0.000 A 
ATOM     19  C   UNL     1       0.915   1.556   0.000  0.00  0.00    +0.000 A 
ATOM     20  C   UNL     1       0.200   1.143   0.000  0.00  0.00    +0.000 A 
ATOM     21  C   UNL     1       0.915  -0.094   0.000  0.00  0.00    +0.000 A 
ATOM     22  C   UNL     1       1.629   0.318   0.000  0.00  0.00    +0.000 A 
BRANCH  18  23
ATOM     23  C   UNL     1       2.344   1.556   0.000  0.00  0.00    +0.000 A 
ATOM     24  C   UNL     1       3.773   1.556   0.000  0.00  0.00    +0.000 A 
ATOM     25  C   UNL     1       2.344   2.381   0.000  0.00  0.00    +0.000 A 
ATOM     26  C   UNL     1       3.058   1.143   0.000  0.00  0.00    +0.000 A 
ATOM     27  C   UNL     1       3.773   2.381   0.000  0.00  0.00    +0.000 A 
ATOM     28  C   UNL     1       3.058   2.793   0.000  0.00  0.00    +0.000 A 
ENDBRANCH  18  23
ENDBRANCH   2  17
TORSDOF 4
