REMARK  Name = BSM
REMARK  5 active torsions:
REMARK  status: ('A' for Active; 'I' for Inactive)
REMARK    1  A    between atoms: O_2  and  C_3
REMARK    2  A    between atoms: C_8  and  C_9
REMARK    3  A    between atoms: C_10  and  C_11
REMARK    4  A    between atoms: N_13  and  C_14
REMARK    5  A    between atoms: C_18  and  C_19
REMARK                            x       y       z     vdW  Elec       q    Type
REMARK                         _______ _______ _______ _____ _____    ______ ____
ROOT
ATOM      1  C   UNL     1      -0.064  -0.492   0.000  0.00  0.00    +0.000 A 
ATOM      2  C   UNL     1      -0.731  -0.977   0.000  0.00  0.00    +0.000 A 
ATOM      3  N   UNL     1      -0.476  -1.762   0.000  0.00  0.00    +0.000 NA
ATOM      4  N   UNL     1       0.348  -1.762   0.000  0.00  0.00    +0.000 NA
ATOM      5  C   UNL     1       0.604  -0.977   0.000  0.00  0.00    +0.000 A 
ENDROOT
BRANCH   5   6
ATOM      6  C   UNL     1       1.388  -0.722   0.000  0.00  0.00    +0.000 A 
ATOM      7  C   UNL     1       1.560   0.085   0.000  0.00  0.00    +0.000 A 
ATOM      8  C   UNL     1       2.344   0.340   0.000  0.00  0.00    +0.000 A 
ATOM      9 CL   UNL     1       2.516   1.147   0.000  0.00  0.00    +0.000 Cl
ATOM     10  C   UNL     1       2.957  -0.212   0.000  0.00  0.00    +0.000 A 
ATOM     11  O   UNL     1       3.742   0.043   0.000  0.00  0.00    +0.000 OA
ATOM     12  C   UNL     1       2.786  -1.019   0.000  0.00  0.00    +0.000 A 
ATOM     13  C   UNL     1       2.001  -1.274   0.000  0.00  0.00    +0.000 A 
ATOM     14  O   UNL     1       1.830  -2.081   0.000  0.00  0.00    +0.000 OA
ENDBRANCH   5   6
BRANCH   1  20
ATOM     15  C   UNL     1      -0.064   1.983   0.000  0.00  0.00    +0.000 A 
ATOM     16  C   UNL     1       0.650   1.570   0.000  0.00  0.00    +0.000 A 
ATOM     17  C   UNL     1       0.650   0.745   0.000  0.00  0.00    +0.000 A 
ATOM     18  C   UNL     1      -0.778   1.570   0.000  0.00  0.00    +0.000 A 
ATOM     19  C   UNL     1      -0.778   0.745   0.000  0.00  0.00    +0.000 A 
ATOM     20  C   UNL     1      -0.064   0.333   0.000  0.00  0.00    +0.000 A 
BRANCH  15  22
ATOM     21  C   UNL     1      -0.778   3.220   0.000  0.00  0.00    +0.000 C 
ATOM     22  O   UNL     1      -0.064   2.808   0.000  0.00  0.00    +0.000 OA
ENDBRANCH  15  22
ENDBRANCH   1  20
BRANCH   2  23
ATOM     23  C   UNL     1      -1.516  -0.722   0.000  0.00  0.00    +0.000 C 
ATOM     24  O   UNL     1      -1.688   0.085   0.000  0.00  0.00    +0.000 OA
ATOM     25  N   UNL     1      -2.129  -1.274   0.000  0.00  0.00    +0.000 NA
BRANCH  25  26
ATOM     26  C   UNL     1      -2.914  -1.019   0.000  0.00  0.00    +0.000 C 
ATOM     27  C   UNL     1      -3.527  -1.571   0.000  0.00  0.00    +0.000 C 
ENDBRANCH  25  26
ENDBRANCH   2  23
TORSDOF 5
