REMARK  Name = BTD
REMARK  3 active torsions:
REMARK  status: ('A' for Active; 'I' for Inactive)
REMARK    1  A    between atoms: C5*_2  and  C4*_3
REMARK    2  A    between atoms: C1*_5  and  N_6
REMARK    3  A    between atoms: C_13  and  C_14
REMARK                            x       y       z     vdW  Elec       q    Type
REMARK                         _______ _______ _______ _____ _____    ______ ____
ROOT
ATOM      1  N   UNL     1      -0.290  -0.627   0.000  0.00  0.00    +0.000 N 
ATOM      2  C   UNL     1       0.530  -0.541   0.000  0.00  0.00    +0.000 A 
ATOM      3  C   UNL     1      -0.625  -1.381   0.000  0.00  0.00    +0.000 A 
ATOM      4  O   UNL     1      -1.446  -1.467   0.000  0.00  0.00    +0.000 OA
ATOM      5  N   UNL     1      -0.141  -2.048   0.000  0.00  0.00    +0.000 NA
ATOM      6  C   UNL     1       0.680  -1.962   0.000  0.00  0.00    +0.000 A 
ATOM      7  O   UNL     1       1.165  -2.629   0.000  0.00  0.00    +0.000 OA
ATOM      8  C   UNL     1       1.016  -1.208   0.000  0.00  0.00    +0.000 A 
ENDROOT
BRANCH   1  11
ATOM      9  C4* UNL     1      -1.187   1.310   0.000  0.00  0.00    +0.000 C 
ATOM     10  O4* UNL     1      -0.520   0.825   0.000  0.00  0.00    +0.000 OA
ATOM     11  C1* UNL     1      -0.775   0.040   0.000  0.00  0.00    +0.000 C 
ATOM     12  C2* UNL     1      -1.600   0.040   0.000  0.00  0.00    +0.000 C 
ATOM     13  C3* UNL     1      -1.855   0.825   0.000  0.00  0.00    +0.000 C 
ATOM     14  O3* UNL     1      -2.639   1.080   0.000  0.00  0.00    +0.000 OA
BRANCH   9  16
ATOM     15  O5* UNL     1      -1.902   2.547   0.000  0.00  0.00    +0.000 OA
ATOM     16  C5* UNL     1      -1.187   2.135   0.000  0.00  0.00    +0.000 C 
ENDBRANCH   9  16
ENDBRANCH   1  11
BRANCH   8  17
ATOM     17  C   UNL     1       1.836  -1.122   0.000  0.00  0.00    +0.000 A 
ATOM     18  C   UNL     1       2.248  -0.407   0.000  0.00  0.00    +0.000 A 
ATOM     19  C   UNL     1       3.055  -0.579   0.000  0.00  0.00    +0.000 A 
ATOM     20  C   UNL     1       3.142  -1.399   0.000  0.00  0.00    +0.000 A 
ATOM     21  S   UNL     1       2.388  -1.735   0.000  0.00  0.00    +0.000 S 
ATOM     22 BR   UNL     1       3.856  -1.812   0.000  0.00  0.00    +0.000 Br
ENDBRANCH   8  17
TORSDOF 3
