REMARK  Name = BTO
REMARK  6 active torsions:
REMARK  status: ('A' for Active; 'I' for Inactive)
REMARK    1  A    between atoms: C_3  and  N_7
REMARK    2  A    between atoms: C_5  and  C_10
REMARK    3  A    between atoms: C_12  and  C_13
REMARK    4  A    between atoms: C_13  and  C_14
REMARK    5  A    between atoms: C_14  and  C_15
REMARK    6  A    between atoms: C_15  and  C_16
REMARK                            x       y       z     vdW  Elec       q    Type
REMARK                         _______ _______ _______ _____ _____    ______ ____
ROOT
ATOM      1  C   UNL     1      -1.913  -0.987   0.000  0.00  0.00    +0.000 A 
ATOM      2  N   UNL     1      -1.361  -0.373   0.000  0.00  0.00    +0.000 NA
ATOM      3  C   UNL     1      -0.608  -0.709   0.000  0.00  0.00    +0.000 A 
ATOM      4  O   UNL     1      -0.694  -1.530   0.000  0.00  0.00    +0.000 OA
ATOM      5  N   UNL     1      -1.501  -1.701   0.000  0.00  0.00    +0.000 NA
ENDROOT
BRANCH   1  10
ATOM      6  C   UNL     1      -3.890  -0.060   0.000  0.00  0.00    +0.000 A 
ATOM      7  C   UNL     1      -4.375  -0.728   0.000  0.00  0.00    +0.000 A 
ATOM      8  C   UNL     1      -4.039  -1.482   0.000  0.00  0.00    +0.000 A 
ATOM      9  C   UNL     1      -3.219  -1.568   0.000  0.00  0.00    +0.000 A 
ATOM     10  C   UNL     1      -2.734  -0.900   0.000  0.00  0.00    +0.000 A 
ATOM     11  C   UNL     1      -3.070  -0.147   0.000  0.00  0.00    +0.000 A 
BRANCH   8  12
ATOM     12  N   UNL     1      -4.524  -2.149   0.000  0.00  0.00    +0.000 N 
ATOM     13  O   UNL     1      -5.345  -2.063   0.000  0.00  0.00    +0.000 OA
ATOM     14  O   UNL     1      -4.189  -2.903   0.000  0.00  0.00    +0.000 OA
ENDBRANCH   8  12
ENDBRANCH   1  10
BRANCH   3  15
ATOM     15  C   UNL     1       0.107  -0.297   0.000  0.00  0.00    +0.000 C 
BRANCH  15  16
ATOM     16  C   UNL     1       0.821  -0.709   0.000  0.00  0.00    +0.000 C 
BRANCH  16  17
ATOM     17  C   UNL     1       1.536  -0.297   0.000  0.00  0.00    +0.000 C 
BRANCH  17  18
ATOM     18  C   UNL     1       2.250  -0.709   0.000  0.00  0.00    +0.000 C 
ATOM     19  O   UNL     1       2.965  -0.297   0.000  0.00  0.00    +0.000 OA
ATOM     20  O   UNL     1       2.250  -1.534   0.000  0.00  0.00    +0.000 OA
ENDBRANCH  17  18
ENDBRANCH  16  17
ENDBRANCH  15  16
ENDBRANCH   3  15
TORSDOF 6
