REMARK  Name = BTP
REMARK  4 active torsions:
REMARK  status: ('A' for Active; 'I' for Inactive)
REMARK    1  A    between atoms: C_1  and  C_4
REMARK    2  A    between atoms: C_4  and  C_5
REMARK    3  A    between atoms: C_4  and  C_12
REMARK    4  A    between atoms: C_5  and  C_6
REMARK                            x       y       z     vdW  Elec       q    Type
REMARK                         _______ _______ _______ _____ _____    ______ ____
ROOT
ATOM      1  C   UNL     1       0.673  -0.069   0.000  0.00  0.00    +0.000 C 
ENDROOT
BRANCH   1   2
ATOM      2  C   UNL     1      -0.041  -0.481   0.000  0.00  0.00    +0.000 A 
ATOM      3  C   UNL     1      -0.041  -1.306   0.000  0.00  0.00    +0.000 A 
ATOM      4  C   UNL     1      -0.755  -1.719   0.000  0.00  0.00    +0.000 A 
ATOM      5  C   UNL     1      -1.470  -1.306   0.000  0.00  0.00    +0.000 A 
ATOM      6  C   UNL     1      -1.470  -0.481   0.000  0.00  0.00    +0.000 A 
ATOM      7  C   UNL     1      -0.755  -0.069   0.000  0.00  0.00    +0.000 A 
ENDBRANCH   1   2
BRANCH   1   8
ATOM      8  C   UNL     1       0.673   0.756   0.000  0.00  0.00    +0.000 C 
BRANCH   8   9
ATOM      9  C   UNL     1       1.388   1.169   0.000  0.00  0.00    +0.000 C 
ATOM     10  O   UNL     1       1.388   1.994   0.000  0.00  0.00    +0.000 OA
ATOM     11  O   UNL     1       2.102   0.756   0.000  0.00  0.00    +0.000 OA
ENDBRANCH   8   9
BRANCH   8  12
ATOM     12  C   UNL     1      -0.041   1.169   0.000  0.00  0.00    +0.000 C 
ATOM     13  S   UNL     1      -0.755   0.756   0.000  0.00  0.00    +0.000 S 
ENDBRANCH   8  12
ENDBRANCH   1   8
TORSDOF 4
