REMARK  Name = BTQ
REMARK  5 active torsions:
REMARK  status: ('A' for Active; 'I' for Inactive)
REMARK    1  A    between atoms: C_1  and  C_4
REMARK    2  A    between atoms: C_4  and  C_5
REMARK    3  A    between atoms: C_5  and  C_6
REMARK    4  A    between atoms: C_6  and  C_7
REMARK    5  A    between atoms: C_7  and  C_8
REMARK                            x       y       z     vdW  Elec       q    Type
REMARK                         _______ _______ _______ _____ _____    ______ ____
ROOT
ATOM      1  C   UNL     1       0.676   0.178   0.000  0.00  0.00    +0.000 C 
ATOM      2  S   UNL     1       0.762   0.998   0.000  0.00  0.00    +0.000 S 
ATOM      3  C   UNL     1       1.569   1.170   0.000  0.00  0.00    +0.000 C 
ATOM      4  C   UNL     1       1.982   0.455   0.000  0.00  0.00    +0.000 C 
ATOM      5  N   UNL     1       2.735   0.120   0.000  0.00  0.00    +0.000 NA
ATOM      6  C   UNL     1       2.649  -0.701   0.000  0.00  0.00    +0.000 C 
ATOM      7  O   UNL     1       3.262  -1.253   0.000  0.00  0.00    +0.000 OA
ATOM      8  N   UNL     1       1.842  -0.872   0.000  0.00  0.00    +0.000 NA
ATOM      9  C   UNL     1       1.429  -0.158   0.000  0.00  0.00    +0.000 C 
ENDROOT
BRANCH   1  10
ATOM     10  C   UNL     1      -0.039  -0.235   0.000  0.00  0.00    +0.000 C 
BRANCH  10  11
ATOM     11  C   UNL     1      -0.753   0.178   0.000  0.00  0.00    +0.000 C 
BRANCH  11  12
ATOM     12  C   UNL     1      -1.468  -0.235   0.000  0.00  0.00    +0.000 C 
BRANCH  12  13
ATOM     13  C   UNL     1      -2.182   0.178   0.000  0.00  0.00    +0.000 C 
BRANCH  13  14
ATOM     14  C   UNL     1      -2.897  -0.235   0.000  0.00  0.00    +0.000 C 
ATOM     15  O   UNL     1      -3.611   0.178   0.000  0.00  0.00    +0.000 OA
ATOM     16  O   UNL     1      -2.897  -1.060   0.000  0.00  0.00    +0.000 OA
ENDBRANCH  13  14
ENDBRANCH  12  13
ENDBRANCH  11  12
ENDBRANCH  10  11
ENDBRANCH   1  10
TORSDOF 5
