REMARK  Name = BTS
REMARK  5 active torsions:
REMARK  status: ('A' for Active; 'I' for Inactive)
REMARK    1  A    between atoms: C_5  and  S_10
REMARK    2  A    between atoms: S_10  and  C_11
REMARK    3  A    between atoms: C_11  and  C_12
REMARK    4  A    between atoms: C_12  and  C_13
REMARK    5  A    between atoms: C_13  and  S_14
REMARK                            x       y       z     vdW  Elec       q    Type
REMARK                         _______ _______ _______ _____ _____    ______ ____
ROOT
ATOM      1  C   UNL     1      -2.935  -0.729   0.000  0.00  0.00    +0.000 A 
ATOM      2  C   UNL     1      -2.523  -0.014   0.000  0.00  0.00    +0.000 A 
ATOM      3  C   UNL     1      -2.523  -1.443   0.000  0.00  0.00    +0.000 A 
ATOM      4  N   UNL     1      -1.146   0.599   0.000  0.00  0.00    +0.000 NA
ATOM      5  C   UNL     1      -0.392   0.263   0.000  0.00  0.00    +0.000 A 
ATOM      6  S   UNL     1      -0.478  -0.557   0.000  0.00  0.00    +0.000 S 
ATOM      7  C   UNL     1      -1.285  -0.729   0.000  0.00  0.00    +0.000 A 
ATOM      8  C   UNL     1      -1.698  -0.014   0.000  0.00  0.00    +0.000 A 
ATOM      9  C   UNL     1      -1.698  -1.443   0.000  0.00  0.00    +0.000 A 
ENDROOT
BRANCH   5  10
ATOM     10  S   UNL     1       0.322   0.676   0.000  0.00  0.00    +0.000 S 
BRANCH  10  11
ATOM     11  C   UNL     1       1.037   0.263   0.000  0.00  0.00    +0.000 C 
BRANCH  11  12
ATOM     12  C   UNL     1       1.751   0.676   0.000  0.00  0.00    +0.000 C 
BRANCH  12  13
ATOM     13  C   UNL     1       2.466   0.263   0.000  0.00  0.00    +0.000 C 
BRANCH  13  14
ATOM     14  S   UNL     1       3.180   0.676   0.000  0.00  0.00    +0.000 S 
ATOM     15  O   UNL     1       3.895   1.088   0.000  0.00  0.00    +0.000 OA
ATOM     16  O   UNL     1       3.593  -0.039   0.000  0.00  0.00    +0.000 OA
ATOM     17  O   UNL     1       2.768   1.390   0.000  0.00  0.00    +0.000 OA
ENDBRANCH  13  14
ENDBRANCH  12  13
ENDBRANCH  11  12
ENDBRANCH  10  11
ENDBRANCH   5  10
TORSDOF 5
