REMARK  Name = BVL
REMARK  6 active torsions:
REMARK  status: ('A' for Active; 'I' for Inactive)
REMARK    1  A    between atoms: C_6  and  C_7
REMARK    2  A    between atoms: C_6  and  C_12
REMARK    3  A    between atoms: C_8  and  C_9
REMARK    4  A    between atoms: C_16  and  O_17
REMARK    5  A    between atoms: C_19  and  C_21
REMARK    6  A    between atoms: C_21  and  C_22
REMARK                            x       y       z     vdW  Elec       q    Type
REMARK                         _______ _______ _______ _____ _____    ______ ____
ROOT
ATOM      1  C   UNL     1      -0.441  -0.031   0.000  0.00  0.00    +0.000 A 
ATOM      2  C   UNL     1      -0.441  -0.856   0.000  0.00  0.00    +0.000 A 
ATOM      3  O   UNL     1      -1.155  -1.268   0.000  0.00  0.00    +0.000 OA
ATOM      4  C   UNL     1       0.274  -1.268   0.000  0.00  0.00    +0.000 A 
ATOM      5  C   UNL     1       0.988  -0.856   0.000  0.00  0.00    +0.000 A 
ATOM      6  C   UNL     1       0.988  -0.031   0.000  0.00  0.00    +0.000 A 
ATOM      7  C   UNL     1       0.274   0.382   0.000  0.00  0.00    +0.000 A 
ENDROOT
BRANCH   1   9
ATOM      8  O   UNL     1      -1.155   1.207   0.000  0.00  0.00    +0.000 OA
ATOM      9  C   UNL     1      -1.155   0.382   0.000  0.00  0.00    +0.000 C 
BRANCH   9  10
ATOM     10  C   UNL     1      -1.869  -0.031   0.000  0.00  0.00    +0.000 C 
ATOM     11  C   UNL     1      -1.869  -0.856   0.000  0.00  0.00    +0.000 C 
BRANCH  11  16
ATOM     12  C   UNL     1      -3.298  -0.856   0.000  0.00  0.00    +0.000 A 
ATOM     13  C   UNL     1      -4.013  -2.093   0.000  0.00  0.00    +0.000 A 
ATOM     14  C   UNL     1      -3.298  -2.506   0.000  0.00  0.00    +0.000 A 
ATOM     15  C   UNL     1      -2.584  -2.093   0.000  0.00  0.00    +0.000 A 
ATOM     16  C   UNL     1      -2.584  -1.268   0.000  0.00  0.00    +0.000 A 
ATOM     17  C   UNL     1      -4.013  -1.268   0.000  0.00  0.00    +0.000 A 
ATOM     18  O   UNL     1      -4.727  -2.506   0.000  0.00  0.00    +0.000 OA
ENDBRANCH  11  16
ENDBRANCH   9  10
ENDBRANCH   1   9
BRANCH   5  19
ATOM     19  O   UNL     1       1.703  -1.268   0.000  0.00  0.00    +0.000 OA
ATOM     20  C   UNL     1       2.417  -0.856   0.000  0.00  0.00    +0.000 C 
ENDBRANCH   5  19
BRANCH   6  21
ATOM     21  C   UNL     1       1.703   0.382   0.000  0.00  0.00    +0.000 C 
BRANCH  21  22
ATOM     22  C   UNL     1       1.703   1.207   0.000  0.00  0.00    +0.000 C 
ATOM     23  C   UNL     1       2.417   1.619   0.000  0.00  0.00    +0.000 C 
ATOM     24  C   UNL     1       2.417   2.444   0.000  0.00  0.00    +0.000 C 
ATOM     25  C   UNL     1       3.132   1.207   0.000  0.00  0.00    +0.000 C 
ENDBRANCH  21  22
ENDBRANCH   6  21
TORSDOF 6
