REMARK  Name = BXZ
REMARK  1 active torsions:
REMARK  status: ('A' for Active; 'I' for Inactive)
REMARK    1  A    between atoms: C_10  and  C_11
REMARK                            x       y       z     vdW  Elec       q    Type
REMARK                         _______ _______ _______ _____ _____    ______ ____
ROOT
ATOM      1  C   UNL     1       2.277   0.861   0.000  0.00  0.00    +0.000 A 
ATOM      2  C   UNL     1       1.563   0.449   0.000  0.00  0.00    +0.000 A 
ATOM      3  C   UNL     1       0.848   0.861   0.000  0.00  0.00    +0.000 A 
ATOM      4  C   UNL     1       0.848   1.686   0.000  0.00  0.00    +0.000 A 
ATOM      5  C   UNL     1       1.563   2.099   0.000  0.00  0.00    +0.000 A 
ATOM      6  C   UNL     1       2.277   1.686   0.000  0.00  0.00    +0.000 A 
ATOM      7  O   UNL     1       2.992   2.099   0.000  0.00  0.00    +0.000 OA
ATOM      8  O   UNL     1       0.064   1.941   0.000  0.00  0.00    +0.000 OA
ATOM      9  N   UNL     1      -0.421   1.274   0.000  0.00  0.00    +0.000 NA
ATOM     10  C   UNL     1       0.064   0.606   0.000  0.00  0.00    +0.000 A 
ENDROOT
BRANCH  10  11
ATOM     11  C   UNL     1      -0.191  -0.178   0.000  0.00  0.00    +0.000 A 
ATOM     12  C   UNL     1       0.361  -0.792   0.000  0.00  0.00    +0.000 A 
ATOM     13  C   UNL     1       0.106  -1.576   0.000  0.00  0.00    +0.000 A 
ATOM     14  C   UNL     1      -0.701  -1.748   0.000  0.00  0.00    +0.000 A 
ATOM     15  C   UNL     1      -1.253  -1.135   0.000  0.00  0.00    +0.000 A 
ATOM     16  C   UNL     1      -0.998  -0.350   0.000  0.00  0.00    +0.000 A 
ATOM     17  O   UNL     1      -1.550   0.263   0.000  0.00  0.00    +0.000 OA
ATOM     18  O   UNL     1      -0.956  -2.532   0.000  0.00  0.00    +0.000 OA
ATOM     19 BR   UNL     1       0.658  -2.189   0.000  0.00  0.00    +0.000 Br
ENDBRANCH  10  11
TORSDOF 1
