REMARK  Name = BYM
REMARK  1 active torsions:
REMARK  status: ('A' for Active; 'I' for Inactive)
REMARK    1  A    between atoms: C_8  and  C_18
REMARK                            x       y       z     vdW  Elec       q    Type
REMARK                         _______ _______ _______ _____ _____    ______ ____
ROOT
ATOM      1  C   UNL     1      -0.889   0.553   0.000  0.00  0.00    +0.000 A 
ATOM      2  C   UNL     1      -0.889   1.378   0.000  0.00  0.00    +0.000 A 
ATOM      3  C   UNL     1      -0.174   0.141   0.000  0.00  0.00    +0.000 A 
ATOM      4  C   UNL     1      -0.174   1.791   0.000  0.00  0.00    +0.000 A 
ATOM      5  C   UNL     1      -2.158   0.966   0.000  0.00  0.00    +0.000 C 
ATOM      6  C   UNL     1       0.540   0.553   0.000  0.00  0.00    +0.000 A 
ATOM      7  C   UNL     1       0.540   1.378   0.000  0.00  0.00    +0.000 A 
ATOM      8  O   UNL     1      -1.673   0.298   0.000  0.00  0.00    +0.000 OA
ATOM      9  O   UNL     1      -1.673   1.633   0.000  0.00  0.00    +0.000 OA
ATOM     10  F   UNL     1      -2.877   0.561   0.000  0.00  0.00    +0.000 F 
ATOM     11  F   UNL     1      -2.877   1.371   0.000  0.00  0.00    +0.000 F 
ENDROOT
BRANCH   6  19
ATOM     12  C   UNL     1       1.922  -1.169   0.000  0.00  0.00    +0.000 C 
ATOM     13  C   UNL     1       0.842  -1.954   0.000  0.00  0.00    +0.000 C 
ATOM     14  N   UNL     1       1.667  -1.954   0.000  0.00  0.00    +0.000 NA
ATOM     15  S   UNL     1       0.587  -1.169   0.000  0.00  0.00    +0.000 S 
ATOM     16  C   UNL     1       1.255  -0.684   0.000  0.00  0.00    +0.000 C 
ATOM     17  O   UNL     1       0.357  -2.621   0.000  0.00  0.00    +0.000 OA
ATOM     18  O   UNL     1       2.707  -0.914   0.000  0.00  0.00    +0.000 OA
ATOM     19  C   UNL     1       1.255   0.141   0.000  0.00  0.00    +0.000 C 
ENDBRANCH   6  19
TORSDOF 1
