REMARK  Name = BYS
REMARK  7 active torsions:
REMARK  status: ('A' for Active; 'I' for Inactive)
REMARK    1  A    between atoms: C_1  and  C_2
REMARK    2  A    between atoms: C_1  and  C_5
REMARK    3  A    between atoms: C_1  and  C_12
REMARK    4  A    between atoms: C_5  and  C_6
REMARK    5  A    between atoms: C_12  and  C_13
REMARK    6  A    between atoms: C_12  and  C_16
REMARK    7  A    between atoms: C_16  and  C_17
REMARK                            x       y       z     vdW  Elec       q    Type
REMARK                         _______ _______ _______ _____ _____    ______ ____
ROOT
ATOM      1  C   UNL     1      -0.021  -0.210   0.000  0.00  0.00    +0.000 C 
ENDROOT
BRANCH   1   2
ATOM      2  C   UNL     1      -0.021  -1.035   0.000  0.00  0.00    +0.000 C 
ATOM      3  O   UNL     1       0.694  -1.447   0.000  0.00  0.00    +0.000 OA
ATOM      4  O   UNL     1      -0.735  -1.447   0.000  0.00  0.00    +0.000 OA
ENDBRANCH   1   2
BRANCH   1   5
ATOM      5  C   UNL     1      -0.735   0.203   0.000  0.00  0.00    +0.000 C 
BRANCH   5   6
ATOM      6  C   UNL     1      -0.735   1.028   0.000  0.00  0.00    +0.000 C 
ATOM      7  O   UNL     1      -0.021   1.440   0.000  0.00  0.00    +0.000 OA
ATOM      8  O   UNL     1      -1.450   1.440   0.000  0.00  0.00    +0.000 OA
ENDBRANCH   5   6
BRANCH   5   9
ATOM      9  C   UNL     1      -1.450  -0.210   0.000  0.00  0.00    +0.000 C 
BRANCH   9  10
ATOM     10  C   UNL     1      -2.164   0.203   0.000  0.00  0.00    +0.000 A 
ATOM     11  C   UNL     1      -2.879  -0.210   0.000  0.00  0.00    +0.000 A 
ATOM     12  C   UNL     1      -3.593   0.203   0.000  0.00  0.00    +0.000 A 
ATOM     13  C   UNL     1      -3.593   1.028   0.000  0.00  0.00    +0.000 A 
ATOM     14  C   UNL     1      -2.879   1.440   0.000  0.00  0.00    +0.000 A 
ATOM     15  C   UNL     1      -2.164   1.028   0.000  0.00  0.00    +0.000 A 
ENDBRANCH   9  10
ENDBRANCH   5   9
ENDBRANCH   1   5
BRANCH   1  16
ATOM     16  C   UNL     1       0.694   0.203   0.000  0.00  0.00    +0.000 C 
BRANCH  16  17
ATOM     17  C   UNL     1       1.408  -0.210   0.000  0.00  0.00    +0.000 A 
ATOM     18  C   UNL     1       2.123   0.203   0.000  0.00  0.00    +0.000 A 
ATOM     19  C   UNL     1       2.837  -0.210   0.000  0.00  0.00    +0.000 A 
ATOM     20  O   UNL     1       3.622   0.045   0.000  0.00  0.00    +0.000 OA
ATOM     21  C   UNL     1       4.106  -0.622   0.000  0.00  0.00    +0.000 C 
ATOM     22  O   UNL     1       3.622  -1.290   0.000  0.00  0.00    +0.000 OA
ATOM     23  C   UNL     1       2.837  -1.035   0.000  0.00  0.00    +0.000 A 
ATOM     24  C   UNL     1       2.123  -1.447   0.000  0.00  0.00    +0.000 A 
ATOM     25  C   UNL     1       1.408  -1.035   0.000  0.00  0.00    +0.000 A 
ENDBRANCH  16  17
ENDBRANCH   1  16
TORSDOF 7
