REMARK  Name = BZC
REMARK  3 active torsions:
REMARK  status: ('A' for Active; 'I' for Inactive)
REMARK    1  A    between atoms: C_3  and  C_8
REMARK    2  A    between atoms: C_7  and  C_11
REMARK    3  A    between atoms: C_16  and  O_17
REMARK                            x       y       z     vdW  Elec       q    Type
REMARK                         _______ _______ _______ _____ _____    ______ ____
ROOT
ATOM      1  C   UNL     1       1.031   0.100   0.000  0.00  0.00    +0.000 A 
ATOM      2  N   UNL     1       0.247  -0.155   0.000  0.00  0.00    +0.000 NA
ATOM      3  C   UNL     1      -0.238   0.513   0.000  0.00  0.00    +0.000 A 
ATOM      4  N   UNL     1       0.247   1.180   0.000  0.00  0.00    +0.000 NA
ATOM      5  C   UNL     1       1.031   0.925   0.000  0.00  0.00    +0.000 A 
ATOM      6  C   UNL     1       1.746   1.338   0.000  0.00  0.00    +0.000 A 
ATOM      7  C   UNL     1       1.746  -0.312   0.000  0.00  0.00    +0.000 A 
ATOM      8  C   UNL     1       2.460   0.100   0.000  0.00  0.00    +0.000 A 
ATOM      9  C   UNL     1       2.460   0.925   0.000  0.00  0.00    +0.000 A 
ENDROOT
BRANCH   3  10
ATOM     10  C   UNL     1      -1.063   0.513   0.000  0.00  0.00    +0.000 A 
ATOM     11  C   UNL     1      -1.476  -0.202   0.000  0.00  0.00    +0.000 A 
ATOM     12  C   UNL     1      -1.476   1.227   0.000  0.00  0.00    +0.000 A 
ATOM     13  C   UNL     1      -2.301  -0.202   0.000  0.00  0.00    +0.000 A 
ATOM     14  C   UNL     1      -2.713   0.513   0.000  0.00  0.00    +0.000 A 
ATOM     15  C   UNL     1      -2.301   1.227   0.000  0.00  0.00    +0.000 A 
BRANCH  13  16
ATOM     16  O   UNL     1      -2.713  -0.916   0.000  0.00  0.00    +0.000 OA
ATOM     17  C   UNL     1      -2.301  -1.631   0.000  0.00  0.00    +0.000 C 
ENDBRANCH  13  16
ENDBRANCH   3  10
BRANCH   7  18
ATOM     18  C   UNL     1       1.746  -1.137   0.000  0.00  0.00    +0.000 C 
ATOM     19  N   UNL     1       2.460  -1.550   0.000  0.00  0.00    +0.000 NA
ATOM     20  O   UNL     1       1.031  -1.550   0.000  0.00  0.00    +0.000 OA
ENDBRANCH   7  18
TORSDOF 3
