REMARK  Name = BZN
REMARK  10 active torsions:
REMARK  status: ('A' for Active; 'I' for Inactive)
REMARK    1  A    between atoms: C_2  and  C_7
REMARK    2  A    between atoms: C_3  and  C_5
REMARK    3  A    between atoms: C_5  and  O_22
REMARK    4  A    between atoms: C_7  and  N_8
REMARK    5  A    between atoms: N_8  and  C_9
REMARK    6  A    between atoms: N_8  and  S_13
REMARK    7  A    between atoms: C_9  and  C_10
REMARK    8  A    between atoms: S_13  and  C_16
REMARK    9  A    between atoms: O_22  and  C_23
REMARK   10  A    between atoms: C_23  and  C_24
REMARK                            x       y       z     vdW  Elec       q    Type
REMARK                         _______ _______ _______ _____ _____    ______ ____
ROOT
ATOM      1  C   UNL     1      -0.664  -0.482   0.000  0.00  0.00    +0.000 C 
ENDROOT
BRANCH   1   3
ATOM      2  C   UNL     1       0.804  -0.405   0.000  0.00  0.00    +0.000 C 
ATOM      3  C   UNL     1       0.050  -0.070   0.000  0.00  0.00    +0.000 C 
ATOM      4  C   UNL     1       0.136   0.751   0.000  0.00  0.00    +0.000 C 
ATOM      5  C   UNL     1       0.943   0.922   0.000  0.00  0.00    +0.000 C 
ATOM      6  N   UNL     1       1.356   0.208   0.000  0.00  0.00    +0.000 NA
BRANCH   4   7
ATOM      7  C   UNL     1      -0.477   1.303   0.000  0.00  0.00    +0.000 C 
BRANCH   7   8
ATOM      8  O   UNL     1      -0.305   2.110   0.000  0.00  0.00    +0.000 OA
BRANCH   8   9
ATOM      9  C   UNL     1      -0.918   2.662   0.000  0.00  0.00    +0.000 C 
BRANCH   9  10
ATOM     10  C   UNL     1      -0.747   3.469   0.000  0.00  0.00    +0.000 A 
ATOM     11  C   UNL     1      -1.360   4.021   0.000  0.00  0.00    +0.000 A 
ATOM     12  C   UNL     1      -1.188   4.828   0.000  0.00  0.00    +0.000 A 
ATOM     13  C   UNL     1      -0.404   5.083   0.000  0.00  0.00    +0.000 A 
ATOM     14  C   UNL     1       0.209   4.531   0.000  0.00  0.00    +0.000 A 
ATOM     15  C   UNL     1       0.038   3.724   0.000  0.00  0.00    +0.000 A 
ENDBRANCH   9  10
ENDBRANCH   8   9
ENDBRANCH   7   8
ENDBRANCH   4   7
ENDBRANCH   1   3
BRANCH   1  16
ATOM     16  N   UNL     1      -0.664  -1.307   0.000  0.00  0.00    +0.000 NA
BRANCH  16  17
ATOM     17  S   UNL     1       0.050  -1.720   0.000  0.00  0.00    +0.000 S 
ATOM     18  O   UNL     1      -0.362  -2.434   0.000  0.00  0.00    +0.000 OA
ATOM     19  O   UNL     1       0.463  -1.005   0.000  0.00  0.00    +0.000 OA
BRANCH  17  20
ATOM     20  C   UNL     1       0.765  -2.132   0.000  0.00  0.00    +0.000 A 
ATOM     21  C   UNL     1       1.479  -1.720   0.000  0.00  0.00    +0.000 A 
ATOM     22  C   UNL     1       2.193  -2.132   0.000  0.00  0.00    +0.000 A 
ATOM     23  C   UNL     1       2.193  -2.957   0.000  0.00  0.00    +0.000 A 
ATOM     24  C   UNL     1       1.479  -3.370   0.000  0.00  0.00    +0.000 A 
ATOM     25  C   UNL     1       0.765  -2.957   0.000  0.00  0.00    +0.000 A 
ENDBRANCH  17  20
ENDBRANCH  16  17
BRANCH  16  26
ATOM     26  C   UNL     1      -1.379  -1.720   0.000  0.00  0.00    +0.000 C 
BRANCH  26  27
ATOM     27  C   UNL     1      -1.379  -2.545   0.000  0.00  0.00    +0.000 C 
ATOM     28  C   UNL     1      -0.664  -2.957   0.000  0.00  0.00    +0.000 C 
ATOM     29  C   UNL     1      -2.093  -2.957   0.000  0.00  0.00    +0.000 C 
ENDBRANCH  26  27
ENDBRANCH  16  26
ENDBRANCH   1  16
TORSDOF 10
