REMARK  Name = BZS
REMARK  5 active torsions:
REMARK  status: ('A' for Active; 'I' for Inactive)
REMARK    1  A    between atoms: C_1  and  C_2
REMARK    2  A    between atoms: C_2  and  C_3
REMARK    3  A    between atoms: C_3  and  C_4
REMARK    4  A    between atoms: C_3  and  C_5
REMARK    5  A    between atoms: C_5  and  C_6
REMARK                            x       y       z     vdW  Elec       q    Type
REMARK                         _______ _______ _______ _____ _____    ______ ____
ROOT
ATOM      1  C   UNL     1      -0.555  -0.341   0.000  0.00  0.00    +0.000 C 
ENDROOT
BRANCH   1   2
ATOM      2  C   UNL     1      -0.555   0.484   0.000  0.00  0.00    +0.000 C 
ATOM      3  O   UNL     1       0.159   0.897   0.000  0.00  0.00    +0.000 OA
ATOM      4  O   UNL     1      -1.270   0.897   0.000  0.00  0.00    +0.000 OA
ENDBRANCH   1   2
BRANCH   1   5
ATOM      5  C   UNL     1      -1.270  -0.753   0.000  0.00  0.00    +0.000 C 
BRANCH   5   6
ATOM      6  C   UNL     1      -1.984  -0.341   0.000  0.00  0.00    +0.000 C 
ATOM      7  O   UNL     1      -2.699  -0.753   0.000  0.00  0.00    +0.000 OA
ATOM      8  O   UNL     1      -1.984   0.484   0.000  0.00  0.00    +0.000 OA
ENDBRANCH   5   6
ENDBRANCH   1   5
BRANCH   1   9
ATOM      9  C   UNL     1       0.159  -0.753   0.000  0.00  0.00    +0.000 C 
BRANCH   9  10
ATOM     10  C   UNL     1       0.874  -0.341   0.000  0.00  0.00    +0.000 A 
ATOM     11  C   UNL     1       0.874   0.484   0.000  0.00  0.00    +0.000 A 
ATOM     12  C   UNL     1       1.588  -0.753   0.000  0.00  0.00    +0.000 A 
ATOM     13  C   UNL     1       1.588   0.897   0.000  0.00  0.00    +0.000 A 
ATOM     14  C   UNL     1       2.303  -0.341   0.000  0.00  0.00    +0.000 A 
ATOM     15  C   UNL     1       2.303   0.484   0.000  0.00  0.00    +0.000 A 
ENDBRANCH   9  10
ENDBRANCH   1   9
TORSDOF 5
