REMARK  Name = C00
REMARK  2 active torsions:
REMARK  status: ('A' for Active; 'I' for Inactive)
REMARK    1  A    between atoms: C_7  and  N_17
REMARK    2  A    between atoms: C_9  and  C_21
REMARK                            x       y       z     vdW  Elec       q    Type
REMARK                         _______ _______ _______ _____ _____    ______ ____
ROOT
ATOM      1  C   UNL     1      -0.269   0.502   0.000  0.00  0.00    +0.000 A 
ATOM      2  C   UNL     1      -0.682  -0.212   0.000  0.00  0.00    +0.000 A 
ATOM      3  C   UNL     1      -1.507  -0.212   0.000  0.00  0.00    +0.000 A 
ATOM      4  C   UNL     1      -1.919   0.502   0.000  0.00  0.00    +0.000 A 
ATOM      5  C   UNL     1      -1.507   1.217   0.000  0.00  0.00    +0.000 A 
ATOM      6  C   UNL     1      -0.682   1.217   0.000  0.00  0.00    +0.000 A 
ATOM      7  O   UNL     1      -0.269   1.931   0.000  0.00  0.00    +0.000 OA
ENDROOT
BRANCH   1  17
ATOM      8  C   UNL     1       3.254   0.915   0.000  0.00  0.00    +0.000 A 
ATOM      9  C   UNL     1       3.254   0.090   0.000  0.00  0.00    +0.000 A 
ATOM     10  C   UNL     1       1.825   0.090   0.000  0.00  0.00    +0.000 A 
ATOM     11  C   UNL     1       1.825   0.915   0.000  0.00  0.00    +0.000 A 
ATOM     12  C   UNL     1       2.540   2.152   0.000  0.00  0.00    +0.000 C 
ATOM     13  C   UNL     1       1.040   1.170   0.000  0.00  0.00    +0.000 C 
ATOM     14  O   UNL     1       0.786  -0.950   0.000  0.00  0.00    +0.000 OA
ATOM     15  C   UNL     1       1.040  -0.165   0.000  0.00  0.00    +0.000 C 
ATOM     16  C   UNL     1       2.540  -0.323   0.000  0.00  0.00    +0.000 A 
ATOM     17  N   UNL     1       0.556   0.502   0.000  0.00  0.00    +0.000 N 
ATOM     18  O   UNL     1       0.786   1.954   0.000  0.00  0.00    +0.000 OA
ATOM     19  C   UNL     1       2.540   1.327   0.000  0.00  0.00    +0.000 A 
ENDBRANCH   1  17
BRANCH   3  21
ATOM     20  C   UNL     1      -3.157  -1.641   0.000  0.00  0.00    +0.000 A 
ATOM     21  C   UNL     1      -1.919  -0.926   0.000  0.00  0.00    +0.000 A 
ATOM     22  C   UNL     1      -2.744  -0.926   0.000  0.00  0.00    +0.000 A 
ATOM     23  C   UNL     1      -1.507  -1.641   0.000  0.00  0.00    +0.000 A 
ATOM     24  C   UNL     1      -1.919  -2.356   0.000  0.00  0.00    +0.000 A 
ATOM     25  C   UNL     1      -2.744  -2.356   0.000  0.00  0.00    +0.000 A 
ENDBRANCH   3  21
TORSDOF 2
