REMARK  Name = C02
REMARK  6 active torsions:
REMARK  status: ('A' for Active; 'I' for Inactive)
REMARK    1  A    between atoms: C_2  and  C_4
REMARK    2  A    between atoms: C_7  and  C_10
REMARK    3  A    between atoms: C_10  and  C_11
REMARK    4  A    between atoms: C_19  and  N_21
REMARK    5  A    between atoms: N_21  and  S_22
REMARK    6  A    between atoms: S_22  and  C_23
REMARK                            x       y       z     vdW  Elec       q    Type
REMARK                         _______ _______ _______ _____ _____    ______ ____
ROOT
ATOM      1  C   UNL     1      -0.622   0.104   0.000  0.00  0.00    +0.000 A 
ATOM      2  N   UNL     1      -0.137  -0.564   0.000  0.00  0.00    +0.000 NA
ATOM      3  C   UNL     1       0.647  -0.309   0.000  0.00  0.00    +0.000 A 
ATOM      4  C   UNL     1       0.647   0.516   0.000  0.00  0.00    +0.000 A 
ATOM      5  N   UNL     1      -0.137   0.771   0.000  0.00  0.00    +0.000 N 
ATOM      6  C   UNL     1      -0.392   1.556   0.000  0.00  0.00    +0.000 C 
ATOM      7  C   UNL     1       1.362   0.929   0.000  0.00  0.00    +0.000 A 
ATOM      8  C   UNL     1       2.076   0.516   0.000  0.00  0.00    +0.000 A 
ATOM      9  C   UNL     1       2.076  -0.309   0.000  0.00  0.00    +0.000 A 
ATOM     10  C   UNL     1       1.362  -0.721   0.000  0.00  0.00    +0.000 A 
ENDROOT
BRANCH   1  11
ATOM     11  C   UNL     1      -1.447   0.104   0.000  0.00  0.00    +0.000 C 
BRANCH  11  15
ATOM     12  C   UNL     1      -2.685   2.247   0.000  0.00  0.00    +0.000 A 
ATOM     13  C   UNL     1      -1.860   2.247   0.000  0.00  0.00    +0.000 A 
ATOM     14  C   UNL     1      -1.447   1.533   0.000  0.00  0.00    +0.000 A 
ATOM     15  C   UNL     1      -1.860   0.818   0.000  0.00  0.00    +0.000 A 
ATOM     16  C   UNL     1      -2.685   0.818   0.000  0.00  0.00    +0.000 A 
ATOM     17  C   UNL     1      -3.097   1.533   0.000  0.00  0.00    +0.000 A 
BRANCH  12  19
ATOM     18  N   UNL     1      -3.922   2.962   0.000  0.00  0.00    +0.000 NA
ATOM     19  C   UNL     1      -3.097   2.962   0.000  0.00  0.00    +0.000 C 
ATOM     20  N   UNL     1      -2.685   3.676   0.000  0.00  0.00    +0.000 NA
ENDBRANCH  12  19
ENDBRANCH  11  15
ENDBRANCH   1  11
BRANCH   9  21
ATOM     21  N   UNL     1       2.791  -0.721   0.000  0.00  0.00    +0.000 NA
BRANCH  21  22
ATOM     22  S   UNL     1       2.791  -1.546   0.000  0.00  0.00    +0.000 S 
ATOM     23  O   UNL     1       1.966  -1.546   0.000  0.00  0.00    +0.000 OA
ATOM     24  O   UNL     1       3.616  -1.546   0.000  0.00  0.00    +0.000 OA
BRANCH  22  25
ATOM     25  C   UNL     1       2.791  -2.371   0.000  0.00  0.00    +0.000 A 
ATOM     26  C   UNL     1       3.505  -2.784   0.000  0.00  0.00    +0.000 A 
ATOM     27  C   UNL     1       3.505  -3.609   0.000  0.00  0.00    +0.000 A 
ATOM     28  C   UNL     1       2.791  -4.021   0.000  0.00  0.00    +0.000 A 
ATOM     29  C   UNL     1       2.076  -3.609   0.000  0.00  0.00    +0.000 A 
ATOM     30  C   UNL     1       2.076  -2.784   0.000  0.00  0.00    +0.000 A 
ENDBRANCH  22  25
ENDBRANCH  21  22
ENDBRANCH   9  21
TORSDOF 6
