REMARK  Name = C08
REMARK  12 active torsions:
REMARK  status: ('A' for Active; 'I' for Inactive)
REMARK    1  A    between atoms: C_5  and  C_6
REMARK    2  A    between atoms: C_6  and  C_7
REMARK    3  A    between atoms: C_7  and  C_8
REMARK    4  A    between atoms: C_8  and  C_9
REMARK    5  A    between atoms: C_9  and  C_10
REMARK    6  A    between atoms: C_10  and  C_11
REMARK    7  A    between atoms: C_11  and  C_12
REMARK    8  A    between atoms: C_18  and  C_19
REMARK    9  A    between atoms: C_19  and  C_20
REMARK   10  A    between atoms: C_20  and  C_21
REMARK   11  A    between atoms: C_21  and  C_22
REMARK   12  A    between atoms: C_22  and  C_23
REMARK                            x       y       z     vdW  Elec       q    Type
REMARK                         _______ _______ _______ _____ _____    ______ ____
ROOT
ATOM      1  C   UNL     1       0.375   1.739   0.000  0.00  0.00    +0.000 C 
ATOM      2  C   UNL     1       0.391   0.914   0.000  0.00  0.00    +0.000 A 
ATOM      3  C   UNL     1       1.014   0.374   0.000  0.00  0.00    +0.000 A 
ATOM      4  C   UNL     1       0.694  -0.386   0.000  0.00  0.00    +0.000 A 
ATOM      5  C   UNL     1      -0.129  -0.315   0.000  0.00  0.00    +0.000 A 
ATOM      6  N   UNL     1      -0.316   0.488   0.000  0.00  0.00    +0.000 N 
ATOM      7  B   UNL     1      -1.038   0.887   0.000  0.00  0.00    +0.000 B 
ATOM      8  F   UNL     1      -1.305   0.106   0.000  0.00  0.00    +0.000 F 
ATOM      9  N   UNL     1      -1.054   1.712   0.000  0.00  0.00    +0.000 N 
ATOM     10  C   UNL     1      -1.677   2.252   0.000  0.00  0.00    +0.000 C 
ATOM     11  C   UNL     1      -1.357   3.012   0.000  0.00  0.00    +0.000 C 
ATOM     12  C   UNL     1      -0.534   2.941   0.000  0.00  0.00    +0.000 C 
ATOM     13  C   UNL     1      -0.347   2.138   0.000  0.00  0.00    +0.000 C 
ATOM     14  F   UNL     1      -1.853   1.014   0.000  0.00  0.00    +0.000 F 
ENDROOT
BRANCH   5  15
ATOM     15  C   UNL     1      -0.668  -0.939   0.000  0.00  0.00    +0.000 C 
BRANCH  15  16
ATOM     16  C   UNL     1      -0.399  -1.719   0.000  0.00  0.00    +0.000 C 
BRANCH  16  17
ATOM     17  C   UNL     1       0.412  -1.875   0.000  0.00  0.00    +0.000 C 
BRANCH  17  18
ATOM     18  C   UNL     1       0.952  -1.251   0.000  0.00  0.00    +0.000 C 
BRANCH  18  19
ATOM     19  C   UNL     1       1.762  -1.407   0.000  0.00  0.00    +0.000 C 
BRANCH  19  20
ATOM     20  C   UNL     1       2.302  -0.783   0.000  0.00  0.00    +0.000 C 
BRANCH  20  21
ATOM     21  C   UNL     1       3.112  -0.939   0.000  0.00  0.00    +0.000 C 
ATOM     22  C   UNL     1       3.652  -0.315   0.000  0.00  0.00    +0.000 C 
ENDBRANCH  20  21
ENDBRANCH  19  20
ENDBRANCH  18  19
ENDBRANCH  17  18
ENDBRANCH  16  17
ENDBRANCH  15  16
ENDBRANCH   5  15
BRANCH  10  23
ATOM     23  C   UNL     1      -2.481   2.065   0.000  0.00  0.00    +0.000 C 
BRANCH  23  24
ATOM     24  C   UNL     1      -2.721   1.275   0.000  0.00  0.00    +0.000 C 
BRANCH  24  25
ATOM     25  C   UNL     1      -3.524   1.088   0.000  0.00  0.00    +0.000 C 
BRANCH  25  26
ATOM     26  C   UNL     1      -3.764   0.299   0.000  0.00  0.00    +0.000 C 
BRANCH  26  27
ATOM     27  C   UNL     1      -4.567   0.112   0.000  0.00  0.00    +0.000 C 
ATOM     28  O   UNL     1      -4.807  -0.678   0.000  0.00  0.00    +0.000 OA
ATOM     29  O   UNL     1      -5.131   0.714   0.000  0.00  0.00    +0.000 OA
ENDBRANCH  26  27
ENDBRANCH  25  26
ENDBRANCH  24  25
ENDBRANCH  23  24
ENDBRANCH  10  23
TORSDOF 12
