REMARK  Name = C0E
REMARK  4 active torsions:
REMARK  status: ('A' for Active; 'I' for Inactive)
REMARK    1  A    between atoms: C_2  and  C_4
REMARK    2  A    between atoms: C_6  and  C_8
REMARK    3  A    between atoms: C_9  and  C_10
REMARK    4  A    between atoms: C_10  and  C_12
REMARK                            x       y       z     vdW  Elec       q    Type
REMARK                         _______ _______ _______ _____ _____    ______ ____
ROOT
ATOM      1  C   UNL     1       0.910   0.159   0.000  0.00  0.00    +0.000 C 
ATOM      2  C   UNL     1       0.910   0.984   0.000  0.00  0.00    +0.000 C 
ENDROOT
BRANCH   1   5
ATOM      3  C   UNL     1       1.625  -1.079   0.000  0.00  0.00    +0.000 C 
ATOM      4  O   UNL     1       2.339  -1.492   0.000  0.00  0.00    +0.000 OA
ATOM      5  C   UNL     1       1.625  -0.254   0.000  0.00  0.00    +0.000 C 
ATOM      6  F   UNL     1       2.339   0.159   0.000  0.00  0.00    +0.000 F 
BRANCH   3   8
ATOM      7  O   UNL     1       0.910  -2.317   0.000  0.00  0.00    +0.000 OA
ATOM      8  C   UNL     1       0.910  -1.492   0.000  0.00  0.00    +0.000 C 
ATOM      9  O   UNL     1       0.196  -1.079   0.000  0.00  0.00    +0.000 OA
ENDBRANCH   3   8
ENDBRANCH   1   5
BRANCH   2  10
ATOM     10  C   UNL     1       0.196   1.396   0.000  0.00  0.00    +0.000 C 
ATOM     11  O   UNL     1       0.196   2.221   0.000  0.00  0.00    +0.000 OA
BRANCH  10  12
ATOM     12  C   UNL     1      -0.518   0.984   0.000  0.00  0.00    +0.000 A 
ATOM     13  C   UNL     1      -0.518   0.159   0.000  0.00  0.00    +0.000 A 
ATOM     14  C   UNL     1      -1.233   1.396   0.000  0.00  0.00    +0.000 A 
ATOM     15  C   UNL     1      -1.947   0.984   0.000  0.00  0.00    +0.000 A 
ATOM     16  C   UNL     1      -1.947   0.159   0.000  0.00  0.00    +0.000 A 
ATOM     17  F   UNL     1      -2.662  -0.254   0.000  0.00  0.00    +0.000 F 
ATOM     18  C   UNL     1      -1.233  -0.254   0.000  0.00  0.00    +0.000 A 
ENDBRANCH  10  12
ENDBRANCH   2  10
TORSDOF 4
