REMARK  Name = C0R
REMARK  2 active torsions:
REMARK  status: ('A' for Active; 'I' for Inactive)
REMARK    1  A    between atoms: C_17  and  C_20
REMARK    2  A    between atoms: C_20  and  C_21
REMARK                            x       y       z     vdW  Elec       q    Type
REMARK                         _______ _______ _______ _____ _____    ______ ____
ROOT
ATOM      1  C   UNL     1       1.976  -0.468   0.000  0.00  0.00    +0.000 C 
ATOM      2  C   UNL     1       2.788  -0.323   0.000  0.00  0.00    +0.000 C 
ATOM      3  C   UNL     1       3.069   0.454   0.000  0.00  0.00    +0.000 C 
ATOM      4  C   UNL     1       2.537   1.084   0.000  0.00  0.00    +0.000 C 
ATOM      5  C   UNL     1       1.725   0.939   0.000  0.00  0.00    +0.000 C 
ATOM      6  C   UNL     1       1.193   1.570   0.000  0.00  0.00    +0.000 C 
ATOM      7  C   UNL     1       0.381   1.424   0.000  0.00  0.00    +0.000 C 
ATOM      8  C   UNL     1       0.101   0.648   0.000  0.00  0.00    +0.000 C 
ATOM      9  C   UNL     1       0.632   0.018   0.000  0.00  0.00    +0.000 C 
ATOM     10  C   UNL     1       1.444   0.163   0.000  0.00  0.00    +0.000 C 
ATOM     11  C   UNL     1       0.352  -0.758   0.000  0.00  0.00    +0.000 C 
ATOM     12  C   UNL     1      -0.460  -0.903   0.000  0.00  0.00    +0.000 C 
ATOM     13  C   UNL     1      -0.992  -0.273   0.000  0.00  0.00    +0.000 C 
ATOM     14  C   UNL     1      -0.712   0.503   0.000  0.00  0.00    +0.000 C 
ATOM     15  C   UNL     1      -1.363   1.010   0.000  0.00  0.00    +0.000 C 
ATOM     16  C   UNL     1      -2.046   0.547   0.000  0.00  0.00    +0.000 C 
ATOM     17  C   UNL     1      -1.816  -0.246   0.000  0.00  0.00    +0.000 C 
ATOM     18  C   UNL     1      -1.352  -1.015   0.000  0.00  0.00    +0.000 C 
ATOM     19  C   UNL     1       1.164  -0.613   0.000  0.00  0.00    +0.000 C 
ATOM     20  O   UNL     1       3.881   0.599   0.000  0.00  0.00    +0.000 OA
ATOM     21  O   UNL     1       0.884  -1.389   0.000  0.00  0.00    +0.000 OA
ENDROOT
BRANCH  17  22
ATOM     22  C   UNL     1      -2.323  -0.897   0.000  0.00  0.00    +0.000 C 
ATOM     23  O   UNL     1      -2.012  -1.661   0.000  0.00  0.00    +0.000 OA
BRANCH  22  24
ATOM     24  C   UNL     1      -3.140  -0.784   0.000  0.00  0.00    +0.000 C 
ATOM     25  O   UNL     1      -3.646  -1.436   0.000  0.00  0.00    +0.000 OA
ENDBRANCH  22  24
ENDBRANCH  17  22
TORSDOF 2
