REMARK  Name = C16
REMARK  2 active torsions:
REMARK  status: ('A' for Active; 'I' for Inactive)
REMARK    1  A    between atoms: C_2  and  C_3
REMARK    2  A    between atoms: C_8  and  N_9
REMARK                            x       y       z     vdW  Elec       q    Type
REMARK                         _______ _______ _______ _____ _____    ______ ____
ROOT
ATOM      1  N   UNL     1       0.070   0.272   0.000  0.00  0.00    +0.000 N 
ATOM      2  C   UNL     1       0.555   0.940   0.000  0.00  0.00    +0.000 C 
ATOM      3  O   UNL     1       0.300   1.724   0.000  0.00  0.00    +0.000 OA
ATOM      4  C   UNL     1       1.340   0.685   0.000  0.00  0.00    +0.000 A 
ATOM      5  C   UNL     1       2.054   1.097   0.000  0.00  0.00    +0.000 A 
ATOM      6  C   UNL     1       2.769   0.685   0.000  0.00  0.00    +0.000 A 
ATOM      7  C   UNL     1       0.555  -0.395   0.000  0.00  0.00    +0.000 C 
ATOM      8  O   UNL     1       0.300  -1.180   0.000  0.00  0.00    +0.000 OA
ATOM      9  C   UNL     1       1.340  -0.140   0.000  0.00  0.00    +0.000 A 
ATOM     10  C   UNL     1       2.054  -0.553   0.000  0.00  0.00    +0.000 A 
ATOM     11  C   UNL     1       2.054  -1.378   0.000  0.00  0.00    +0.000 C 
ATOM     12  C   UNL     1       2.769  -0.140   0.000  0.00  0.00    +0.000 A 
ENDROOT
BRANCH   1  18
ATOM     13  C   UNL     1      -2.405   0.272   0.000  0.00  0.00    +0.000 A 
ATOM     14  C   UNL     1      -1.992   0.987   0.000  0.00  0.00    +0.000 A 
ATOM     15  C   UNL     1      -1.167   0.987   0.000  0.00  0.00    +0.000 A 
ATOM     16  C   UNL     1      -1.992  -0.442   0.000  0.00  0.00    +0.000 A 
ATOM     17  C   UNL     1      -1.167  -0.442   0.000  0.00  0.00    +0.000 A 
ATOM     18  C   UNL     1      -0.755   0.272   0.000  0.00  0.00    +0.000 A 
BRANCH  13  20
ATOM     19  N   UNL     1      -4.055   0.272   0.000  0.00  0.00    +0.000 NA
ATOM     20  C   UNL     1      -3.230   0.272   0.000  0.00  0.00    +0.000 C 
ENDBRANCH  13  20
ENDBRANCH   1  18
TORSDOF 2
