REMARK  Name = C17
REMARK  4 active torsions:
REMARK  status: ('A' for Active; 'I' for Inactive)
REMARK    1  A    between atoms: C_6  and  C_7
REMARK    2  A    between atoms: C_11  and  O_14
REMARK    3  A    between atoms: O_14  and  C_15
REMARK    4  A    between atoms: C_15  and  C_16
REMARK                            x       y       z     vdW  Elec       q    Type
REMARK                         _______ _______ _______ _____ _____    ______ ____
ROOT
ATOM      1  O   UNL     1      -3.893  -0.359   0.000  0.00  0.00    +0.000 OA
ATOM      2  C   UNL     1      -3.178   0.054   0.000  0.00  0.00    +0.000 A 
ATOM      3  O   UNL     1      -2.464  -0.359   0.000  0.00  0.00    +0.000 OA
ATOM      4  C   UNL     1      -1.750   0.054   0.000  0.00  0.00    +0.000 A 
ATOM      5  C   UNL     1      -1.750   0.879   0.000  0.00  0.00    +0.000 A 
ATOM      6  C   UNL     1      -2.464   1.291   0.000  0.00  0.00    +0.000 A 
ATOM      7  C   UNL     1      -3.178   0.879   0.000  0.00  0.00    +0.000 A 
ATOM      8  C   UNL     1      -1.035  -0.359   0.000  0.00  0.00    +0.000 A 
ATOM      9  C   UNL     1      -0.321   0.054   0.000  0.00  0.00    +0.000 A 
ATOM     10  C   UNL     1      -0.321   0.879   0.000  0.00  0.00    +0.000 A 
ATOM     11  C   UNL     1      -1.035   1.291   0.000  0.00  0.00    +0.000 A 
ENDROOT
BRANCH   6  12
ATOM     12  C   UNL     1      -2.464   2.116   0.000  0.00  0.00    +0.000 C 
ATOM     13  O   UNL     1      -3.178   2.529   0.000  0.00  0.00    +0.000 OA
ENDBRANCH   6  12
BRANCH   9  14
ATOM     14  O   UNL     1       0.394  -0.359   0.000  0.00  0.00    +0.000 OA
BRANCH  14  15
ATOM     15  C   UNL     1       1.108   0.054   0.000  0.00  0.00    +0.000 C 
BRANCH  15  16
ATOM     16  C   UNL     1       1.823  -0.359   0.000  0.00  0.00    +0.000 A 
ATOM     17  C   UNL     1       2.537   0.054   0.000  0.00  0.00    +0.000 A 
ATOM     18  C   UNL     1       3.252  -0.359   0.000  0.00  0.00    +0.000 A 
ATOM     19  C   UNL     1       3.252  -1.184   0.000  0.00  0.00    +0.000 A 
ATOM     20  C   UNL     1       2.537  -1.596   0.000  0.00  0.00    +0.000 A 
ATOM     21 CL   UNL     1       2.537  -2.421   0.000  0.00  0.00    +0.000 Cl
ATOM     22  C   UNL     1       1.823  -1.184   0.000  0.00  0.00    +0.000 A 
ENDBRANCH  15  16
ENDBRANCH  14  15
ENDBRANCH   9  14
TORSDOF 4
