REMARK  Name = C18
REMARK  5 active torsions:
REMARK  status: ('A' for Active; 'I' for Inactive)
REMARK    1  A    between atoms: C_6  and  C_8
REMARK    2  A    between atoms: N_7  and  C_8
REMARK    3  A    between atoms: C_12  and  O_15
REMARK    4  A    between atoms: O_15  and  C_16
REMARK    5  A    between atoms: C_16  and  C_17
REMARK                            x       y       z     vdW  Elec       q    Type
REMARK                         _______ _______ _______ _____ _____    ______ ____
ROOT
ATOM      1  O   UNL     1      -3.013   1.312   0.000  0.00  0.00    +0.000 OA
ATOM      2  C   UNL     1      -2.298   0.899   0.000  0.00  0.00    +0.000 A 
ATOM      3  O   UNL     1      -1.584   1.312   0.000  0.00  0.00    +0.000 OA
ATOM      4  C   UNL     1      -0.870   0.899   0.000  0.00  0.00    +0.000 A 
ATOM      5  C   UNL     1      -0.870   0.074   0.000  0.00  0.00    +0.000 A 
ATOM      6  C   UNL     1      -1.584  -0.338   0.000  0.00  0.00    +0.000 A 
ATOM      7  C   UNL     1      -2.298   0.074   0.000  0.00  0.00    +0.000 A 
ATOM      8  C   UNL     1      -0.155   1.312   0.000  0.00  0.00    +0.000 A 
ATOM      9  C   UNL     1       0.559   0.899   0.000  0.00  0.00    +0.000 A 
ATOM     10  C   UNL     1       0.559   0.074   0.000  0.00  0.00    +0.000 A 
ATOM     11  C   UNL     1      -0.155  -0.338   0.000  0.00  0.00    +0.000 A 
ENDROOT
BRANCH   6  12
ATOM     12  C   UNL     1      -1.584  -1.163   0.000  0.00  0.00    +0.000 C 
BRANCH  12  13
ATOM     13  N   UNL     1      -2.298  -1.575   0.000  0.00  0.00    +0.000 NA
ATOM     14  C   UNL     1      -2.298  -2.401   0.000  0.00  0.00    +0.000 C 
ENDBRANCH  12  13
ENDBRANCH   6  12
BRANCH   9  15
ATOM     15  O   UNL     1       1.274   1.312   0.000  0.00  0.00    +0.000 OA
BRANCH  15  16
ATOM     16  C   UNL     1       1.988   0.899   0.000  0.00  0.00    +0.000 C 
BRANCH  16  17
ATOM     17  C   UNL     1       2.703   1.312   0.000  0.00  0.00    +0.000 A 
ATOM     18  C   UNL     1       3.417   0.899   0.000  0.00  0.00    +0.000 A 
ATOM     19  C   UNL     1       4.132   1.312   0.000  0.00  0.00    +0.000 A 
ATOM     20  C   UNL     1       4.132   2.137   0.000  0.00  0.00    +0.000 A 
ATOM     21  C   UNL     1       3.417   2.550   0.000  0.00  0.00    +0.000 A 
ATOM     22 CL   UNL     1       3.417   3.374   0.000  0.00  0.00    +0.000 Cl
ATOM     23  C   UNL     1       2.703   2.137   0.000  0.00  0.00    +0.000 A 
ENDBRANCH  16  17
ENDBRANCH  15  16
ENDBRANCH   9  15
TORSDOF 5
