REMARK  Name = C19
REMARK  2 active torsions:
REMARK  status: ('A' for Active; 'I' for Inactive)
REMARK    1  A    between atoms: C_8  and  C_12
REMARK    2  A    between atoms: N_14  and  C_20
REMARK                            x       y       z     vdW  Elec       q    Type
REMARK                         _______ _______ _______ _____ _____    ______ ____
ROOT
ATOM      1  C   UNL     1       0.684  -0.679   0.000  0.00  0.00    +0.000 A 
ATOM      2  C   UNL     1      -0.030  -0.267   0.000  0.00  0.00    +0.000 A 
ATOM      3  N   UNL     1      -0.745  -0.679   0.000  0.00  0.00    +0.000 N 
ATOM      4  C   UNL     1      -0.745  -1.504   0.000  0.00  0.00    +0.000 A 
ATOM      5  C   UNL     1      -0.030  -1.917   0.000  0.00  0.00    +0.000 A 
ATOM      6  C   UNL     1       0.684  -1.504   0.000  0.00  0.00    +0.000 A 
ATOM      7  C   UNL     1       1.399  -1.917   0.000  0.00  0.00    +0.000 C 
ATOM      8  O   UNL     1      -0.030   0.558   0.000  0.00  0.00    +0.000 OA
ENDROOT
BRANCH   1  16
ATOM      9  N   UNL     1       4.256  -0.267   0.000  0.00  0.00    +0.000 NA
ATOM     10  C   UNL     1       3.542  -0.679   0.000  0.00  0.00    +0.000 A 
ATOM     11  C   UNL     1       2.828  -0.267   0.000  0.00  0.00    +0.000 A 
ATOM     12  C   UNL     1       2.828   0.558   0.000  0.00  0.00    +0.000 A 
ATOM     13  N   UNL     1       3.542   0.971   0.000  0.00  0.00    +0.000 NA
ATOM     14  C   UNL     1       4.256   0.558   0.000  0.00  0.00    +0.000 A 
ATOM     15  C   UNL     1       2.113  -0.679   0.000  0.00  0.00    +0.000 A 
ATOM     16  C   UNL     1       1.399  -0.267   0.000  0.00  0.00    +0.000 A 
ATOM     17  C   UNL     1       1.399   0.558   0.000  0.00  0.00    +0.000 A 
ATOM     18  C   UNL     1       2.113   0.971   0.000  0.00  0.00    +0.000 A 
ATOM     19  N   UNL     1       4.971   0.971   0.000  0.00  0.00    +0.000 NA
ENDBRANCH   1  16
BRANCH   3  20
ATOM     20  C   UNL     1      -1.459  -0.267   0.000  0.00  0.00    +0.000 A 
ATOM     21  C   UNL     1      -1.459   0.558   0.000  0.00  0.00    +0.000 A 
ATOM     22  C   UNL     1      -2.174   0.971   0.000  0.00  0.00    +0.000 A 
ATOM     23  C   UNL     1      -2.888   0.558   0.000  0.00  0.00    +0.000 A 
ATOM     24  C   UNL     1      -2.888  -0.267   0.000  0.00  0.00    +0.000 A 
ATOM     25  C   UNL     1      -2.174  -0.679   0.000  0.00  0.00    +0.000 A 
ATOM     26  C   UNL     1      -3.673   0.813   0.000  0.00  0.00    +0.000 C 
ATOM     27  C   UNL     1      -4.158   0.146   0.000  0.00  0.00    +0.000 C 
ATOM     28  N   UNL     1      -3.673  -0.522   0.000  0.00  0.00    +0.000 NA
ATOM     29  C   UNL     1      -4.387   1.226   0.000  0.00  0.00    +0.000 C 
ATOM     30  C   UNL     1      -3.337   1.567   0.000  0.00  0.00    +0.000 C 
ENDBRANCH   3  20
TORSDOF 2
