REMARK  Name = C1E
REMARK  4 active torsions:
REMARK  status: ('A' for Active; 'I' for Inactive)
REMARK    1  A    between atoms: C_2  and  C_3
REMARK    2  A    between atoms: C_2  and  C_12
REMARK    3  A    between atoms: C_4  and  C_5
REMARK    4  A    between atoms: C_7  and  C_9
REMARK                            x       y       z     vdW  Elec       q    Type
REMARK                         _______ _______ _______ _____ _____    ______ ____
ROOT
ATOM      1  C   UNL     1       1.638   0.130   0.000  0.00  0.00    +0.000 C 
ATOM      2  C   UNL     1       0.924   0.543   0.000  0.00  0.00    +0.000 C 
ENDROOT
BRANCH   2   3
ATOM      3  C   UNL     1       0.924   1.368   0.000  0.00  0.00    +0.000 C 
ATOM      4 CL   UNL     1       1.638   1.780   0.000  0.00  0.00    +0.000 Cl
ATOM      5  C   UNL     1       0.209   1.780   0.000  0.00  0.00    +0.000 C 
ATOM      6  O   UNL     1       0.209   2.605   0.000  0.00  0.00    +0.000 OA
BRANCH   5   7
ATOM      7  C   UNL     1      -0.505   1.368   0.000  0.00  0.00    +0.000 C 
ATOM      8  O   UNL     1      -1.220   1.780   0.000  0.00  0.00    +0.000 OA
ATOM      9  O   UNL     1      -0.505   0.543   0.000  0.00  0.00    +0.000 OA
ENDBRANCH   5   7
ENDBRANCH   2   3
BRANCH   1  11
ATOM     10  O   UNL     1       2.353  -1.107   0.000  0.00  0.00    +0.000 OA
ATOM     11  C   UNL     1       1.638  -0.695   0.000  0.00  0.00    +0.000 C 
BRANCH  11  12
ATOM     12  C   UNL     1       0.924  -1.107   0.000  0.00  0.00    +0.000 A 
ATOM     13  C   UNL     1       0.924  -1.932   0.000  0.00  0.00    +0.000 A 
ATOM     14  C   UNL     1       0.209  -2.345   0.000  0.00  0.00    +0.000 A 
ATOM     15  C   UNL     1      -0.505  -1.932   0.000  0.00  0.00    +0.000 A 
ATOM     16  C   UNL     1      -0.505  -1.107   0.000  0.00  0.00    +0.000 A 
ATOM     17  C   UNL     1       0.209  -0.695   0.000  0.00  0.00    +0.000 A 
ENDBRANCH  11  12
ENDBRANCH   1  11
TORSDOF 4
