REMARK  Name = C26
REMARK  7 active torsions:
REMARK  status: ('A' for Active; 'I' for Inactive)
REMARK    1  A    between atoms: S_2  and  O_5
REMARK    2  A    between atoms: O_5  and  C_6
REMARK    3  A    between atoms: C_6  and  C_7
REMARK    4  A    between atoms: C_7  and  C_8
REMARK    5  A    between atoms: C_7  and  C_10
REMARK    6  A    between atoms: C_10  and  C_11
REMARK    7  A    between atoms: C_11  and  C_12
REMARK                            x       y       z     vdW  Elec       q    Type
REMARK                         _______ _______ _______ _____ _____    ______ ____
ROOT
ATOM      1  C   UNL     1      -0.432  -0.038   0.000  0.00  0.00    +0.000 C 
ENDROOT
BRANCH   1   2
ATOM      2  C   UNL     1      -0.432   0.787   0.000  0.00  0.00    +0.000 C 
ATOM      3  C   UNL     1       0.282   1.200   0.000  0.00  0.00    +0.000 C 
ENDBRANCH   1   2
BRANCH   1   4
ATOM      4  C   UNL     1      -1.147  -0.450   0.000  0.00  0.00    +0.000 C 
BRANCH   4   5
ATOM      5  O   UNL     1      -1.861  -0.038   0.000  0.00  0.00    +0.000 OA
BRANCH   5   7
ATOM      6  O   UNL     1      -3.290  -0.863   0.000  0.00  0.00    +0.000 OA
ATOM      7  S   UNL     1      -2.576  -0.450   0.000  0.00  0.00    +0.000 S 
ATOM      8  O   UNL     1      -2.163  -1.165   0.000  0.00  0.00    +0.000 OA
ATOM      9  O   UNL     1      -2.988   0.264   0.000  0.00  0.00    +0.000 OA
ENDBRANCH   5   7
ENDBRANCH   4   5
ENDBRANCH   1   4
BRANCH   1  10
ATOM     10  C   UNL     1       0.282  -0.450   0.000  0.00  0.00    +0.000 C 
BRANCH  10  11
ATOM     11  C   UNL     1       0.997  -0.038   0.000  0.00  0.00    +0.000 C 
BRANCH  11  12
ATOM     12  C   UNL     1       1.712  -0.450   0.000  0.00  0.00    +0.000 C 
ATOM     13  C   UNL     1       2.426  -0.038   0.000  0.00  0.00    +0.000 C 
ENDBRANCH  11  12
ENDBRANCH  10  11
ENDBRANCH   1  10
TORSDOF 7
