REMARK  Name = C27
REMARK  5 active torsions:
REMARK  status: ('A' for Active; 'I' for Inactive)
REMARK    1  A    between atoms: O_2  and  C_3
REMARK    2  A    between atoms: C_7  and  C_9
REMARK    3  A    between atoms: C_13  and  C_14
REMARK    4  A    between atoms: C_14  and  C_15
REMARK    5  A    between atoms: C_15  and  C_16
REMARK                            x       y       z     vdW  Elec       q    Type
REMARK                         _______ _______ _______ _____ _____    ______ ____
ROOT
ATOM      1  C   UNL     1       1.375  -1.109   0.000  0.00  0.00    +0.000 A 
ATOM      2  C   UNL     1       1.375  -1.934   0.000  0.00  0.00    +0.000 A 
ATOM      3  C   UNL     1       0.661  -2.347   0.000  0.00  0.00    +0.000 A 
ATOM      4  C   UNL     1      -0.054  -1.934   0.000  0.00  0.00    +0.000 A 
ATOM      5  C   UNL     1      -0.054  -1.109   0.000  0.00  0.00    +0.000 A 
ATOM      6  C   UNL     1       0.661  -0.697   0.000  0.00  0.00    +0.000 A 
ENDROOT
BRANCH   1  11
ATOM      7  C   UNL     1       2.804   0.541   0.000  0.00  0.00    +0.000 A 
ATOM      8  C   UNL     1       3.519   0.128   0.000  0.00  0.00    +0.000 A 
ATOM      9  C   UNL     1       3.519  -0.697   0.000  0.00  0.00    +0.000 A 
ATOM     10  C   UNL     1       2.804  -1.109   0.000  0.00  0.00    +0.000 A 
ATOM     11  C   UNL     1       2.090  -0.697   0.000  0.00  0.00    +0.000 A 
ATOM     12  C   UNL     1       2.090   0.128   0.000  0.00  0.00    +0.000 A 
BRANCH   7  14
ATOM     13  C   UNL     1       3.519   1.778   0.000  0.00  0.00    +0.000 C 
ATOM     14  O   UNL     1       2.804   1.366   0.000  0.00  0.00    +0.000 OA
ENDBRANCH   7  14
ENDBRANCH   1  11
BRANCH   5  15
ATOM     15  C   UNL     1      -0.768  -0.697   0.000  0.00  0.00    +0.000 C 
BRANCH  15  16
ATOM     16  C   UNL     1      -0.768   0.128   0.000  0.00  0.00    +0.000 C 
BRANCH  16  17
ATOM     17  C   UNL     1      -1.483   0.541   0.000  0.00  0.00    +0.000 C 
ATOM     18  C   UNL     1      -0.952   1.173   0.000  0.00  0.00    +0.000 C 
ATOM     19  C   UNL     1      -1.765  -0.234   0.000  0.00  0.00    +0.000 C 
ATOM     20  C   UNL     1      -2.577  -0.378   0.000  0.00  0.00    +0.000 C 
ATOM     21  O   UNL     1      -2.860  -1.153   0.000  0.00  0.00    +0.000 OA
ATOM     22  N   UNL     1      -3.108   0.254   0.000  0.00  0.00    +0.000 N 
ATOM     23  C   UNL     1      -3.920   0.111   0.000  0.00  0.00    +0.000 C 
ATOM     24  C   UNL     1      -2.825   1.030   0.000  0.00  0.00    +0.000 C 
ATOM     25  N   UNL     1      -2.013   1.173   0.000  0.00  0.00    +0.000 NA
ATOM     26  N   UNL     1      -3.356   1.661   0.000  0.00  0.00    +0.000 NA
ENDBRANCH  16  17
ENDBRANCH  15  16
ENDBRANCH   5  15
TORSDOF 5
