REMARK  Name = C28
REMARK  10 active torsions:
REMARK  status: ('A' for Active; 'I' for Inactive)
REMARK    1  A    between atoms: C_3  and  C_7
REMARK    2  A    between atoms: C_7  and  N_9
REMARK    3  A    between atoms: C_7  and  C_10
REMARK    4  A    between atoms: N_9  and  C_11
REMARK    5  A    between atoms: C_11  and  C_12
REMARK    6  A    between atoms: C_11  and  C_13
REMARK    7  A    between atoms: C_13  and  S_14
REMARK    8  A    between atoms: S_14  and  N_15
REMARK    9  A    between atoms: N_16  and  C_18
REMARK   10  A    between atoms: C_18  and  C_32
REMARK                            x       y       z     vdW  Elec       q    Type
REMARK                         _______ _______ _______ _____ _____    ______ ____
ROOT
ATOM      1  C   UNL     1       0.083  -0.996   0.000  0.00  0.00    +0.000 C 
ENDROOT
BRANCH   1   2
ATOM      2  C   UNL     1       0.083  -0.171   0.000  0.00  0.00    +0.000 C 
ATOM      3  N   UNL     1      -0.632   0.241   0.000  0.00  0.00    +0.000 NA
ATOM      4  O   UNL     1       0.797   0.241   0.000  0.00  0.00    +0.000 OA
BRANCH   3   5
ATOM      5  C   UNL     1      -0.632   1.066   0.000  0.00  0.00    +0.000 C 
ATOM      6  C   UNL     1      -0.349   1.841   0.000  0.00  0.00    +0.000 C 
ATOM      7  C   UNL     1       0.181   1.209   0.000  0.00  0.00    +0.000 C 
BRANCH   5   9
ATOM      8  N   UNL     1      -1.726   1.985   0.000  0.00  0.00    +0.000 NA
ATOM      9  C   UNL     1      -1.444   1.209   0.000  0.00  0.00    +0.000 C 
ENDBRANCH   5   9
ENDBRANCH   3   5
ENDBRANCH   1   2
BRANCH   1  10
ATOM     10  C   UNL     1      -0.632  -1.409   0.000  0.00  0.00    +0.000 C 
BRANCH  10  11
ATOM     11  S   UNL     1      -1.346  -0.996   0.000  0.00  0.00    +0.000 S 
ATOM     12  O   UNL     1      -0.934  -0.282   0.000  0.00  0.00    +0.000 OA
ATOM     13  O   UNL     1      -1.759  -1.711   0.000  0.00  0.00    +0.000 OA
BRANCH  11  14
ATOM     14  N   UNL     1      -2.061  -0.584   0.000  0.00  0.00    +0.000 NA
ATOM     15  C   UNL     1      -2.775  -0.996   0.000  0.00  0.00    +0.000 C 
ATOM     16  C   UNL     1      -3.490  -0.584   0.000  0.00  0.00    +0.000 C 
ATOM     17  O   UNL     1      -3.490   0.241   0.000  0.00  0.00    +0.000 OA
ATOM     18  C   UNL     1      -2.775   0.654   0.000  0.00  0.00    +0.000 C 
ATOM     19  C   UNL     1      -2.061   0.241   0.000  0.00  0.00    +0.000 C 
ENDBRANCH  11  14
ENDBRANCH  10  11
ENDBRANCH   1  10
BRANCH   1  20
ATOM     20  N   UNL     1       0.797  -1.409   0.000  0.00  0.00    +0.000 NA
BRANCH  20  21
ATOM     21  C   UNL     1       1.512  -0.996   0.000  0.00  0.00    +0.000 C 
BRANCH  21  24
ATOM     22  C   UNL     1       3.655  -2.234   0.000  0.00  0.00    +0.000 A 
ATOM     23  C   UNL     1       2.941  -0.996   0.000  0.00  0.00    +0.000 A 
ATOM     24  C   UNL     1       2.226  -1.409   0.000  0.00  0.00    +0.000 A 
ATOM     25  C   UNL     1       2.226  -2.234   0.000  0.00  0.00    +0.000 A 
ATOM     26  C   UNL     1       2.941  -2.646   0.000  0.00  0.00    +0.000 A 
ATOM     27  C   UNL     1       3.655  -1.409   0.000  0.00  0.00    +0.000 A 
ATOM     28  F   UNL     1       4.370  -2.646   0.000  0.00  0.00    +0.000 F 
ENDBRANCH  21  24
BRANCH  21  29
ATOM     29  C   UNL     1       1.512  -0.171   0.000  0.00  0.00    +0.000 C 
ATOM     30  F   UNL     1       1.512   0.654   0.000  0.00  0.00    +0.000 F 
ATOM     31  F   UNL     1       2.337  -0.171   0.000  0.00  0.00    +0.000 F 
ATOM     32  F   UNL     1       0.687  -0.171   0.000  0.00  0.00    +0.000 F 
ENDBRANCH  21  29
ENDBRANCH  20  21
ENDBRANCH   1  20
TORSDOF 10
