REMARK  Name = C3M
REMARK  7 active torsions:
REMARK  status: ('A' for Active; 'I' for Inactive)
REMARK    1  A    between atoms: C_2  and  C_3
REMARK    2  A    between atoms: C_2  and  C_10
REMARK    3  A    between atoms: C_3  and  C_4
REMARK    4  A    between atoms: C_10  and  C_12
REMARK    5  A    between atoms: C_12  and  N_13
REMARK    6  A    between atoms: N_13  and  S_14
REMARK    7  A    between atoms: S_14  and  C_17
REMARK                            x       y       z     vdW  Elec       q    Type
REMARK                         _______ _______ _______ _____ _____    ______ ____
ROOT
ATOM      1  N   UNL     1       0.341   0.815   0.000  0.00  0.00    +0.000 NA
ENDROOT
BRANCH   1   2
ATOM      2  S   UNL     1       1.056   0.402   0.000  0.00  0.00    +0.000 S 
ATOM      3  O   UNL     1       0.643  -0.312   0.000  0.00  0.00    +0.000 OA
ATOM      4  O   UNL     1       1.468   1.117   0.000  0.00  0.00    +0.000 OA
BRANCH   2   5
ATOM      5  C   UNL     1       1.770  -0.010   0.000  0.00  0.00    +0.000 A 
ATOM      6  C   UNL     1       2.485   0.402   0.000  0.00  0.00    +0.000 A 
ATOM      7  C   UNL     1       3.199  -0.010   0.000  0.00  0.00    +0.000 A 
ATOM      8  C   UNL     1       3.199  -0.835   0.000  0.00  0.00    +0.000 A 
ATOM      9  C   UNL     1       3.914  -1.248   0.000  0.00  0.00    +0.000 A 
ATOM     10  C   UNL     1       3.914  -2.073   0.000  0.00  0.00    +0.000 A 
ATOM     11  C   UNL     1       3.199  -2.485   0.000  0.00  0.00    +0.000 A 
ATOM     12  C   UNL     1       2.485  -2.073   0.000  0.00  0.00    +0.000 A 
ATOM     13  C   UNL     1       2.485  -1.248   0.000  0.00  0.00    +0.000 A 
ATOM     14  C   UNL     1       1.770  -0.835   0.000  0.00  0.00    +0.000 A 
ENDBRANCH   2   5
ENDBRANCH   1   2
BRANCH   1  15
ATOM     15  C   UNL     1      -0.373   0.402   0.000  0.00  0.00    +0.000 C 
BRANCH  15  16
ATOM     16  C   UNL     1      -1.088   0.815   0.000  0.00  0.00    +0.000 C 
ATOM     17  O   UNL     1      -1.088   1.640   0.000  0.00  0.00    +0.000 OA
BRANCH  16  19
ATOM     18  N   UNL     1      -1.802  -0.423   0.000  0.00  0.00    +0.000 NA
ATOM     19  C   UNL     1      -1.802   0.402   0.000  0.00  0.00    +0.000 C 
BRANCH  19  20
ATOM     20  C   UNL     1      -2.517   0.815   0.000  0.00  0.00    +0.000 C 
BRANCH  20  21
ATOM     21  C   UNL     1      -3.231   0.402   0.000  0.00  0.00    +0.000 A 
ATOM     22  C   UNL     1      -3.231  -0.423   0.000  0.00  0.00    +0.000 A 
ATOM     23  C   UNL     1      -3.946  -0.835   0.000  0.00  0.00    +0.000 A 
ATOM     24  C   UNL     1      -4.660  -0.423   0.000  0.00  0.00    +0.000 A 
ATOM     25  C   UNL     1      -4.660   0.402   0.000  0.00  0.00    +0.000 A 
ATOM     26  C   UNL     1      -3.946   0.815   0.000  0.00  0.00    +0.000 A 
ENDBRANCH  20  21
ENDBRANCH  19  20
ENDBRANCH  16  19
ENDBRANCH  15  16
ENDBRANCH   1  15
TORSDOF 7
