REMARK  Name = C48
REMARK  10 active torsions:
REMARK  status: ('A' for Active; 'I' for Inactive)
REMARK    1  A    between atoms: N_5  and  C_13
REMARK    2  A    between atoms: N_7  and  C_24
REMARK    3  A    between atoms: C_9  and  C_10
REMARK    4  A    between atoms: C_10  and  C_11
REMARK    5  A    between atoms: C_11  and  C_12
REMARK    6  A    between atoms: C_13  and  C_14
REMARK    7  A    between atoms: C_13  and  C_21
REMARK    8  A    between atoms: C_14  and  C_15
REMARK    9  A    between atoms: C_24  and  C_25
REMARK   10  A    between atoms: C_25  and  C_26
REMARK                            x       y       z     vdW  Elec       q    Type
REMARK                         _______ _______ _______ _____ _____    ______ ____
ROOT
ATOM      1  O   UNL     1       0.435  -1.058   0.000  0.00  0.00    +0.000 OA
ATOM      2  N   UNL     1       1.370   0.023   0.000  0.00  0.00    +0.000 NA
ATOM      3  C   UNL     1       0.591  -0.247   0.000  0.00  0.00    +0.000 C 
ENDROOT
BRANCH   3   5
ATOM      4  O   UNL     1       0.123   1.103   0.000  0.00  0.00    +0.000 OA
ATOM      5  C   UNL     1      -0.033   0.293   0.000  0.00  0.00    +0.000 C 
BRANCH   5   6
ATOM      6  C   UNL     1      -0.813   0.023   0.000  0.00  0.00    +0.000 C 
BRANCH   6   9
ATOM      7  O   UNL     1      -1.280   1.373   0.000  0.00  0.00    +0.000 OA
ATOM      8  N   UNL     1      -2.216   0.293   0.000  0.00  0.00    +0.000 NA
ATOM      9  C   UNL     1      -1.436   0.563   0.000  0.00  0.00    +0.000 C 
BRANCH   8  10
ATOM     10  C   UNL     1      -2.840   0.833   0.000  0.00  0.00    +0.000 C 
BRANCH  10  11
ATOM     11  C   UNL     1      -3.619   0.563   0.000  0.00  0.00    +0.000 C 
BRANCH  11  13
ATOM     12  N   UNL     1      -4.087   1.913   0.000  0.00  0.00    +0.000 NA
ATOM     13  C   UNL     1      -4.243   1.103   0.000  0.00  0.00    +0.000 A 
ATOM     14  C   UNL     1      -5.022   0.833   0.000  0.00  0.00    +0.000 A 
ATOM     15  C   UNL     1      -5.646   1.373   0.000  0.00  0.00    +0.000 A 
ATOM     16  C   UNL     1      -5.490   2.183   0.000  0.00  0.00    +0.000 A 
ATOM     17  C   UNL     1      -4.710   2.453   0.000  0.00  0.00    +0.000 A 
ENDBRANCH  11  13
ENDBRANCH  10  11
ENDBRANCH   8  10
ENDBRANCH   6   9
ENDBRANCH   5   6
ENDBRANCH   3   5
BRANCH   2  18
ATOM     18  C   UNL     1       1.994  -0.517   0.000  0.00  0.00    +0.000 C 
BRANCH  18  21
ATOM     19  O   UNL     1       3.397  -0.787   0.000  0.00  0.00    +0.000 OA
ATOM     20  N   UNL     1       2.929   0.563   0.000  0.00  0.00    +0.000 N 
ATOM     21  C   UNL     1       2.773  -0.247   0.000  0.00  0.00    +0.000 C 
ATOM     22  C   UNL     1       2.305   1.103   0.000  0.00  0.00    +0.000 C 
ATOM     23  C   UNL     1       3.709   0.833   0.000  0.00  0.00    +0.000 C 
ENDBRANCH  18  21
BRANCH  18  24
ATOM     24  C   UNL     1       1.838  -1.327   0.000  0.00  0.00    +0.000 C 
BRANCH  24  25
ATOM     25  C   UNL     1       2.461  -1.868   0.000  0.00  0.00    +0.000 A 
ATOM     26  C   UNL     1       3.241  -1.598   0.000  0.00  0.00    +0.000 A 
ATOM     27  C   UNL     1       3.865  -2.138   0.000  0.00  0.00    +0.000 A 
ATOM     28  C   UNL     1       3.709  -2.948   0.000  0.00  0.00    +0.000 A 
ATOM     29  C   UNL     1       2.929  -3.218   0.000  0.00  0.00    +0.000 A 
ATOM     30  C   UNL     1       2.305  -2.678   0.000  0.00  0.00    +0.000 A 
ENDBRANCH  24  25
ENDBRANCH  18  24
ENDBRANCH   2  18
TORSDOF 10
