REMARK  Name = C4E
REMARK  2 active torsions:
REMARK  status: ('A' for Active; 'I' for Inactive)
REMARK    1  A    between atoms: N_1  and  C_2
REMARK    2  A    between atoms: N_1  and  C_8
REMARK                            x       y       z     vdW  Elec       q    Type
REMARK                         _______ _______ _______ _____ _____    ______ ____
ROOT
ATOM      1  C   UNL     1       0.154  -0.245   0.000  0.00  0.00    +0.000 A 
ATOM      2  C   UNL     1      -0.331  -0.912   0.000  0.00  0.00    +0.000 A 
ATOM      3  C   UNL     1       0.938  -0.500   0.000  0.00  0.00    +0.000 A 
ATOM      4  C   UNL     1       1.653  -0.087   0.000  0.00  0.00    +0.000 A 
ATOM      5  C   UNL     1       0.938  -1.325   0.000  0.00  0.00    +0.000 A 
ATOM      6  N   UNL     1       0.154  -1.580   0.000  0.00  0.00    +0.000 NA
ATOM      7  N   UNL     1       1.653  -1.737   0.000  0.00  0.00    +0.000 NA
ATOM      8  C   UNL     1       2.367  -1.325   0.000  0.00  0.00    +0.000 A 
ATOM      9  C   UNL     1       2.367  -0.500   0.000  0.00  0.00    +0.000 A 
ENDROOT
BRANCH   1  10
ATOM     10  N   UNL     1      -0.101   0.540   0.000  0.00  0.00    +0.000 NA
BRANCH  10  11
ATOM     11  C   UNL     1      -0.908   0.711   0.000  0.00  0.00    +0.000 A 
ATOM     12  C   UNL     1      -1.460   0.098   0.000  0.00  0.00    +0.000 A 
ATOM     13  C   UNL     1      -2.267   0.270   0.000  0.00  0.00    +0.000 A 
ATOM     14  C   UNL     1      -2.522   1.054   0.000  0.00  0.00    +0.000 A 
ATOM     15  C   UNL     1      -1.970   1.667   0.000  0.00  0.00    +0.000 A 
ATOM     16  C   UNL     1      -1.163   1.496   0.000  0.00  0.00    +0.000 A 
ENDBRANCH  10  11
ENDBRANCH   1  10
TORSDOF 2
