REMARK  Name = C4F
REMARK  3 active torsions:
REMARK  status: ('A' for Active; 'I' for Inactive)
REMARK    1  A    between atoms: O_2  and  C_3
REMARK    2  A    between atoms: C_8  and  C_9
REMARK    3  A    between atoms: C_9  and  C_10
REMARK                            x       y       z     vdW  Elec       q    Type
REMARK                         _______ _______ _______ _____ _____    ______ ____
ROOT
ATOM      1  C   UNL     1       0.590  -0.199   0.000  0.00  0.00    +0.000 C 
ENDROOT
BRANCH   1   2
ATOM      2  C   UNL     1       0.845   0.586   0.000  0.00  0.00    +0.000 A 
ATOM      3  C   UNL     1       1.629   0.841   0.000  0.00  0.00    +0.000 A 
ATOM      4  C   UNL     1       0.360   1.253   0.000  0.00  0.00    +0.000 A 
ATOM      5  N   UNL     1       0.845   1.921   0.000  0.00  0.00    +0.000 NA
ATOM      6  C   UNL     1       1.629   1.666   0.000  0.00  0.00    +0.000 A 
ATOM      7  N   UNL     1       2.344   2.078   0.000  0.00  0.00    +0.000 NA
ATOM      8  C   UNL     1       3.058   1.666   0.000  0.00  0.00    +0.000 A 
ATOM      9  C   UNL     1       3.058   0.841   0.000  0.00  0.00    +0.000 A 
ATOM     10  C   UNL     1       2.344   0.428   0.000  0.00  0.00    +0.000 A 
ENDBRANCH   1   2
BRANCH   1  16
ATOM     11  C   UNL     1      -1.279  -1.327   0.000  0.00  0.00    +0.000 A 
ATOM     12  C   UNL     1      -1.831  -0.713   0.000  0.00  0.00    +0.000 A 
ATOM     13  C   UNL     1      -1.576   0.071   0.000  0.00  0.00    +0.000 A 
ATOM     14  C   UNL     1      -0.769   0.243   0.000  0.00  0.00    +0.000 A 
ATOM     15  C   UNL     1      -0.472  -1.155   0.000  0.00  0.00    +0.000 A 
ATOM     16  C   UNL     1      -0.217  -0.370   0.000  0.00  0.00    +0.000 A 
BRANCH  11  18
ATOM     17  C   UNL     1      -2.341  -2.283   0.000  0.00  0.00    +0.000 C 
ATOM     18  O   UNL     1      -1.534  -2.111   0.000  0.00  0.00    +0.000 OA
ENDBRANCH  11  18
ENDBRANCH   1  16
TORSDOF 3
