REMARK  Name = C4H
REMARK  10 active torsions:
REMARK  status: ('A' for Active; 'I' for Inactive)
REMARK    1  A    between atoms: C_3  and  N_4
REMARK    2  A    between atoms: C_11  and  S_14
REMARK    3  A    between atoms: S_14  and  N_15
REMARK    4  A    between atoms: N_15  and  C_16
REMARK    5  A    between atoms: C_16  and  C_17
REMARK    6  A    between atoms: C_17  and  C_18
REMARK    7  A    between atoms: C_18  and  C_19
REMARK    8  A    between atoms: C_19  and  N_20
REMARK    9  A    between atoms: C_21  and  C_23
REMARK   10  A    between atoms: C_23  and  C_24
REMARK                            x       y       z     vdW  Elec       q    Type
REMARK                         _______ _______ _______ _____ _____    ______ ____
ROOT
ATOM      1  S   UNL     1      -1.232  -0.605   0.000  0.00  0.00    +0.000 S 
ATOM      2  O   UNL     1      -1.644  -1.319   0.000  0.00  0.00    +0.000 OA
ATOM      3  O   UNL     1      -0.819   0.110   0.000  0.00  0.00    +0.000 OA
ENDROOT
BRANCH   1  11
ATOM      4  C   UNL     1      -2.660   1.045   0.000  0.00  0.00    +0.000 A 
ATOM      5  C   UNL     1      -3.375   0.632   0.000  0.00  0.00    +0.000 A 
ATOM      6  C   UNL     1      -2.660   1.870   0.000  0.00  0.00    +0.000 A 
ATOM      7  C   UNL     1      -1.946   2.283   0.000  0.00  0.00    +0.000 A 
ATOM      8  C   UNL     1      -1.232   1.870   0.000  0.00  0.00    +0.000 A 
ATOM      9  C   UNL     1      -1.232   1.045   0.000  0.00  0.00    +0.000 A 
ATOM     10  C   UNL     1      -1.946   0.632   0.000  0.00  0.00    +0.000 A 
ATOM     11  C   UNL     1      -1.946  -0.193   0.000  0.00  0.00    +0.000 A 
ATOM     12  C   UNL     1      -2.660  -0.605   0.000  0.00  0.00    +0.000 A 
ATOM     13  C   UNL     1      -3.375  -0.193   0.000  0.00  0.00    +0.000 A 
BRANCH   6  14
ATOM     14  N   UNL     1      -3.375   2.283   0.000  0.00  0.00    +0.000 N 
ATOM     15  C   UNL     1      -3.375   3.107   0.000  0.00  0.00    +0.000 C 
ATOM     16  C   UNL     1      -4.089   1.870   0.000  0.00  0.00    +0.000 C 
ENDBRANCH   6  14
ENDBRANCH   1  11
BRANCH   1  17
ATOM     17  N   UNL     1      -0.517  -1.018   0.000  0.00  0.00    +0.000 NA
BRANCH  17  18
ATOM     18  C   UNL     1       0.197  -0.605   0.000  0.00  0.00    +0.000 C 
BRANCH  18  19
ATOM     19  C   UNL     1       0.912  -1.018   0.000  0.00  0.00    +0.000 C 
BRANCH  19  20
ATOM     20  C   UNL     1       1.626  -0.605   0.000  0.00  0.00    +0.000 C 
BRANCH  20  21
ATOM     21  C   UNL     1       2.341  -1.018   0.000  0.00  0.00    +0.000 C 
BRANCH  21  22
ATOM     22  N   UNL     1       3.055  -0.605   0.000  0.00  0.00    +0.000 NA
ATOM     23  C   UNL     1       3.770  -1.018   0.000  0.00  0.00    +0.000 C 
ATOM     24  O   UNL     1       3.770  -1.843   0.000  0.00  0.00    +0.000 OA
BRANCH  23  25
ATOM     25  C   UNL     1       4.484  -0.605   0.000  0.00  0.00    +0.000 C 
BRANCH  25  26
ATOM     26  C   UNL     1       5.199  -1.018   0.000  0.00  0.00    +0.000 C 
ATOM     27  S   UNL     1       5.913  -0.605   0.000  0.00  0.00    +0.000 S 
ENDBRANCH  25  26
ENDBRANCH  23  25
ENDBRANCH  21  22
ENDBRANCH  20  21
ENDBRANCH  19  20
ENDBRANCH  18  19
ENDBRANCH  17  18
ENDBRANCH   1  17
TORSDOF 10
