REMARK  Name = C4M
REMARK  8 active torsions:
REMARK  status: ('A' for Active; 'I' for Inactive)
REMARK    1  A    between atoms: O_2  and  C_3
REMARK    2  A    between atoms: C_7  and  S_12
REMARK    3  A    between atoms: S_12  and  N_15
REMARK    4  A    between atoms: N_15  and  C_16
REMARK    5  A    between atoms: C_16  and  C_17
REMARK    6  A    between atoms: C_17  and  C_19
REMARK    7  A    between atoms: C_19  and  C_21
REMARK    8  A    between atoms: C_21  and  C_22
REMARK                            x       y       z     vdW  Elec       q    Type
REMARK                         _______ _______ _______ _____ _____    ______ ____
ROOT
ATOM      1  S   UNL     1      -1.183   0.747   0.000  0.00  0.00    +0.000 S 
ATOM      2  O   UNL     1      -0.770   0.033   0.000  0.00  0.00    +0.000 OA
ATOM      3  O   UNL     1      -1.595   1.462   0.000  0.00  0.00    +0.000 OA
ENDROOT
BRANCH   1   8
ATOM      4  C   UNL     1      -3.326  -0.490   0.000  0.00  0.00    +0.000 A 
ATOM      5  C   UNL     1      -3.326   0.335   0.000  0.00  0.00    +0.000 A 
ATOM      6  C   UNL     1      -2.611   0.747   0.000  0.00  0.00    +0.000 A 
ATOM      7  C   UNL     1      -2.611   1.572   0.000  0.00  0.00    +0.000 C 
ATOM      8  C   UNL     1      -1.897   0.335   0.000  0.00  0.00    +0.000 A 
ATOM      9  C   UNL     1      -1.897  -0.490   0.000  0.00  0.00    +0.000 A 
ATOM     10  C   UNL     1      -1.183  -0.903   0.000  0.00  0.00    +0.000 C 
ATOM     11  C   UNL     1      -2.611  -0.903   0.000  0.00  0.00    +0.000 A 
ATOM     12  C   UNL     1      -2.611  -1.728   0.000  0.00  0.00    +0.000 C 
BRANCH   4  14
ATOM     13  C   UNL     1      -4.040  -1.728   0.000  0.00  0.00    +0.000 C 
ATOM     14  O   UNL     1      -4.040  -0.903   0.000  0.00  0.00    +0.000 OA
ENDBRANCH   4  14
ENDBRANCH   1   8
BRANCH   1  15
ATOM     15  N   UNL     1      -0.468   1.160   0.000  0.00  0.00    +0.000 NA
BRANCH  15  16
ATOM     16  C   UNL     1       0.246   0.747   0.000  0.00  0.00    +0.000 C 
BRANCH  16  17
ATOM     17  C   UNL     1       0.961   1.160   0.000  0.00  0.00    +0.000 C 
ATOM     18  O   UNL     1       0.961   1.985   0.000  0.00  0.00    +0.000 OA
BRANCH  17  19
ATOM     19  C   UNL     1       1.675   0.747   0.000  0.00  0.00    +0.000 C 
ATOM     20  N   UNL     1       1.675  -0.078   0.000  0.00  0.00    +0.000 NA
BRANCH  19  21
ATOM     21  C   UNL     1       2.390   1.160   0.000  0.00  0.00    +0.000 C 
BRANCH  21  22
ATOM     22  C   UNL     1       3.104   0.747   0.000  0.00  0.00    +0.000 A 
ATOM     23  C   UNL     1       3.819   1.160   0.000  0.00  0.00    +0.000 A 
ATOM     24  C   UNL     1       4.533   0.747   0.000  0.00  0.00    +0.000 A 
ATOM     25  C   UNL     1       4.533  -0.078   0.000  0.00  0.00    +0.000 A 
ATOM     26  C   UNL     1       3.819  -0.490   0.000  0.00  0.00    +0.000 A 
ATOM     27  C   UNL     1       3.104  -0.078   0.000  0.00  0.00    +0.000 A 
ENDBRANCH  21  22
ENDBRANCH  19  21
ENDBRANCH  17  19
ENDBRANCH  16  17
ENDBRANCH  15  16
ENDBRANCH   1  15
TORSDOF 8
