REMARK  Name = C52
REMARK  3 active torsions:
REMARK  status: ('A' for Active; 'I' for Inactive)
REMARK    1  A    between atoms: C_11  and  C_12
REMARK    2  A    between atoms: N_19  and  C_20
REMARK    3  A    between atoms: C_25  and  C_26
REMARK                            x       y       z     vdW  Elec       q    Type
REMARK                         _______ _______ _______ _____ _____    ______ ____
ROOT
ATOM      1  C   UNL     1      -0.172  -0.759   0.000  0.00  0.00    +0.000 A 
ATOM      2  C   UNL     1      -0.886  -0.346   0.000  0.00  0.00    +0.000 A 
ATOM      3  O   UNL     1      -0.886   0.479   0.000  0.00  0.00    +0.000 OA
ATOM      4  C   UNL     1      -0.172  -1.584   0.000  0.00  0.00    +0.000 A 
ATOM      5  C   UNL     1       0.542  -1.996   0.000  0.00  0.00    +0.000 C 
ATOM      6  C   UNL     1      -0.886  -1.996   0.000  0.00  0.00    +0.000 A 
ATOM      7  C   UNL     1      -1.601  -1.584   0.000  0.00  0.00    +0.000 A 
ATOM      8  N   UNL     1      -1.601  -0.759   0.000  0.00  0.00    +0.000 N 
ENDROOT
BRANCH   1  19
ATOM      9  C   UNL     1       1.257  -0.759   0.000  0.00  0.00    +0.000 A 
ATOM     10  C   UNL     1       1.971  -0.346   0.000  0.00  0.00    +0.000 A 
ATOM     11  C   UNL     1       2.686  -0.759   0.000  0.00  0.00    +0.000 A 
ATOM     12  N   UNL     1       3.400  -0.346   0.000  0.00  0.00    +0.000 NA
ATOM     13  C   UNL     1       3.400   0.479   0.000  0.00  0.00    +0.000 A 
ATOM     14  N   UNL     1       4.115   0.891   0.000  0.00  0.00    +0.000 NA
ATOM     15  N   UNL     1       2.686   0.891   0.000  0.00  0.00    +0.000 NA
ATOM     16  C   UNL     1       1.971   0.479   0.000  0.00  0.00    +0.000 A 
ATOM     17  C   UNL     1       1.257   0.891   0.000  0.00  0.00    +0.000 A 
ATOM     18  C   UNL     1       0.542   0.479   0.000  0.00  0.00    +0.000 A 
ATOM     19  C   UNL     1       0.542  -0.346   0.000  0.00  0.00    +0.000 A 
ENDBRANCH   1  19
BRANCH   8  20
ATOM     20  C   UNL     1      -2.316  -0.346   0.000  0.00  0.00    +0.000 A 
ATOM     21  C   UNL     1      -2.316   0.479   0.000  0.00  0.00    +0.000 A 
ATOM     22  C   UNL     1      -3.030  -0.759   0.000  0.00  0.00    +0.000 A 
ATOM     23  C   UNL     1      -3.744  -0.346   0.000  0.00  0.00    +0.000 A 
ATOM     24  C   UNL     1      -3.744   0.479   0.000  0.00  0.00    +0.000 A 
ATOM     25  C   UNL     1      -3.030   0.891   0.000  0.00  0.00    +0.000 A 
BRANCH  25  26
ATOM     26  C   UNL     1      -3.030   1.716   0.000  0.00  0.00    +0.000 C 
ATOM     27  F   UNL     1      -3.030   2.541   0.000  0.00  0.00    +0.000 F 
ATOM     28  F   UNL     1      -3.855   1.716   0.000  0.00  0.00    +0.000 F 
ATOM     29  F   UNL     1      -2.205   1.716   0.000  0.00  0.00    +0.000 F 
ENDBRANCH  25  26
ENDBRANCH   8  20
TORSDOF 3
