REMARK  Name = C5D
REMARK  8 active torsions:
REMARK  status: ('A' for Active; 'I' for Inactive)
REMARK    1  A    between atoms: C_1  and  C_2
REMARK    2  A    between atoms: C_1  and  C_30
REMARK    3  A    between atoms: C_2  and  C_3
REMARK    4  A    between atoms: C_4  and  C_5
REMARK    5  A    between atoms: C_5  and  C_6
REMARK    6  A    between atoms: C_5  and  C_7
REMARK    7  A    between atoms: C_21  and  C_22
REMARK    8  A    between atoms: C_23  and  C_27
REMARK                            x       y       z     vdW  Elec       q    Type
REMARK                         _______ _______ _______ _____ _____    ______ ____
ROOT
ATOM      1  C   UNL     1       0.159   1.162   0.000  0.00  0.00    +0.000 C 
ATOM      2  C   UNL     1       0.711   0.549   0.000  0.00  0.00    +0.000 C 
ATOM      3  C   UNL     1       1.378   0.064   0.000  0.00  0.00    +0.000 C 
ATOM      4  C   UNL     1       1.123  -0.721   0.000  0.00  0.00    +0.000 C 
ATOM      5  C   UNL     1       0.298  -0.721   0.000  0.00  0.00    +0.000 C 
ATOM      6  C   UNL     1       0.043   0.064   0.000  0.00  0.00    +0.000 C 
ATOM      7  C   UNL     1       1.263   1.162   0.000  0.00  0.00    +0.000 C 
ATOM      8  C   UNL     1      -0.369   0.778   0.000  0.00  0.00    +0.000 C 
ENDROOT
BRANCH   3  10
ATOM      9  C   UNL     1       2.776  -0.233   0.000  0.00  0.00    +0.000 C 
ATOM     10  C   UNL     1       2.163   0.319   0.000  0.00  0.00    +0.000 C 
BRANCH   9  17
ATOM     11  O   UNL     1       5.473   2.146   0.000  0.00  0.00    +0.000 OA
ATOM     12  C   UNL     1       3.291   2.188   0.000  0.00  0.00    +0.000 C 
ATOM     13  C   UNL     1       4.075   2.443   0.000  0.00  0.00    +0.000 C 
ATOM     14  C   UNL     1       4.688   1.891   0.000  0.00  0.00    +0.000 C 
ATOM     15  C   UNL     1       4.517   1.084   0.000  0.00  0.00    +0.000 C 
ATOM     16  C   UNL     1       3.732   0.829   0.000  0.00  0.00    +0.000 C 
ATOM     17  C   UNL     1       3.561   0.022   0.000  0.00  0.00    +0.000 C 
ATOM     18  C   UNL     1       3.119   1.381   0.000  0.00  0.00    +0.000 C 
ATOM     19  O   UNL     1       2.677   2.740   0.000  0.00  0.00    +0.000 OA
ENDBRANCH   9  17
ENDBRANCH   3  10
BRANCH   6  20
ATOM     20  C   UNL     1      -0.710  -0.272   0.000  0.00  0.00    +0.000 C 
BRANCH  20  21
ATOM     21  C   UNL     1      -0.797  -1.092   0.000  0.00  0.00    +0.000 C 
BRANCH  21  22
ATOM     22  C   UNL     1      -1.550  -1.428   0.000  0.00  0.00    +0.000 C 
ATOM     23  C   UNL     1      -2.304  -1.763   0.000  0.00  0.00    +0.000 C 
BRANCH  23  24
ATOM     24  C   UNL     1      -3.058  -2.099   0.000  0.00  0.00    +0.000 C 
ATOM     25  O   UNL     1      -3.811  -2.434   0.000  0.00  0.00    +0.000 OA
BRANCH  24  26
ATOM     26  C   UNL     1      -2.722  -2.853   0.000  0.00  0.00    +0.000 C 
ATOM     27  F   UNL     1      -2.386  -3.606   0.000  0.00  0.00    +0.000 F 
ATOM     28  F   UNL     1      -1.968  -2.517   0.000  0.00  0.00    +0.000 F 
ATOM     29  F   UNL     1      -3.476  -3.188   0.000  0.00  0.00    +0.000 F 
ENDBRANCH  24  26
BRANCH  24  30
ATOM     30  C   UNL     1      -3.393  -1.345   0.000  0.00  0.00    +0.000 C 
ATOM     31  F   UNL     1      -3.729  -0.591   0.000  0.00  0.00    +0.000 F 
ATOM     32  F   UNL     1      -2.639  -1.010   0.000  0.00  0.00    +0.000 F 
ATOM     33  F   UNL     1      -4.147  -1.681   0.000  0.00  0.00    +0.000 F 
ENDBRANCH  24  30
ENDBRANCH  23  24
ENDBRANCH  21  22
ENDBRANCH  20  21
ENDBRANCH   6  20
TORSDOF 8
