REMARK  Name = C62
REMARK  3 active torsions:
REMARK  status: ('A' for Active; 'I' for Inactive)
REMARK    1  A    between atoms: S_2  and  C_5
REMARK    2  A    between atoms: C_8  and  C_11
REMARK    3  A    between atoms: C_15  and  C_16
REMARK                            x       y       z     vdW  Elec       q    Type
REMARK                         _______ _______ _______ _____ _____    ______ ____
ROOT
ATOM      1  C   UNL     1      -0.486  -0.155   0.000  0.00  0.00    +0.000 A 
ATOM      2  O   UNL     1       0.181  -0.640   0.000  0.00  0.00    +0.000 OA
ATOM      3  C   UNL     1      -1.153  -0.640   0.000  0.00  0.00    +0.000 A 
ATOM      4  C   UNL     1      -0.899  -1.425   0.000  0.00  0.00    +0.000 A 
ATOM      5  C   UNL     1      -0.074  -1.425   0.000  0.00  0.00    +0.000 A 
ENDROOT
BRANCH   5   6
ATOM      6  C   UNL     1       0.411  -2.092   0.000  0.00  0.00    +0.000 C 
ATOM      7  C   UNL     1       1.232  -2.006   0.000  0.00  0.00    +0.000 C 
ATOM      8  S   UNL     1       1.644  -1.291   0.000  0.00  0.00    +0.000 S 
ATOM      9  C   UNL     1       2.451  -1.463   0.000  0.00  0.00    +0.000 C 
ATOM     10  N   UNL     1       2.538  -2.283   0.000  0.00  0.00    +0.000 NA
ATOM     11  C   UNL     1       1.784  -2.619   0.000  0.00  0.00    +0.000 C 
ATOM     12  O   UNL     1       1.612  -3.426   0.000  0.00  0.00    +0.000 OA
ATOM     13  O   UNL     1       3.064  -0.911   0.000  0.00  0.00    +0.000 OA
ENDBRANCH   5   6
BRANCH   1  17
ATOM     14  C   UNL     1      -0.486   2.320   0.000  0.00  0.00    +0.000 A 
ATOM     15  C   UNL     1       0.228   1.907   0.000  0.00  0.00    +0.000 A 
ATOM     16  C   UNL     1       0.228   1.082   0.000  0.00  0.00    +0.000 A 
ATOM     17  C   UNL     1      -0.486   0.670   0.000  0.00  0.00    +0.000 A 
ATOM     18  C   UNL     1      -1.201   1.082   0.000  0.00  0.00    +0.000 A 
ATOM     19  C   UNL     1      -1.201   1.907   0.000  0.00  0.00    +0.000 A 
BRANCH  14  21
ATOM     20  O   UNL     1      -0.486   3.970   0.000  0.00  0.00    +0.000 OA
ATOM     21  S   UNL     1      -0.486   3.145   0.000  0.00  0.00    +0.000 S 
ATOM     22  O   UNL     1       0.339   3.145   0.000  0.00  0.00    +0.000 OA
ATOM     23  N   UNL     1      -1.311   3.145   0.000  0.00  0.00    +0.000 NA
ENDBRANCH  14  21
ENDBRANCH   1  17
TORSDOF 3
