REMARK  Name = C6L
REMARK  8 active torsions:
REMARK  status: ('A' for Active; 'I' for Inactive)
REMARK    1  A    between atoms: C_2  and  C_3
REMARK    2  A    between atoms: C_3  and  C_4
REMARK    3  A    between atoms: C_4  and  C_5
REMARK    4  A    between atoms: C_5  and  C_6
REMARK    5  A    between atoms: N_8  and  CA_9
REMARK    6  A    between atoms: CA_9  and  C_10
REMARK    7  A    between atoms: CA_9  and  C_13
REMARK    8  A    between atoms: C_13  and  C_14
REMARK                            x       y       z     vdW  Elec       q    Type
REMARK                         _______ _______ _______ _____ _____    ______ ____
ROOT
ATOM      1  O   UNL     1       0.523  -0.713   0.000  0.00  0.00    +0.000 OA
ATOM      2  C   UNL     1       0.523   0.112   0.000  0.00  0.00    +0.000 C 
ATOM      3  N   UNL     1       1.237   0.524   0.000  0.00  0.00    +0.000 NA
ENDROOT
BRANCH   3   4
ATOM      4  CA  UNL     1       1.952   0.112   0.000  0.00  0.00    +0.000 C 
BRANCH   4   5
ATOM      5  C   UNL     1       1.952  -0.713   0.000  0.00  0.00    +0.000 C 
ATOM      6  OXT UNL     1       1.237  -1.126   0.000  0.00  0.00    +0.000 OA
ATOM      7  O   UNL     1       2.666  -1.126   0.000  0.00  0.00    +0.000 OA
ENDBRANCH   4   5
BRANCH   4   8
ATOM      8  C   UNL     1       2.666   0.524   0.000  0.00  0.00    +0.000 C 
BRANCH   8   9
ATOM      9  C   UNL     1       3.380   0.112   0.000  0.00  0.00    +0.000 C 
ATOM     10  O   UNL     1       4.095   0.524   0.000  0.00  0.00    +0.000 OA
ENDBRANCH   8   9
ENDBRANCH   4   8
ENDBRANCH   3   4
BRANCH   2  11
ATOM     11  C   UNL     1      -0.192   0.524   0.000  0.00  0.00    +0.000 C 
BRANCH  11  12
ATOM     12  C   UNL     1      -0.906   0.112   0.000  0.00  0.00    +0.000 C 
BRANCH  12  13
ATOM     13  C   UNL     1      -1.621   0.524   0.000  0.00  0.00    +0.000 C 
BRANCH  13  14
ATOM     14  C   UNL     1      -2.335   0.112   0.000  0.00  0.00    +0.000 C 
ATOM     15  C   UNL     1      -3.050   0.524   0.000  0.00  0.00    +0.000 C 
ENDBRANCH  13  14
ENDBRANCH  12  13
ENDBRANCH  11  12
ENDBRANCH   2  11
TORSDOF 8
