REMARK  Name = C75
REMARK  4 active torsions:
REMARK  status: ('A' for Active; 'I' for Inactive)
REMARK    1  A    between atoms: S_2  and  N_4
REMARK    2  A    between atoms: S_2  and  C_6
REMARK    3  A    between atoms: C_9  and  C_12
REMARK    4  A    between atoms: C_16  and  C_17
REMARK                            x       y       z     vdW  Elec       q    Type
REMARK                         _______ _______ _______ _____ _____    ______ ____
ROOT
ATOM      1  C   UNL     1      -0.751  -0.594   0.000  0.00  0.00    +0.000 A 
ATOM      2  O   UNL     1      -0.083  -1.079   0.000  0.00  0.00    +0.000 OA
ATOM      3  C   UNL     1      -1.418  -1.079   0.000  0.00  0.00    +0.000 A 
ATOM      4  C   UNL     1      -1.163  -1.864   0.000  0.00  0.00    +0.000 A 
ATOM      5  C   UNL     1      -0.338  -1.864   0.000  0.00  0.00    +0.000 A 
ENDROOT
BRANCH   5   6
ATOM      6  C   UNL     1       0.147  -2.531   0.000  0.00  0.00    +0.000 C 
ATOM      7  C   UNL     1       0.967  -2.445   0.000  0.00  0.00    +0.000 C 
ATOM      8  S   UNL     1       1.380  -1.731   0.000  0.00  0.00    +0.000 S 
ATOM      9  C   UNL     1       2.187  -1.902   0.000  0.00  0.00    +0.000 C 
ATOM     10  N   UNL     1       2.800  -1.350   0.000  0.00  0.00    +0.000 NA
ATOM     11  N   UNL     1       2.273  -2.723   0.000  0.00  0.00    +0.000 NA
ATOM     12  C   UNL     1       1.519  -3.058   0.000  0.00  0.00    +0.000 C 
ATOM     13  O   UNL     1       1.348  -3.865   0.000  0.00  0.00    +0.000 OA
ENDBRANCH   5   6
BRANCH   1  17
ATOM     14  C   UNL     1      -0.751   1.881   0.000  0.00  0.00    +0.000 A 
ATOM     15  C   UNL     1      -0.036   1.468   0.000  0.00  0.00    +0.000 A 
ATOM     16  C   UNL     1      -0.036   0.643   0.000  0.00  0.00    +0.000 A 
ATOM     17  C   UNL     1      -0.751   0.231   0.000  0.00  0.00    +0.000 A 
ATOM     18  C   UNL     1      -1.465   0.643   0.000  0.00  0.00    +0.000 A 
ATOM     19  C   UNL     1      -1.465   1.468   0.000  0.00  0.00    +0.000 A 
BRANCH  14  21
ATOM     20  O   UNL     1      -1.576   2.706   0.000  0.00  0.00    +0.000 OA
ATOM     21  S   UNL     1      -0.751   2.706   0.000  0.00  0.00    +0.000 S 
ATOM     22  O   UNL     1       0.074   2.706   0.000  0.00  0.00    +0.000 OA
BRANCH  21  23
ATOM     23  N   UNL     1      -0.751   3.531   0.000  0.00  0.00    +0.000 NA
ATOM     24  C   UNL     1      -1.465   3.943   0.000  0.00  0.00    +0.000 C 
ENDBRANCH  21  23
ENDBRANCH  14  21
ENDBRANCH   1  17
TORSDOF 4
