REMARK  Name = C8C
REMARK  3 active torsions:
REMARK  status: ('A' for Active; 'I' for Inactive)
REMARK    1  A    between atoms: C_5  and  C_6
REMARK    2  A    between atoms: C_6  and  C_7
REMARK    3  A    between atoms: C_7  and  C_8
REMARK                            x       y       z     vdW  Elec       q    Type
REMARK                         _______ _______ _______ _____ _____    ______ ____
ROOT
ATOM      1  C   UNL     1      38.264  25.762   0.000  0.00  0.00    +0.000 C 
ENDROOT
BRANCH   1   2
ATOM      2  C   UNL     1      37.550  25.350   0.000  0.00  0.00    +0.000 A 
ATOM      3  C   UNL     1      37.550  24.525   0.000  0.00  0.00    +0.000 A 
ATOM      4  C   UNL     1      36.835  24.112   0.000  0.00  0.00    +0.000 A 
ATOM      5  C   UNL     1      36.121  24.525   0.000  0.00  0.00    +0.000 A 
ATOM      6  C   UNL     1      35.336  24.270   0.000  0.00  0.00    +0.000 A 
ATOM      7  C   UNL     1      34.851  24.937   0.000  0.00  0.00    +0.000 A 
ATOM      8  N   UNL     1      35.336  25.605   0.000  0.00  0.00    +0.000 NA
ATOM      9  C   UNL     1      36.121  25.350   0.000  0.00  0.00    +0.000 A 
ATOM     10  C   UNL     1      36.835  25.762   0.000  0.00  0.00    +0.000 A 
ENDBRANCH   1   2
BRANCH   1  11
ATOM     11  C   UNL     1      38.264  26.587   0.000  0.00  0.00    +0.000 C 
BRANCH  11  16
ATOM     12  N   UNL     1      41.122  26.587   0.000  0.00  0.00    +0.000 NA
ATOM     13  C   UNL     1      40.408  27.000   0.000  0.00  0.00    +0.000 A 
ATOM     14  C   UNL     1      39.693  28.237   0.000  0.00  0.00    +0.000 A 
ATOM     15  C   UNL     1      38.979  27.825   0.000  0.00  0.00    +0.000 A 
ATOM     16  C   UNL     1      38.979  27.000   0.000  0.00  0.00    +0.000 A 
ATOM     17  N   UNL     1      39.693  26.587   0.000  0.00  0.00    +0.000 NA
ATOM     18  N   UNL     1      40.408  27.825   0.000  0.00  0.00    +0.000 NA
ATOM     19  O   UNL     1      39.693  29.062   0.000  0.00  0.00    +0.000 OA
ENDBRANCH  11  16
ENDBRANCH   1  11
TORSDOF 3
