REMARK  Name = C8E
REMARK  18 active torsions:
REMARK  status: ('A' for Active; 'I' for Inactive)
REMARK    1  A    between atoms: C_2  and  C_3
REMARK    2  A    between atoms: C_3  and  C_4
REMARK    3  A    between atoms: C_4  and  C_5
REMARK    4  A    between atoms: C_5  and  C_6
REMARK    5  A    between atoms: C_6  and  C_7
REMARK    6  A    between atoms: C_7  and  C_8
REMARK    7  A    between atoms: C_8  and  O_9
REMARK    8  A    between atoms: O_9  and  C_10
REMARK    9  A    between atoms: C_10  and  C_11
REMARK   10  A    between atoms: C_11  and  O_12
REMARK   11  A    between atoms: O_12  and  C_13
REMARK   12  A    between atoms: C_13  and  C_14
REMARK   13  A    between atoms: C_14  and  O_15
REMARK   14  A    between atoms: O_15  and  C_16
REMARK   15  A    between atoms: C_16  and  C_17
REMARK   16  A    between atoms: C_17  and  O_18
REMARK   17  A    between atoms: O_18  and  C_19
REMARK   18  A    between atoms: C_19  and  C_20
REMARK                            x       y       z     vdW  Elec       q    Type
REMARK                         _______ _______ _______ _____ _____    ______ ____
ROOT
ATOM      1  C   UNL     1       0.457   0.221   0.000  0.00  0.00    +0.000 C 
ENDROOT
BRANCH   1   2
ATOM      2  C   UNL     1      -0.258  -0.192   0.000  0.00  0.00    +0.000 C 
BRANCH   2   3
ATOM      3  O   UNL     1      -0.972   0.221   0.000  0.00  0.00    +0.000 OA
BRANCH   3   4
ATOM      4  C   UNL     1      -1.687  -0.192   0.000  0.00  0.00    +0.000 C 
BRANCH   4   5
ATOM      5  C   UNL     1      -2.401   0.221   0.000  0.00  0.00    +0.000 C 
BRANCH   5   6
ATOM      6  C   UNL     1      -3.116  -0.192   0.000  0.00  0.00    +0.000 C 
BRANCH   6   7
ATOM      7  C   UNL     1      -3.830   0.221   0.000  0.00  0.00    +0.000 C 
BRANCH   7   8
ATOM      8  C   UNL     1      -4.545  -0.192   0.000  0.00  0.00    +0.000 C 
BRANCH   8   9
ATOM      9  C   UNL     1      -5.259   0.221   0.000  0.00  0.00    +0.000 C 
BRANCH   9  11
ATOM     10  C   UNL     1      -6.688   0.221   0.000  0.00  0.00    +0.000 C 
ATOM     11  C   UNL     1      -5.974  -0.192   0.000  0.00  0.00    +0.000 C 
ENDBRANCH   9  11
ENDBRANCH   8   9
ENDBRANCH   7   8
ENDBRANCH   6   7
ENDBRANCH   5   6
ENDBRANCH   4   5
ENDBRANCH   3   4
ENDBRANCH   2   3
ENDBRANCH   1   2
BRANCH   1  12
ATOM     12  O   UNL     1       1.171  -0.192   0.000  0.00  0.00    +0.000 OA
BRANCH  12  13
ATOM     13  C   UNL     1       1.886   0.221   0.000  0.00  0.00    +0.000 C 
BRANCH  13  14
ATOM     14  C   UNL     1       2.600  -0.192   0.000  0.00  0.00    +0.000 C 
BRANCH  14  15
ATOM     15  O   UNL     1       3.315   0.221   0.000  0.00  0.00    +0.000 OA
BRANCH  15  16
ATOM     16  C   UNL     1       4.029  -0.192   0.000  0.00  0.00    +0.000 C 
BRANCH  16  17
ATOM     17  C   UNL     1       4.744   0.221   0.000  0.00  0.00    +0.000 C 
BRANCH  17  18
ATOM     18  O   UNL     1       5.459  -0.192   0.000  0.00  0.00    +0.000 OA
BRANCH  18  19
ATOM     19  C   UNL     1       6.173   0.221   0.000  0.00  0.00    +0.000 C 
BRANCH  19  20
ATOM     20  C   UNL     1       6.888  -0.192   0.000  0.00  0.00    +0.000 C 
ATOM     21  O   UNL     1       7.602   0.221   0.000  0.00  0.00    +0.000 OA
ENDBRANCH  19  20
ENDBRANCH  18  19
ENDBRANCH  17  18
ENDBRANCH  16  17
ENDBRANCH  15  16
ENDBRANCH  14  15
ENDBRANCH  13  14
ENDBRANCH  12  13
ENDBRANCH   1  12
TORSDOF 18
