REMARK  Name = C90
REMARK  8 active torsions:
REMARK  status: ('A' for Active; 'I' for Inactive)
REMARK    1  A    between atoms: C_1  and  C_2
REMARK    2  A    between atoms: C_1  and  N_18
REMARK    3  A    between atoms: C_3  and  C_4
REMARK    4  A    between atoms: C_6  and  C_7
REMARK    5  A    between atoms: C_8  and  C_11
REMARK    6  A    between atoms: C_9  and  C_10
REMARK    7  A    between atoms: C_11  and  C_13
REMARK    8  A    between atoms: C_11  and  N_28
REMARK                            x       y       z     vdW  Elec       q    Type
REMARK                         _______ _______ _______ _____ _____    ______ ____
ROOT
ATOM      1  C   UNL     1       0.312  -0.225   0.000  0.00  0.00    +0.000 A 
ATOM      2  C   UNL     1       1.741  -1.050   0.000  0.00  0.00    +0.000 A 
ATOM      3  C   UNL     1       0.312  -1.050   0.000  0.00  0.00    +0.000 A 
ATOM      4  C   UNL     1       1.027   0.187   0.000  0.00  0.00    +0.000 A 
ATOM      5  C   UNL     1       1.027  -1.463   0.000  0.00  0.00    +0.000 A 
ATOM      6  C   UNL     1       1.741  -0.225   0.000  0.00  0.00    +0.000 A 
ENDROOT
BRANCH   2   7
ATOM      7  C   UNL     1       2.455  -1.463   0.000  0.00  0.00    +0.000 C 
ATOM      8  O   UNL     1       2.455  -2.288   0.000  0.00  0.00    +0.000 OA
ATOM      9  N   UNL     1       3.170  -1.050   0.000  0.00  0.00    +0.000 NA
BRANCH   9  10
ATOM     10  C   UNL     1       3.885  -1.463   0.000  0.00  0.00    +0.000 C 
BRANCH  10  11
ATOM     11  C   UNL     1       4.599  -1.050   0.000  0.00  0.00    +0.000 C 
ATOM     12  N   UNL     1       5.313  -1.463   0.000  0.00  0.00    +0.000 NA
ATOM     13  O   UNL     1       4.599  -0.225   0.000  0.00  0.00    +0.000 OA
ATOM     14  O   UNL     1       6.028  -1.050   0.000  0.00  0.00    +0.000 OA
ENDBRANCH  10  11
BRANCH  10  15
ATOM     15  C   UNL     1       3.885  -2.288   0.000  0.00  0.00    +0.000 C 
ATOM     16  C   UNL     1       4.599  -2.700   0.000  0.00  0.00    +0.000 C 
ATOM     17  O   UNL     1       3.170  -2.700   0.000  0.00  0.00    +0.000 OA
ENDBRANCH  10  15
ENDBRANCH   9  10
ENDBRANCH   2   7
BRANCH   1  19
ATOM     18  C   UNL     1      -1.117   0.600   0.000  0.00  0.00    +0.000 C 
ATOM     19  C   UNL     1      -0.402   0.187   0.000  0.00  0.00    +0.000 C 
BRANCH  18  21
ATOM     20  C   UNL     1      -3.260   1.837   0.000  0.00  0.00    +0.000 A 
ATOM     21  C   UNL     1      -1.831   1.012   0.000  0.00  0.00    +0.000 A 
ATOM     22  C   UNL     1      -2.546   2.250   0.000  0.00  0.00    +0.000 A 
ATOM     23  C   UNL     1      -3.260   1.012   0.000  0.00  0.00    +0.000 A 
ATOM     24  C   UNL     1      -1.831   1.837   0.000  0.00  0.00    +0.000 A 
ATOM     25  C   UNL     1      -2.546   0.600   0.000  0.00  0.00    +0.000 A 
BRANCH  20  26
ATOM     26  C   UNL     1      -3.975   2.250   0.000  0.00  0.00    +0.000 C 
BRANCH  26  32
ATOM     27  O   UNL     1      -6.118   1.012   0.000  0.00  0.00    +0.000 OA
ATOM     28  C   UNL     1      -6.118   1.837   0.000  0.00  0.00    +0.000 C 
ATOM     29  C   UNL     1      -5.404   0.600   0.000  0.00  0.00    +0.000 C 
ATOM     30  C   UNL     1      -5.404   2.250   0.000  0.00  0.00    +0.000 C 
ATOM     31  C   UNL     1      -4.689   1.012   0.000  0.00  0.00    +0.000 C 
ATOM     32  N   UNL     1      -4.689   1.837   0.000  0.00  0.00    +0.000 NA
ENDBRANCH  26  32
ENDBRANCH  20  26
ENDBRANCH  18  21
ENDBRANCH   1  19
TORSDOF 8
