REMARK  Name = C92
REMARK  6 active torsions:
REMARK  status: ('A' for Active; 'I' for Inactive)
REMARK    1  A    between atoms: C_5  and  C_6
REMARK    2  A    between atoms: C_6  and  C_7
REMARK    3  A    between atoms: C_7  and  N_8
REMARK    4  A    between atoms: C_9  and  C_11
REMARK    5  A    between atoms: C_17  and  C_18
REMARK    6  A    between atoms: N_20  and  C_21
REMARK                            x       y       z     vdW  Elec       q    Type
REMARK                         _______ _______ _______ _____ _____    ______ ____
ROOT
ATOM      1  C   UNL     1       0.701   0.672   0.000  0.00  0.00    +0.000 A 
ATOM      2  C   UNL     1       1.416   0.259   0.000  0.00  0.00    +0.000 A 
ATOM      3  C   UNL     1       0.701   1.497   0.000  0.00  0.00    +0.000 A 
ATOM      4  C   UNL     1       1.416   1.909   0.000  0.00  0.00    +0.000 A 
ATOM      5  C   UNL     1       2.130   1.497   0.000  0.00  0.00    +0.000 A 
ATOM      6  C   UNL     1       2.845   1.909   0.000  0.00  0.00    +0.000 C 
ATOM      7  C   UNL     1       2.130   0.672   0.000  0.00  0.00    +0.000 A 
ENDROOT
BRANCH   7   8
ATOM      8  C   UNL     1       2.845   0.259   0.000  0.00  0.00    +0.000 C 
ATOM      9  O   UNL     1       3.559   0.672   0.000  0.00  0.00    +0.000 OA
ATOM     10  N   UNL     1       2.845  -0.566   0.000  0.00  0.00    +0.000 NA
BRANCH  10  11
ATOM     11  C   UNL     1       3.559  -0.978   0.000  0.00  0.00    +0.000 A 
ATOM     12  C   UNL     1       3.559  -1.803   0.000  0.00  0.00    +0.000 A 
ATOM     13  C   UNL     1       4.274  -2.216   0.000  0.00  0.00    +0.000 A 
ATOM     14  C   UNL     1       4.988  -1.803   0.000  0.00  0.00    +0.000 A 
ATOM     15  N   UNL     1       5.702  -2.216   0.000  0.00  0.00    +0.000 NA
ATOM     16  N   UNL     1       4.988  -0.978   0.000  0.00  0.00    +0.000 NA
ATOM     17  C   UNL     1       4.274  -0.566   0.000  0.00  0.00    +0.000 A 
ENDBRANCH  10  11
ENDBRANCH   7   8
BRANCH   1  19
ATOM     18  N   UNL     1      -0.728   0.672   0.000  0.00  0.00    +0.000 NA
ATOM     19  C   UNL     1      -0.013   0.259   0.000  0.00  0.00    +0.000 C 
ATOM     20  O   UNL     1      -0.013  -0.566   0.000  0.00  0.00    +0.000 OA
BRANCH  18  21
ATOM     21  C   UNL     1      -1.442   0.259   0.000  0.00  0.00    +0.000 C 
BRANCH  21  22
ATOM     22  C   UNL     1      -2.157   0.672   0.000  0.00  0.00    +0.000 C 
BRANCH  22  27
ATOM     23  C   UNL     1      -3.625   0.595   0.000  0.00  0.00    +0.000 C 
ATOM     24  C   UNL     1      -4.177  -0.018   0.000  0.00  0.00    +0.000 C 
ATOM     25  C   UNL     1      -3.764  -0.733   0.000  0.00  0.00    +0.000 C 
ATOM     26  C   UNL     1      -2.957  -0.561   0.000  0.00  0.00    +0.000 C 
ATOM     27  C   UNL     1      -2.871   0.259   0.000  0.00  0.00    +0.000 C 
ENDBRANCH  22  27
ENDBRANCH  21  22
ENDBRANCH  18  21
ENDBRANCH   1  19
TORSDOF 6
