REMARK  Name = C94
REMARK  4 active torsions:
REMARK  status: ('A' for Active; 'I' for Inactive)
REMARK    1  A    between atoms: S_2  and  C_5
REMARK    2  A    between atoms: C_6  and  C_7
REMARK    3  A    between atoms: C_12  and  C_15
REMARK    4  A    between atoms: C_19  and  C_20
REMARK                            x       y       z     vdW  Elec       q    Type
REMARK                         _______ _______ _______ _____ _____    ______ ____
ROOT
ATOM      1  C   UNL     1      -0.718   1.765   0.000  0.00  0.00    +0.000 A 
ATOM      2  C   UNL     1      -0.004   1.353   0.000  0.00  0.00    +0.000 A 
ATOM      3  C   UNL     1      -0.004   0.528   0.000  0.00  0.00    +0.000 A 
ATOM      4  C   UNL     1      -0.718   0.115   0.000  0.00  0.00    +0.000 A 
ATOM      5  C   UNL     1      -1.432   0.528   0.000  0.00  0.00    +0.000 A 
ATOM      6  C   UNL     1      -1.432   1.353   0.000  0.00  0.00    +0.000 A 
ENDROOT
BRANCH   4   7
ATOM      7  C   UNL     1      -0.718  -0.710   0.000  0.00  0.00    +0.000 A 
ATOM      8  O   UNL     1      -0.051  -1.195   0.000  0.00  0.00    +0.000 OA
ATOM      9  C   UNL     1      -1.385  -1.195   0.000  0.00  0.00    +0.000 A 
ATOM     10  C   UNL     1      -1.131  -1.979   0.000  0.00  0.00    +0.000 A 
ATOM     11  C   UNL     1      -0.305  -1.979   0.000  0.00  0.00    +0.000 A 
BRANCH  11  12
ATOM     12  C   UNL     1       0.179  -2.647   0.000  0.00  0.00    +0.000 C 
ATOM     13  C   UNL     1       1.000  -2.561   0.000  0.00  0.00    +0.000 C 
ATOM     14  S   UNL     1       1.412  -1.846   0.000  0.00  0.00    +0.000 S 
ATOM     15  C   UNL     1       2.219  -2.018   0.000  0.00  0.00    +0.000 C 
ATOM     16  N   UNL     1       2.833  -1.466   0.000  0.00  0.00    +0.000 NA
ATOM     17  N   UNL     1       2.306  -2.838   0.000  0.00  0.00    +0.000 NA
ATOM     18  C   UNL     1       1.552  -3.174   0.000  0.00  0.00    +0.000 C 
ATOM     19  O   UNL     1       1.380  -3.981   0.000  0.00  0.00    +0.000 OA
ENDBRANCH  11  12
ENDBRANCH   4   7
BRANCH   1  21
ATOM     20  O   UNL     1      -0.718   3.415   0.000  0.00  0.00    +0.000 OA
ATOM     21  S   UNL     1      -0.718   2.590   0.000  0.00  0.00    +0.000 S 
ATOM     22  O   UNL     1      -1.543   2.590   0.000  0.00  0.00    +0.000 OA
ATOM     23  N   UNL     1       0.107   2.590   0.000  0.00  0.00    +0.000 NA
ENDBRANCH   1  21
BRANCH   2  24
ATOM     24  C   UNL     1       0.711   1.765   0.000  0.00  0.00    +0.000 C 
ATOM     25  F   UNL     1       1.425   2.178   0.000  0.00  0.00    +0.000 F 
ATOM     26  F   UNL     1       1.123   1.051   0.000  0.00  0.00    +0.000 F 
ATOM     27  F   UNL     1       0.539   2.572   0.000  0.00  0.00    +0.000 F 
ENDBRANCH   2  24
TORSDOF 4
