REMARK  Name = C95
REMARK  3 active torsions:
REMARK  status: ('A' for Active; 'I' for Inactive)
REMARK    1  A    between atoms: C_3  and  C_20
REMARK    2  A    between atoms: C_6  and  C_9
REMARK    3  A    between atoms: C_13  and  C_14
REMARK                            x       y       z     vdW  Elec       q    Type
REMARK                         _______ _______ _______ _____ _____    ______ ____
ROOT
ATOM      1  C   UNL     1      -0.664  -0.260   0.000  0.00  0.00    +0.000 A 
ATOM      2  O   UNL     1       0.003  -0.745   0.000  0.00  0.00    +0.000 OA
ATOM      3  C   UNL     1      -1.332  -0.745   0.000  0.00  0.00    +0.000 A 
ATOM      4  C   UNL     1      -1.077  -1.530   0.000  0.00  0.00    +0.000 A 
ATOM      5  C   UNL     1      -0.252  -1.530   0.000  0.00  0.00    +0.000 A 
ENDROOT
BRANCH   5   6
ATOM      6  C   UNL     1       0.233  -2.197   0.000  0.00  0.00    +0.000 C 
ATOM      7  C   UNL     1       1.053  -2.111   0.000  0.00  0.00    +0.000 C 
ATOM      8  S   UNL     1       1.466  -1.396   0.000  0.00  0.00    +0.000 S 
ATOM      9  C   UNL     1       2.273  -1.568   0.000  0.00  0.00    +0.000 C 
ATOM     10  N   UNL     1       2.886  -1.016   0.000  0.00  0.00    +0.000 NA
ATOM     11  N   UNL     1       2.359  -2.388   0.000  0.00  0.00    +0.000 NA
ATOM     12  C   UNL     1       1.605  -2.724   0.000  0.00  0.00    +0.000 C 
ATOM     13  O   UNL     1       1.434  -3.531   0.000  0.00  0.00    +0.000 OA
ENDBRANCH   5   6
BRANCH   1  17
ATOM     14  C   UNL     1      -0.664   2.215   0.000  0.00  0.00    +0.000 A 
ATOM     15  C   UNL     1       0.050   1.803   0.000  0.00  0.00    +0.000 A 
ATOM     16  C   UNL     1       0.050   0.978   0.000  0.00  0.00    +0.000 A 
ATOM     17  C   UNL     1      -0.664   0.565   0.000  0.00  0.00    +0.000 A 
ATOM     18  C   UNL     1      -1.379   0.978   0.000  0.00  0.00    +0.000 A 
ATOM     19  C   UNL     1      -1.379   1.803   0.000  0.00  0.00    +0.000 A 
BRANCH  14  22
ATOM     20  O   UNL     1      -1.379   3.453   0.000  0.00  0.00    +0.000 OA
ATOM     21  O   UNL     1       0.050   3.453   0.000  0.00  0.00    +0.000 OA
ATOM     22  C   UNL     1      -0.664   3.040   0.000  0.00  0.00    +0.000 C 
ENDBRANCH  14  22
ENDBRANCH   1  17
TORSDOF 3
