REMARK  Name = C96
REMARK  3 active torsions:
REMARK  status: ('A' for Active; 'I' for Inactive)
REMARK    1  A    between atoms: S_2  and  C_5
REMARK    2  A    between atoms: C_8  and  C_11
REMARK    3  A    between atoms: C_15  and  C_16
REMARK                            x       y       z     vdW  Elec       q    Type
REMARK                         _______ _______ _______ _____ _____    ______ ____
ROOT
ATOM      1  C   UNL     1      -0.749  -0.265   0.000  0.00  0.00    +0.000 A 
ATOM      2  O   UNL     1      -0.082  -0.750   0.000  0.00  0.00    +0.000 OA
ATOM      3  C   UNL     1      -1.416  -0.750   0.000  0.00  0.00    +0.000 A 
ATOM      4  C   UNL     1      -1.161  -1.534   0.000  0.00  0.00    +0.000 A 
ATOM      5  C   UNL     1      -0.337  -1.534   0.000  0.00  0.00    +0.000 A 
ENDROOT
BRANCH   5   6
ATOM      6  C   UNL     1       0.148  -2.202   0.000  0.00  0.00    +0.000 C 
ATOM      7  C   UNL     1       0.969  -2.115   0.000  0.00  0.00    +0.000 C 
ATOM      8  S   UNL     1       1.381  -1.401   0.000  0.00  0.00    +0.000 S 
ATOM      9  C   UNL     1       2.188  -1.572   0.000  0.00  0.00    +0.000 C 
ATOM     10  N   UNL     1       2.801  -1.020   0.000  0.00  0.00    +0.000 NA
ATOM     11  N   UNL     1       2.275  -2.393   0.000  0.00  0.00    +0.000 NA
ATOM     12  C   UNL     1       1.521  -2.728   0.000  0.00  0.00    +0.000 C 
ATOM     13  C   UNL     1      -0.187  -2.955   0.000  0.00  0.00    +0.000 C 
ATOM     14  O   UNL     1       1.349  -3.535   0.000  0.00  0.00    +0.000 OA
ENDBRANCH   5   6
BRANCH   1  18
ATOM     15  C   UNL     1      -0.749   2.210   0.000  0.00  0.00    +0.000 A 
ATOM     16  C   UNL     1      -1.464   1.798   0.000  0.00  0.00    +0.000 A 
ATOM     17  C   UNL     1      -1.464   0.973   0.000  0.00  0.00    +0.000 A 
ATOM     18  C   UNL     1      -0.749   0.560   0.000  0.00  0.00    +0.000 A 
ATOM     19  C   UNL     1      -0.035   0.973   0.000  0.00  0.00    +0.000 A 
ATOM     20  C   UNL     1      -0.035   1.798   0.000  0.00  0.00    +0.000 A 
BRANCH  15  22
ATOM     21  O   UNL     1      -0.749   3.860   0.000  0.00  0.00    +0.000 OA
ATOM     22  S   UNL     1      -0.749   3.035   0.000  0.00  0.00    +0.000 S 
ATOM     23  O   UNL     1       0.076   3.035   0.000  0.00  0.00    +0.000 OA
ATOM     24  N   UNL     1      -1.574   3.035   0.000  0.00  0.00    +0.000 NA
ENDBRANCH  15  22
ENDBRANCH   1  18
TORSDOF 3
