REMARK  Name = C9P
REMARK  7 active torsions:
REMARK  status: ('A' for Active; 'I' for Inactive)
REMARK    1  A    between atoms: C_1  and  B_30
REMARK    2  A    between atoms: N_2  and  C_12
REMARK    3  A    between atoms: N_2  and  S_23
REMARK    4  A    between atoms: C_8  and  S_26
REMARK    5  A    between atoms: C_13  and  C_21
REMARK    6  A    between atoms: C_15  and  S_23
REMARK    7  A    between atoms: S_26  and  C_29
REMARK                            x       y       z     vdW  Elec       q    Type
REMARK                         _______ _______ _______ _____ _____    ______ ____
ROOT
ATOM      1  O   UNL     1      -1.363  -1.757   0.000  0.00  0.00    +0.000 OA
ATOM      2  O   UNL     1      -0.853  -0.187   0.000  0.00  0.00    +0.000 OA
ATOM      3  S   UNL     1      -1.108  -0.972   0.000  0.00  0.00    +0.000 S 
ENDROOT
BRANCH   3   6
ATOM      4  C   UNL     1       1.012  -1.227   0.000  0.00  0.00    +0.000 A 
ATOM      5  C   UNL     1       0.344  -0.742   0.000  0.00  0.00    +0.000 A 
ATOM      6  C   UNL     1      -0.323  -1.227   0.000  0.00  0.00    +0.000 A 
ATOM      7  C   UNL     1       0.757  -2.011   0.000  0.00  0.00    +0.000 A 
ATOM      8  S   UNL     1      -0.068  -2.011   0.000  0.00  0.00    +0.000 S 
BRANCH   4  10
ATOM      9  O   UNL     1       1.542  -0.187   0.000  0.00  0.00    +0.000 OA
ATOM     10  S   UNL     1       1.796  -0.972   0.000  0.00  0.00    +0.000 S 
ATOM     11  O   UNL     1       2.051  -1.757   0.000  0.00  0.00    +0.000 OA
BRANCH  10  17
ATOM     12  C   UNL     1       2.753   0.090   0.000  0.00  0.00    +0.000 A 
ATOM     13  C   UNL     1       3.537   0.345   0.000  0.00  0.00    +0.000 A 
ATOM     14  C   UNL     1       4.150  -0.207   0.000  0.00  0.00    +0.000 A 
ATOM     15  C   UNL     1       3.979  -1.014   0.000  0.00  0.00    +0.000 A 
ATOM     16  C   UNL     1       3.194  -1.269   0.000  0.00  0.00    +0.000 A 
ATOM     17  C   UNL     1       2.581  -0.717   0.000  0.00  0.00    +0.000 A 
ENDBRANCH  10  17
ENDBRANCH   4  10
ENDBRANCH   3   6
BRANCH   3  18
ATOM     18  N   UNL     1      -1.892  -0.717   0.000  0.00  0.00    +0.000 NA
BRANCH  18  21
ATOM     19  C   UNL     1      -3.020   1.152   0.000  0.00  0.00    +0.000 A 
ATOM     20  C   UNL     1      -2.849   0.345   0.000  0.00  0.00    +0.000 A 
ATOM     21  C   UNL     1      -2.064   0.090   0.000  0.00  0.00    +0.000 A 
ATOM     22  C   UNL     1      -1.451   0.642   0.000  0.00  0.00    +0.000 A 
ATOM     23  C   UNL     1      -1.622   1.449   0.000  0.00  0.00    +0.000 A 
ATOM     24  C   UNL     1      -2.407   1.704   0.000  0.00  0.00    +0.000 A 
BRANCH  19  27
ATOM     25  O   UNL     1      -4.418   0.855   0.000  0.00  0.00    +0.000 OA
ATOM     26  O   UNL     1      -3.976   2.214   0.000  0.00  0.00    +0.000 OA
ATOM     27  B   UNL     1      -3.805   1.407   0.000  0.00  0.00    +0.000 B 
ENDBRANCH  19  27
BRANCH  22  28
ATOM     28  C   UNL     1      -0.666   0.387   0.000  0.00  0.00    +0.000 C 
ATOM     29  O   UNL     1      -0.495  -0.420   0.000  0.00  0.00    +0.000 OA
ATOM     30  O   UNL     1      -0.053   0.939   0.000  0.00  0.00    +0.000 OA
ENDBRANCH  22  28
ENDBRANCH  18  21
ENDBRANCH   3  18
TORSDOF 7
