REMARK  Name = CA2
REMARK  6 active torsions:
REMARK  status: ('A' for Active; 'I' for Inactive)
REMARK    1  A    between atoms: C_2  and  C_4
REMARK    2  A    between atoms: C_7  and  C_13
REMARK    3  A    between atoms: C_13  and  C_14
REMARK    4  A    between atoms: C_14  and  C_15
REMARK    5  A    between atoms: C_15  and  O_16
REMARK    6  A    between atoms: O_16  and  C_17
REMARK                            x       y       z     vdW  Elec       q    Type
REMARK                         _______ _______ _______ _____ _____    ______ ____
ROOT
ATOM      1  C   UNL     1      -1.781  -0.952   0.000  0.00  0.00    +0.000 C 
ATOM      2  O   UNL     1      -2.063  -1.728   0.000  0.00  0.00    +0.000 OA
ATOM      3  C   UNL     1      -1.781  -0.127   0.000  0.00  0.00    +0.000 C 
ATOM      4  C   UNL     1      -1.067   0.285   0.000  0.00  0.00    +0.000 C 
ATOM      5  C   UNL     1      -0.352  -0.127   0.000  0.00  0.00    +0.000 C 
ATOM      6  O   UNL     1       0.362   0.285   0.000  0.00  0.00    +0.000 OA
ATOM      7  C   UNL     1      -0.352  -0.952   0.000  0.00  0.00    +0.000 C 
ATOM      8  O   UNL     1       0.362  -1.365   0.000  0.00  0.00    +0.000 OA
ATOM      9  C   UNL     1      -1.067  -1.365   0.000  0.00  0.00    +0.000 C 
ENDROOT
BRANCH   1  11
ATOM     10  O   UNL     1      -2.876  -0.034   0.000  0.00  0.00    +0.000 OA
ATOM     11  C   UNL     1      -2.594  -0.809   0.000  0.00  0.00    +0.000 C 
ATOM     12  O   UNL     1      -3.124  -1.441   0.000  0.00  0.00    +0.000 OA
ENDBRANCH   1  11
BRANCH   4  13
ATOM     13  C   UNL     1      -1.067   1.110   0.000  0.00  0.00    +0.000 C 
BRANCH  13  14
ATOM     14  C   UNL     1      -0.352   1.523   0.000  0.00  0.00    +0.000 C 
BRANCH  14  15
ATOM     15  C   UNL     1       0.362   1.110   0.000  0.00  0.00    +0.000 C 
BRANCH  15  16
ATOM     16  O   UNL     1       1.077   1.523   0.000  0.00  0.00    +0.000 OA
BRANCH  16  17
ATOM     17  C   UNL     1       1.791   1.110   0.000  0.00  0.00    +0.000 A 
ATOM     18  C   UNL     1       2.505   1.523   0.000  0.00  0.00    +0.000 A 
ATOM     19  C   UNL     1       3.220   1.110   0.000  0.00  0.00    +0.000 A 
ATOM     20  C   UNL     1       3.220   0.285   0.000  0.00  0.00    +0.000 A 
ATOM     21  C   UNL     1       2.505  -0.127   0.000  0.00  0.00    +0.000 A 
ATOM     22  C   UNL     1       1.791   0.285   0.000  0.00  0.00    +0.000 A 
ENDBRANCH  16  17
ENDBRANCH  15  16
ENDBRANCH  14  15
ENDBRANCH  13  14
ENDBRANCH   4  13
TORSDOF 6
