REMARK  Name = CAH
REMARK  0 active torsions:
REMARK  status: ('A' for Active; 'I' for Inactive)
REMARK                            x       y       z     vdW  Elec       q    Type
REMARK                         _______ _______ _______ _____ _____    ______ ____
ROOT
ATOM      1  C   UNL     1      -0.325  -0.629   0.000  0.00  0.00    +0.000 C 
ATOM      2  C   UNL     1      -1.101  -1.020   0.000  0.00  0.00    +0.000 C 
ATOM      3  O   UNL     1      -1.695  -1.592   0.000  0.00  0.00    +0.000 OA
ATOM      4  C   UNL     1      -0.735  -0.359   0.000  0.00  0.00    +0.000 C 
ATOM      5  C   UNL     1      -0.095   0.091   0.000  0.00  0.00    +0.000 C 
ATOM      6  C   UNL     1       0.701  -0.374   0.000  0.00  0.00    +0.000 C 
ATOM      7  O   UNL     1       1.489  -0.130   0.000  0.00  0.00    +0.000 OA
ATOM      8  C   UNL     1       0.406  -1.000   0.000  0.00  0.00    +0.000 C 
ATOM      9  C   UNL     1      -0.255   0.906   0.000  0.00  0.00    +0.000 C 
ATOM     10  C   UNL     1      -0.835   1.493   0.000  0.00  0.00    +0.000 C 
ATOM     11  C   UNL     1       0.232   1.572   0.000  0.00  0.00    +0.000 C 
ATOM     12  C   UNL     1      -0.326  -1.454   0.000  0.00  0.00    +0.000 C 
ENDROOT
TORSDOF 0
