REMARK  Name = Carotene-beta
REMARK  10 active torsions:
REMARK  status: ('A' for Active; 'I' for Inactive)
REMARK    1  A    between atoms: C_1  and  C_2
REMARK    2  A    between atoms: C_5  and  C_7
REMARK    3  A    between atoms: C_8  and  C_10
REMARK    4  A    between atoms: C_11  and  C_12
REMARK    5  A    between atoms: C_13  and  C_15
REMARK    6  A    between atoms: C_16  and  C_17
REMARK    7  A    between atoms: C_18  and  C_19
REMARK    8  A    between atoms: C_21  and  C_22
REMARK    9  A    between atoms: C_23  and  C_24
REMARK   10  A    between atoms: C_26  and  C_27
REMARK                            x       y       z     vdW  Elec       q    Type
REMARK                         _______ _______ _______ _____ _____    ______ ____
ROOT
ATOM      1  C   UNL     1      -0.359   0.182   0.000  0.00  0.00    +0.000 C 
ATOM      2  C   UNL     1       0.355  -0.231   0.000  0.00  0.00    +0.000 C 
ENDROOT
BRANCH   1   4
ATOM      3  C   UNL     1      -1.788   0.182   0.000  0.00  0.00    +0.000 C 
ATOM      4  C   UNL     1      -1.073  -0.231   0.000  0.00  0.00    +0.000 C 
ATOM      5  C   UNL     1      -1.788   1.007   0.000  0.00  0.00    +0.000 C 
BRANCH   3   7
ATOM      6  C   UNL     1      -3.217   0.182   0.000  0.00  0.00    +0.000 C 
ATOM      7  C   UNL     1      -2.502  -0.231   0.000  0.00  0.00    +0.000 C 
BRANCH   6   9
ATOM      8  C   UNL     1      -4.646   0.182   0.000  0.00  0.00    +0.000 C 
ATOM      9  C   UNL     1      -3.931  -0.231   0.000  0.00  0.00    +0.000 C 
ATOM     10  C   UNL     1      -4.646   1.007   0.000  0.00  0.00    +0.000 C 
BRANCH   8  12
ATOM     11  C   UNL     1      -6.075   0.182   0.000  0.00  0.00    +0.000 C 
ATOM     12  C   UNL     1      -5.360  -0.231   0.000  0.00  0.00    +0.000 C 
BRANCH  11  13
ATOM     13  C   UNL     1      -6.789  -0.231   0.000  0.00  0.00    +0.000 C 
ATOM     14  C   UNL     1      -7.504  -1.468   0.000  0.00  0.00    +0.000 C 
ATOM     15  C   UNL     1      -8.218  -0.231   0.000  0.00  0.00    +0.000 C 
ATOM     16  C   UNL     1      -8.218  -1.056   0.000  0.00  0.00    +0.000 C 
ATOM     17  C   UNL     1      -6.789  -1.056   0.000  0.00  0.00    +0.000 C 
ATOM     18  C   UNL     1      -6.075  -1.468   0.000  0.00  0.00    +0.000 C 
ATOM     19  C   UNL     1      -7.916   0.896   0.000  0.00  0.00    +0.000 C 
ATOM     20  C   UNL     1      -7.504   0.182   0.000  0.00  0.00    +0.000 C 
ATOM     21  C   UNL     1      -7.091   0.896   0.000  0.00  0.00    +0.000 C 
ENDBRANCH  11  13
ENDBRANCH   8  12
ENDBRANCH   6   9
ENDBRANCH   3   7
ENDBRANCH   1   4
BRANCH   2  22
ATOM     22  C   UNL     1       1.070   0.182   0.000  0.00  0.00    +0.000 C 
ATOM     23  C   UNL     1       1.784  -0.231   0.000  0.00  0.00    +0.000 C 
ATOM     24  C   UNL     1       1.784  -1.056   0.000  0.00  0.00    +0.000 C 
BRANCH  23  25
ATOM     25  C   UNL     1       2.499   0.182   0.000  0.00  0.00    +0.000 C 
ATOM     26  C   UNL     1       3.213  -0.231   0.000  0.00  0.00    +0.000 C 
BRANCH  26  27
ATOM     27  C   UNL     1       3.928   0.182   0.000  0.00  0.00    +0.000 C 
ATOM     28  C   UNL     1       4.642  -0.231   0.000  0.00  0.00    +0.000 C 
ATOM     29  C   UNL     1       4.642  -1.056   0.000  0.00  0.00    +0.000 C 
BRANCH  28  30
ATOM     30  C   UNL     1       5.357   0.182   0.000  0.00  0.00    +0.000 C 
ATOM     31  C   UNL     1       6.071  -0.231   0.000  0.00  0.00    +0.000 C 
BRANCH  31  32
ATOM     32  C   UNL     1       6.786   0.182   0.000  0.00  0.00    +0.000 C 
ATOM     33  C   UNL     1       7.500   1.419   0.000  0.00  0.00    +0.000 C 
ATOM     34  C   UNL     1       8.215   0.182   0.000  0.00  0.00    +0.000 C 
ATOM     35  C   UNL     1       8.215   1.007   0.000  0.00  0.00    +0.000 C 
ATOM     36  C   UNL     1       6.071   1.419   0.000  0.00  0.00    +0.000 C 
ATOM     37  C   UNL     1       6.786   1.007   0.000  0.00  0.00    +0.000 C 
ATOM     38  C   UNL     1       7.088  -0.945   0.000  0.00  0.00    +0.000 C 
ATOM     39  C   UNL     1       7.500  -0.231   0.000  0.00  0.00    +0.000 C 
ATOM     40  C   UNL     1       7.913  -0.945   0.000  0.00  0.00    +0.000 C 
ENDBRANCH  31  32
ENDBRANCH  28  30
ENDBRANCH  26  27
ENDBRANCH  23  25
ENDBRANCH   2  22
TORSDOF 10
