REMARK  Name = Carotene-beta
REMARK  5 active torsions:
REMARK  status: ('A' for Active; 'I' for Inactive)
REMARK    1  A    between atoms: C_1  and  C_2
REMARK    2  A    between atoms: C_5  and  C_7
REMARK    3  A    between atoms: C_8  and  C_10
REMARK    4  A    between atoms: C_11  and  C_12
REMARK    5  A    between atoms: C_13  and  C_15
REMARK                            x       y       z     vdW  Elec       q    Type
REMARK                         _______ _______ _______ _____ _____    ______ ____
ROOT
ATOM      1  C   UNL     1      -6.075   0.182   0.000  0.00  0.00    +0.000 C 
ATOM      2  C   UNL     1      -5.360  -0.231   0.000  0.00  0.00    +0.000 C 
ENDROOT
BRANCH   1   3
ATOM      3  C   UNL     1      -6.789  -0.231   0.000  0.00  0.00    +0.000 C 
ATOM      4  C   UNL     1      -7.504  -1.468   0.000  0.00  0.00    +0.000 C 
ATOM      5  C   UNL     1      -8.218  -0.231   0.000  0.00  0.00    +0.000 C 
ATOM      6  C   UNL     1      -8.218  -1.056   0.000  0.00  0.00    +0.000 C 
ATOM      7  C   UNL     1      -6.789  -1.056   0.000  0.00  0.00    +0.000 C 
ATOM      8  C   UNL     1      -6.075  -1.468   0.000  0.00  0.00    +0.000 C 
ATOM      9  C   UNL     1      -7.916   0.896   0.000  0.00  0.00    +0.000 C 
ATOM     10  C   UNL     1      -7.504   0.182   0.000  0.00  0.00    +0.000 C 
ATOM     11  C   UNL     1      -7.091   0.896   0.000  0.00  0.00    +0.000 C 
ENDBRANCH   1   3
BRANCH   2  12
ATOM     12  C   UNL     1      -4.646   0.182   0.000  0.00  0.00    +0.000 C 
ATOM     13  C   UNL     1      -3.931  -0.231   0.000  0.00  0.00    +0.000 C 
ATOM     14  C   UNL     1      -4.646   1.007   0.000  0.00  0.00    +0.000 C 
BRANCH  13  15
ATOM     15  C   UNL     1      -3.217   0.182   0.000  0.00  0.00    +0.000 C 
ATOM     16  C   UNL     1      -2.502  -0.231   0.000  0.00  0.00    +0.000 C 
BRANCH  16  17
ATOM     17  C   UNL     1      -1.788   0.182   0.000  0.00  0.00    +0.000 C 
ATOM     18  C   UNL     1      -1.073  -0.231   0.000  0.00  0.00    +0.000 C 
ATOM     19  C   UNL     1      -1.788   1.007   0.000  0.00  0.00    +0.000 C 
BRANCH  18  20
ATOM     20  C   UNL     1      -0.359   0.182   0.000  0.00  0.00    +0.000 C 
ATOM     21  O   UNL     1       0.355  -0.231   0.000  0.00  0.00    +0.000 OA
ENDBRANCH  18  20
ENDBRANCH  16  17
ENDBRANCH  13  15
ENDBRANCH   2  12
TORSDOF 5
