REMARK  Name = CB1
REMARK  4 active torsions:
REMARK  status: ('A' for Active; 'I' for Inactive)
REMARK    1  A    between atoms: C_2  and  N_7
REMARK    2  A    between atoms: C_3  and  C_10
REMARK    3  A    between atoms: C_5  and  N_13
REMARK    4  A    between atoms: C_6  and  N_16
REMARK                            x       y       z     vdW  Elec       q    Type
REMARK                         _______ _______ _______ _____ _____    ______ ____
ROOT
ATOM      1  C   UNL     1       1.037   0.668   0.000  0.00  0.00    +0.000 A 
ATOM      2  C   UNL     1       1.037  -0.157   0.000  0.00  0.00    +0.000 A 
ATOM      3  C   UNL     1       0.323  -0.569   0.000  0.00  0.00    +0.000 A 
ATOM      4  C   UNL     1      -0.392  -0.157   0.000  0.00  0.00    +0.000 A 
ATOM      5  C   UNL     1      -0.392   0.668   0.000  0.00  0.00    +0.000 A 
ATOM      6  C   UNL     1       0.323   1.081   0.000  0.00  0.00    +0.000 A 
ENDROOT
BRANCH   2   7
ATOM      7  N   UNL     1       1.752  -0.569   0.000  0.00  0.00    +0.000 N 
ATOM      8  O   UNL     1       2.466  -0.157   0.000  0.00  0.00    +0.000 OA
ATOM      9  O   UNL     1       1.752  -1.394   0.000  0.00  0.00    +0.000 OA
ENDBRANCH   2   7
BRANCH   3  10
ATOM     10  C   UNL     1       0.323  -1.394   0.000  0.00  0.00    +0.000 C 
ATOM     11  N   UNL     1      -0.392  -1.807   0.000  0.00  0.00    +0.000 NA
ATOM     12  O   UNL     1       1.037  -1.807   0.000  0.00  0.00    +0.000 OA
ENDBRANCH   3  10
BRANCH   5  13
ATOM     13  N   UNL     1      -1.106   1.081   0.000  0.00  0.00    +0.000 N 
ATOM     14  C   UNL     1      -1.931   1.081   0.000  0.00  0.00    +0.000 C 
ATOM     15  C   UNL     1      -1.519   1.795   0.000  0.00  0.00    +0.000 C 
ENDBRANCH   5  13
BRANCH   6  16
ATOM     16  N   UNL     1       0.323   1.906   0.000  0.00  0.00    +0.000 N 
ATOM     17  O   UNL     1      -0.392   2.318   0.000  0.00  0.00    +0.000 OA
ATOM     18  O   UNL     1       1.037   2.318   0.000  0.00  0.00    +0.000 OA
ENDBRANCH   6  16
TORSDOF 4
