REMARK  Name = CB3
REMARK  11 active torsions:
REMARK  status: ('A' for Active; 'I' for Inactive)
REMARK    1  A    between atoms: C_9  and  C_13
REMARK    2  A    between atoms: C_13  and  N_14
REMARK    3  A    between atoms: N_14  and  C_18
REMARK    4  A    between atoms: N_14  and  C_33
REMARK    5  A    between atoms: C_15  and  C_21
REMARK    6  A    between atoms: N_23  and  CA_24
REMARK    7  A    between atoms: CA_24  and  CB_25
REMARK    8  A    between atoms: CA_24  and  C_30
REMARK    9  A    between atoms: CB_25  and  CG_26
REMARK   10  A    between atoms: CG_26  and  CD_27
REMARK   11  A    between atoms: C_33  and  C_34
REMARK                            x       y       z     vdW  Elec       q    Type
REMARK                         _______ _______ _______ _____ _____    ______ ____
ROOT
ATOM      1  C   UNK A   0       1.209   0.917   0.000  0.00  0.00    +0.000 A 
ATOM      2  C   UNK A   0       1.209   0.092   0.000  0.00  0.00    +0.000 A 
ATOM      3  C   UNK A   0       0.494  -0.321   0.000  0.00  0.00    +0.000 A 
ATOM      4  C   UNK A   0      -0.220   0.092   0.000  0.00  0.00    +0.000 A 
ATOM      5  C   UNK A   0      -0.220   0.917   0.000  0.00  0.00    +0.000 A 
ATOM      6  C   UNK A   0       0.494   1.329   0.000  0.00  0.00    +0.000 A 
ENDROOT
BRANCH   1   7
ATOM      7  C   UNK A   0       1.923   1.329   0.000  0.00  0.00    +0.000 C 
ATOM      8  O   UNK A   0       1.923   2.154   0.000  0.00  0.00    +0.000 OA
ATOM      9  N   GLU A   1       2.638   0.917   0.000  0.00  0.00    +0.000 NA
BRANCH   9  10
ATOM     10  CA  GLU A   1       3.352   1.329   0.000  0.00  0.00    +0.000 C 
BRANCH  10  11
ATOM     11  C   GLU A   1       3.352   2.154   0.000  0.00  0.00    +0.000 C 
ATOM     12  O   GLU A   1       4.066   2.567   0.000  0.00  0.00    +0.000 OA
ATOM     13  OXT GLU A   1       2.638   2.567   0.000  0.00  0.00    +0.000 OA
ENDBRANCH  10  11
BRANCH  10  14
ATOM     14  CB  GLU A   1       4.066   0.917   0.000  0.00  0.00    +0.000 C 
BRANCH  14  15
ATOM     15  CG  GLU A   1       4.781   1.329   0.000  0.00  0.00    +0.000 C 
BRANCH  15  16
ATOM     16  CD  GLU A   1       5.495   0.917   0.000  0.00  0.00    +0.000 C 
ATOM     17  OE1 GLU A   1       6.210   1.329   0.000  0.00  0.00    +0.000 OA
ATOM     18  OE2 GLU A   1       5.495   0.092   0.000  0.00  0.00    +0.000 OA
ENDBRANCH  15  16
ENDBRANCH  14  15
ENDBRANCH  10  14
ENDBRANCH   9  10
ENDBRANCH   1   7
BRANCH   4  19
ATOM     19  N   UNK A   0      -0.935  -0.321   0.000  0.00  0.00    +0.000 N 
BRANCH  19  20
ATOM     20  C   UNK A   0      -1.649   0.092   0.000  0.00  0.00    +0.000 C 
BRANCH  20  29
ATOM     21  N   UNK A   0      -4.507  -1.558   0.000  0.00  0.00    +0.000 NA
ATOM     22  C   UNK A   0      -5.222  -1.146   0.000  0.00  0.00    +0.000 A 
ATOM     23  N   UNK A   0      -5.936  -1.558   0.000  0.00  0.00    +0.000 NA
ATOM     24  N   UNK A   0      -5.222  -0.321   0.000  0.00  0.00    +0.000 NA
ATOM     25  C   UNK A   0      -4.507   0.092   0.000  0.00  0.00    +0.000 A 
ATOM     26  O   UNK A   0      -4.507   0.917   0.000  0.00  0.00    +0.000 OA
ATOM     27  C   UNK A   0      -3.793  -0.321   0.000  0.00  0.00    +0.000 A 
ATOM     28  C   UNK A   0      -3.078   0.092   0.000  0.00  0.00    +0.000 A 
ATOM     29  C   UNK A   0      -2.364  -0.321   0.000  0.00  0.00    +0.000 A 
ATOM     30  C   UNK A   0      -2.364  -1.146   0.000  0.00  0.00    +0.000 A 
ATOM     31  C   UNK A   0      -3.078  -1.558   0.000  0.00  0.00    +0.000 A 
ATOM     32  C   UNK A   0      -3.793  -1.146   0.000  0.00  0.00    +0.000 A 
ENDBRANCH  20  29
ENDBRANCH  19  20
BRANCH  19  33
ATOM     33  C   UNK A   0      -0.935  -1.146   0.000  0.00  0.00    +0.000 C 
BRANCH  33  34
ATOM     34  C   UNK A   0      -1.649  -1.558   0.000  0.00  0.00    +0.000 C 
ATOM     35  C   UNK A   0      -2.364  -1.971   0.000  0.00  0.00    +0.000 C 
ENDBRANCH  33  34
ENDBRANCH  19  33
ENDBRANCH   4  19
TORSDOF 11
