REMARK  Name = CB4
REMARK  7 active torsions:
REMARK  status: ('A' for Active; 'I' for Inactive)
REMARK    1  A    between atoms: B_1  and  C_4
REMARK    2  A    between atoms: C_4  and  N_5
REMARK    3  A    between atoms: C_6  and  C_8
REMARK    4  A    between atoms: C_8  and  C_12
REMARK    5  A    between atoms: N_9  and  O_10
REMARK    6  A    between atoms: O_10  and  C_11
REMARK    7  A    between atoms: C_11  and  C_20
REMARK                            x       y       z     vdW  Elec       q    Type
REMARK                         _______ _______ _______ _____ _____    ______ ____
ROOT
ATOM      1  C   UNL     1       0.235  -0.271   0.000  0.00  0.00    +0.000 C 
ATOM      2  N   UNL     1       0.950   0.141   0.000  0.00  0.00    +0.000 NA
ENDROOT
BRANCH   1   3
ATOM      3  C   UNL     1       0.235  -1.096   0.000  0.00  0.00    +0.000 A 
ATOM      4  C   UNL     1       0.903  -1.581   0.000  0.00  0.00    +0.000 A 
ATOM      5  S   UNL     1       0.648  -2.366   0.000  0.00  0.00    +0.000 S 
ATOM      6  C   UNL     1      -0.177  -2.366   0.000  0.00  0.00    +0.000 A 
ATOM      7  N   UNL     1      -0.662  -3.033   0.000  0.00  0.00    +0.000 NA
ATOM      8  N   UNL     1      -0.432  -1.581   0.000  0.00  0.00    +0.000 NA
ENDBRANCH   1   3
BRANCH   1  10
ATOM      9  N   UNL     1      -1.194  -0.271   0.000  0.00  0.00    +0.000 NA
ATOM     10  C   UNL     1      -0.479   0.141   0.000  0.00  0.00    +0.000 C 
ATOM     11  O   UNL     1      -0.479   0.966   0.000  0.00  0.00    +0.000 OA
BRANCH   9  12
ATOM     12  C   UNL     1      -1.908   0.141   0.000  0.00  0.00    +0.000 C 
BRANCH  12  13
ATOM     13  B   UNL     1      -2.623  -0.271   0.000  0.00  0.00    +0.000 B 
ATOM     14  O   UNL     1      -3.337   0.141   0.000  0.00  0.00    +0.000 OA
ATOM     15  O   UNL     1      -2.623  -1.096   0.000  0.00  0.00    +0.000 OA
ENDBRANCH  12  13
ENDBRANCH   9  12
ENDBRANCH   1  10
BRANCH   2  16
ATOM     16  O   UNL     1       0.950   0.966   0.000  0.00  0.00    +0.000 OA
BRANCH  16  17
ATOM     17  C   UNL     1       1.664   1.379   0.000  0.00  0.00    +0.000 C 
ATOM     18  C   UNL     1       2.077   0.664   0.000  0.00  0.00    +0.000 C 
ATOM     19  C   UNL     1       1.252   2.093   0.000  0.00  0.00    +0.000 C 
BRANCH  17  20
ATOM     20  C   UNL     1       2.379   1.791   0.000  0.00  0.00    +0.000 C 
ATOM     21  O   UNL     1       2.379   2.616   0.000  0.00  0.00    +0.000 OA
ATOM     22  O   UNL     1       3.093   1.379   0.000  0.00  0.00    +0.000 OA
ENDBRANCH  17  20
ENDBRANCH  16  17
ENDBRANCH   2  16
TORSDOF 7
