REMARK  Name = CBC
REMARK  5 active torsions:
REMARK  status: ('A' for Active; 'I' for Inactive)
REMARK    1  A    between atoms: C_2  and  C_5
REMARK    2  A    between atoms: C_10  and  S_11
REMARK    3  A    between atoms: S_11  and  N_14
REMARK    4  A    between atoms: N_14  and  N_15
REMARK    5  A    between atoms: C_16  and  C_18
REMARK                            x       y       z     vdW  Elec       q    Type
REMARK                         _______ _______ _______ _____ _____    ______ ____
ROOT
ATOM      1  N   UNL     1      -0.627   0.609   0.000  0.00  0.00    +0.000 NA
ENDROOT
BRANCH   1   2
ATOM      2  S   UNL     1      -1.341   0.196   0.000  0.00  0.00    +0.000 S 
ATOM      3  O   UNL     1      -0.929  -0.518   0.000  0.00  0.00    +0.000 OA
ATOM      4  O   UNL     1      -1.513   1.003   0.000  0.00  0.00    +0.000 OA
BRANCH   2  10
ATOM      5  C   UNL     1      -2.770   0.196   0.000  0.00  0.00    +0.000 A 
ATOM      6  C   UNL     1      -3.485  -0.216   0.000  0.00  0.00    +0.000 A 
ATOM      7  C   UNL     1      -3.485  -1.042   0.000  0.00  0.00    +0.000 A 
ATOM      8  C   UNL     1      -2.770  -1.454   0.000  0.00  0.00    +0.000 A 
ATOM      9  C   UNL     1      -2.056  -1.042   0.000  0.00  0.00    +0.000 A 
ATOM     10  C   UNL     1      -2.056  -0.216   0.000  0.00  0.00    +0.000 A 
BRANCH   5  12
ATOM     11  F   UNL     1      -2.770   1.846   0.000  0.00  0.00    +0.000 F 
ATOM     12  C   UNL     1      -2.770   1.021   0.000  0.00  0.00    +0.000 C 
ATOM     13  F   UNL     1      -1.945   1.021   0.000  0.00  0.00    +0.000 F 
ATOM     14  F   UNL     1      -3.595   1.021   0.000  0.00  0.00    +0.000 F 
ENDBRANCH   5  12
ENDBRANCH   2  10
ENDBRANCH   1   2
BRANCH   1  15
ATOM     15  N   UNL     1       0.088   0.196   0.000  0.00  0.00    +0.000 NA
ATOM     16  C   UNL     1       0.802   0.609   0.000  0.00  0.00    +0.000 C 
ATOM     17  O   UNL     1       0.802   1.433   0.000  0.00  0.00    +0.000 OA
BRANCH  16  18
ATOM     18  C   UNL     1       1.517   0.196   0.000  0.00  0.00    +0.000 A 
ATOM     19  C   UNL     1       2.270   0.532   0.000  0.00  0.00    +0.000 A 
ATOM     20  O   UNL     1       1.603  -0.625   0.000  0.00  0.00    +0.000 OA
ATOM     21  C   UNL     1       2.410  -0.796   0.000  0.00  0.00    +0.000 A 
ATOM     22  C   UNL     1       2.822  -0.082   0.000  0.00  0.00    +0.000 A 
ATOM     23  C   UNL     1       3.647  -0.082   0.000  0.00  0.00    +0.000 A 
ATOM     24  C   UNL     1       2.822  -1.510   0.000  0.00  0.00    +0.000 A 
ATOM     25  C   UNL     1       3.647  -1.510   0.000  0.00  0.00    +0.000 A 
ATOM     26  C   UNL     1       4.060  -0.796   0.000  0.00  0.00    +0.000 A 
ATOM     27 CL   UNL     1       4.885  -0.796   0.000  0.00  0.00    +0.000 Cl
ENDBRANCH  16  18
ENDBRANCH   1  15
TORSDOF 5
