REMARK  Name = CBP
REMARK  6 active torsions:
REMARK  status: ('A' for Active; 'I' for Inactive)
REMARK    1  A    between atoms: C_3  and  C_5
REMARK    2  A    between atoms: C_5  and  C_6
REMARK    3  A    between atoms: C_6  and  S_12
REMARK    4  A    between atoms: S_12  and  C_15
REMARK    5  A    between atoms: C_18  and  O_21
REMARK    6  A    between atoms: O_21  and  C_22
REMARK                            x       y       z     vdW  Elec       q    Type
REMARK                         _______ _______ _______ _____ _____    ______ ____
ROOT
ATOM      1  S   UNL     1      -0.530  -0.434   0.000  0.00  0.00    +0.000 S 
ATOM      2  O   UNL     1       0.102  -0.964   0.000  0.00  0.00    +0.000 OA
ATOM      3  O   UNL     1      -1.162   0.096   0.000  0.00  0.00    +0.000 OA
ENDROOT
BRANCH   1   4
ATOM      4  C   UNL     1       0.001   0.198   0.000  0.00  0.00    +0.000 A 
ATOM      5  C   UNL     1      -0.282   0.973   0.000  0.00  0.00    +0.000 A 
ATOM      6  C   UNL     1       0.249   1.605   0.000  0.00  0.00    +0.000 A 
ATOM      7  C   UNL     1       1.061   1.462   0.000  0.00  0.00    +0.000 A 
ATOM      8  C   UNL     1       1.343   0.687   0.000  0.00  0.00    +0.000 A 
ATOM      9  C   UNL     1       0.813   0.055   0.000  0.00  0.00    +0.000 A 
BRANCH   7  10
ATOM     10  O   UNL     1       1.591   2.094   0.000  0.00  0.00    +0.000 OA
BRANCH  10  11
ATOM     11  C   UNL     1       2.404   1.951   0.000  0.00  0.00    +0.000 A 
ATOM     12  C   UNL     1       2.934   2.583   0.000  0.00  0.00    +0.000 A 
ATOM     13  C   UNL     1       3.747   2.439   0.000  0.00  0.00    +0.000 A 
ATOM     14  C   UNL     1       4.029   1.664   0.000  0.00  0.00    +0.000 A 
ATOM     15  C   UNL     1       3.499   1.032   0.000  0.00  0.00    +0.000 A 
ATOM     16  C   UNL     1       2.686   1.175   0.000  0.00  0.00    +0.000 A 
ATOM     17 CL   UNL     1       4.841   1.521   0.000  0.00  0.00    +0.000 Cl
ENDBRANCH  10  11
ENDBRANCH   7  10
ENDBRANCH   1   4
BRANCH   1  18
ATOM     18  C   UNL     1      -1.060  -1.066   0.000  0.00  0.00    +0.000 C 
ATOM     19  C   UNL     1      -0.345  -1.478   0.000  0.00  0.00    +0.000 C 
ATOM     20  C   UNL     1      -0.345  -2.303   0.000  0.00  0.00    +0.000 C 
ATOM     21  O   UNL     1      -1.060  -2.716   0.000  0.00  0.00    +0.000 OA
ATOM     22  C   UNL     1      -1.774  -2.303   0.000  0.00  0.00    +0.000 C 
ATOM     23  C   UNL     1      -1.774  -1.478   0.000  0.00  0.00    +0.000 C 
BRANCH  18  24
ATOM     24  C   UNL     1      -1.590  -0.434   0.000  0.00  0.00    +0.000 C 
BRANCH  24  27
ATOM     25  O   UNL     1      -3.745  -0.088   0.000  0.00  0.00    +0.000 OA
ATOM     26  N   UNL     1      -2.933   0.055   0.000  0.00  0.00    +0.000 NA
ATOM     27  C   UNL     1      -2.403  -0.577   0.000  0.00  0.00    +0.000 C 
ATOM     28  O   UNL     1      -2.685  -1.352   0.000  0.00  0.00    +0.000 OA
ENDBRANCH  24  27
ENDBRANCH  18  24
ENDBRANCH   1  18
TORSDOF 6
