REMARK  Name = CBT
REMARK  4 active torsions:
REMARK  status: ('A' for Active; 'I' for Inactive)
REMARK    1  A    between atoms: C_7  and  C_8
REMARK    2  A    between atoms: C_8  and  N_9
REMARK    3  A    between atoms: N_9  and  C_15
REMARK    4  A    between atoms: C_15  and  C_16
REMARK                            x       y       z     vdW  Elec       q    Type
REMARK                         _______ _______ _______ _____ _____    ______ ____
ROOT
ATOM      1  N   UNL     1      -0.024   0.481   0.000  0.00  0.00    +0.000 N 
ATOM      2  C   UNL     1      -0.024  -0.344   0.000  0.00  0.00    +0.000 A 
ATOM      3  N   UNL     1       0.643  -0.829   0.000  0.00  0.00    +0.000 NA
ATOM      4  N   UNL     1       0.389  -1.613   0.000  0.00  0.00    +0.000 NA
ATOM      5  N   UNL     1      -0.436  -1.613   0.000  0.00  0.00    +0.000 NA
ATOM      6  N   UNL     1      -0.691  -0.829   0.000  0.00  0.00    +0.000 NA
ENDROOT
BRANCH   1   7
ATOM      7  C   UNL     1      -0.738   0.894   0.000  0.00  0.00    +0.000 C 
BRANCH   7  14
ATOM      8 CL   UNL     1      -3.596  -0.756   0.000  0.00  0.00    +0.000 Cl
ATOM      9  C   UNL     1      -2.882  -0.344   0.000  0.00  0.00    +0.000 A 
ATOM     10  C   UNL     1      -2.882   0.481   0.000  0.00  0.00    +0.000 A 
ATOM     11  C   UNL     1      -2.167   0.894   0.000  0.00  0.00    +0.000 A 
ATOM     12  C   UNL     1      -2.167  -0.756   0.000  0.00  0.00    +0.000 A 
ATOM     13  C   UNL     1      -1.453  -0.344   0.000  0.00  0.00    +0.000 A 
ATOM     14  C   UNL     1      -1.453   0.481   0.000  0.00  0.00    +0.000 A 
ENDBRANCH   7  14
ENDBRANCH   1   7
BRANCH   1  15
ATOM     15  C   UNL     1       0.691   0.894   0.000  0.00  0.00    +0.000 C 
BRANCH  15  16
ATOM     16  C   UNL     1       1.405   0.481   0.000  0.00  0.00    +0.000 A 
ATOM     17  C   UNL     1       2.119   0.894   0.000  0.00  0.00    +0.000 A 
ATOM     18  C   UNL     1       2.834   0.481   0.000  0.00  0.00    +0.000 A 
ATOM     19  C   UNL     1       2.834  -0.344   0.000  0.00  0.00    +0.000 A 
ATOM     20 CL   UNL     1       3.549  -0.756   0.000  0.00  0.00    +0.000 Cl
ATOM     21  C   UNL     1       2.119  -0.756   0.000  0.00  0.00    +0.000 A 
ATOM     22  C   UNL     1       1.405  -0.344   0.000  0.00  0.00    +0.000 A 
ENDBRANCH  15  16
ENDBRANCH   1  15
TORSDOF 4
