REMARK  Name = CC3
REMARK  5 active torsions:
REMARK  status: ('A' for Active; 'I' for Inactive)
REMARK    1  A    between atoms: C_2  and  C_3
REMARK    2  A    between atoms: N_6  and  C_7
REMARK    3  A    between atoms: C_12  and  N_13
REMARK    4  A    between atoms: N_20  and  C_21
REMARK    5  A    between atoms: C_23  and  C_24
REMARK                            x       y       z     vdW  Elec       q    Type
REMARK                         _______ _______ _______ _____ _____    ______ ____
ROOT
ATOM      1  N   UNL     1       2.394  -0.360   0.000  0.00  0.00    +0.000 NA
ATOM      2  C   UNL     1       1.679  -0.773   0.000  0.00  0.00    +0.000 A 
ATOM      3  N   UNL     1       1.679  -1.598   0.000  0.00  0.00    +0.000 NA
ATOM      4  C   UNL     1       0.965  -2.010   0.000  0.00  0.00    +0.000 A 
ATOM      5  C   UNL     1       0.251  -1.598   0.000  0.00  0.00    +0.000 A 
ATOM      6  N   UNL     1       0.965  -0.360   0.000  0.00  0.00    +0.000 NA
ATOM      7  C   UNL     1       0.251  -0.773   0.000  0.00  0.00    +0.000 A 
ATOM      8  N   UNL     1      -0.464  -0.360   0.000  0.00  0.00    +0.000 NA
ENDROOT
BRANCH   1  14
ATOM      9  C   UNL     1       3.823  -2.010   0.000  0.00  0.00    +0.000 A 
ATOM     10  C   UNL     1       3.108  -1.598   0.000  0.00  0.00    +0.000 A 
ATOM     11  C   UNL     1       4.537  -1.598   0.000  0.00  0.00    +0.000 A 
ATOM     12  C   UNL     1       4.537  -0.773   0.000  0.00  0.00    +0.000 A 
ATOM     13  C   UNL     1       3.823  -0.360   0.000  0.00  0.00    +0.000 A 
ATOM     14  C   UNL     1       3.108  -0.773   0.000  0.00  0.00    +0.000 A 
BRANCH   9  17
ATOM     15  O   UNL     1       5.252  -2.835   0.000  0.00  0.00    +0.000 OA
ATOM     16  C   UNL     1       4.537  -3.248   0.000  0.00  0.00    +0.000 C 
ATOM     17  N   UNL     1       3.823  -2.835   0.000  0.00  0.00    +0.000 NA
BRANCH  16  18
ATOM     18  C   UNL     1       4.537  -4.073   0.000  0.00  0.00    +0.000 C 
ATOM     19  C   UNL     1       4.950  -4.787   0.000  0.00  0.00    +0.000 C 
ATOM     20  C   UNL     1       4.125  -4.787   0.000  0.00  0.00    +0.000 C 
ENDBRANCH  16  18
ENDBRANCH   9  17
ENDBRANCH   1  14
BRANCH   8  21
ATOM     21  C   UNL     1      -0.464   0.465   0.000  0.00  0.00    +0.000 A 
ATOM     22  C   UNL     1      -1.178   0.877   0.000  0.00  0.00    +0.000 A 
ATOM     23  C   UNL     1      -1.178   1.702   0.000  0.00  0.00    +0.000 A 
ATOM     24  C   UNL     1      -0.464   2.115   0.000  0.00  0.00    +0.000 A 
ATOM     25  C   UNL     1       0.251   1.702   0.000  0.00  0.00    +0.000 A 
ATOM     26  C   UNL     1       0.251   0.877   0.000  0.00  0.00    +0.000 A 
BRANCH  23  27
ATOM     27  C   UNL     1      -1.893   2.115   0.000  0.00  0.00    +0.000 C 
ATOM     28  F   UNL     1      -2.607   2.527   0.000  0.00  0.00    +0.000 F 
ATOM     29  F   UNL     1      -1.480   2.829   0.000  0.00  0.00    +0.000 F 
ATOM     30  F   UNL     1      -2.305   1.400   0.000  0.00  0.00    +0.000 F 
ENDBRANCH  23  27
ENDBRANCH   8  21
TORSDOF 5
