REMARK  Name = CCB
REMARK  2 active torsions:
REMARK  status: ('A' for Active; 'I' for Inactive)
REMARK    1  A    between atoms: N_1  and  C_4
REMARK    2  A    between atoms: N_1  and  C_5
REMARK                            x       y       z     vdW  Elec       q    Type
REMARK                         _______ _______ _______ _____ _____    ______ ____
ROOT
ATOM      1  N   UNL     1       0.749   0.144   0.000  0.00  0.00    +0.000 N 
ATOM      2  C   UNL     1       1.463   0.556   0.000  0.00  0.00    +0.000 C 
ATOM      3  O   UNL     1       2.178   0.144   0.000  0.00  0.00    +0.000 OA
ENDROOT
BRANCH   1   4
ATOM      4  C   UNL     1       0.034   0.556   0.000  0.00  0.00    +0.000 C 
ATOM      5  C   UNL     1      -0.719   0.221   0.000  0.00  0.00    +0.000 C 
ATOM      6  C   UNL     1      -1.271   0.834   0.000  0.00  0.00    +0.000 C 
ATOM      7  C   UNL     1      -0.859   1.548   0.000  0.00  0.00    +0.000 C 
ATOM      8  C   UNL     1      -0.052   1.377   0.000  0.00  0.00    +0.000 C 
ENDBRANCH   1   4
BRANCH   1   9
ATOM      9  C   UNL     1       0.749  -0.681   0.000  0.00  0.00    +0.000 C 
ATOM     10  C   UNL     1       1.332  -1.265   0.000  0.00  0.00    +0.000 C 
ATOM     11  C   UNL     1       0.749  -1.848   0.000  0.00  0.00    +0.000 C 
ATOM     12  C   UNL     1       0.165  -1.265   0.000  0.00  0.00    +0.000 C 
ENDBRANCH   1   9
TORSDOF 2
