REMARK  Name = CCK
REMARK  5 active torsions:
REMARK  status: ('A' for Active; 'I' for Inactive)
REMARK    1  A    between atoms: C_5  and  N_8
REMARK    2  A    between atoms: C_14  and  C_25
REMARK    3  A    between atoms: C_19  and  N_21
REMARK    4  A    between atoms: N_21  and  C_22
REMARK    5  A    between atoms: C_25  and  C_26
REMARK                            x       y       z     vdW  Elec       q    Type
REMARK                         _______ _______ _______ _____ _____    ______ ____
ROOT
ATOM      1  N   UNL     1      -3.255  -0.265   0.000  0.00  0.00    +0.000 NA
ATOM      2  C   UNL     1      -3.000   0.520   0.000  0.00  0.00    +0.000 A 
ATOM      3  C   UNL     1      -2.193   0.692   0.000  0.00  0.00    +0.000 A 
ATOM      4  N   UNL     1      -1.641   0.079   0.000  0.00  0.00    +0.000 NA
ATOM      5  C   UNL     1      -1.895  -0.706   0.000  0.00  0.00    +0.000 A 
ATOM      6  C   UNL     1      -2.703  -0.878   0.000  0.00  0.00    +0.000 A 
ATOM      7  N   UNL     1      -1.938   1.476   0.000  0.00  0.00    +0.000 N 
ATOM      8  C   UNL     1      -1.153   1.731   0.000  0.00  0.00    +0.000 A 
ATOM      9  C   UNL     1      -1.153   2.556   0.000  0.00  0.00    +0.000 A 
ATOM     10  C   UNL     1      -1.938   2.811   0.000  0.00  0.00    +0.000 A 
ATOM     11  N   UNL     1      -2.423   2.144   0.000  0.00  0.00    +0.000 NA
ATOM     12  C   UNL     1      -0.439   2.969   0.000  0.00  0.00    +0.000 A 
ATOM     13  C   UNL     1       0.276   2.556   0.000  0.00  0.00    +0.000 A 
ATOM     14  C   UNL     1       0.276   1.731   0.000  0.00  0.00    +0.000 A 
ATOM     15  C   UNL     1      -0.439   1.319   0.000  0.00  0.00    +0.000 A 
ENDROOT
BRANCH   5  16
ATOM     16  N   UNL     1      -1.343  -1.319   0.000  0.00  0.00    +0.000 N 
ATOM     17  C   UNL     1      -0.523  -1.233   0.000  0.00  0.00    +0.000 A 
ATOM     18  C   UNL     1      -0.187  -1.987   0.000  0.00  0.00    +0.000 A 
ATOM     19  C   UNL     1      -0.800  -2.539   0.000  0.00  0.00    +0.000 A 
ATOM     20  C   UNL     1      -1.515  -2.126   0.000  0.00  0.00    +0.000 A 
BRANCH  18  21
ATOM     21  C   UNL     1       0.620  -2.158   0.000  0.00  0.00    +0.000 C 
BRANCH  21  22
ATOM     22  C   UNL     1       0.875  -2.943   0.000  0.00  0.00    +0.000 C 
ATOM     23  O   UNL     1       1.681  -3.114   0.000  0.00  0.00    +0.000 OA
ATOM     24  O   UNL     1       0.323  -3.556   0.000  0.00  0.00    +0.000 OA
ENDBRANCH  21  22
ENDBRANCH  18  21
ENDBRANCH   5  16
BRANCH  14  25
ATOM     25  N   UNL     1       0.990   1.319   0.000  0.00  0.00    +0.000 NA
BRANCH  25  26
ATOM     26  C   UNL     1       1.705   1.731   0.000  0.00  0.00    +0.000 C 
ATOM     27  C   UNL     1       2.419   1.319   0.000  0.00  0.00    +0.000 C 
ATOM     28  C   UNL     1       1.705   2.556   0.000  0.00  0.00    +0.000 C 
ENDBRANCH  25  26
ENDBRANCH  14  25
TORSDOF 5
