REMARK  Name = CCO
REMARK  4 active torsions:
REMARK  status: ('A' for Active; 'I' for Inactive)
REMARK    1  A    between atoms: C_1  and  C_12
REMARK    2  A    between atoms: C_9  and  S_10
REMARK    3  A    between atoms: S_10  and  C_14
REMARK    4  A    between atoms: C_14  and  C_15
REMARK                            x       y       z     vdW  Elec       q    Type
REMARK                         _______ _______ _______ _____ _____    ______ ____
ROOT
ATOM      1  O   UNL     1       0.403  -0.885   0.000  0.00  0.00    +0.000 OA
ATOM      2  C   UNL     1      -0.422  -0.885   0.000  0.00  0.00    +0.000 A 
ATOM      3  N   UNL     1      -0.677  -0.101   0.000  0.00  0.00    +0.000 NA
ATOM      4  C   UNL     1      -0.009   0.384   0.000  0.00  0.00    +0.000 A 
ATOM      5  N   UNL     1       0.658  -0.101   0.000  0.00  0.00    +0.000 NA
ENDROOT
BRANCH   4   6
ATOM      6  C   UNL     1      -0.009   1.209   0.000  0.00  0.00    +0.000 A 
ATOM      7  C   UNL     1      -0.724   1.622   0.000  0.00  0.00    +0.000 A 
ATOM      8  C   UNL     1      -0.724   2.447   0.000  0.00  0.00    +0.000 A 
ATOM      9  C   UNL     1      -0.009   2.859   0.000  0.00  0.00    +0.000 A 
ATOM     10  C   UNL     1       0.705   2.447   0.000  0.00  0.00    +0.000 A 
ATOM     11  C   UNL     1       0.705   1.622   0.000  0.00  0.00    +0.000 A 
ATOM     12 CL   UNL     1       1.419   2.859   0.000  0.00  0.00    +0.000 Cl
ENDBRANCH   4   6
BRANCH   2  13
ATOM     13  S   UNL     1      -0.907  -1.553   0.000  0.00  0.00    +0.000 S 
BRANCH  13  14
ATOM     14  C   UNL     1      -0.571  -2.307   0.000  0.00  0.00    +0.000 C 
BRANCH  14  15
ATOM     15  C   UNL     1      -1.056  -2.974   0.000  0.00  0.00    +0.000 C 
ATOM     16  O   UNL     1      -0.721  -3.728   0.000  0.00  0.00    +0.000 OA
ATOM     17  O   UNL     1      -1.877  -2.888   0.000  0.00  0.00    +0.000 OA
ENDBRANCH  14  15
ENDBRANCH  13  14
ENDBRANCH   2  13
TORSDOF 4
