REMARK  Name = CCT
REMARK  6 active torsions:
REMARK  status: ('A' for Active; 'I' for Inactive)
REMARK    1  A    between atoms: C_2  and  C_12
REMARK    2  A    between atoms: C_5  and  C_10
REMARK    3  A    between atoms: C_7  and  C_14
REMARK    4  A    between atoms: C_8  and  N_17
REMARK    5  A    between atoms: N_17  and  S_18
REMARK    6  A    between atoms: S_18  and  C_20
REMARK                            x       y       z     vdW  Elec       q    Type
REMARK                         _______ _______ _______ _____ _____    ______ ____
ROOT
ATOM      1  C   UNL     1      -0.697   1.852   0.000  0.00  0.00    +0.000 A 
ATOM      2  C   UNL     1      -0.030   1.367   0.000  0.00  0.00    +0.000 A 
ATOM      3  C   UNL     1      -0.285   0.583   0.000  0.00  0.00    +0.000 A 
ATOM      4  C   UNL     1      -1.110   0.583   0.000  0.00  0.00    +0.000 A 
ATOM      5  S   UNL     1      -1.365   1.367   0.000  0.00  0.00    +0.000 S 
ENDROOT
BRANCH   4  10
ATOM      6  C   UNL     1      -1.744  -1.506   0.000  0.00  0.00    +0.000 A 
ATOM      7  C   UNL     1      -2.564  -1.420   0.000  0.00  0.00    +0.000 A 
ATOM      8  C   UNL     1      -2.900  -0.666   0.000  0.00  0.00    +0.000 A 
ATOM      9  C   UNL     1      -2.415   0.001   0.000  0.00  0.00    +0.000 A 
ATOM     10  C   UNL     1      -1.595  -0.085   0.000  0.00  0.00    +0.000 A 
ATOM     11  C   UNL     1      -1.259  -0.839   0.000  0.00  0.00    +0.000 A 
BRANCH   7  12
ATOM     12  C   UNL     1      -3.049  -2.087   0.000  0.00  0.00    +0.000 C 
ATOM     13  N   UNL     1      -3.534  -2.755   0.000  0.00  0.00    +0.000 NA
ENDBRANCH   7  12
ENDBRANCH   4  10
BRANCH   1  14
ATOM     14  C   UNL     1      -0.697   2.677   0.000  0.00  0.00    +0.000 C 
ATOM     15  O   UNL     1      -1.412   3.090   0.000  0.00  0.00    +0.000 OA
ATOM     16  O   UNL     1       0.017   3.090   0.000  0.00  0.00    +0.000 OA
ENDBRANCH   1  14
BRANCH   2  17
ATOM     17  N   UNL     1       0.755   1.622   0.000  0.00  0.00    +0.000 NA
BRANCH  17  18
ATOM     18  S   UNL     1       1.368   1.070   0.000  0.00  0.00    +0.000 S 
ATOM     19  O   UNL     1       0.816   0.457   0.000  0.00  0.00    +0.000 OA
ATOM     20  O   UNL     1       1.920   1.683   0.000  0.00  0.00    +0.000 OA
BRANCH  18  22
ATOM     21  C   UNL     1       1.810  -0.289   0.000  0.00  0.00    +0.000 A 
ATOM     22  C   UNL     1       1.981   0.518   0.000  0.00  0.00    +0.000 A 
ATOM     23  C   UNL     1       2.766   0.773   0.000  0.00  0.00    +0.000 A 
ATOM     24  C   UNL     1       3.379   0.221   0.000  0.00  0.00    +0.000 A 
ATOM     25  C   UNL     1       3.207  -0.586   0.000  0.00  0.00    +0.000 A 
ATOM     26  C   UNL     1       2.423  -0.841   0.000  0.00  0.00    +0.000 A 
ATOM     27  C   UNL     1       1.025  -0.544   0.000  0.00  0.00    +0.000 C 
ENDBRANCH  18  22
ENDBRANCH  17  18
ENDBRANCH   2  17
TORSDOF 6
