REMARK  Name = CDB
REMARK  7 active torsions:
REMARK  status: ('A' for Active; 'I' for Inactive)
REMARK    1  A    between atoms: C_2  and  C_7
REMARK    2  A    between atoms: C_7  and  C_8
REMARK    3  A    between atoms: C_8  and  N_11
REMARK    4  A    between atoms: N_14  and  C_20
REMARK    5  A    between atoms: C_20  and  C_21
REMARK    6  A    between atoms: N_22  and  C_24
REMARK    7  A    between atoms: C_24  and  C_25
REMARK                            x       y       z     vdW  Elec       q    Type
REMARK                         _______ _______ _______ _____ _____    ______ ____
ROOT
ATOM      1  N   UNL     1      -1.417   0.994   0.000  0.00  0.00    +0.000 NA
ATOM      2  C   UNL     1      -1.417   0.169   0.000  0.00  0.00    +0.000 A 
ATOM      3  C   UNL     1      -0.702  -0.244   0.000  0.00  0.00    +0.000 A 
ATOM      4  N   UNL     1      -0.702  -1.069   0.000  0.00  0.00    +0.000 N 
ATOM      5  C   UNL     1      -1.417  -1.481   0.000  0.00  0.00    +0.000 A 
ATOM      6  C   UNL     1      -2.131  -1.069   0.000  0.00  0.00    +0.000 A 
ATOM      7  N   UNL     1      -2.131  -0.244   0.000  0.00  0.00    +0.000 NA
ATOM      8  O   UNL     1       0.012   0.169   0.000  0.00  0.00    +0.000 OA
ATOM      9  C   UNL     1      -1.417  -2.306   0.000  0.00  0.00    +0.000 C 
ENDROOT
BRANCH   1  10
ATOM     10  C   UNL     1      -2.131   1.406   0.000  0.00  0.00    +0.000 C 
BRANCH  10  11
ATOM     11  C   UNL     1      -2.131   2.231   0.000  0.00  0.00    +0.000 C 
ATOM     12  F   UNL     1      -2.956   2.231   0.000  0.00  0.00    +0.000 F 
ATOM     13  F   UNL     1      -1.306   2.231   0.000  0.00  0.00    +0.000 F 
BRANCH  11  15
ATOM     14  N   UNL     1      -1.417   3.469   0.000  0.00  0.00    +0.000 NA
ATOM     15  C   UNL     1      -2.131   3.056   0.000  0.00  0.00    +0.000 A 
ATOM     16  C   UNL     1      -2.846   3.469   0.000  0.00  0.00    +0.000 A 
ATOM     17  C   UNL     1      -2.846   4.294   0.000  0.00  0.00    +0.000 A 
ATOM     18  C   UNL     1      -2.131   4.706   0.000  0.00  0.00    +0.000 A 
ATOM     19  C   UNL     1      -1.417   4.294   0.000  0.00  0.00    +0.000 A 
ENDBRANCH  11  15
ENDBRANCH  10  11
ENDBRANCH   1  10
BRANCH   4  20
ATOM     20  C   UNL     1       0.012  -1.481   0.000  0.00  0.00    +0.000 C 
BRANCH  20  21
ATOM     21  C   UNL     1       0.727  -1.069   0.000  0.00  0.00    +0.000 C 
ATOM     22  N   UNL     1       1.441  -1.481   0.000  0.00  0.00    +0.000 NA
ATOM     23  O   UNL     1       0.727  -0.244   0.000  0.00  0.00    +0.000 OA
BRANCH  22  24
ATOM     24  C   UNL     1       2.156  -1.069   0.000  0.00  0.00    +0.000 C 
BRANCH  24  25
ATOM     25  C   UNL     1       2.870  -1.481   0.000  0.00  0.00    +0.000 A 
ATOM     26  C   UNL     1       3.584  -1.069   0.000  0.00  0.00    +0.000 A 
ATOM     27  C   UNL     1       4.299  -1.481   0.000  0.00  0.00    +0.000 A 
ATOM     28  C   UNL     1       4.299  -2.306   0.000  0.00  0.00    +0.000 A 
ATOM     29  N   UNL     1       2.870  -2.306   0.000  0.00  0.00    +0.000 NA
ATOM     30  F   UNL     1       3.584  -0.244   0.000  0.00  0.00    +0.000 F 
ATOM     31  C   UNL     1       3.584  -2.719   0.000  0.00  0.00    +0.000 A 
ATOM     32  C   UNL     1       5.013  -1.069   0.000  0.00  0.00    +0.000 C 
ENDBRANCH  24  25
ENDBRANCH  22  24
ENDBRANCH  20  21
ENDBRANCH   4  20
TORSDOF 7
