REMARK  Name = CDD
REMARK  7 active torsions:
REMARK  status: ('A' for Active; 'I' for Inactive)
REMARK    1  A    between atoms: C_3  and  C_7
REMARK    2  A    between atoms: C_7  and  C_8
REMARK    3  A    between atoms: C_8  and  N_11
REMARK    4  A    between atoms: N_14  and  C_18
REMARK    5  A    between atoms: C_18  and  C_19
REMARK    6  A    between atoms: N_20  and  C_21
REMARK    7  A    between atoms: C_21  and  C_22
REMARK                            x       y       z     vdW  Elec       q    Type
REMARK                         _______ _______ _______ _____ _____    ______ ____
ROOT
ATOM      1  N   UNL     1      -1.509   0.657   0.000  0.00  0.00    +0.000 NA
ATOM      2  C   UNL     1      -1.509  -0.168   0.000  0.00  0.00    +0.000 A 
ATOM      3  C   UNL     1      -0.794  -0.580   0.000  0.00  0.00    +0.000 A 
ATOM      4  N   UNL     1      -0.794  -1.405   0.000  0.00  0.00    +0.000 N 
ATOM      5  C   UNL     1      -1.509  -1.818   0.000  0.00  0.00    +0.000 A 
ATOM      6  C   UNL     1      -2.223  -1.405   0.000  0.00  0.00    +0.000 A 
ATOM      7  N   UNL     1      -2.223  -0.580   0.000  0.00  0.00    +0.000 NA
ATOM      8  O   UNL     1      -0.080  -0.168   0.000  0.00  0.00    +0.000 OA
ATOM      9 CL   UNL     1      -1.509  -2.643   0.000  0.00  0.00    +0.000 Cl
ENDROOT
BRANCH   1  10
ATOM     10  C   UNL     1      -2.223   1.070   0.000  0.00  0.00    +0.000 C 
BRANCH  10  11
ATOM     11  C   UNL     1      -2.223   1.895   0.000  0.00  0.00    +0.000 C 
ATOM     12  F   UNL     1      -3.048   1.895   0.000  0.00  0.00    +0.000 F 
ATOM     13  F   UNL     1      -1.398   1.895   0.000  0.00  0.00    +0.000 F 
BRANCH  11  16
ATOM     14  C   UNL     1      -1.509   3.957   0.000  0.00  0.00    +0.000 A 
ATOM     15  N   UNL     1      -1.509   3.132   0.000  0.00  0.00    +0.000 N 
ATOM     16  C   UNL     1      -2.223   2.720   0.000  0.00  0.00    +0.000 A 
ATOM     17  C   UNL     1      -2.938   3.132   0.000  0.00  0.00    +0.000 A 
ATOM     18  C   UNL     1      -2.938   3.957   0.000  0.00  0.00    +0.000 A 
ATOM     19  C   UNL     1      -2.223   4.370   0.000  0.00  0.00    +0.000 A 
ATOM     20  O   UNL     1      -0.794   2.720   0.000  0.00  0.00    +0.000 OA
ENDBRANCH  11  16
ENDBRANCH  10  11
ENDBRANCH   1  10
BRANCH   4  21
ATOM     21  C   UNL     1      -0.080  -1.818   0.000  0.00  0.00    +0.000 C 
BRANCH  21  22
ATOM     22  C   UNL     1       0.635  -1.405   0.000  0.00  0.00    +0.000 C 
ATOM     23  N   UNL     1       1.349  -1.818   0.000  0.00  0.00    +0.000 NA
ATOM     24  O   UNL     1       0.635  -0.580   0.000  0.00  0.00    +0.000 OA
BRANCH  23  25
ATOM     25  C   UNL     1       2.064  -1.405   0.000  0.00  0.00    +0.000 C 
BRANCH  25  26
ATOM     26  C   UNL     1       2.778  -1.818   0.000  0.00  0.00    +0.000 A 
ATOM     27  C   UNL     1       3.493  -1.405   0.000  0.00  0.00    +0.000 A 
ATOM     28  C   UNL     1       4.207  -1.818   0.000  0.00  0.00    +0.000 A 
ATOM     29  C   UNL     1       4.207  -2.643   0.000  0.00  0.00    +0.000 A 
ATOM     30  C   UNL     1       3.493  -3.055   0.000  0.00  0.00    +0.000 A 
ATOM     31  C   UNL     1       2.778  -2.643   0.000  0.00  0.00    +0.000 A 
ATOM     32  F   UNL     1       2.064  -3.055   0.000  0.00  0.00    +0.000 F 
ENDBRANCH  25  26
ENDBRANCH  23  25
ENDBRANCH  21  22
ENDBRANCH   4  21
TORSDOF 7
