REMARK  Name = CDY
REMARK  2 active torsions:
REMARK  status: ('A' for Active; 'I' for Inactive)
REMARK    1  A    between atoms: C_2  and  C_3
REMARK    2  A    between atoms: C_7  and  N_8
REMARK                            x       y       z     vdW  Elec       q    Type
REMARK                         _______ _______ _______ _____ _____    ______ ____
ROOT
ATOM      1  N   UNL     1      -0.150  -0.483   0.000  0.00  0.00    +0.000 N 
ATOM      2  C   UNL     1      -0.634  -1.151   0.000  0.00  0.00    +0.000 A 
ATOM      3  N   UNL     1      -0.150  -1.818   0.000  0.00  0.00    +0.000 NA
ATOM      4  C   UNL     1       0.635  -1.563   0.000  0.00  0.00    +0.000 A 
ATOM      5  C   UNL     1       0.635  -0.738   0.000  0.00  0.00    +0.000 A 
ATOM      6  N   UNL     1       1.349  -0.326   0.000  0.00  0.00    +0.000 NA
ATOM      7  C   UNL     1       2.064  -0.738   0.000  0.00  0.00    +0.000 A 
ATOM      8 CL   UNL     1       2.778  -0.326   0.000  0.00  0.00    +0.000 Cl
ATOM      9  N   UNL     1       2.064  -1.563   0.000  0.00  0.00    +0.000 NA
ATOM     10  C   UNL     1       1.349  -1.976   0.000  0.00  0.00    +0.000 A 
ATOM     11  N   UNL     1       1.349  -2.801   0.000  0.00  0.00    +0.000 NA
ENDROOT
BRANCH   1  16
ATOM     12  C   UNL     1      -0.405   1.636   0.000  0.00  0.00    +0.000 C 
ATOM     13  O   UNL     1       0.080   0.969   0.000  0.00  0.00    +0.000 OA
ATOM     14  C   UNL     1      -1.189   1.381   0.000  0.00  0.00    +0.000 C 
ATOM     15  C   UNL     1      -1.189   0.556   0.000  0.00  0.00    +0.000 C 
ATOM     16  C   UNL     1      -0.405   0.301   0.000  0.00  0.00    +0.000 C 
BRANCH  12  18
ATOM     17  O   UNL     1      -0.702   3.034   0.000  0.00  0.00    +0.000 OA
ATOM     18  C   UNL     1      -0.150   2.421   0.000  0.00  0.00    +0.000 C 
ENDBRANCH  12  18
ENDBRANCH   1  16
TORSDOF 2
