REMARK  Name = CED
REMARK  6 active torsions:
REMARK  status: ('A' for Active; 'I' for Inactive)
REMARK    1  A    between atoms: CA_5  and  C_6
REMARK    2  A    between atoms: C_10  and  CA_11
REMARK    3  A    between atoms: CA_11  and  C_12
REMARK    4  A    between atoms: CA_11  and  N_14
REMARK    5  A    between atoms: C_15  and  C_17
REMARK    6  A    between atoms: C_17  and  C_18
REMARK                            x       y       z     vdW  Elec       q    Type
REMARK                         _______ _______ _______ _____ _____    ______ ____
ROOT
ATOM      1  CA  UNL     1      -0.481  -0.385   0.000  0.00  0.00    +0.000 C 
ENDROOT
BRANCH   1   8
ATOM      2  S   UNL     1      -1.719   0.329   0.000  0.00  0.00    +0.000 S 
ATOM      3  C   UNL     1      -2.131   1.044   0.000  0.00  0.00    +0.000 C 
ATOM      4  C   UNL     1      -1.719   1.758   0.000  0.00  0.00    +0.000 C 
ATOM      5  C   UNL     1      -2.131   2.473   0.000  0.00  0.00    +0.000 C 
ATOM      6  CA  UNL     1      -0.894   1.758   0.000  0.00  0.00    +0.000 C 
ATOM      7  N   UNL     1      -0.481   1.044   0.000  0.00  0.00    +0.000 NA
ATOM      8  C   UNL     1      -0.894   0.329   0.000  0.00  0.00    +0.000 C 
BRANCH   6   9
ATOM      9  C   UNL     1      -0.481   2.473   0.000  0.00  0.00    +0.000 C 
ATOM     10  O   UNL     1       0.344   2.473   0.000  0.00  0.00    +0.000 OA
ATOM     11  OXT UNL     1      -0.894   3.187   0.000  0.00  0.00    +0.000 OA
ENDBRANCH   6   9
ENDBRANCH   1   8
BRANCH   1  12
ATOM     12  N   UNL     1       0.344  -0.385   0.000  0.00  0.00    +0.000 NA
ATOM     13  C   UNL     1       0.756  -1.100   0.000  0.00  0.00    +0.000 C 
ATOM     14  O   UNL     1       0.344  -1.814   0.000  0.00  0.00    +0.000 OA
BRANCH  13  15
ATOM     15  C   UNL     1       1.581  -1.100   0.000  0.00  0.00    +0.000 C 
BRANCH  15  16
ATOM     16  C   UNL     1       1.994  -1.814   0.000  0.00  0.00    +0.000 A 
ATOM     17  C   UNL     1       2.814  -1.901   0.000  0.00  0.00    +0.000 A 
ATOM     18  C   UNL     1       2.986  -2.708   0.000  0.00  0.00    +0.000 A 
ATOM     19  C   UNL     1       2.271  -3.120   0.000  0.00  0.00    +0.000 A 
ATOM     20  S   UNL     1       1.658  -2.568   0.000  0.00  0.00    +0.000 S 
ENDBRANCH  15  16
ENDBRANCH  13  15
ENDBRANCH   1  12
BRANCH   1  21
ATOM     21  C   UNL     1      -0.894  -1.100   0.000  0.00  0.00    +0.000 C 
ATOM     22  O   UNL     1      -1.719  -1.100   0.000  0.00  0.00    +0.000 OA
ENDBRANCH   1  21
TORSDOF 6
