REMARK  Name = CEP
REMARK  9 active torsions:
REMARK  status: ('A' for Active; 'I' for Inactive)
REMARK    1  A    between atoms: C_3  and  C_4
REMARK    2  A    between atoms: C_4  and  C_5
REMARK    3  A    between atoms: C_5  and  O_7
REMARK    4  A    between atoms: CA_9  and  C_10
REMARK    5  A    between atoms: C_14  and  CA_15
REMARK    6  A    between atoms: CA_15  and  C_16
REMARK    7  A    between atoms: CA_15  and  N_18
REMARK    8  A    between atoms: C_19  and  C_21
REMARK    9  A    between atoms: C_21  and  C_22
REMARK                            x       y       z     vdW  Elec       q    Type
REMARK                         _______ _______ _______ _____ _____    ______ ____
ROOT
ATOM      1  S   UNL     1      -2.383  -0.829   0.000  0.00  0.00    +0.000 S 
ATOM      2  C   UNL     1      -2.795  -0.115   0.000  0.00  0.00    +0.000 C 
ATOM      3  C   UNL     1      -2.383   0.600   0.000  0.00  0.00    +0.000 C 
ATOM      4  CA  UNL     1      -1.558   0.600   0.000  0.00  0.00    +0.000 C 
ATOM      5  N   UNL     1      -1.145  -0.115   0.000  0.00  0.00    +0.000 NA
ATOM      6  C   UNL     1      -1.558  -0.829   0.000  0.00  0.00    +0.000 C 
ENDROOT
BRANCH   4   7
ATOM      7  C   UNL     1      -1.145   1.314   0.000  0.00  0.00    +0.000 C 
ATOM      8  O   UNL     1      -0.320   1.314   0.000  0.00  0.00    +0.000 OA
ATOM      9  OXT UNL     1      -1.558   2.029   0.000  0.00  0.00    +0.000 OA
ENDBRANCH   4   7
BRANCH   3  10
ATOM     10  C   UNL     1      -2.795   1.314   0.000  0.00  0.00    +0.000 C 
BRANCH  10  11
ATOM     11  C   UNL     1      -3.620   1.314   0.000  0.00  0.00    +0.000 C 
ATOM     12  O   UNL     1      -4.033   2.029   0.000  0.00  0.00    +0.000 OA
BRANCH  11  13
ATOM     13  O   UNL     1      -4.033   0.600   0.000  0.00  0.00    +0.000 OA
ATOM     14  C   UNL     1      -4.858   0.600   0.000  0.00  0.00    +0.000 C 
ENDBRANCH  11  13
ENDBRANCH  10  11
ENDBRANCH   3  10
BRANCH   6  15
ATOM     15  CA  UNL     1      -1.145  -1.544   0.000  0.00  0.00    +0.000 C 
BRANCH  15  16
ATOM     16  N   UNL     1      -0.320  -1.544   0.000  0.00  0.00    +0.000 NA
ATOM     17  C   UNL     1       0.092  -2.258   0.000  0.00  0.00    +0.000 C 
ATOM     18  O   UNL     1      -0.320  -2.973   0.000  0.00  0.00    +0.000 OA
BRANCH  17  19
ATOM     19  C   UNL     1       0.917  -2.258   0.000  0.00  0.00    +0.000 C 
BRANCH  19  20
ATOM     20  C   UNL     1       1.330  -1.544   0.000  0.00  0.00    +0.000 A 
ATOM     21  C   UNL     1       0.994  -0.790   0.000  0.00  0.00    +0.000 A 
ATOM     22  C   UNL     1       1.607  -0.238   0.000  0.00  0.00    +0.000 A 
ATOM     23  C   UNL     1       2.322  -0.650   0.000  0.00  0.00    +0.000 A 
ATOM     24  S   UNL     1       2.150  -1.457   0.000  0.00  0.00    +0.000 S 
ENDBRANCH  19  20
ENDBRANCH  17  19
ENDBRANCH  15  16
BRANCH  15  25
ATOM     25  C   UNL     1      -1.558  -2.258   0.000  0.00  0.00    +0.000 C 
ATOM     26  O   UNL     1      -2.383  -2.258   0.000  0.00  0.00    +0.000 OA
ENDBRANCH  15  25
ENDBRANCH   6  15
TORSDOF 9
