REMARK  Name = CF3
REMARK  9 active torsions:
REMARK  status: ('A' for Active; 'I' for Inactive)
REMARK    1  A    between atoms: C_6  and  N_7
REMARK    2  A    between atoms: C_8  and  C_10
REMARK    3  A    between atoms: C_10  and  C_11
REMARK    4  A    between atoms: C_11  and  C_12
REMARK    5  A    between atoms: C_12  and  C_13
REMARK    6  A    between atoms: C_13  and  C_14
REMARK    7  A    between atoms: C_14  and  C_15
REMARK    8  A    between atoms: C_15  and  C_16
REMARK    9  A    between atoms: C_16  and  C_18
REMARK                            x       y       z     vdW  Elec       q    Type
REMARK                         _______ _______ _______ _____ _____    ______ ____
ROOT
ATOM      1  C   UNL     1      -0.464   0.060   0.000  0.00  0.00    +0.000 C 
ENDROOT
BRANCH   1   2
ATOM      2  C   UNL     1       0.251  -0.353   0.000  0.00  0.00    +0.000 C 
BRANCH   2   3
ATOM      3  C   UNL     1       0.965   0.060   0.000  0.00  0.00    +0.000 C 
BRANCH   3   4
ATOM      4  C   UNL     1       1.680  -0.353   0.000  0.00  0.00    +0.000 C 
BRANCH   4   5
ATOM      5  C   UNL     1       2.394   0.060   0.000  0.00  0.00    +0.000 C 
BRANCH   5   6
ATOM      6  C   UNL     1       3.109  -0.353   0.000  0.00  0.00    +0.000 C 
ATOM      7  O   UNL     1       3.109  -1.178   0.000  0.00  0.00    +0.000 OA
BRANCH   6   8
ATOM      8  C   UNL     1       3.823   0.060   0.000  0.00  0.00    +0.000 C 
ATOM      9  F   UNL     1       4.538   0.472   0.000  0.00  0.00    +0.000 F 
ATOM     10  F   UNL     1       4.236  -0.655   0.000  0.00  0.00    +0.000 F 
ATOM     11  F   UNL     1       3.411   0.774   0.000  0.00  0.00    +0.000 F 
ENDBRANCH   6   8
ENDBRANCH   5   6
ENDBRANCH   4   5
ENDBRANCH   3   4
ENDBRANCH   2   3
ENDBRANCH   1   2
BRANCH   1  12
ATOM     12  C   UNL     1      -1.178  -0.353   0.000  0.00  0.00    +0.000 C 
BRANCH  12  14
ATOM     13  N   UNL     1      -2.607  -0.353   0.000  0.00  0.00    +0.000 NA
ATOM     14  C   UNL     1      -1.893   0.060   0.000  0.00  0.00    +0.000 C 
ATOM     15  O   UNL     1      -1.893   0.885   0.000  0.00  0.00    +0.000 OA
BRANCH  13  21
ATOM     16  C   UNL     1      -4.036  -0.353   0.000  0.00  0.00    +0.000 A 
ATOM     17  C   UNL     1      -4.751   0.060   0.000  0.00  0.00    +0.000 A 
ATOM     18  C   UNL     1      -4.751   0.885   0.000  0.00  0.00    +0.000 A 
ATOM     19  C   UNL     1      -4.036   1.297   0.000  0.00  0.00    +0.000 A 
ATOM     20  C   UNL     1      -3.322   0.885   0.000  0.00  0.00    +0.000 A 
ATOM     21  C   UNL     1      -3.322   0.060   0.000  0.00  0.00    +0.000 A 
ENDBRANCH  13  21
ENDBRANCH  12  14
ENDBRANCH   1  12
TORSDOF 9
