REMARK  Name = CFQ
REMARK  7 active torsions:
REMARK  status: ('A' for Active; 'I' for Inactive)
REMARK    1  A    between atoms: AS_1  and  C_5
REMARK    2  A    between atoms: C_5  and  C_6
REMARK    3  A    between atoms: C_6  and  O_7
REMARK    4  A    between atoms: O_7  and  C_8
REMARK    5  A    between atoms: C_8  and  C_9
REMARK    6  A    between atoms: C_8  and  C_10
REMARK    7  A    between atoms: C_11  and  N_16
REMARK                            x       y       z     vdW  Elec       q    Type
REMARK                         _______ _______ _______ _____ _____    ______ ____
ROOT
ATOM      1  C   UNL     1      54.054  29.125   0.000  0.00  0.00    +0.000 C 
ENDROOT
BRANCH   1   2
ATOM      2  C   UNL     1      54.467  28.410   0.000  0.00  0.00    +0.000 A 
ATOM      3  C   UNL     1      55.292  28.410   0.000  0.00  0.00    +0.000 A 
ATOM      4  C   UNL     1      55.704  27.696   0.000  0.00  0.00    +0.000 A 
ATOM      5  C   UNL     1      55.292  26.981   0.000  0.00  0.00    +0.000 A 
ATOM      6  C   UNL     1      54.467  26.981   0.000  0.00  0.00    +0.000 A 
ATOM      7  C   UNL     1      54.054  27.696   0.000  0.00  0.00    +0.000 A 
BRANCH   3   8
ATOM      8  N   UNL     1      55.704  29.125   0.000  0.00  0.00    +0.000 N 
ATOM      9  O   UNL     1      56.529  29.125   0.000  0.00  0.00    +0.000 OA
ATOM     10  O   UNL     1      55.292  29.839   0.000  0.00  0.00    +0.000 OA
ENDBRANCH   3   8
ENDBRANCH   1   2
BRANCH   1  11
ATOM     11  C   UNL     1      54.467  29.839   0.000  0.00  0.00    +0.000 C 
ATOM     12  F   UNL     1      55.181  29.427   0.000  0.00  0.00    +0.000 F 
ATOM     13  F   UNL     1      53.752  30.252   0.000  0.00  0.00    +0.000 F 
ATOM     14  F   UNL     1      54.879  30.554   0.000  0.00  0.00    +0.000 F 
ENDBRANCH   1  11
BRANCH   1  15
ATOM     15  O   UNL     1      53.229  29.125   0.000  0.00  0.00    +0.000 OA
BRANCH  15  16
ATOM     16  C   UNL     1      52.817  29.839   0.000  0.00  0.00    +0.000 C 
BRANCH  16  17
ATOM     17  C   UNL     1      51.992  29.839   0.000  0.00  0.00    +0.000 C 
BRANCH  17  18
ATOM     18 AS   UNL     1      51.579  30.554   0.000  0.00  0.00    +0.000 As
ATOM     19  C   UNL     1      51.167  31.268   0.000  0.00  0.00    +0.000 C 
ATOM     20  C   UNL     1      50.865  30.141   0.000  0.00  0.00    +0.000 C 
ATOM     21  C   UNL     1      52.294  30.966   0.000  0.00  0.00    +0.000 C 
ENDBRANCH  17  18
ENDBRANCH  16  17
ENDBRANCH  15  16
ENDBRANCH   1  15
TORSDOF 7
