REMARK  Name = CHD
REMARK  4 active torsions:
REMARK  status: ('A' for Active; 'I' for Inactive)
REMARK    1  A    between atoms: C_20  and  C_23
REMARK    2  A    between atoms: C_23  and  C_25
REMARK    3  A    between atoms: C_25  and  C_26
REMARK    4  A    between atoms: C_26  and  C_28
REMARK                            x       y       z     vdW  Elec       q    Type
REMARK                         _______ _______ _______ _____ _____    ______ ____
ROOT
ATOM      1  C   UNL     1       2.315  -0.205   0.000  0.00  0.00    +0.000 C 
ATOM      2  C   UNL     1       3.127  -0.060   0.000  0.00  0.00    +0.000 C 
ATOM      3  C   UNL     1       3.408   0.716   0.000  0.00  0.00    +0.000 C 
ATOM      4  O   UNL     1       4.220   0.861   0.000  0.00  0.00    +0.000 OA
ATOM      5  C   UNL     1       2.876   1.347   0.000  0.00  0.00    +0.000 C 
ATOM      6  C   UNL     1       2.064   1.202   0.000  0.00  0.00    +0.000 C 
ATOM      7  C   UNL     1       1.532   1.832   0.000  0.00  0.00    +0.000 C 
ATOM      8  C   UNL     1       0.720   1.687   0.000  0.00  0.00    +0.000 C 
ATOM      9  O   UNL     1       0.188   2.318   0.000  0.00  0.00    +0.000 OA
ATOM     10  C   UNL     1       0.440   0.911   0.000  0.00  0.00    +0.000 C 
ATOM     11  C   UNL     1       0.971   0.281   0.000  0.00  0.00    +0.000 C 
ATOM     12  C   UNL     1       1.783   0.426   0.000  0.00  0.00    +0.000 C 
ATOM     13  C   UNL     1       0.691  -0.495   0.000  0.00  0.00    +0.000 C 
ATOM     14  C   UNL     1      -0.121  -0.641   0.000  0.00  0.00    +0.000 C 
ATOM     15  O   UNL     1      -0.401  -1.417   0.000  0.00  0.00    +0.000 OA
ATOM     16  C   UNL     1      -0.653  -0.010   0.000  0.00  0.00    +0.000 C 
ATOM     17  C   UNL     1      -0.373   0.766   0.000  0.00  0.00    +0.000 C 
ATOM     18  C   UNL     1      -1.024   1.272   0.000  0.00  0.00    +0.000 C 
ATOM     19  C   UNL     1      -1.707   0.809   0.000  0.00  0.00    +0.000 C 
ATOM     20  C   UNL     1      -1.478   0.017   0.000  0.00  0.00    +0.000 C 
ATOM     21  C   UNL     1      -1.013  -0.752   0.000  0.00  0.00    +0.000 C 
ATOM     22  C   UNL     1       1.503  -0.350   0.000  0.00  0.00    +0.000 C 
ENDROOT
BRANCH  20  23
ATOM     23  C   UNL     1      -1.984  -0.634   0.000  0.00  0.00    +0.000 C 
ATOM     24  C   UNL     1      -1.673  -1.399   0.000  0.00  0.00    +0.000 C 
BRANCH  23  25
ATOM     25  C   UNL     1      -2.801  -0.522   0.000  0.00  0.00    +0.000 C 
BRANCH  25  26
ATOM     26  C   UNL     1      -3.307  -1.173   0.000  0.00  0.00    +0.000 C 
BRANCH  26  28
ATOM     27  O   UNL     1      -4.631  -1.711   0.000  0.00  0.00    +0.000 OA
ATOM     28  C   UNL     1      -4.125  -1.060   0.000  0.00  0.00    +0.000 C 
ATOM     29  O   UNL     1      -4.436  -0.296   0.000  0.00  0.00    +0.000 OA
ENDBRANCH  26  28
ENDBRANCH  25  26
ENDBRANCH  23  25
ENDBRANCH  20  23
TORSDOF 4
