REMARK  Name = ChEBI
REMARK  9 active torsions:
REMARK  status: ('A' for Active; 'I' for Inactive)
REMARK    1  A    between atoms: C_1  and  C_2
REMARK    2  A    between atoms: C_1  and  O_8
REMARK    3  A    between atoms: C_2  and  C_3
REMARK    4  A    between atoms: C_3  and  C_4
REMARK    5  A    between atoms: C_4  and  C_5
REMARK    6  A    between atoms: C_5  and  C_6
REMARK    7  A    between atoms: C_6  and  O_7
REMARK    8  A    between atoms: O_7  and  P_20
REMARK    9  A    between atoms: O_8  and  P_16
REMARK                            x       y       z     vdW  Elec       q    Type
REMARK                         _______ _______ _______ _____ _____    ______ ____
ROOT
ATOM      1  C   UNL     1      14.740  -7.382   0.000  0.00  0.00    +0.000 C 
ATOM      2  O   UNL     1      13.915  -7.382   0.000  0.00  0.00    +0.000 OA
ENDROOT
BRANCH   1   3
ATOM      3  C   UNL     1      14.740  -6.557   0.000  0.00  0.00    +0.000 C 
ATOM      4  O   UNL     1      15.565  -6.557   0.000  0.00  0.00    +0.000 OA
BRANCH   3   5
ATOM      5  C   UNL     1      14.740  -5.732   0.000  0.00  0.00    +0.000 C 
BRANCH   5   6
ATOM      6  O   UNL     1      15.454  -5.319   0.000  0.00  0.00    +0.000 OA
BRANCH   6   7
ATOM      7  P   UNL     1      16.287  -5.327   0.000  0.00  0.00    +0.000 P 
ATOM      8  O   UNL     1      17.081  -5.343   0.000  0.00  0.00    +0.000 OA
ATOM      9  O   UNL     1      16.279  -6.160   0.000  0.00  0.00    +0.000 OA
ATOM     10  O   UNL     1      16.279  -4.494   0.000  0.00  0.00    +0.000 OA
ENDBRANCH   6   7
ENDBRANCH   5   6
ENDBRANCH   3   5
ENDBRANCH   1   3
BRANCH   1  11
ATOM     11  C   UNL     1      14.740  -8.207   0.000  0.00  0.00    +0.000 C 
ATOM     12  O   UNL     1      15.565  -8.207   0.000  0.00  0.00    +0.000 OA
BRANCH  11  13
ATOM     13  C   UNL     1      14.740  -9.032   0.000  0.00  0.00    +0.000 C 
ATOM     14  O   UNL     1      15.565  -9.032   0.000  0.00  0.00    +0.000 OA
BRANCH  13  15
ATOM     15  C   UNL     1      14.740  -9.857   0.000  0.00  0.00    +0.000 C 
BRANCH  15  16
ATOM     16  O   UNL     1      15.454 -10.269   0.000  0.00  0.00    +0.000 OA
BRANCH  16  17
ATOM     17  P   UNL     1      16.507 -10.254   0.000  0.00  0.00    +0.000 P 
ATOM     18  O   UNL     1      17.246 -10.254   0.000  0.00  0.00    +0.000 OA
ATOM     19  O   UNL     1      16.499  -9.421   0.000  0.00  0.00    +0.000 OA
ATOM     20  O   UNL     1      16.499 -10.921   0.000  0.00  0.00    +0.000 OA
ENDBRANCH  16  17
ENDBRANCH  15  16
ENDBRANCH  13  15
ENDBRANCH  11  13
ENDBRANCH   1  11
TORSDOF 9
