REMARK  Name = ChEBI
REMARK  5 active torsions:
REMARK  status: ('A' for Active; 'I' for Inactive)
REMARK    1  A    between atoms: C_10  and  O_11
REMARK    2  A    between atoms: O_11  and  C_13
REMARK    3  A    between atoms: C_13  and  C_16
REMARK    4  A    between atoms: C_14  and  C_16
REMARK    5  A    between atoms: C_16  and  C_17
REMARK                            x       y       z     vdW  Elec       q    Type
REMARK                         _______ _______ _______ _____ _____    ______ ____
ROOT
ATOM      1  O   UNL     1      18.907 -14.655   0.000  0.00  0.00    +0.000 OA
ENDROOT
BRANCH   1  11
ATOM      2  C   UNL     1      16.920 -13.728   0.000  0.00  0.00    +0.000 C 
ATOM      3  C   UNL     1      16.920 -15.582   0.000  0.00  0.00    +0.000 C 
ATOM      4  C   UNL     1      17.724 -15.398   0.000  0.00  0.00    +0.000 C 
ATOM      5  C   UNL     1      17.724 -13.912   0.000  0.00  0.00    +0.000 C 
ATOM      6  C   UNL     1      16.275 -14.242   0.000  0.00  0.00    +0.000 C 
ATOM      7  C   UNL     1      16.275 -15.067   0.000  0.00  0.00    +0.000 C 
ATOM      8  O   UNL     1      15.560 -14.655   0.000  0.00  0.00    +0.000 OA
ATOM      9  N   UNL     1      16.769 -14.635   0.000  0.00  0.00    +0.000 NA
ATOM     10  C   UNL     1      17.471 -14.635   0.000  0.00  0.00    +0.000 C 
ATOM     11  C   UNL     1      18.082 -14.655   0.000  0.00  0.00    +0.000 C 
ENDBRANCH   1  11
BRANCH   1  13
ATOM     12  O   UNL     1      19.621 -15.892   0.000  0.00  0.00    +0.000 OA
ATOM     13  C   UNL     1      19.621 -15.067   0.000  0.00  0.00    +0.000 C 
BRANCH  13  14
ATOM     14  C   UNL     1      20.336 -14.655   0.000  0.00  0.00    +0.000 C 
BRANCH  14  15
ATOM     15  C   UNL     1      21.050 -15.067   0.000  0.00  0.00    +0.000 A 
ATOM     16  C   UNL     1      21.765 -14.655   0.000  0.00  0.00    +0.000 A 
ATOM     17  C   UNL     1      21.050 -15.892   0.000  0.00  0.00    +0.000 A 
ATOM     18  C   UNL     1      21.765 -16.305   0.000  0.00  0.00    +0.000 A 
ATOM     19  C   UNL     1      22.479 -15.892   0.000  0.00  0.00    +0.000 A 
ATOM     20  C   UNL     1      22.479 -15.067   0.000  0.00  0.00    +0.000 A 
ENDBRANCH  14  15
BRANCH  14  21
ATOM     21  C   UNL     1      20.336 -13.830   0.000  0.00  0.00    +0.000 C 
ATOM     22  O   UNL     1      21.050 -13.417   0.000  0.00  0.00    +0.000 OA
ENDBRANCH  14  21
ENDBRANCH  13  14
ENDBRANCH   1  13
TORSDOF 5
