REMARK  Name = ChEBI
REMARK  5 active torsions:
REMARK  status: ('A' for Active; 'I' for Inactive)
REMARK    1  A    between atoms: C_1  and  C_9
REMARK    2  A    between atoms: C_4  and  N_6
REMARK    3  A    between atoms: C_9  and  O_11
REMARK    4  A    between atoms: P_10  and  O_11
REMARK    5  A    between atoms: C_15  and  C_17
REMARK                            x       y       z     vdW  Elec       q    Type
REMARK                         _______ _______ _______ _____ _____    ______ ____
ROOT
ATOM      1  C   UNL     1       7.324  -9.094   0.000  0.00  0.00    +0.000 C 
ATOM      2  O   UNL     1       7.991  -8.609   0.000  0.00  0.00    +0.000 OA
ATOM      3  C   UNL     1       7.578  -9.878   0.000  0.00  0.00    +0.000 C 
ATOM      4  C   UNL     1       8.659  -9.095   0.000  0.00  0.00    +0.000 C 
ATOM      5  C   UNL     1       8.403  -9.879   0.000  0.00  0.00    +0.000 C 
ATOM      6  O   UNL     1       8.887 -10.547   0.000  0.00  0.00    +0.000 OA
ATOM      7  O   UNL     1       7.092 -10.545   0.000  0.00  0.00    +0.000 OA
ENDROOT
BRANCH   4   8
ATOM      8  N   UNL     1       9.443  -8.840   0.000  0.00  0.00    +0.000 NA
ATOM      9  C   UNL     1       9.602  -8.054   0.000  0.00  0.00    +0.000 C 
ATOM     10  O   UNL     1       9.059  -7.567   0.000  0.00  0.00    +0.000 OA
BRANCH   9  11
ATOM     11  C   UNL     1      10.411  -7.936   0.000  0.00  0.00    +0.000 C 
ATOM     12  N   UNL     1      10.513  -7.174   0.000  0.00  0.00    +0.000 NA
ENDBRANCH   9  11
ENDBRANCH   4   8
BRANCH   1  13
ATOM     13  C   UNL     1       6.539  -8.838   0.000  0.00  0.00    +0.000 C 
BRANCH  13  14
ATOM     14  O   UNL     1       6.368  -8.031   0.000  0.00  0.00    +0.000 OA
BRANCH  14  15
ATOM     15  P   UNL     1       5.584  -7.775   0.000  0.00  0.00    +0.000 P 
ATOM     16  O   UNL     1       4.799  -7.520   0.000  0.00  0.00    +0.000 OA
ATOM     17  O   UNL     1       5.839  -6.991   0.000  0.00  0.00    +0.000 OA
ATOM     18  O   UNL     1       5.328  -8.560   0.000  0.00  0.00    +0.000 OA
ENDBRANCH  14  15
ENDBRANCH  13  14
ENDBRANCH   1  13
TORSDOF 5
