REMARK  Name = ChEBI
REMARK  10 active torsions:
REMARK  status: ('A' for Active; 'I' for Inactive)
REMARK    1  A    between atoms: C_1  and  C_15
REMARK    2  A    between atoms: C_5  and  O_7
REMARK    3  A    between atoms: O_7  and  C_8
REMARK    4  A    between atoms: C_10  and  O_14
REMARK    5  A    between atoms: C_11  and  N_31
REMARK    6  A    between atoms: O_14  and  C_20
REMARK    7  A    between atoms: C_22  and  C_26
REMARK    8  A    between atoms: C_32  and  C_33
REMARK    9  A    between atoms: C_32  and  C_37
REMARK   10  A    between atoms: C_35  and  C_37
REMARK                            x       y       z     vdW  Elec       q    Type
REMARK                         _______ _______ _______ _____ _____    ______ ____
ROOT
ATOM      1  C   UNL     1      13.087 -14.882   0.000  0.00  0.00    +0.000 C 
ATOM      2  C   UNL     1      12.372 -15.295   0.000  0.00  0.00    +0.000 C 
ATOM      3  C   UNL     1      12.372 -16.120   0.000  0.00  0.00    +0.000 C 
ATOM      4  C   UNL     1      13.059 -16.532   0.000  0.00  0.00    +0.000 C 
ATOM      5  C   UNL     1      13.774 -16.120   0.000  0.00  0.00    +0.000 C 
ATOM      6  C   UNL     1      13.774 -15.295   0.000  0.00  0.00    +0.000 C 
ATOM      7  N   UNL     1      14.489 -14.882   0.000  0.00  0.00    +0.000 NA
ATOM      8  O   UNL     1      11.657 -14.882   0.000  0.00  0.00    +0.000 OA
ENDROOT
BRANCH   4   9
ATOM      9  N   UNL     1      13.059 -17.357   0.000  0.00  0.00    +0.000 NA
ATOM     10  C   UNL     1      13.774 -17.770   0.000  0.00  0.00    +0.000 C 
ATOM     11  O   UNL     1      13.774 -18.595   0.000  0.00  0.00    +0.000 OA
BRANCH  10  12
ATOM     12  C   UNL     1      14.488 -17.357   0.000  0.00  0.00    +0.000 C 
ATOM     13  O   UNL     1      14.488 -16.532   0.000  0.00  0.00    +0.000 OA
BRANCH  12  14
ATOM     14  C   UNL     1      15.203 -17.770   0.000  0.00  0.00    +0.000 C 
BRANCH  14  15
ATOM     15  C   UNL     1      15.917 -17.357   0.000  0.00  0.00    +0.000 C 
ATOM     16  N   UNL     1      16.632 -17.770   0.000  0.00  0.00    +0.000 NA
ENDBRANCH  14  15
ENDBRANCH  12  14
ENDBRANCH  10  12
ENDBRANCH   4   9
BRANCH   1  17
ATOM     17  O   UNL     1      13.087 -14.057   0.000  0.00  0.00    +0.000 OA
BRANCH  17  22
ATOM     18  C   UNL     1      15.204 -13.645   0.000  0.00  0.00    +0.000 C 
ATOM     19  C   UNL     1      15.204 -12.820   0.000  0.00  0.00    +0.000 C 
ATOM     20  C   UNL     1      14.489 -12.408   0.000  0.00  0.00    +0.000 C 
ATOM     21  C   UNL     1      13.802 -12.820   0.000  0.00  0.00    +0.000 C 
ATOM     22  C   UNL     1      13.802 -13.645   0.000  0.00  0.00    +0.000 C 
ATOM     23  O   UNL     1      14.489 -14.057   0.000  0.00  0.00    +0.000 OA
ATOM     24  N   UNL     1      13.087 -12.408   0.000  0.00  0.00    +0.000 NA
BRANCH  18  25
ATOM     25  C   UNL     1      15.919 -14.057   0.000  0.00  0.00    +0.000 C 
ATOM     26  N   UNL     1      15.919 -14.882   0.000  0.00  0.00    +0.000 NA
ENDBRANCH  18  25
ENDBRANCH  17  22
ENDBRANCH   1  17
BRANCH   3  27
ATOM     27  O   UNL     1      11.657 -16.532   0.000  0.00  0.00    +0.000 OA
BRANCH  27  28
ATOM     28  C   UNL     1      10.914 -16.945   0.000  0.00  0.00    +0.000 C 
ATOM     29  O   UNL     1      10.227 -16.532   0.000  0.00  0.00    +0.000 OA
ATOM     30  C   UNL     1       9.484 -16.945   0.000  0.00  0.00    +0.000 C 
ATOM     31  C   UNL     1       9.484 -17.770   0.000  0.00  0.00    +0.000 C 
ATOM     32  C   UNL     1      10.199 -18.182   0.000  0.00  0.00    +0.000 C 
ATOM     33  C   UNL     1      10.914 -17.770   0.000  0.00  0.00    +0.000 C 
ATOM     34  O   UNL     1       8.769 -18.155   0.000  0.00  0.00    +0.000 OA
ATOM     35  N   UNL     1      10.199 -19.007   0.000  0.00  0.00    +0.000 NA
ATOM     36  O   UNL     1      11.629 -18.182   0.000  0.00  0.00    +0.000 OA
BRANCH  30  37
ATOM     37  C   UNL     1       8.797 -16.505   0.000  0.00  0.00    +0.000 C 
ATOM     38  O   UNL     1       8.055 -16.917   0.000  0.00  0.00    +0.000 OA
ENDBRANCH  30  37
ENDBRANCH  27  28
ENDBRANCH   3  27
TORSDOF 10
