REMARK  Name = ChEBI
REMARK  5 active torsions:
REMARK  status: ('A' for Active; 'I' for Inactive)
REMARK    1  A    between atoms: C_1  and  C_2
REMARK    2  A    between atoms: C_1  and  C_5
REMARK    3  A    between atoms: C_2  and  C_3
REMARK    4  A    between atoms: C_2  and  C_8
REMARK    5  A    between atoms: C_3  and  C_11
REMARK                            x       y       z     vdW  Elec       q    Type
REMARK                         _______ _______ _______ _____ _____    ______ ____
ROOT
ATOM      1  C   UNL     1       6.535  -3.880   0.000  0.00  0.00    +0.000 C 
ENDROOT
BRANCH   1   2
ATOM      2  C   UNL     1       7.241  -3.477   0.000  0.00  0.00    +0.000 C 
ATOM      3  C   UNL     1       7.961  -3.880   0.000  0.00  0.00    +0.000 C 
ATOM      4  O   UNL     1       7.961  -3.059   0.000  0.00  0.00    +0.000 OA
BRANCH   2   5
ATOM      5  C   UNL     1       7.241  -2.641   0.000  0.00  0.00    +0.000 C 
ATOM      6  O   UNL     1       7.961  -2.238   0.000  0.00  0.00    +0.000 OA
ATOM      7  O   UNL     1       6.535  -2.238   0.000  0.00  0.00    +0.000 OA
ENDBRANCH   2   5
ENDBRANCH   1   2
BRANCH   1   8
ATOM      8  C   UNL     1       6.535  -4.715   0.000  0.00  0.00    +0.000 C 
ATOM      9  O   UNL     1       5.815  -5.118   0.000  0.00  0.00    +0.000 OA
ATOM     10  O   UNL     1       7.241  -5.118   0.000  0.00  0.00    +0.000 OA
ENDBRANCH   1   8
BRANCH   1  11
ATOM     11  C   UNL     1       5.815  -3.477   0.000  0.00  0.00    +0.000 C 
BRANCH  11  12
ATOM     12  C   UNL     1       5.096  -3.880   0.000  0.00  0.00    +0.000 C 
ATOM     13  O   UNL     1       4.376  -3.462   0.000  0.00  0.00    +0.000 OA
ATOM     14  O   UNL     1       5.096  -4.700   0.000  0.00  0.00    +0.000 OA
ENDBRANCH  11  12
ENDBRANCH   1  11
TORSDOF 5
