REMARK  Name = CIH
REMARK  4 active torsions:
REMARK  status: ('A' for Active; 'I' for Inactive)
REMARK    1  A    between atoms: C_7  and  C_8
REMARK    2  A    between atoms: C_14  and  N_15
REMARK    3  A    between atoms: C_16  and  C_18
REMARK    4  A    between atoms: C_18  and  C_19
REMARK                            x       y       z     vdW  Elec       q    Type
REMARK                         _______ _______ _______ _____ _____    ______ ____
ROOT
ATOM      1  C   UNL     1       0.783  -0.907   0.000  0.00  0.00    +0.000 A 
ATOM      2  C   UNL     1       0.068  -1.320   0.000  0.00  0.00    +0.000 A 
ATOM      3  C   UNL     1      -0.646  -0.907   0.000  0.00  0.00    +0.000 A 
ATOM      4 CL   UNL     1       0.068  -2.145   0.000  0.00  0.00    +0.000 Cl
ATOM      5  C   UNL     1       0.783  -0.082   0.000  0.00  0.00    +0.000 A 
ATOM      6  C   UNL     1       0.068   0.330   0.000  0.00  0.00    +0.000 A 
ATOM      7  C   UNL     1      -0.646  -0.082   0.000  0.00  0.00    +0.000 A 
ENDROOT
BRANCH   1  14
ATOM      8 CL   UNL     1       2.212  -0.082   0.000  0.00  0.00    +0.000 Cl
ATOM      9  C   UNL     1       2.212  -0.907   0.000  0.00  0.00    +0.000 A 
ATOM     10  C   UNL     1       2.926  -1.320   0.000  0.00  0.00    +0.000 A 
ATOM     11  C   UNL     1       2.926  -2.145   0.000  0.00  0.00    +0.000 A 
ATOM     12  C   UNL     1       2.212  -2.557   0.000  0.00  0.00    +0.000 A 
ATOM     13  C   UNL     1       1.497  -2.145   0.000  0.00  0.00    +0.000 A 
ATOM     14  C   UNL     1       1.497  -1.320   0.000  0.00  0.00    +0.000 A 
ENDBRANCH   1  14
BRANCH   7  15
ATOM     15  N   UNL     1      -1.361   0.330   0.000  0.00  0.00    +0.000 NA
ATOM     16  C   UNL     1      -1.361   1.155   0.000  0.00  0.00    +0.000 C 
ATOM     17  O   UNL     1      -0.646   1.568   0.000  0.00  0.00    +0.000 OA
BRANCH  16  18
ATOM     18  C   UNL     1      -2.075   1.568   0.000  0.00  0.00    +0.000 C 
ATOM     19  C   UNL     1      -2.790   1.155   0.000  0.00  0.00    +0.000 C 
ATOM     20  C   UNL     1      -3.504   1.568   0.000  0.00  0.00    +0.000 C 
ATOM     21  O   UNL     1      -2.790   0.330   0.000  0.00  0.00    +0.000 OA
BRANCH  18  22
ATOM     22  C   UNL     1      -2.075   2.393   0.000  0.00  0.00    +0.000 C 
ATOM     23  N   UNL     1      -2.075   3.218   0.000  0.00  0.00    +0.000 NA
ENDBRANCH  18  22
ENDBRANCH  16  18
ENDBRANCH   7  15
TORSDOF 4
