REMARK  Name = CII
REMARK  5 active torsions:
REMARK  status: ('A' for Active; 'I' for Inactive)
REMARK    1  A    between atoms: C_2  and  C_3
REMARK    2  A    between atoms: N_9  and  C_10
REMARK    3  A    between atoms: C_10  and  C_11
REMARK    4  A    between atoms: C_10  and  C_14
REMARK    5  A    between atoms: N_16  and  C_17
REMARK                            x       y       z     vdW  Elec       q    Type
REMARK                         _______ _______ _______ _____ _____    ______ ____
ROOT
ATOM      1  C   UNL     1      -8.589  -0.614   0.000  0.00  0.00    +0.000 C 
ENDROOT
BRANCH   1   4
ATOM      2  O   UNL     1     -10.018   0.211   0.000  0.00  0.00    +0.000 OA
ATOM      3  C   UNL     1     -10.018  -0.614   0.000  0.00  0.00    +0.000 C 
ATOM      4  N   UNL     1      -9.303  -1.027   0.000  0.00  0.00    +0.000 NA
BRANCH   3   5
ATOM      5  C   UNL     1     -10.732  -1.027   0.000  0.00  0.00    +0.000 C 
ATOM      6  C   UNL     1     -10.732  -1.852   0.000  0.00  0.00    +0.000 C 
ATOM      7  C   UNL     1     -11.447  -2.264   0.000  0.00  0.00    +0.000 C 
ATOM      8  C   UNL     1     -12.161  -1.852   0.000  0.00  0.00    +0.000 C 
ATOM      9  C   UNL     1     -12.161  -1.027   0.000  0.00  0.00    +0.000 C 
ATOM     10  C   UNL     1     -11.447  -0.614   0.000  0.00  0.00    +0.000 C 
ENDBRANCH   3   5
ENDBRANCH   1   4
BRANCH   1  11
ATOM     11  C   UNL     1      -8.589   0.211   0.000  0.00  0.00    +0.000 C 
ATOM     12  C   UNL     1      -7.875   0.623   0.000  0.00  0.00    +0.000 C 
ATOM     13  C   UNL     1      -9.303   0.623   0.000  0.00  0.00    +0.000 C 
ENDBRANCH   1  11
BRANCH   1  14
ATOM     14  C   UNL     1      -7.875  -1.027   0.000  0.00  0.00    +0.000 C 
ATOM     15  O   UNL     1      -7.875  -1.852   0.000  0.00  0.00    +0.000 OA
ATOM     16  N   UNL     1      -7.160  -0.614   0.000  0.00  0.00    +0.000 NA
BRANCH  16  17
ATOM     17  C   UNL     1      -6.446  -1.027   0.000  0.00  0.00    +0.000 A 
ATOM     18  C   UNL     1      -5.731  -0.614   0.000  0.00  0.00    +0.000 A 
ATOM     19  C   UNL     1      -5.017  -1.027   0.000  0.00  0.00    +0.000 A 
ATOM     20  N   UNL     1      -5.017  -1.852   0.000  0.00  0.00    +0.000 NA
ATOM     21  C   UNL     1      -5.731  -2.264   0.000  0.00  0.00    +0.000 A 
ATOM     22  C   UNL     1      -6.446  -1.852   0.000  0.00  0.00    +0.000 A 
ENDBRANCH  16  17
ENDBRANCH   1  14
TORSDOF 5
