REMARK  Name = CIN
REMARK  3 active torsions:
REMARK  status: ('A' for Active; 'I' for Inactive)
REMARK    1  A    between atoms: C_1  and  C_7
REMARK    2  A    between atoms: C_4  and  C_10
REMARK    3  A    between atoms: C_8  and  C_9
REMARK                            x       y       z     vdW  Elec       q    Type
REMARK                         _______ _______ _______ _____ _____    ______ ____
ROOT
ATOM      1  C   UNL     1       0.166   0.209   0.000  0.00  0.00    +0.000 A 
ATOM      2  C   UNL     1       0.166  -0.616   0.000  0.00  0.00    +0.000 A 
ATOM      3  C   UNL     1      -0.548  -1.029   0.000  0.00  0.00    +0.000 A 
ATOM      4  C   UNL     1      -1.263  -0.616   0.000  0.00  0.00    +0.000 A 
ATOM      5  C   UNL     1      -1.263   0.209   0.000  0.00  0.00    +0.000 A 
ATOM      6  C   UNL     1      -0.548   0.621   0.000  0.00  0.00    +0.000 A 
ENDROOT
BRANCH   4   7
ATOM      7  C   UNL     1      -1.977  -1.029   0.000  0.00  0.00    +0.000 C 
ATOM      8  O   UNL     1      -1.977  -1.854   0.000  0.00  0.00    +0.000 OA
ATOM      9  O   UNL     1      -2.692  -0.616   0.000  0.00  0.00    +0.000 OA
ENDBRANCH   4   7
BRANCH   1  10
ATOM     10  C   UNL     1       0.881   0.621   0.000  0.00  0.00    +0.000 C 
ATOM     11  C   UNL     1       1.595   0.209   0.000  0.00  0.00    +0.000 C 
BRANCH  11  12
ATOM     12  C   UNL     1       2.310   0.621   0.000  0.00  0.00    +0.000 C 
ATOM     13  O   UNL     1       3.024   0.209   0.000  0.00  0.00    +0.000 OA
ATOM     14  O   UNL     1       2.310   1.446   0.000  0.00  0.00    +0.000 OA
ENDBRANCH  11  12
ENDBRANCH   1  10
TORSDOF 3
