REMARK  Name = CIU
REMARK  2 active torsions:
REMARK  status: ('A' for Active; 'I' for Inactive)
REMARK    1  A    between atoms: C_3  and  N_7
REMARK    2  A    between atoms: N_10  and  C_11
REMARK                            x       y       z     vdW  Elec       q    Type
REMARK                         _______ _______ _______ _____ _____    ______ ____
ROOT
ATOM      1  N   UNL     1       0.537   0.658   0.000  0.00  0.00    +0.000 NA
ATOM      2  C   UNL     1       0.537  -0.167   0.000  0.00  0.00    +0.000 C 
ATOM      3  O   UNL     1      -0.177  -0.580   0.000  0.00  0.00    +0.000 OA
ATOM      4  N   UNL     1       1.252  -0.580   0.000  0.00  0.00    +0.000 NA
ENDROOT
BRANCH   4   5
ATOM      5  C   UNL     1       1.252  -1.405   0.000  0.00  0.00    +0.000 A 
ATOM      6  I   UNL     1       1.252  -3.880   0.000  0.00  0.00    +0.000 I 
ATOM      7  C   UNL     1       1.966  -1.817   0.000  0.00  0.00    +0.000 A 
ATOM      8  C   UNL     1       1.966  -2.642   0.000  0.00  0.00    +0.000 A 
ATOM      9  C   UNL     1       1.252  -3.055   0.000  0.00  0.00    +0.000 A 
ATOM     10  C   UNL     1       0.537  -2.642   0.000  0.00  0.00    +0.000 A 
ATOM     11  C   UNL     1       0.537  -1.817   0.000  0.00  0.00    +0.000 A 
ENDBRANCH   4   5
BRANCH   1  14
ATOM     12  C   UNL     1      -0.892   2.308   0.000  0.00  0.00    +0.000 C 
ATOM     13  C   UNL     1      -0.177   1.895   0.000  0.00  0.00    +0.000 C 
ATOM     14  C   UNL     1      -0.177   1.070   0.000  0.00  0.00    +0.000 C 
ATOM     15  C   UNL     1      -0.892   0.658   0.000  0.00  0.00    +0.000 C 
ATOM     16  C   UNL     1      -1.606   1.070   0.000  0.00  0.00    +0.000 C 
ATOM     17  C   UNL     1      -1.606   1.895   0.000  0.00  0.00    +0.000 C 
ENDBRANCH   1  14
TORSDOF 2
