REMARK  Name = CJH
REMARK  6 active torsions:
REMARK  status: ('A' for Active; 'I' for Inactive)
REMARK    1  A    between atoms: C_2  and  O_3
REMARK    2  A    between atoms: O_3  and  C_4
REMARK    3  A    between atoms: C_9  and  C_10
REMARK    4  A    between atoms: C_15  and  N_16
REMARK    5  A    between atoms: C_17  and  C_19
REMARK    6  A    between atoms: C_19  and  C_20
REMARK                            x       y       z     vdW  Elec       q    Type
REMARK                         _______ _______ _______ _____ _____    ______ ____
ROOT
ATOM      1  C   UNL     1      -0.169   0.110   0.000  0.00  0.00    +0.000 A 
ATOM      2  C   UNL     1       0.545   0.522   0.000  0.00  0.00    +0.000 A 
ATOM      3  C   UNL     1       1.260   0.110   0.000  0.00  0.00    +0.000 A 
ATOM      4  C   UNL     1      -0.169  -0.715   0.000  0.00  0.00    +0.000 A 
ATOM      5  C   UNL     1       0.545  -1.128   0.000  0.00  0.00    +0.000 A 
ATOM      6  C   UNL     1       1.260  -0.715   0.000  0.00  0.00    +0.000 A 
ENDROOT
BRANCH   1  12
ATOM      7  C   UNL     1      -1.598   1.760   0.000  0.00  0.00    +0.000 A 
ATOM      8  C   UNL     1      -0.884   1.347   0.000  0.00  0.00    +0.000 A 
ATOM      9  C   UNL     1      -2.312   1.347   0.000  0.00  0.00    +0.000 A 
ATOM     10  C   UNL     1      -2.312   0.522   0.000  0.00  0.00    +0.000 A 
ATOM     11  C   UNL     1      -1.598   0.110   0.000  0.00  0.00    +0.000 A 
ATOM     12  C   UNL     1      -0.884   0.522   0.000  0.00  0.00    +0.000 A 
BRANCH   7  13
ATOM     13  O   UNL     1      -1.598   2.585   0.000  0.00  0.00    +0.000 OA
BRANCH  13  15
ATOM     14  C   UNL     1      -2.312   3.822   0.000  0.00  0.00    +0.000 C 
ATOM     15  C   UNL     1      -2.312   2.997   0.000  0.00  0.00    +0.000 C 
ENDBRANCH  13  15
ENDBRANCH   7  13
ENDBRANCH   1  12
BRANCH   6  16
ATOM     16  N   UNL     1       1.974  -1.128   0.000  0.00  0.00    +0.000 NA
ATOM     17  C   UNL     1       1.974  -1.953   0.000  0.00  0.00    +0.000 C 
ATOM     18  O   UNL     1       1.260  -2.365   0.000  0.00  0.00    +0.000 OA
BRANCH  17  19
ATOM     19  C   UNL     1       2.689  -2.365   0.000  0.00  0.00    +0.000 C 
ATOM     20  C   UNL     1       3.403  -1.953   0.000  0.00  0.00    +0.000 C 
ATOM     21  C   UNL     1       4.118  -2.365   0.000  0.00  0.00    +0.000 C 
ATOM     22  O   UNL     1       3.403  -1.128   0.000  0.00  0.00    +0.000 OA
BRANCH  19  23
ATOM     23  C   UNL     1       2.689  -3.190   0.000  0.00  0.00    +0.000 C 
ATOM     24  N   UNL     1       2.689  -4.015   0.000  0.00  0.00    +0.000 NA
ENDBRANCH  19  23
ENDBRANCH  17  19
ENDBRANCH   6  16
TORSDOF 6
