REMARK  Name = CK2
REMARK  1 active torsions:
REMARK  status: ('A' for Active; 'I' for Inactive)
REMARK    1  A    between atoms: C_7  and  C_8
REMARK                            x       y       z     vdW  Elec       q    Type
REMARK                         _______ _______ _______ _____ _____    ______ ____
ROOT
ATOM      1  C   UNL     1      -0.461   2.381   0.000  0.00  0.00    +0.000 C 
ATOM      2  C   UNL     1      -0.461   1.556   0.000  0.00  0.00    +0.000 A 
ATOM      3  S   UNL     1       0.207   1.071   0.000  0.00  0.00    +0.000 S 
ATOM      4  N   UNL     1      -1.128   1.071   0.000  0.00  0.00    +0.000 NA
ATOM      5  C   UNL     1      -0.873   0.287   0.000  0.00  0.00    +0.000 A 
ATOM      6  C   UNL     1      -1.358  -0.381   0.000  0.00  0.00    +0.000 C 
ATOM      7  C   UNL     1      -0.048   0.287   0.000  0.00  0.00    +0.000 A 
ENDROOT
BRANCH   7   8
ATOM      8  C   UNL     1       0.437  -0.381   0.000  0.00  0.00    +0.000 A 
ATOM      9  N   UNL     1       1.257  -0.294   0.000  0.00  0.00    +0.000 NA
ATOM     10  C   UNL     1       0.101  -1.134   0.000  0.00  0.00    +0.000 A 
ATOM     11  C   UNL     1       0.586  -1.802   0.000  0.00  0.00    +0.000 A 
ATOM     12  N   UNL     1       1.407  -1.716   0.000  0.00  0.00    +0.000 NA
ATOM     13  C   UNL     1       1.742  -0.962   0.000  0.00  0.00    +0.000 A 
ATOM     14  N   UNL     1       2.562  -0.876   0.000  0.00  0.00    +0.000 NA
ENDBRANCH   7   8
TORSDOF 1
