REMARK  Name = CK5
REMARK  2 active torsions:
REMARK  status: ('A' for Active; 'I' for Inactive)
REMARK    1  A    between atoms: C_4  and  N_8
REMARK    2  A    between atoms: C_13  and  C_15
REMARK                            x       y       z     vdW  Elec       q    Type
REMARK                         _______ _______ _______ _____ _____    ______ ____
ROOT
ATOM      1  N   UNL     1      -0.919   0.825   0.000  0.00  0.00    +0.000 NA
ATOM      2  C   UNL     1      -0.204   0.412   0.000  0.00  0.00    +0.000 A 
ATOM      3  N   UNL     1       0.510   0.825   0.000  0.00  0.00    +0.000 NA
ATOM      4  C   UNL     1       1.225   0.412   0.000  0.00  0.00    +0.000 A 
ATOM      5  N   UNL     1      -0.204  -0.413   0.000  0.00  0.00    +0.000 NA
ATOM      6  C   UNL     1       0.510  -0.825   0.000  0.00  0.00    +0.000 A 
ATOM      7  C   UNL     1       1.225  -0.413   0.000  0.00  0.00    +0.000 A 
ENDROOT
BRANCH   1  11
ATOM      8  O   UNL     1       0.510   3.300   0.000  0.00  0.00    +0.000 OA
ATOM      9  C   UNL     1      -0.204   2.887   0.000  0.00  0.00    +0.000 A 
ATOM     10  C   UNL     1      -0.204   2.062   0.000  0.00  0.00    +0.000 A 
ATOM     11  C   UNL     1      -0.919   1.650   0.000  0.00  0.00    +0.000 A 
ATOM     12  C   UNL     1      -1.633   2.062   0.000  0.00  0.00    +0.000 A 
ATOM     13  C   UNL     1      -1.633   2.887   0.000  0.00  0.00    +0.000 A 
ATOM     14  C   UNL     1      -0.919   3.300   0.000  0.00  0.00    +0.000 A 
ENDBRANCH   1  11
BRANCH   6  15
ATOM     15  C   UNL     1       0.510  -1.650   0.000  0.00  0.00    +0.000 A 
ATOM     16  C   UNL     1       1.178  -2.135   0.000  0.00  0.00    +0.000 A 
ATOM     17  C   UNL     1       1.962  -1.880   0.000  0.00  0.00    +0.000 C 
ATOM     18  S   UNL     1      -0.157  -2.135   0.000  0.00  0.00    +0.000 S 
ATOM     19  C   UNL     1       0.098  -2.920   0.000  0.00  0.00    +0.000 A 
ATOM     20  N   UNL     1       0.923  -2.920   0.000  0.00  0.00    +0.000 NA
ATOM     21  C   UNL     1      -0.387  -3.587   0.000  0.00  0.00    +0.000 C 
ENDBRANCH   6  15
TORSDOF 2
