REMARK  Name = CK7
REMARK  3 active torsions:
REMARK  status: ('A' for Active; 'I' for Inactive)
REMARK    1  A    between atoms: C_7  and  C_8
REMARK    2  A    between atoms: N_14  and  C_15
REMARK    3  A    between atoms: C_18  and  N_19
REMARK                            x       y       z     vdW  Elec       q    Type
REMARK                         _______ _______ _______ _____ _____    ______ ____
ROOT
ATOM      1  C   UNL     1      -1.000   1.021   0.000  0.00  0.00    +0.000 A 
ATOM      2  N   UNL     1      -0.664   0.267   0.000  0.00  0.00    +0.000 NA
ATOM      3  C   UNL     1      -1.820   1.107   0.000  0.00  0.00    +0.000 A 
ATOM      4  C   UNL     1      -2.305   0.439   0.000  0.00  0.00    +0.000 A 
ATOM      5  N   UNL     1      -1.970  -0.314   0.000  0.00  0.00    +0.000 NA
ATOM      6  C   UNL     1      -1.149  -0.401   0.000  0.00  0.00    +0.000 A 
ATOM      7  N   UNL     1      -0.814  -1.154   0.000  0.00  0.00    +0.000 NA
ENDROOT
BRANCH   1  14
ATOM      8  N   UNL     1      -0.102   3.783   0.000  0.00  0.00    +0.000 NA
ATOM      9  C   UNL     1      -0.102   2.958   0.000  0.00  0.00    +0.000 A 
ATOM     10  N   UNL     1       0.565   2.473   0.000  0.00  0.00    +0.000 NA
ATOM     11  C   UNL     1       0.310   1.688   0.000  0.00  0.00    +0.000 A 
ATOM     12  C   UNL     1       0.795   1.021   0.000  0.00  0.00    +0.000 C 
ATOM     13  S   UNL     1      -0.770   2.473   0.000  0.00  0.00    +0.000 S 
ATOM     14  C   UNL     1      -0.515   1.688   0.000  0.00  0.00    +0.000 A 
ENDBRANCH   1  14
BRANCH   7  15
ATOM     15  C   UNL     1       0.007  -1.240   0.000  0.00  0.00    +0.000 A 
ATOM     16  C   UNL     1       0.492  -0.573   0.000  0.00  0.00    +0.000 A 
ATOM     17  C   UNL     1       0.343  -1.994   0.000  0.00  0.00    +0.000 A 
ATOM     18  C   UNL     1       1.163  -2.080   0.000  0.00  0.00    +0.000 A 
ATOM     19  C   UNL     1       1.648  -1.413   0.000  0.00  0.00    +0.000 A 
ATOM     20  C   UNL     1       1.312  -0.659   0.000  0.00  0.00    +0.000 A 
BRANCH  18  21
ATOM     21  N   UNL     1       1.499  -2.834   0.000  0.00  0.00    +0.000 N 
ATOM     22  O   UNL     1       2.319  -2.920   0.000  0.00  0.00    +0.000 OA
ATOM     23  O   UNL     1       1.014  -3.501   0.000  0.00  0.00    +0.000 OA
ENDBRANCH  18  21
ENDBRANCH   7  15
TORSDOF 3
