REMARK  Name = CK8
REMARK  3 active torsions:
REMARK  status: ('A' for Active; 'I' for Inactive)
REMARK    1  A    between atoms: C_5  and  C_7
REMARK    2  A    between atoms: N_14  and  C_15
REMARK    3  A    between atoms: C_18  and  N_21
REMARK                            x       y       z     vdW  Elec       q    Type
REMARK                         _______ _______ _______ _____ _____    ______ ____
ROOT
ATOM      1  C   UNL     1      -2.521   1.370   0.000  0.00  0.00    +0.000 A 
ATOM      2  N   UNL     1      -1.806   1.783   0.000  0.00  0.00    +0.000 NA
ATOM      3  C   UNL     1      -1.092   1.370   0.000  0.00  0.00    +0.000 A 
ATOM      4  N   UNL     1      -1.092   0.545   0.000  0.00  0.00    +0.000 NA
ATOM      5  C   UNL     1      -1.806   0.133   0.000  0.00  0.00    +0.000 A 
ATOM      6  C   UNL     1      -2.521   0.545   0.000  0.00  0.00    +0.000 A 
ATOM      7  N   UNL     1      -0.377   1.783   0.000  0.00  0.00    +0.000 NA
ENDROOT
BRANCH   5   8
ATOM      8  C   UNL     1      -1.806  -0.692   0.000  0.00  0.00    +0.000 A 
ATOM      9  C   UNL     1      -1.139  -1.177   0.000  0.00  0.00    +0.000 A 
ATOM     10  N   UNL     1      -1.394  -1.962   0.000  0.00  0.00    +0.000 NA
ATOM     11  C   UNL     1      -2.219  -1.962   0.000  0.00  0.00    +0.000 A 
ATOM     12  S   UNL     1      -2.474  -1.177   0.000  0.00  0.00    +0.000 S 
ATOM     13  C   UNL     1      -0.354  -0.922   0.000  0.00  0.00    +0.000 C 
ATOM     14  C   UNL     1      -2.704  -2.629   0.000  0.00  0.00    +0.000 C 
ENDBRANCH   5   8
BRANCH   7  15
ATOM     15  C   UNL     1       0.337   1.370   0.000  0.00  0.00    +0.000 A 
ATOM     16  C   UNL     1       1.052   1.783   0.000  0.00  0.00    +0.000 A 
ATOM     17  C   UNL     1       1.766   1.370   0.000  0.00  0.00    +0.000 A 
ATOM     18  C   UNL     1       1.766   0.545   0.000  0.00  0.00    +0.000 A 
ATOM     19  C   UNL     1       1.052   0.133   0.000  0.00  0.00    +0.000 A 
ATOM     20  C   UNL     1       0.337   0.545   0.000  0.00  0.00    +0.000 A 
BRANCH  18  21
ATOM     21  N   UNL     1       2.481   0.133   0.000  0.00  0.00    +0.000 N 
ATOM     22  C   UNL     1       3.195   0.545   0.000  0.00  0.00    +0.000 C 
ATOM     23  C   UNL     1       2.481  -0.692   0.000  0.00  0.00    +0.000 C 
ENDBRANCH  18  21
ENDBRANCH   7  15
TORSDOF 3
