REMARK  Name = CK9
REMARK  6 active torsions:
REMARK  status: ('A' for Active; 'I' for Inactive)
REMARK    1  A    between atoms: C_7  and  C_8
REMARK    2  A    between atoms: C_8  and  N_9
REMARK    3  A    between atoms: N_15  and  C_16
REMARK    4  A    between atoms: N_22  and  CA_23
REMARK    5  A    between atoms: CA_23  and  C_24
REMARK    6  A    between atoms: CA_23  and  C_26
REMARK                            x       y       z     vdW  Elec       q    Type
REMARK                         _______ _______ _______ _____ _____    ______ ____
ROOT
ATOM      1  N   UNL     1       0.014  -1.529   0.000  0.00  0.00    +0.000 NA
ATOM      2  C   UNL     1       0.014  -0.704   0.000  0.00  0.00    +0.000 A 
ATOM      3  C   UNL     1      -0.701  -0.292   0.000  0.00  0.00    +0.000 A 
ATOM      4  N   UNL     1      -1.485  -0.547   0.000  0.00  0.00    +0.000 NA
ATOM      5  C   UNL     1      -1.970   0.121   0.000  0.00  0.00    +0.000 A 
ATOM      6  C   UNL     1      -0.701   0.533   0.000  0.00  0.00    +0.000 A 
ATOM      7  N   UNL     1      -1.485   0.788   0.000  0.00  0.00    +0.000 N 
ATOM      8  N   UNL     1       0.014   0.946   0.000  0.00  0.00    +0.000 NA
ATOM      9  C   UNL     1       0.728   0.533   0.000  0.00  0.00    +0.000 A 
ATOM     10  N   UNL     1       0.728  -0.292   0.000  0.00  0.00    +0.000 NA
ATOM     11  N   UNL     1       1.443   0.946   0.000  0.00  0.00    +0.000 NA
ENDROOT
BRANCH   7  12
ATOM     12  C   UNL     1      -1.740   1.573   0.000  0.00  0.00    +0.000 C 
ATOM     13  C   UNL     1      -1.188   2.186   0.000  0.00  0.00    +0.000 C 
ATOM     14  C   UNL     1      -2.547   1.744   0.000  0.00  0.00    +0.000 C 
ENDBRANCH   7  12
BRANCH   1  15
ATOM     15  C   UNL     1      -0.701  -1.942   0.000  0.00  0.00    +0.000 C 
BRANCH  15  22
ATOM     16  O   UNL     1       0.728  -2.767   0.000  0.00  0.00    +0.000 OA
ATOM     17  C   UNL     1       0.014  -3.179   0.000  0.00  0.00    +0.000 A 
ATOM     18  C   UNL     1       0.014  -4.004   0.000  0.00  0.00    +0.000 A 
ATOM     19  C   UNL     1      -0.701  -4.417   0.000  0.00  0.00    +0.000 A 
ATOM     20  C   UNL     1      -1.415  -4.004   0.000  0.00  0.00    +0.000 A 
ATOM     21  C   UNL     1      -1.415  -3.179   0.000  0.00  0.00    +0.000 A 
ATOM     22  C   UNL     1      -0.701  -2.767   0.000  0.00  0.00    +0.000 A 
ENDBRANCH  15  22
ENDBRANCH   1  15
BRANCH  11  23
ATOM     23  CA  UNL     1       1.443   1.771   0.000  0.00  0.00    +0.000 C 
BRANCH  23  24
ATOM     24  C   UNL     1       2.157   2.183   0.000  0.00  0.00    +0.000 C 
ATOM     25  C   UNL     1       2.157   3.008   0.000  0.00  0.00    +0.000 C 
ENDBRANCH  23  24
BRANCH  23  26
ATOM     26  C   UNL     1       0.728   2.183   0.000  0.00  0.00    +0.000 C 
ATOM     27  O   UNL     1       0.728   3.008   0.000  0.00  0.00    +0.000 OA
ENDBRANCH  23  26
ENDBRANCH  11  23
TORSDOF 6
