REMARK  Name = CKE
REMARK  5 active torsions:
REMARK  status: ('A' for Active; 'I' for Inactive)
REMARK    1  A    between atoms: C_1  and  C_2
REMARK    2  A    between atoms: C_2  and  C_3
REMARK    3  A    between atoms: C_6  and  N_24
REMARK    4  A    between atoms: C_18  and  C_31
REMARK    5  A    between atoms: N_20  and  C_27
REMARK                            x       y       z     vdW  Elec       q    Type
REMARK                         _______ _______ _______ _____ _____    ______ ____
ROOT
ATOM      1  C   UNL     1       0.729  -0.467   0.000  0.00  0.00    +0.000 A 
ATOM      2  N   UNL     1       3.428  -0.055   0.000  0.00  0.00    +0.000 NA
ATOM      3  C   UNL     1       2.713   0.358   0.000  0.00  0.00    +0.000 A 
ATOM      4  C   UNL     1       1.998  -0.055   0.000  0.00  0.00    +0.000 A 
ATOM      5  C   UNL     1       1.998  -0.880   0.000  0.00  0.00    +0.000 A 
ATOM      6  N   UNL     1       2.713  -1.292   0.000  0.00  0.00    +0.000 NA
ATOM      7  C   UNL     1       3.428  -0.880   0.000  0.00  0.00    +0.000 A 
ATOM      8  C   UNL     1       1.214   0.200   0.000  0.00  0.00    +0.000 A 
ATOM      9  N   UNL     1       1.214  -1.135   0.000  0.00  0.00    +0.000 N 
ENDROOT
BRANCH   9  12
ATOM     10  C   UNL     1       1.511  -2.532   0.000  0.00  0.00    +0.000 C 
ATOM     11  C   UNL     1       0.449  -3.488   0.000  0.00  0.00    +0.000 C 
ATOM     12  C   UNL     1       0.959  -1.919   0.000  0.00  0.00    +0.000 C 
ATOM     13  C   UNL     1       0.152  -2.091   0.000  0.00  0.00    +0.000 C 
ATOM     14  C   UNL     1      -0.103  -2.875   0.000  0.00  0.00    +0.000 C 
ATOM     15  C   UNL     1       1.256  -3.317   0.000  0.00  0.00    +0.000 C 
ENDBRANCH   9  12
BRANCH   7  17
ATOM     16  N   UNL     1       4.856  -0.880   0.000  0.00  0.00    +0.000 NA
ATOM     17  C   UNL     1       4.142  -1.292   0.000  0.00  0.00    +0.000 C 
ENDBRANCH   7  17
BRANCH   1  18
ATOM     18  C   UNL     1      -0.096  -0.467   0.000  0.00  0.00    +0.000 C 
BRANCH  18  19
ATOM     19  C   UNL     1      -0.508   0.247   0.000  0.00  0.00    +0.000 A 
ATOM     20  C   UNL     1      -0.096   0.962   0.000  0.00  0.00    +0.000 A 
ATOM     21  C   UNL     1      -0.508   1.676   0.000  0.00  0.00    +0.000 A 
ATOM     22  C   UNL     1      -1.333   1.676   0.000  0.00  0.00    +0.000 A 
ATOM     23  C   UNL     1      -1.746   0.962   0.000  0.00  0.00    +0.000 A 
ATOM     24  C   UNL     1      -1.333   0.247   0.000  0.00  0.00    +0.000 A 
BRANCH  22  29
ATOM     25  C   UNL     1      -1.333   3.105   0.000  0.00  0.00    +0.000 C 
ATOM     26  C   UNL     1      -1.746   3.820   0.000  0.00  0.00    +0.000 C 
ATOM     27  C   UNL     1      -2.571   2.391   0.000  0.00  0.00    +0.000 C 
ATOM     28  C   UNL     1      -2.983   4.534   0.000  0.00  0.00    +0.000 C 
ATOM     29  N   UNL     1      -1.746   2.391   0.000  0.00  0.00    +0.000 N 
ATOM     30  N   UNL     1      -2.571   3.820   0.000  0.00  0.00    +0.000 NA
ATOM     31  C   UNL     1      -2.983   3.105   0.000  0.00  0.00    +0.000 C 
ENDBRANCH  22  29
ENDBRANCH  18  19
ENDBRANCH   1  18
TORSDOF 5
