REMARK  Name = CKI
REMARK  4 active torsions:
REMARK  status: ('A' for Active; 'I' for Inactive)
REMARK    1  A    between atoms: C_9  and  S_12
REMARK    2  A    between atoms: S_12  and  N_15
REMARK    3  A    between atoms: N_15  and  C_16
REMARK    4  A    between atoms: C_16  and  C_17
REMARK                            x       y       z     vdW  Elec       q    Type
REMARK                         _______ _______ _______ _____ _____    ______ ____
ROOT
ATOM      1  C   UNL     1      -1.031  -0.703   0.000  0.00  0.00    +0.000 A 
ATOM      2  N   UNL     1      -1.746  -1.115   0.000  0.00  0.00    +0.000 NA
ATOM      3  C   UNL     1      -2.460  -0.703   0.000  0.00  0.00    +0.000 A 
ATOM      4  C   UNL     1      -2.460   0.122   0.000  0.00  0.00    +0.000 A 
ATOM      5  C   UNL     1      -1.746   1.360   0.000  0.00  0.00    +0.000 A 
ATOM      6 CL   UNL     1      -2.460   1.772   0.000  0.00  0.00    +0.000 Cl
ATOM      7  C   UNL     1      -1.031   1.772   0.000  0.00  0.00    +0.000 A 
ATOM      8  C   UNL     1      -0.317   1.360   0.000  0.00  0.00    +0.000 A 
ATOM      9  C   UNL     1      -0.317   0.535   0.000  0.00  0.00    +0.000 A 
ATOM     10  C   UNL     1      -1.031   0.122   0.000  0.00  0.00    +0.000 A 
ATOM     11  C   UNL     1      -1.746   0.535   0.000  0.00  0.00    +0.000 A 
ENDROOT
BRANCH   9  12
ATOM     12  S   UNL     1       0.398   0.122   0.000  0.00  0.00    +0.000 S 
ATOM     13  O   UNL     1      -0.015  -0.592   0.000  0.00  0.00    +0.000 OA
ATOM     14  O   UNL     1       0.810   0.837   0.000  0.00  0.00    +0.000 OA
BRANCH  12  15
ATOM     15  N   UNL     1       1.112  -0.290   0.000  0.00  0.00    +0.000 NA
BRANCH  15  16
ATOM     16  C   UNL     1       1.827   0.122   0.000  0.00  0.00    +0.000 C 
BRANCH  16  17
ATOM     17  C   UNL     1       2.541  -0.290   0.000  0.00  0.00    +0.000 C 
ATOM     18  N   UNL     1       3.256   0.122   0.000  0.00  0.00    +0.000 NA
ENDBRANCH  16  17
ENDBRANCH  15  16
ENDBRANCH  12  15
ENDBRANCH   9  12
TORSDOF 4
