REMARK  Name = CKR
REMARK  3 active torsions:
REMARK  status: ('A' for Active; 'I' for Inactive)
REMARK    1  A    between atoms: N_16  and  C_17
REMARK    2  A    between atoms: C_17  and  C_18
REMARK    3  A    between atoms: C_18  and  N_19
REMARK                            x       y       z     vdW  Elec       q    Type
REMARK                         _______ _______ _______ _____ _____    ______ ____
ROOT
ATOM      1  N   UNL     1       0.912  -0.021   0.000  0.00  0.00    +0.000 NA
ATOM      2  C   UNL     1       1.696  -0.276   0.000  0.00  0.00    +0.000 A 
ATOM      3  C   UNL     1       2.411   0.137   0.000  0.00  0.00    +0.000 A 
ATOM      4  C   UNL     1       3.125  -0.276   0.000  0.00  0.00    +0.000 A 
ATOM      5  C   UNL     1       3.840   0.137   0.000  0.00  0.00    +0.000 A 
ATOM      6  O   UNL     1       3.840   0.962   0.000  0.00  0.00    +0.000 OA
ATOM      7  N   UNL     1       4.554  -0.276   0.000  0.00  0.00    +0.000 NA
ATOM      8  C   UNL     1       4.554  -1.101   0.000  0.00  0.00    +0.000 A 
ATOM      9  N   UNL     1       5.269  -1.513   0.000  0.00  0.00    +0.000 NA
ATOM     10  N   UNL     1       3.840  -1.513   0.000  0.00  0.00    +0.000 NA
ATOM     11  C   UNL     1       3.125  -1.101   0.000  0.00  0.00    +0.000 A 
ATOM     12  C   UNL     1       2.411  -1.513   0.000  0.00  0.00    +0.000 A 
ATOM     13  C   UNL     1       1.696  -1.101   0.000  0.00  0.00    +0.000 A 
ATOM     14  N   UNL     1       0.912  -1.355   0.000  0.00  0.00    +0.000 NA
ATOM     15  C   UNL     1       0.427  -0.688   0.000  0.00  0.00    +0.000 A 
ATOM     16  N   UNL     1      -0.398  -0.688   0.000  0.00  0.00    +0.000 NA
ENDROOT
BRANCH  16  17
ATOM     17  C   UNL     1      -0.811   0.026   0.000  0.00  0.00    +0.000 C 
BRANCH  17  18
ATOM     18  C   UNL     1      -1.636   0.026   0.000  0.00  0.00    +0.000 C 
BRANCH  18  19
ATOM     19  N   UNL     1      -2.048   0.741   0.000  0.00  0.00    +0.000 NA
ATOM     20  C   UNL     1      -2.873   0.741   0.000  0.00  0.00    +0.000 C 
ATOM     21  C   UNL     1      -3.286   1.455   0.000  0.00  0.00    +0.000 C 
ATOM     22  O   UNL     1      -2.873   2.170   0.000  0.00  0.00    +0.000 OA
ATOM     23  C   UNL     1      -2.048   2.170   0.000  0.00  0.00    +0.000 C 
ATOM     24  C   UNL     1      -1.636   1.455   0.000  0.00  0.00    +0.000 C 
ENDBRANCH  18  19
ENDBRANCH  17  18
ENDBRANCH  16  17
TORSDOF 3
