REMARK  Name = CL3
REMARK  3 active torsions:
REMARK  status: ('A' for Active; 'I' for Inactive)
REMARK    1  A    between atoms: C_7  and  C_11
REMARK    2  A    between atoms: C_8  and  C_12
REMARK    3  A    between atoms: C_14  and  N_23
REMARK                            x       y       z     vdW  Elec       q    Type
REMARK                         _______ _______ _______ _____ _____    ______ ____
ROOT
ATOM      1  N   UNL     1       0.132   1.012   0.000  0.00  0.00    +0.000 NA
ATOM      2  N   UNL     1      -0.583   1.425   0.000  0.00  0.00    +0.000 N 
ATOM      3  C   UNL     1      -0.583   2.250   0.000  0.00  0.00    +0.000 A 
ATOM      4  C   UNL     1       0.132   2.662   0.000  0.00  0.00    +0.000 A 
ATOM      5  C   UNL     1       0.846   2.250   0.000  0.00  0.00    +0.000 A 
ATOM      6  C   UNL     1       0.846   1.425   0.000  0.00  0.00    +0.000 A 
ATOM      7  C   UNL     1      -1.367   1.170   0.000  0.00  0.00    +0.000 A 
ATOM      8  N   UNL     1      -1.852   1.837   0.000  0.00  0.00    +0.000 NA
ATOM      9  N   UNL     1      -1.367   2.505   0.000  0.00  0.00    +0.000 NA
ENDROOT
BRANCH   6  10
ATOM     10  C   UNL     1       1.561   1.012   0.000  0.00  0.00    +0.000 A 
ATOM     11  C   UNL     1       2.275   1.425   0.000  0.00  0.00    +0.000 A 
ATOM     12  C   UNL     1       2.990   1.012   0.000  0.00  0.00    +0.000 A 
ATOM     13  C   UNL     1       2.990   0.187   0.000  0.00  0.00    +0.000 A 
ATOM     14  C   UNL     1       2.275  -0.225   0.000  0.00  0.00    +0.000 A 
ATOM     15  C   UNL     1       1.561   0.187   0.000  0.00  0.00    +0.000 A 
ENDBRANCH   6  10
BRANCH   7  16
ATOM     16  C   UNL     1      -1.622   0.385   0.000  0.00  0.00    +0.000 A 
ATOM     17  C   UNL     1      -1.070  -0.228   0.000  0.00  0.00    +0.000 A 
ATOM     18  C   UNL     1      -1.325  -1.012   0.000  0.00  0.00    +0.000 A 
ATOM     19  C   UNL     1      -2.132  -1.184   0.000  0.00  0.00    +0.000 A 
ATOM     20  C   UNL     1      -2.684  -0.571   0.000  0.00  0.00    +0.000 A 
ATOM     21  C   UNL     1      -2.429   0.214   0.000  0.00  0.00    +0.000 A 
BRANCH  18  23
ATOM     22  O   UNL     1      -0.476  -3.023   0.000  0.00  0.00    +0.000 OA
ATOM     23  N   UNL     1      -0.773  -1.625   0.000  0.00  0.00    +0.000 N 
ATOM     24  C   UNL     1       0.034  -1.454   0.000  0.00  0.00    +0.000 C 
ATOM     25  C   UNL     1      -1.028  -2.410   0.000  0.00  0.00    +0.000 C 
ATOM     26  C   UNL     1      -1.835  -2.582   0.000  0.00  0.00    +0.000 C 
ENDBRANCH  18  23
ENDBRANCH   7  16
TORSDOF 3
