REMARK  Name = CLI
REMARK  4 active torsions:
REMARK  status: ('A' for Active; 'I' for Inactive)
REMARK    1  A    between atoms: C_2  and  C_4
REMARK    2  A    between atoms: C_4  and  C_5
REMARK    3  A    between atoms: C_5  and  C_6
REMARK    4  A    between atoms: CA_8  and  C_9
REMARK                            x       y       z     vdW  Elec       q    Type
REMARK                         _______ _______ _______ _____ _____    ______ ____
ROOT
ATOM      1  C   UNL     1      -0.140  -0.096   0.000  0.00  0.00    +0.000 A 
ATOM      2  C   UNL     1       0.645   0.159   0.000  0.00  0.00    +0.000 A 
ATOM      3  CA  UNL     1      -0.625   0.571   0.000  0.00  0.00    +0.000 A 
ATOM      4  N   UNL     1      -0.140   1.239   0.000  0.00  0.00    +0.000 NA
ATOM      5  C   UNL     1       0.645   0.984   0.000  0.00  0.00    +0.000 A 
ATOM      6  C   UNL     1       1.359   1.396   0.000  0.00  0.00    +0.000 A 
ATOM      7  C   UNL     1       2.074   0.984   0.000  0.00  0.00    +0.000 A 
ATOM      8 CL   UNL     1       2.788   1.396   0.000  0.00  0.00    +0.000 Cl
ATOM      9  C   UNL     1       2.074   0.159   0.000  0.00  0.00    +0.000 A 
ATOM     10  C   UNL     1       1.359  -0.254   0.000  0.00  0.00    +0.000 A 
ATOM     11 CL   UNL     1       1.359  -1.079   0.000  0.00  0.00    +0.000 Cl
ENDROOT
BRANCH   3  12
ATOM     12  C   UNL     1      -1.450   0.571   0.000  0.00  0.00    +0.000 C 
ATOM     13  O   UNL     1      -1.862   1.286   0.000  0.00  0.00    +0.000 OA
ATOM     14  OXT UNL     1      -1.862  -0.143   0.000  0.00  0.00    +0.000 OA
ENDBRANCH   3  12
BRANCH   1  15
ATOM     15  C   UNL     1      -0.395  -0.881   0.000  0.00  0.00    +0.000 C 
BRANCH  15  16
ATOM     16  C   UNL     1      -1.202  -1.052   0.000  0.00  0.00    +0.000 C 
BRANCH  16  18
ATOM     17  O   UNL     1      -2.264  -2.008   0.000  0.00  0.00    +0.000 OA
ATOM     18  C   UNL     1      -1.457  -1.837   0.000  0.00  0.00    +0.000 C 
ATOM     19  O   UNL     1      -0.905  -2.450   0.000  0.00  0.00    +0.000 OA
ENDBRANCH  16  18
ENDBRANCH  15  16
ENDBRANCH   1  15
TORSDOF 4
