REMARK  Name = CLK
REMARK  5 active torsions:
REMARK  status: ('A' for Active; 'I' for Inactive)
REMARK    1  A    between atoms: C_1  and  C_4
REMARK    2  A    between atoms: N_6  and  CA_7
REMARK    3  A    between atoms: CA_7  and  C_8
REMARK    4  A    between atoms: CA_7  and  C_10
REMARK    5  A    between atoms: C_10  and  C_12
REMARK                            x       y       z     vdW  Elec       q    Type
REMARK                         _______ _______ _______ _____ _____    ______ ____
ROOT
ATOM      1  CA  UNL     1      -0.833   0.284   0.000  0.00  0.00    +0.000 C 
ENDROOT
BRANCH   1   4
ATOM      2  C   UNL     1      -2.262   0.284   0.000  0.00  0.00    +0.000 C 
ATOM      3  O   UNL     1      -2.262  -0.540   0.000  0.00  0.00    +0.000 OA
ATOM      4  N   UNL     1      -1.548   0.697   0.000  0.00  0.00    +0.000 NA
BRANCH   2   5
ATOM      5  C   UNL     1      -2.977   0.697   0.000  0.00  0.00    +0.000 C 
ATOM      6 CL   UNL     1      -3.691   0.284   0.000  0.00  0.00    +0.000 Cl
ATOM      7 CL   UNL     1      -2.977   1.522   0.000  0.00  0.00    +0.000 Cl
ENDBRANCH   2   5
ENDBRANCH   1   4
BRANCH   1   8
ATOM      8  C   UNL     1      -0.833  -0.540   0.000  0.00  0.00    +0.000 C 
ATOM      9  O   UNL     1      -0.119  -0.953   0.000  0.00  0.00    +0.000 OA
ENDBRANCH   1   8
BRANCH   1  10
ATOM     10  C   UNL     1      -0.119   0.697   0.000  0.00  0.00    +0.000 C 
ATOM     11  O   UNL     1      -0.119   1.522   0.000  0.00  0.00    +0.000 OA
BRANCH  10  12
ATOM     12  C   UNL     1       0.596   0.284   0.000  0.00  0.00    +0.000 A 
ATOM     13  C   UNL     1       1.310   0.697   0.000  0.00  0.00    +0.000 A 
ATOM     14  C   UNL     1       2.025   0.284   0.000  0.00  0.00    +0.000 A 
ATOM     15  C   UNL     1       2.025  -0.540   0.000  0.00  0.00    +0.000 A 
ATOM     16  N   UNL     1       2.739  -0.953   0.000  0.00  0.00    +0.000 NA
ATOM     17  C   UNL     1       1.310  -0.953   0.000  0.00  0.00    +0.000 A 
ATOM     18  C   UNL     1       0.596  -0.540   0.000  0.00  0.00    +0.000 A 
ENDBRANCH  10  12
ENDBRANCH   1  10
TORSDOF 5
