REMARK  Name = CLT
REMARK  4 active torsions:
REMARK  status: ('A' for Active; 'I' for Inactive)
REMARK    1  A    between atoms: C_1  and  C_2
REMARK    2  A    between atoms: C_1  and  C_10
REMARK    3  A    between atoms: C_2  and  C_3
REMARK    4  A    between atoms: C_3  and  C_4
REMARK                            x       y       z     vdW  Elec       q    Type
REMARK                         _______ _______ _______ _____ _____    ______ ____
ROOT
ATOM      1  C   UNL     1       0.068   0.466   0.000  0.00  0.00    +0.000 C 
ENDROOT
BRANCH   1   2
ATOM      2  C   UNL     1      -0.647   0.053   0.000  0.00  0.00    +0.000 A 
ATOM      3  C   UNL     1      -0.647  -0.772   0.000  0.00  0.00    +0.000 A 
ATOM      4  C   UNL     1      -1.361   0.466   0.000  0.00  0.00    +0.000 A 
ATOM      5  C   UNL     1      -1.361  -1.185   0.000  0.00  0.00    +0.000 A 
ATOM      6  C   UNL     1      -2.076   0.053   0.000  0.00  0.00    +0.000 A 
ATOM      7  C   UNL     1      -2.076  -0.772   0.000  0.00  0.00    +0.000 A 
ENDBRANCH   1   2
BRANCH   1   8
ATOM      8  C   UNL     1       0.782   0.053   0.000  0.00  0.00    +0.000 C 
BRANCH   8   9
ATOM      9  C   UNL     1       1.497   0.466   0.000  0.00  0.00    +0.000 C 
BRANCH   9  10
ATOM     10  C   UNL     1       2.211   0.053   0.000  0.00  0.00    +0.000 C 
ATOM     11  O   UNL     1       2.926   0.466   0.000  0.00  0.00    +0.000 OA
ATOM     12  O   UNL     1       2.211  -0.772   0.000  0.00  0.00    +0.000 OA
ENDBRANCH   9  10
ENDBRANCH   8   9
ENDBRANCH   1   8
TORSDOF 4
