REMARK  Name = CM4
REMARK  6 active torsions:
REMARK  status: ('A' for Active; 'I' for Inactive)
REMARK    1  A    between atoms: C_1  and  C_13
REMARK    2  A    between atoms: C_2  and  C_20
REMARK    3  A    between atoms: C_23  and  O_26
REMARK    4  A    between atoms: O_26  and  C_27
REMARK    5  A    between atoms: C_27  and  C_28
REMARK    6  A    between atoms: C_28  and  N_29
REMARK                            x       y       z     vdW  Elec       q    Type
REMARK                         _______ _______ _______ _____ _____    ______ ____
ROOT
ATOM      1  C   UNL     1       1.181  -1.480   0.000  0.00  0.00    +0.000 C 
ATOM      2  C   UNL     1       1.181  -0.655   0.000  0.00  0.00    +0.000 C 
ATOM      3  O   UNL     1       1.896  -0.242   0.000  0.00  0.00    +0.000 OA
ATOM      4  C   UNL     1       2.610  -0.655   0.000  0.00  0.00    +0.000 A 
ATOM      5  C   UNL     1       3.325  -0.242   0.000  0.00  0.00    +0.000 A 
ATOM      6  C   UNL     1       4.039  -0.655   0.000  0.00  0.00    +0.000 A 
ATOM      7  C   UNL     1       4.039  -1.480   0.000  0.00  0.00    +0.000 A 
ATOM      8  O   UNL     1       4.754  -1.893   0.000  0.00  0.00    +0.000 OA
ATOM      9  C   UNL     1       3.325  -1.893   0.000  0.00  0.00    +0.000 A 
ATOM     10  C   UNL     1       2.610  -1.480   0.000  0.00  0.00    +0.000 A 
ATOM     11  C   UNL     1       1.896  -1.893   0.000  0.00  0.00    +0.000 C 
ATOM     12  C   UNL     1       1.896  -2.717   0.000  0.00  0.00    +0.000 C 
ENDROOT
BRANCH   1  13
ATOM     13  C   UNL     1       0.467  -1.893   0.000  0.00  0.00    +0.000 A 
ATOM     14  C   UNL     1       0.467  -2.717   0.000  0.00  0.00    +0.000 A 
ATOM     15  C   UNL     1      -0.248  -3.130   0.000  0.00  0.00    +0.000 A 
ATOM     16  C   UNL     1      -0.962  -2.717   0.000  0.00  0.00    +0.000 A 
ATOM     17  O   UNL     1      -1.677  -3.130   0.000  0.00  0.00    +0.000 OA
ATOM     18  C   UNL     1      -0.962  -1.893   0.000  0.00  0.00    +0.000 A 
ATOM     19  C   UNL     1      -0.248  -1.480   0.000  0.00  0.00    +0.000 A 
ENDBRANCH   1  13
BRANCH   2  20
ATOM     20  C   UNL     1       0.467  -0.242   0.000  0.00  0.00    +0.000 A 
ATOM     21  C   UNL     1      -0.248  -0.655   0.000  0.00  0.00    +0.000 A 
ATOM     22  C   UNL     1      -0.962  -0.242   0.000  0.00  0.00    +0.000 A 
ATOM     23  C   UNL     1      -0.962   0.583   0.000  0.00  0.00    +0.000 A 
ATOM     24  C   UNL     1      -0.248   0.995   0.000  0.00  0.00    +0.000 A 
ATOM     25  C   UNL     1       0.467   0.583   0.000  0.00  0.00    +0.000 A 
BRANCH  23  26
ATOM     26  O   UNL     1      -1.677   0.995   0.000  0.00  0.00    +0.000 OA
BRANCH  26  27
ATOM     27  C   UNL     1      -1.677   1.820   0.000  0.00  0.00    +0.000 C 
BRANCH  27  28
ATOM     28  C   UNL     1      -2.391   2.232   0.000  0.00  0.00    +0.000 C 
BRANCH  28  29
ATOM     29  N   UNL     1      -2.391   3.058   0.000  0.00  0.00    +0.000 NA
ATOM     30  C   UNL     1      -3.058   3.542   0.000  0.00  0.00    +0.000 C 
ATOM     31  C   UNL     1      -2.804   4.327   0.000  0.00  0.00    +0.000 C 
ATOM     32  C   UNL     1      -1.978   4.327   0.000  0.00  0.00    +0.000 C 
ATOM     33  C   UNL     1      -1.724   3.542   0.000  0.00  0.00    +0.000 C 
ENDBRANCH  28  29
ENDBRANCH  27  28
ENDBRANCH  26  27
ENDBRANCH  23  26
ENDBRANCH   2  20
TORSDOF 6
