REMARK  Name = CM6
REMARK  6 active torsions:
REMARK  status: ('A' for Active; 'I' for Inactive)
REMARK    1  A    between atoms: C_2  and  C_10
REMARK    2  A    between atoms: N_3  and  C_4
REMARK    3  A    between atoms: C_10  and  N_11
REMARK    4  A    between atoms: C_10  and  C_24
REMARK    5  A    between atoms: N_11  and  S_12
REMARK    6  A    between atoms: S_12  and  C_15
REMARK                            x       y       z     vdW  Elec       q    Type
REMARK                         _______ _______ _______ _____ _____    ______ ____
ROOT
ATOM      1  C   UNL     1       0.100   0.652   0.000  0.00  0.00    +0.000 C 
ENDROOT
BRANCH   1   2
ATOM      2  C   UNL     1       0.100  -0.173   0.000  0.00  0.00    +0.000 A 
ATOM      3  C   UNL     1       0.815  -0.585   0.000  0.00  0.00    +0.000 A 
ATOM      4  C   UNL     1       0.815  -1.410   0.000  0.00  0.00    +0.000 A 
ATOM      5  C   UNL     1       0.100  -1.823   0.000  0.00  0.00    +0.000 A 
ATOM      6  C   UNL     1      -0.614  -1.410   0.000  0.00  0.00    +0.000 A 
ATOM      7  C   UNL     1      -0.614  -0.585   0.000  0.00  0.00    +0.000 A 
ENDBRANCH   1   2
BRANCH   1   9
ATOM      8  O   UNL     1      -0.614   1.890   0.000  0.00  0.00    +0.000 OA
ATOM      9  C   UNL     1      -0.614   1.065   0.000  0.00  0.00    +0.000 C 
ATOM     10  N   UNL     1      -1.329   0.652   0.000  0.00  0.00    +0.000 NA
BRANCH  10  11
ATOM     11  C   UNL     1      -2.043   1.065   0.000  0.00  0.00    +0.000 A 
ATOM     12  C   UNL     1      -2.758   0.652   0.000  0.00  0.00    +0.000 A 
ATOM     13  C   UNL     1      -3.472   1.065   0.000  0.00  0.00    +0.000 A 
ATOM     14  N   UNL     1      -3.472   1.890   0.000  0.00  0.00    +0.000 NA
ATOM     15  C   UNL     1      -2.758   2.302   0.000  0.00  0.00    +0.000 A 
ATOM     16  C   UNL     1      -2.043   1.890   0.000  0.00  0.00    +0.000 A 
ENDBRANCH  10  11
ENDBRANCH   1   9
BRANCH   1  17
ATOM     17  N   UNL     1       0.815   1.065   0.000  0.00  0.00    +0.000 NA
BRANCH  17  18
ATOM     18  S   UNL     1       1.529   0.652   0.000  0.00  0.00    +0.000 S 
ATOM     19  O   UNL     1       1.117  -0.062   0.000  0.00  0.00    +0.000 OA
ATOM     20  O   UNL     1       1.942   1.367   0.000  0.00  0.00    +0.000 OA
BRANCH  18  21
ATOM     21  C   UNL     1       2.244   0.240   0.000  0.00  0.00    +0.000 A 
ATOM     22  C   UNL     1       2.958   0.652   0.000  0.00  0.00    +0.000 A 
ATOM     23  C   UNL     1       3.672   0.240   0.000  0.00  0.00    +0.000 A 
ATOM     24  C   UNL     1       3.672  -0.585   0.000  0.00  0.00    +0.000 A 
ATOM     25  C   UNL     1       2.958  -0.998   0.000  0.00  0.00    +0.000 A 
ATOM     26  N   UNL     1       2.786  -1.805   0.000  0.00  0.00    +0.000 NA
ATOM     27  S   UNL     1       1.966  -1.891   0.000  0.00  0.00    +0.000 S 
ATOM     28  N   UNL     1       1.630  -1.137   0.000  0.00  0.00    +0.000 NA
ATOM     29  C   UNL     1       2.244  -0.585   0.000  0.00  0.00    +0.000 A 
ENDBRANCH  18  21
ENDBRANCH  17  18
ENDBRANCH   1  17
TORSDOF 6
