REMARK  Name = CM9
REMARK  7 active torsions:
REMARK  status: ('A' for Active; 'I' for Inactive)
REMARK    1  A    between atoms: C_2  and  C_3
REMARK    2  A    between atoms: N_10  and  C_11
REMARK    3  A    between atoms: C_11  and  C_12
REMARK    4  A    between atoms: C_11  and  C_16
REMARK    5  A    between atoms: C_12  and  C_13
REMARK    6  A    between atoms: C_13  and  S_14
REMARK    7  A    between atoms: N_18  and  C_19
REMARK                            x       y       z     vdW  Elec       q    Type
REMARK                         _______ _______ _______ _____ _____    ______ ____
ROOT
ATOM      1  C   UNL     1      -9.425  -0.359   0.000  0.00  0.00    +0.000 C 
ENDROOT
BRANCH   1   4
ATOM      2  O   UNL     1     -10.854  -1.184   0.000  0.00  0.00    +0.000 OA
ATOM      3  C   UNL     1     -10.139  -1.596   0.000  0.00  0.00    +0.000 C 
ATOM      4  N   UNL     1      -9.425  -1.184   0.000  0.00  0.00    +0.000 NA
BRANCH   3   5
ATOM      5  C   UNL     1     -10.139  -2.421   0.000  0.00  0.00    +0.000 C 
ATOM      6  C   UNL     1      -9.425  -2.834   0.000  0.00  0.00    +0.000 C 
ATOM      7  C   UNL     1      -9.425  -3.659   0.000  0.00  0.00    +0.000 C 
ATOM      8  C   UNL     1     -10.139  -4.071   0.000  0.00  0.00    +0.000 C 
ATOM      9  C   UNL     1     -10.139  -4.896   0.000  0.00  0.00    +0.000 C 
ATOM     10  C   UNL     1     -10.854  -3.659   0.000  0.00  0.00    +0.000 C 
ATOM     11  C   UNL     1     -10.854  -2.834   0.000  0.00  0.00    +0.000 C 
ENDBRANCH   3   5
ENDBRANCH   1   4
BRANCH   1  12
ATOM     12  C   UNL     1      -8.710   0.054   0.000  0.00  0.00    +0.000 C 
ATOM     13  O   UNL     1      -7.996  -0.359   0.000  0.00  0.00    +0.000 OA
ATOM     14  N   UNL     1      -8.710   0.879   0.000  0.00  0.00    +0.000 NA
BRANCH  14  15
ATOM     15  C   UNL     1      -7.996   1.291   0.000  0.00  0.00    +0.000 A 
ATOM     16  C   UNL     1      -7.996   2.116   0.000  0.00  0.00    +0.000 A 
ATOM     17  C   UNL     1      -7.281   2.529   0.000  0.00  0.00    +0.000 A 
ATOM     18  N   UNL     1      -6.567   2.116   0.000  0.00  0.00    +0.000 NA
ATOM     19  C   UNL     1      -6.567   1.291   0.000  0.00  0.00    +0.000 A 
ATOM     20  C   UNL     1      -7.281   0.879   0.000  0.00  0.00    +0.000 A 
ENDBRANCH  14  15
ENDBRANCH   1  12
BRANCH   1  21
ATOM     21  C   UNL     1     -10.139   0.054   0.000  0.00  0.00    +0.000 C 
BRANCH  21  22
ATOM     22  C   UNL     1     -10.139   0.879   0.000  0.00  0.00    +0.000 C 
BRANCH  22  23
ATOM     23  S   UNL     1     -10.854   1.291   0.000  0.00  0.00    +0.000 S 
ATOM     24  C   UNL     1     -10.854   2.116   0.000  0.00  0.00    +0.000 C 
ENDBRANCH  22  23
ENDBRANCH  21  22
ENDBRANCH   1  21
TORSDOF 7
