REMARK  Name = CMF
REMARK  5 active torsions:
REMARK  status: ('A' for Active; 'I' for Inactive)
REMARK    1  A    between atoms: C_7  and  C_9
REMARK    2  A    between atoms: C_9  and  N_10
REMARK    3  A    between atoms: C_13  and  C_14
REMARK    4  A    between atoms: C_20  and  C_21
REMARK    5  A    between atoms: C_27  and  C_28
REMARK                            x       y       z     vdW  Elec       q    Type
REMARK                         _______ _______ _______ _____ _____    ______ ____
ROOT
ATOM      1  N   UNL     1      -0.076   0.278   0.000  0.00  0.00    +0.000 N 
ATOM      2  C   UNL     1       0.708   0.023   0.000  0.00  0.00    +0.000 A 
ATOM      3  C   UNL     1       1.423   0.435   0.000  0.00  0.00    +0.000 A 
ATOM      4  C   UNL     1       2.137   0.023   0.000  0.00  0.00    +0.000 A 
ATOM      5  C   UNL     1       2.137  -0.802   0.000  0.00  0.00    +0.000 A 
ATOM      6  C   UNL     1       1.423  -1.215   0.000  0.00  0.00    +0.000 A 
ATOM      7  C   UNL     1       0.708  -0.802   0.000  0.00  0.00    +0.000 A 
ATOM      8  C   UNL     1      -0.076  -1.057   0.000  0.00  0.00    +0.000 A 
ATOM      9  C   UNL     1      -0.561  -0.390   0.000  0.00  0.00    +0.000 A 
ENDROOT
BRANCH   8  10
ATOM     10  C   UNL     1      -0.331  -1.842   0.000  0.00  0.00    +0.000 C 
ATOM     11  C   UNL     1       0.221  -2.455   0.000  0.00  0.00    +0.000 C 
ATOM     12  C   UNL     1      -0.034  -3.239   0.000  0.00  0.00    +0.000 C 
ATOM     13  C   UNL     1      -0.841  -3.411   0.000  0.00  0.00    +0.000 C 
ATOM     14  C   UNL     1      -1.393  -2.798   0.000  0.00  0.00    +0.000 C 
ATOM     15  C   UNL     1      -1.138  -2.013   0.000  0.00  0.00    +0.000 C 
ENDBRANCH   8  10
BRANCH   9  16
ATOM     16  C   UNL     1      -1.386  -0.390   0.000  0.00  0.00    +0.000 A 
ATOM     17  C   UNL     1      -1.799  -1.104   0.000  0.00  0.00    +0.000 A 
ATOM     18  C   UNL     1      -2.624  -1.104   0.000  0.00  0.00    +0.000 A 
ATOM     19  C   UNL     1      -3.036  -0.390   0.000  0.00  0.00    +0.000 A 
ATOM     20  C   UNL     1      -2.624   0.325   0.000  0.00  0.00    +0.000 A 
ATOM     21  C   UNL     1      -1.799   0.325   0.000  0.00  0.00    +0.000 A 
ENDBRANCH   9  16
BRANCH   4  22
ATOM     22  C   UNL     1       2.852   0.435   0.000  0.00  0.00    +0.000 C 
ATOM     23  O   UNL     1       3.566   0.023   0.000  0.00  0.00    +0.000 OA
ATOM     24  O   UNL     1       2.852   1.260   0.000  0.00  0.00    +0.000 OA
ENDBRANCH   4  22
BRANCH   1  25
ATOM     25  C   UNL     1      -0.331   1.062   0.000  0.00  0.00    +0.000 C 
BRANCH  25  32
ATOM     26  C   UNL     1      -0.841   2.632   0.000  0.00  0.00    +0.000 C 
ATOM     27  C   UNL     1      -1.096   3.416   0.000  0.00  0.00    +0.000 C 
ATOM     28  O   UNL     1      -0.544   4.029   0.000  0.00  0.00    +0.000 OA
ATOM     29  C   UNL     1       0.263   3.858   0.000  0.00  0.00    +0.000 C 
ATOM     30  C   UNL     1       0.518   3.073   0.000  0.00  0.00    +0.000 C 
ATOM     31  N   UNL     1      -0.034   2.460   0.000  0.00  0.00    +0.000 N 
ATOM     32  C   UNL     1       0.221   1.675   0.000  0.00  0.00    +0.000 C 
ATOM     33  O   UNL     1       1.028   1.504   0.000  0.00  0.00    +0.000 OA
ENDBRANCH  25  32
ENDBRANCH   1  25
TORSDOF 5
