REMARK  Name = CMG
REMARK  3 active torsions:
REMARK  status: ('A' for Active; 'I' for Inactive)
REMARK    1  A    between atoms: C_6  and  O_7
REMARK    2  A    between atoms: O_7  and  C_8
REMARK    3  A    between atoms: C_8  and  C_13
REMARK                            x       y       z     vdW  Elec       q    Type
REMARK                         _______ _______ _______ _____ _____    ______ ____
ROOT
ATOM      1  N   UNL     1       1.326  -1.515   0.000  0.00  0.00    +0.000 NA
ATOM      2  C   UNL     1       1.326  -2.340   0.000  0.00  0.00    +0.000 A 
ATOM      3  N   UNL     1       0.612  -2.753   0.000  0.00  0.00    +0.000 NA
ATOM      4  C   UNL     1      -0.103  -2.340   0.000  0.00  0.00    +0.000 A 
ATOM      5  C   UNL     1      -0.103  -1.515   0.000  0.00  0.00    +0.000 A 
ATOM      6  C   UNL     1       0.612  -1.103   0.000  0.00  0.00    +0.000 A 
ATOM      7  N   UNL     1      -0.888  -1.260   0.000  0.00  0.00    +0.000 NA
ATOM      8  C   UNL     1      -1.373  -1.928   0.000  0.00  0.00    +0.000 A 
ATOM      9  N   UNL     1      -0.888  -2.595   0.000  0.00  0.00    +0.000 NA
ATOM     10  N   UNL     1       2.040  -2.753   0.000  0.00  0.00    +0.000 NA
ENDROOT
BRANCH   6  11
ATOM     11  O   UNL     1       0.612  -0.278   0.000  0.00  0.00    +0.000 OA
BRANCH  11  12
ATOM     12  C   UNL     1      -0.103   0.135   0.000  0.00  0.00    +0.000 C 
BRANCH  12  13
ATOM     13  C   UNL     1      -0.103   0.960   0.000  0.00  0.00    +0.000 C 
ATOM     14  C   UNL     1      -0.817   1.372   0.000  0.00  0.00    +0.000 C 
ATOM     15  C   UNL     1      -0.817   2.197   0.000  0.00  0.00    +0.000 C 
ATOM     16  C   UNL     1      -0.103   2.610   0.000  0.00  0.00    +0.000 C 
ATOM     17  C   UNL     1       0.612   2.197   0.000  0.00  0.00    +0.000 C 
ATOM     18  C   UNL     1       0.612   1.372   0.000  0.00  0.00    +0.000 C 
ENDBRANCH  12  13
ENDBRANCH  11  12
ENDBRANCH   6  11
TORSDOF 3
