REMARK  Name = CMQ
REMARK  11 active torsions:
REMARK  status: ('A' for Active; 'I' for Inactive)
REMARK    1  A    between atoms: C_2  and  O_3
REMARK    2  A    between atoms: O_3  and  C_4
REMARK    3  A    between atoms: C_4  and  C_5
REMARK    4  A    between atoms: N_11  and  C_12
REMARK    5  A    between atoms: C_12  and  C_13
REMARK    6  A    between atoms: C_12  and  C_17
REMARK    7  A    between atoms: C_13  and  C_14
REMARK    8  A    between atoms: N_19  and  C_20
REMARK    9  A    between atoms: C_20  and  C_21
REMARK   10  A    between atoms: C_20  and  C_24
REMARK   11  A    between atoms: C_24  and  C_25
REMARK                            x       y       z     vdW  Elec       q    Type
REMARK                         _______ _______ _______ _____ _____    ______ ____
ROOT
ATOM      1  C   UNL     1      -0.851   0.024   0.000  0.00  0.00    +0.000 C 
ENDROOT
BRANCH   1   4
ATOM      2  O   UNL     1      -2.280   0.849   0.000  0.00  0.00    +0.000 OA
ATOM      3  C   UNL     1      -2.280   0.024   0.000  0.00  0.00    +0.000 C 
ATOM      4  N   UNL     1      -1.565  -0.389   0.000  0.00  0.00    +0.000 NA
BRANCH   3   5
ATOM      5  O   UNL     1      -2.994  -0.389   0.000  0.00  0.00    +0.000 OA
BRANCH   5   6
ATOM      6  C   UNL     1      -3.709   0.024   0.000  0.00  0.00    +0.000 C 
BRANCH   6   7
ATOM      7  C   UNL     1      -3.709   0.849   0.000  0.00  0.00    +0.000 A 
ATOM      8  C   UNL     1      -4.423   1.261   0.000  0.00  0.00    +0.000 A 
ATOM      9  C   UNL     1      -4.423   2.086   0.000  0.00  0.00    +0.000 A 
ATOM     10  C   UNL     1      -3.709   2.499   0.000  0.00  0.00    +0.000 A 
ATOM     11  C   UNL     1      -2.994   2.086   0.000  0.00  0.00    +0.000 A 
ATOM     12  C   UNL     1      -2.994   1.261   0.000  0.00  0.00    +0.000 A 
ENDBRANCH   6   7
ENDBRANCH   5   6
ENDBRANCH   3   5
ENDBRANCH   1   4
BRANCH   1  13
ATOM     13  C   UNL     1      -0.136  -0.389   0.000  0.00  0.00    +0.000 C 
ATOM     14  O   UNL     1      -0.136  -1.214   0.000  0.00  0.00    +0.000 OA
ATOM     15  N   UNL     1       0.578   0.024   0.000  0.00  0.00    +0.000 NA
BRANCH  15  16
ATOM     16  C   UNL     1       1.293  -0.389   0.000  0.00  0.00    +0.000 C 
BRANCH  16  17
ATOM     17  C   UNL     1       1.293  -1.214   0.000  0.00  0.00    +0.000 C 
ATOM     18  O   UNL     1       2.007  -1.626   0.000  0.00  0.00    +0.000 OA
ATOM     19  C   UNL     1       0.578  -1.626   0.000  0.00  0.00    +0.000 C 
ENDBRANCH  16  17
BRANCH  16  20
ATOM     20  C   UNL     1       2.007   0.024   0.000  0.00  0.00    +0.000 C 
BRANCH  20  21
ATOM     21  C   UNL     1       2.721  -0.389   0.000  0.00  0.00    +0.000 A 
ATOM     22  C   UNL     1       3.436   0.024   0.000  0.00  0.00    +0.000 A 
ATOM     23  C   UNL     1       4.151  -0.389   0.000  0.00  0.00    +0.000 A 
ATOM     24  C   UNL     1       4.151  -1.214   0.000  0.00  0.00    +0.000 A 
ATOM     25  O   UNL     1       4.865  -1.626   0.000  0.00  0.00    +0.000 OA
ATOM     26  C   UNL     1       3.436  -1.626   0.000  0.00  0.00    +0.000 A 
ATOM     27  C   UNL     1       2.721  -1.214   0.000  0.00  0.00    +0.000 A 
ENDBRANCH  20  21
ENDBRANCH  16  20
ENDBRANCH  15  16
ENDBRANCH   1  13
BRANCH   1  28
ATOM     28  C   UNL     1      -0.851   0.849   0.000  0.00  0.00    +0.000 C 
BRANCH  28  29
ATOM     29  C   UNL     1      -0.136   1.261   0.000  0.00  0.00    +0.000 C 
ATOM     30  C   UNL     1      -0.136   2.086   0.000  0.00  0.00    +0.000 C 
ATOM     31  C   UNL     1       0.578   0.849   0.000  0.00  0.00    +0.000 C 
ENDBRANCH  28  29
ENDBRANCH   1  28
TORSDOF 11
