REMARK  Name = CMW
REMARK  8 active torsions:
REMARK  status: ('A' for Active; 'I' for Inactive)
REMARK    1  A    between atoms: C_2  and  O_10
REMARK    2  A    between atoms: N_3  and  C_4
REMARK    3  A    between atoms: O_10  and  C_11
REMARK    4  A    between atoms: C_11  and  C_12
REMARK    5  A    between atoms: C_12  and  C_13
REMARK    6  A    between atoms: C_13  and  N_14
REMARK    7  A    between atoms: N_14  and  S_15
REMARK    8  A    between atoms: S_15  and  C_18
REMARK                            x       y       z     vdW  Elec       q    Type
REMARK                         _______ _______ _______ _____ _____    ______ ____
ROOT
ATOM      1  C   UNL     1     -10.309  -0.730   0.000  0.00  0.00    +0.000 C 
ENDROOT
BRANCH   1   2
ATOM      2  C   UNL     1     -11.024  -1.143   0.000  0.00  0.00    +0.000 C 
BRANCH   2   3
ATOM      3  O   UNL     1     -11.738  -0.730   0.000  0.00  0.00    +0.000 OA
BRANCH   3   5
ATOM      4  O   UNL     1     -12.452  -1.968   0.000  0.00  0.00    +0.000 OA
ATOM      5  C   UNL     1     -12.452  -1.143   0.000  0.00  0.00    +0.000 C 
ATOM      6  N   UNL     1     -13.167  -0.730   0.000  0.00  0.00    +0.000 NA
BRANCH   6   7
ATOM      7  C   UNL     1     -13.881  -1.143   0.000  0.00  0.00    +0.000 A 
ATOM      8  C   UNL     1     -13.881  -1.968   0.000  0.00  0.00    +0.000 A 
ATOM      9  C   UNL     1     -14.596  -2.380   0.000  0.00  0.00    +0.000 A 
ATOM     10  N   UNL     1     -15.310  -1.968   0.000  0.00  0.00    +0.000 NA
ATOM     11  C   UNL     1     -15.310  -1.143   0.000  0.00  0.00    +0.000 A 
ATOM     12  C   UNL     1     -14.596  -0.730   0.000  0.00  0.00    +0.000 A 
ENDBRANCH   6   7
ENDBRANCH   3   5
ENDBRANCH   2   3
ENDBRANCH   1   2
BRANCH   1  13
ATOM     13  C   UNL     1      -9.595  -1.143   0.000  0.00  0.00    +0.000 C 
BRANCH  13  14
ATOM     14  N   UNL     1      -8.880  -0.730   0.000  0.00  0.00    +0.000 NA
BRANCH  14  15
ATOM     15  S   UNL     1      -8.166  -1.143   0.000  0.00  0.00    +0.000 S 
ATOM     16  O   UNL     1      -8.578  -1.857   0.000  0.00  0.00    +0.000 OA
ATOM     17  O   UNL     1      -7.753  -0.428   0.000  0.00  0.00    +0.000 OA
BRANCH  15  18
ATOM     18  C   UNL     1      -7.451  -1.555   0.000  0.00  0.00    +0.000 A 
ATOM     19  C   UNL     1      -6.737  -1.143   0.000  0.00  0.00    +0.000 A 
ATOM     20  C   UNL     1      -6.022  -1.555   0.000  0.00  0.00    +0.000 A 
ATOM     21  C   UNL     1      -6.022  -2.380   0.000  0.00  0.00    +0.000 A 
ATOM     22  C   UNL     1      -5.308  -2.793   0.000  0.00  0.00    +0.000 C 
ATOM     23  C   UNL     1      -6.737  -2.793   0.000  0.00  0.00    +0.000 A 
ATOM     24  C   UNL     1      -7.451  -2.380   0.000  0.00  0.00    +0.000 A 
ENDBRANCH  15  18
ENDBRANCH  14  15
ENDBRANCH  13  14
ENDBRANCH   1  13
TORSDOF 8
