REMARK  Name = CMZ
REMARK  5 active torsions:
REMARK  status: ('A' for Active; 'I' for Inactive)
REMARK    1  A    between atoms: C_7  and  O_8
REMARK    2  A    between atoms: O_8  and  C_9
REMARK    3  A    between atoms: C_9  and  C_10
REMARK    4  A    between atoms: C_10  and  C_12
REMARK    5  A    between atoms: C_12  and  N_13
REMARK                            x       y       z     vdW  Elec       q    Type
REMARK                         _______ _______ _______ _____ _____    ______ ____
ROOT
ATOM      1  C   UNL     1       1.392   0.063   0.000  0.00  0.00    +0.000 C 
ENDROOT
BRANCH   1   2
ATOM      2  C   UNL     1       2.107  -0.349   0.000  0.00  0.00    +0.000 C 
ATOM      3  O   UNL     1       2.107  -1.174   0.000  0.00  0.00    +0.000 OA
BRANCH   2   4
ATOM      4  C   UNL     1       2.821   0.063   0.000  0.00  0.00    +0.000 C 
BRANCH   4   5
ATOM      5  N   UNL     1       3.535  -0.349   0.000  0.00  0.00    +0.000 NA
ATOM      6  C   UNL     1       4.250   0.063   0.000  0.00  0.00    +0.000 C 
ATOM      7  C   UNL     1       4.964  -0.349   0.000  0.00  0.00    +0.000 C 
ATOM      8  O   UNL     1       4.964  -1.174   0.000  0.00  0.00    +0.000 OA
ATOM      9  C   UNL     1       4.250  -1.587   0.000  0.00  0.00    +0.000 C 
ATOM     10  C   UNL     1       3.535  -1.174   0.000  0.00  0.00    +0.000 C 
ENDBRANCH   4   5
ENDBRANCH   2   4
ENDBRANCH   1   2
BRANCH   1  11
ATOM     11  O   UNL     1       0.677  -0.349   0.000  0.00  0.00    +0.000 OA
BRANCH  11  18
ATOM     12  C   UNL     1      -2.180  -0.349   0.000  0.00  0.00    +0.000 C 
ATOM     13  C   UNL     1      -1.466   0.063   0.000  0.00  0.00    +0.000 A 
ATOM     14  C   UNL     1      -1.466   0.888   0.000  0.00  0.00    +0.000 A 
ATOM     15  C   UNL     1      -0.751   1.301   0.000  0.00  0.00    +0.000 A 
ATOM     16  C   UNL     1      -0.037   0.888   0.000  0.00  0.00    +0.000 A 
ATOM     17  C   UNL     1       0.677   1.301   0.000  0.00  0.00    +0.000 C 
ATOM     18  C   UNL     1      -0.037   0.063   0.000  0.00  0.00    +0.000 A 
ATOM     19  C   UNL     1      -0.751  -0.349   0.000  0.00  0.00    +0.000 A 
ENDBRANCH  11  18
ENDBRANCH   1  11
TORSDOF 5
