REMARK  Name = CN2
REMARK  6 active torsions:
REMARK  status: ('A' for Active; 'I' for Inactive)
REMARK    1  A    between atoms: C_2  and  C_3
REMARK    2  A    between atoms: N_5  and  C_6
REMARK    3  A    between atoms: C_13  and  O_20
REMARK    4  A    between atoms: C_14  and  O_18
REMARK    5  A    between atoms: C_15  and  O_16
REMARK    6  A    between atoms: C_26  and  O_29
REMARK                            x       y       z     vdW  Elec       q    Type
REMARK                         _______ _______ _______ _____ _____    ______ ____
ROOT
ATOM      1  C   UNL     1      -0.288  -1.172   0.000  0.00  0.00    +0.000 C 
ATOM      2  C   UNL     1      -0.499  -0.374   0.000  0.00  0.00    +0.000 A 
ATOM      3  C   UNL     1      -1.323  -0.403   0.000  0.00  0.00    +0.000 A 
ATOM      4  C   UNL     1       0.468  -1.504   0.000  0.00  0.00    +0.000 C 
ATOM      5  C   UNL     1       1.198  -1.120   0.000  0.00  0.00    +0.000 C 
ATOM      6  C   UNL     1       1.354  -0.310   0.000  0.00  0.00    +0.000 A 
ATOM      7  C   UNL     1       2.165  -0.159   0.000  0.00  0.00    +0.000 A 
ATOM      8  C   UNL     1       2.439   0.619   0.000  0.00  0.00    +0.000 A 
ATOM      9  C   UNL     1       1.903   1.246   0.000  0.00  0.00    +0.000 A 
ATOM     10  C   UNL     1       1.092   1.095   0.000  0.00  0.00    +0.000 A 
ATOM     11  C   UNL     1       0.817   0.317   0.000  0.00  0.00    +0.000 A 
ATOM     12  C   UNL     1      -0.007   0.288   0.000  0.00  0.00    +0.000 A 
ATOM     13  C   UNL     1      -0.218   1.086   0.000  0.00  0.00    +0.000 A 
ATOM     14  C   UNL     1      -0.974   1.418   0.000  0.00  0.00    +0.000 A 
ATOM     15  C   UNL     1      -1.704   1.035   0.000  0.00  0.00    +0.000 A 
ATOM     16  C   UNL     1      -1.860   0.224   0.000  0.00  0.00    +0.000 A 
ATOM     17  O   UNL     1      -2.657   0.013   0.000  0.00  0.00    +0.000 OA
ENDROOT
BRANCH   1  20
ATOM     18  O   UNL     1       0.014  -2.794   0.000  0.00  0.00    +0.000 OA
ATOM     19  C   UNL     1      -0.764  -2.519   0.000  0.00  0.00    +0.000 C 
ATOM     20  N   UNL     1      -0.915  -1.708   0.000  0.00  0.00    +0.000 NA
BRANCH  19  21
ATOM     21  C   UNL     1      -1.391  -3.055   0.000  0.00  0.00    +0.000 C 
ATOM     22  S   UNL     1      -1.240  -3.866   0.000  0.00  0.00    +0.000 S 
ENDBRANCH  19  21
ENDBRANCH   1  20
BRANCH  10  23
ATOM     23  O   UNL     1       0.556   1.722   0.000  0.00  0.00    +0.000 OA
ATOM     24  C   UNL     1      -0.255   1.571   0.000  0.00  0.00    +0.000 C 
ENDBRANCH  10  23
BRANCH   9  25
ATOM     25  O   UNL     1       2.178   2.024   0.000  0.00  0.00    +0.000 OA
ATOM     26  C   UNL     1       1.642   2.651   0.000  0.00  0.00    +0.000 C 
ENDBRANCH   9  25
BRANCH   8  27
ATOM     27  O   UNL     1       3.251   0.770   0.000  0.00  0.00    +0.000 OA
ATOM     28  C   UNL     1       3.525   1.548   0.000  0.00  0.00    +0.000 C 
ENDBRANCH   8  27
BRANCH  15  29
ATOM     29  O   UNL     1      -2.366   1.526   0.000  0.00  0.00    +0.000 OA
ATOM     30  C   UNL     1      -3.123   1.199   0.000  0.00  0.00    +0.000 C 
ENDBRANCH  15  29
TORSDOF 6
