REMARK  Name = CNQ
REMARK  2 active torsions:
REMARK  status: ('A' for Active; 'I' for Inactive)
REMARK    1  A    between atoms: C_5  and  C_11
REMARK    2  A    between atoms: C_9  and  C_14
REMARK                            x       y       z     vdW  Elec       q    Type
REMARK                         _______ _______ _______ _____ _____    ______ ____
ROOT
ATOM      1  C   UNL     1      -2.291  -1.161   0.000  0.00  0.00    +0.000 A 
ATOM      2  C   UNL     1      -1.576  -1.574   0.000  0.00  0.00    +0.000 A 
ATOM      3  C   UNL     1      -0.862  -1.161   0.000  0.00  0.00    +0.000 A 
ATOM      4  C   UNL     1      -0.862  -0.336   0.000  0.00  0.00    +0.000 A 
ATOM      5  C   UNL     1      -1.576   0.076   0.000  0.00  0.00    +0.000 A 
ATOM      6  C   UNL     1      -2.291  -0.336   0.000  0.00  0.00    +0.000 A 
ATOM      7  N   UNL     1      -0.147  -1.574   0.000  0.00  0.00    +0.000 NA
ATOM      8  C   UNL     1       0.567  -1.161   0.000  0.00  0.00    +0.000 A 
ATOM      9  C   UNL     1       0.567  -0.336   0.000  0.00  0.00    +0.000 A 
ATOM     10  N   UNL     1      -0.147   0.076   0.000  0.00  0.00    +0.000 NA
ENDROOT
BRANCH   9  11
ATOM     11  C   UNL     1       1.282   0.076   0.000  0.00  0.00    +0.000 A 
ATOM     12  C   UNL     1       1.282   0.901   0.000  0.00  0.00    +0.000 A 
ATOM     13  C   UNL     1       1.996   1.314   0.000  0.00  0.00    +0.000 A 
ATOM     14  C   UNL     1       2.710   0.901   0.000  0.00  0.00    +0.000 A 
ATOM     15  C   UNL     1       2.710   0.076   0.000  0.00  0.00    +0.000 A 
ATOM     16  C   UNL     1       1.996  -0.336   0.000  0.00  0.00    +0.000 A 
ATOM     17 CL   UNL     1       3.425   1.314   0.000  0.00  0.00    +0.000 Cl
ENDBRANCH   9  11
BRANCH   5  18
ATOM     18  C   UNL     1      -1.576   0.901   0.000  0.00  0.00    +0.000 C 
ATOM     19  N   UNL     1      -2.291   1.314   0.000  0.00  0.00    +0.000 NA
ATOM     20  O   UNL     1      -0.862   1.314   0.000  0.00  0.00    +0.000 OA
ENDBRANCH   5  18
TORSDOF 2
