REMARK  Name = COG
REMARK  5 active torsions:
REMARK  status: ('A' for Active; 'I' for Inactive)
REMARK    1  A    between atoms: C_5  and  N_25
REMARK    2  A    between atoms: C_9  and  C_11
REMARK    3  A    between atoms: C_9  and  N_25
REMARK    4  A    between atoms: C_12  and  O_23
REMARK    5  A    between atoms: C_15  and  O_24
REMARK                            x       y       z     vdW  Elec       q    Type
REMARK                         _______ _______ _______ _____ _____    ______ ____
ROOT
ATOM      1  C   UNL     1      -0.008   0.733   0.000  0.00  0.00    +0.000 C 
ATOM      2  N   UNL     1      -0.008  -0.092   0.000  0.00  0.00    +0.000 N 
ENDROOT
BRANCH   2   7
ATOM      3  C   UNL     1      -3.580  -1.330   0.000  0.00  0.00    +0.000 A 
ATOM      4  C   UNL     1      -2.866  -0.092   0.000  0.00  0.00    +0.000 A 
ATOM      5  C   UNL     1      -2.151  -0.505   0.000  0.00  0.00    +0.000 A 
ATOM      6  C   UNL     1      -1.437  -0.092   0.000  0.00  0.00    +0.000 A 
ATOM      7  C   UNL     1      -0.722  -0.505   0.000  0.00  0.00    +0.000 A 
ATOM      8  C   UNL     1      -0.722  -1.330   0.000  0.00  0.00    +0.000 A 
ATOM      9  C   UNL     1      -2.151  -1.330   0.000  0.00  0.00    +0.000 A 
ATOM     10  N   UNL     1      -2.866  -1.742   0.000  0.00  0.00    +0.000 NA
ATOM     11  N   UNL     1      -4.295  -1.742   0.000  0.00  0.00    +0.000 NA
ATOM     12  N   UNL     1      -3.580  -0.505   0.000  0.00  0.00    +0.000 NA
ATOM     13  N   UNL     1      -2.866   0.733   0.000  0.00  0.00    +0.000 NA
ATOM     14  C   UNL     1      -1.437  -1.742   0.000  0.00  0.00    +0.000 A 
ENDBRANCH   2   7
BRANCH   2  15
ATOM     15  C   UNL     1       0.707  -0.505   0.000  0.00  0.00    +0.000 C 
BRANCH  15  16
ATOM     16  C   UNL     1       1.421  -0.092   0.000  0.00  0.00    +0.000 A 
ATOM     17  C   UNL     1       1.421   0.733   0.000  0.00  0.00    +0.000 A 
ATOM     18  C   UNL     1       2.135   1.145   0.000  0.00  0.00    +0.000 A 
ATOM     19  C   UNL     1       2.850   0.733   0.000  0.00  0.00    +0.000 A 
ATOM     20  C   UNL     1       2.850  -0.092   0.000  0.00  0.00    +0.000 A 
ATOM     21  C   UNL     1       2.135  -0.505   0.000  0.00  0.00    +0.000 A 
BRANCH  17  23
ATOM     22  C   UNL     1       0.707   1.970   0.000  0.00  0.00    +0.000 C 
ATOM     23  O   UNL     1       0.707   1.145   0.000  0.00  0.00    +0.000 OA
ENDBRANCH  17  23
BRANCH  20  25
ATOM     24  C   UNL     1       4.279  -0.092   0.000  0.00  0.00    +0.000 C 
ATOM     25  O   UNL     1       3.564  -0.505   0.000  0.00  0.00    +0.000 OA
ENDBRANCH  20  25
ENDBRANCH  15  16
ENDBRANCH   2  15
TORSDOF 5
