REMARK  Name = COL
REMARK  3 active torsions:
REMARK  status: ('A' for Active; 'I' for Inactive)
REMARK    1  A    between atoms: C_8  and  N_13
REMARK    2  A    between atoms: C_9  and  C_10
REMARK    3  A    between atoms: C_14  and  C_15
REMARK                            x       y       z     vdW  Elec       q    Type
REMARK                         _______ _______ _______ _____ _____    ______ ____
ROOT
ATOM      1  S   UNL     1       2.091  -0.467   0.000  0.00  0.00    +0.000 S 
ATOM      2  C   UNL     1       1.377  -0.879   0.000  0.00  0.00    +0.000 C 
ATOM      3  C   UNL     1       0.662  -0.467   0.000  0.00  0.00    +0.000 A 
ATOM      4  C   UNL     1       0.662   0.358   0.000  0.00  0.00    +0.000 A 
ATOM      5  C   UNL     1       1.377   0.771   0.000  0.00  0.00    +0.000 C 
ATOM      6  C   UNL     1       2.091   0.358   0.000  0.00  0.00    +0.000 C 
ATOM      7  S   UNL     1      -0.123  -0.722   0.000  0.00  0.00    +0.000 S 
ATOM      8  C   UNL     1      -0.608  -0.054   0.000  0.00  0.00    +0.000 A 
ATOM      9  C   UNL     1      -0.123   0.613   0.000  0.00  0.00    +0.000 A 
ENDROOT
BRANCH   9  10
ATOM     10  C   UNL     1      -0.378   1.398   0.000  0.00  0.00    +0.000 C 
ATOM     11  O   UNL     1      -1.185   1.569   0.000  0.00  0.00    +0.000 OA
ATOM     12  O   UNL     1       0.174   2.011   0.000  0.00  0.00    +0.000 OA
ENDBRANCH   9  10
BRANCH   8  13
ATOM     13  N   UNL     1      -1.433  -0.054   0.000  0.00  0.00    +0.000 NA
ATOM     14  C   UNL     1      -1.845  -0.769   0.000  0.00  0.00    +0.000 C 
ATOM     15  O   UNL     1      -1.433  -1.483   0.000  0.00  0.00    +0.000 OA
BRANCH  14  16
ATOM     16  C   UNL     1      -2.670  -0.769   0.000  0.00  0.00    +0.000 C 
ATOM     17  O   UNL     1      -3.083  -1.483   0.000  0.00  0.00    +0.000 OA
ATOM     18  O   UNL     1      -3.083  -0.054   0.000  0.00  0.00    +0.000 OA
ENDBRANCH  14  16
ENDBRANCH   8  13
TORSDOF 3
