REMARK  Name = Coproporphyrin I.mol
REMARK  12 active torsions:
REMARK  status: ('A' for Active; 'I' for Inactive)
REMARK    1  A    between atoms: C_1  and  C_31
REMARK    2  A    between atoms: C_6  and  C_41
REMARK    3  A    between atoms: C_12  and  C_25
REMARK    4  A    between atoms: C_18  and  C_36
REMARK    5  A    between atoms: C_25  and  C_26
REMARK    6  A    between atoms: C_26  and  C_27
REMARK    7  A    between atoms: C_31  and  C_32
REMARK    8  A    between atoms: C_32  and  C_33
REMARK    9  A    between atoms: C_36  and  C_37
REMARK   10  A    between atoms: C_37  and  C_38
REMARK   11  A    between atoms: C_41  and  C_42
REMARK   12  A    between atoms: C_42  and  C_43
REMARK                            x       y       z     vdW  Elec       q    Type
REMARK                         _______ _______ _______ _____ _____    ______ ____
ROOT
ATOM      1  C   UNL     1       1.514  -2.024   0.000  0.00  0.00    +0.000 C 
ATOM      2  C   UNL     1       2.014  -1.464   0.000  0.00  0.00    +0.000 C 
ATOM      3  C   UNL     1       1.581  -0.768   0.000  0.00  0.00    +0.000 C 
ATOM      4  N   UNL     1       0.870  -0.923   0.000  0.00  0.00    +0.000 NA
ATOM      5  C   UNL     1       0.779  -1.708   0.000  0.00  0.00    +0.000 C 
ATOM      6  C   UNL     1      -1.836  -1.652   0.000  0.00  0.00    +0.000 A 
ATOM      7  C   UNL     1      -1.248  -2.169   0.000  0.00  0.00    +0.000 A 
ATOM      8  C   UNL     1      -0.605  -1.796   0.000  0.00  0.00    +0.000 A 
ATOM      9  N   UNL     1      -0.789  -1.056   0.000  0.00  0.00    +0.000 NA
ATOM     10  C   UNL     1      -1.548  -0.938   0.000  0.00  0.00    +0.000 A 
ATOM     11  C   UNL     1       0.138  -2.110   0.000  0.00  0.00    +0.000 C 
ATOM     12  C   UNL     1      -1.522   1.680   0.000  0.00  0.00    +0.000 C 
ATOM     13  C   UNL     1      -2.038   1.115   0.000  0.00  0.00    +0.000 C 
ATOM     14  C   UNL     1      -1.633   0.418   0.000  0.00  0.00    +0.000 C 
ATOM     15  N   UNL     1      -0.866   0.606   0.000  0.00  0.00    +0.000 NA
ATOM     16  C   UNL     1      -0.802   1.332   0.000  0.00  0.00    +0.000 C 
ATOM     17  C   UNL     1      -1.951  -0.269   0.000  0.00  0.00    +0.000 C 
ATOM     18  C   UNL     1       1.836   1.361   0.000  0.00  0.00    +0.000 A 
ATOM     19  C   UNL     1       1.277   1.852   0.000  0.00  0.00    +0.000 A 
ATOM     20  C   UNL     1       0.553   1.445   0.000  0.00  0.00    +0.000 A 
ATOM     21  N   UNL     1       0.768   0.682   0.000  0.00  0.00    +0.000 NA
ATOM     22  C   UNL     1       1.524   0.590   0.000  0.00  0.00    +0.000 A 
ATOM     23  C   UNL     1       1.925  -0.052   0.000  0.00  0.00    +0.000 C 
ATOM     24  C   UNL     1      -0.134   1.763   0.000  0.00  0.00    +0.000 C 
ATOM     25  C   UNL     1       1.372   2.748   0.000  0.00  0.00    +0.000 C 
ATOM     26  C   UNL     1       2.912  -1.538   0.000  0.00  0.00    +0.000 C 
ATOM     27  C   UNL     1      -1.336  -3.066   0.000  0.00  0.00    +0.000 C 
ATOM     28  C   UNL     1      -2.935   1.203   0.000  0.00  0.00    +0.000 C 
ENDROOT
BRANCH  12  29
ATOM     29  C   UNL     1      -1.726   2.548   0.000  0.00  0.00    +0.000 C 
BRANCH  29  30
ATOM     30  C   UNL     1      -1.069   3.165   0.000  0.00  0.00    +0.000 C 
BRANCH  30  31
ATOM     31  C   UNL     1      -1.273   4.033   0.000  0.00  0.00    +0.000 C 
ATOM     32  O   UNL     1      -2.115   4.287   0.000  0.00  0.00    +0.000 OA
ATOM     33  O   UNL     1      -0.601   4.664   0.000  0.00  0.00    +0.000 OA
ENDBRANCH  30  31
ENDBRANCH  29  30
ENDBRANCH  12  29
BRANCH   1  34
ATOM     34  C   UNL     1       1.720  -2.904   0.000  0.00  0.00    +0.000 C 
BRANCH  34  35
ATOM     35  C   UNL     1       2.583  -3.164   0.000  0.00  0.00    +0.000 C 
BRANCH  35  36
ATOM     36  C   UNL     1       2.789  -4.043   0.000  0.00  0.00    +0.000 C 
ATOM     37  O   UNL     1       2.128  -4.664   0.000  0.00  0.00    +0.000 OA
ATOM     38  O   UNL     1       3.645  -4.302   0.000  0.00  0.00    +0.000 OA
ENDBRANCH  35  36
ENDBRANCH  34  35
ENDBRANCH   1  34
BRANCH   6  39
ATOM     39  C   UNL     1      -2.713  -1.858   0.000  0.00  0.00    +0.000 C 
BRANCH  39  40
ATOM     40  C   UNL     1      -3.330  -1.202   0.000  0.00  0.00    +0.000 C 
BRANCH  40  41
ATOM     41  C   UNL     1      -4.207  -1.408   0.000  0.00  0.00    +0.000 C 
ATOM     42  O   UNL     1      -4.468  -2.271   0.000  0.00  0.00    +0.000 OA
ATOM     43  O   UNL     1      -4.823  -0.752   0.000  0.00  0.00    +0.000 OA
ENDBRANCH  40  41
ENDBRANCH  39  40
ENDBRANCH   6  39
BRANCH  18  44
ATOM     44  C   UNL     1       2.713   1.566   0.000  0.00  0.00    +0.000 C 
BRANCH  44  45
ATOM     45  C   UNL     1       3.330   0.910   0.000  0.00  0.00    +0.000 C 
BRANCH  45  46
ATOM     46  C   UNL     1       4.207   1.115   0.000  0.00  0.00    +0.000 C 
ATOM     47  O   UNL     1       4.467   1.978   0.000  0.00  0.00    +0.000 OA
ATOM     48  O   UNL     1       4.823   0.460   0.000  0.00  0.00    +0.000 OA
ENDBRANCH  45  46
ENDBRANCH  44  45
ENDBRANCH  18  44
TORSDOF 12
