REMARK  Name = COQ
REMARK  5 active torsions:
REMARK  status: ('A' for Active; 'I' for Inactive)
REMARK    1  A    between atoms: C_5  and  N_23
REMARK    2  A    between atoms: C_8  and  C_9
REMARK    3  A    between atoms: C_8  and  N_23
REMARK    4  A    between atoms: C_11  and  O_24
REMARK    5  A    between atoms: C_13  and  O_25
REMARK                            x       y       z     vdW  Elec       q    Type
REMARK                         _______ _______ _______ _____ _____    ______ ____
ROOT
ATOM      1  C   UNL     1      -0.247   0.758   0.000  0.00  0.00    +0.000 C 
ATOM      2  N   UNL     1      -0.247  -0.067   0.000  0.00  0.00    +0.000 N 
ENDROOT
BRANCH   2   7
ATOM      3  C   UNL     1      -3.819  -1.305   0.000  0.00  0.00    +0.000 A 
ATOM      4  C   UNL     1      -3.104  -0.067   0.000  0.00  0.00    +0.000 A 
ATOM      5  C   UNL     1      -2.390  -0.480   0.000  0.00  0.00    +0.000 A 
ATOM      6  C   UNL     1      -1.675  -0.067   0.000  0.00  0.00    +0.000 A 
ATOM      7  C   UNL     1      -0.961  -0.480   0.000  0.00  0.00    +0.000 A 
ATOM      8  C   UNL     1      -0.961  -1.305   0.000  0.00  0.00    +0.000 A 
ATOM      9  C   UNL     1      -2.390  -1.305   0.000  0.00  0.00    +0.000 A 
ATOM     10  N   UNL     1      -3.104  -1.717   0.000  0.00  0.00    +0.000 NA
ATOM     11  N   UNL     1      -4.533  -1.717   0.000  0.00  0.00    +0.000 NA
ATOM     12  N   UNL     1      -3.819  -0.480   0.000  0.00  0.00    +0.000 NA
ATOM     13  N   UNL     1      -3.104   0.758   0.000  0.00  0.00    +0.000 NA
ATOM     14  N   UNL     1      -1.675  -1.717   0.000  0.00  0.00    +0.000 NA
ENDBRANCH   2   7
BRANCH   2  15
ATOM     15  C   UNL     1       0.468  -0.480   0.000  0.00  0.00    +0.000 C 
BRANCH  15  16
ATOM     16  C   UNL     1       1.182  -0.067   0.000  0.00  0.00    +0.000 A 
ATOM     17  C   UNL     1       1.182   0.758   0.000  0.00  0.00    +0.000 A 
ATOM     18  C   UNL     1       1.897   1.170   0.000  0.00  0.00    +0.000 A 
ATOM     19  C   UNL     1       2.611   0.758   0.000  0.00  0.00    +0.000 A 
ATOM     20  C   UNL     1       2.611  -0.067   0.000  0.00  0.00    +0.000 A 
ATOM     21  C   UNL     1       1.897  -0.480   0.000  0.00  0.00    +0.000 A 
BRANCH  18  23
ATOM     22  C   UNL     1       2.611   2.408   0.000  0.00  0.00    +0.000 C 
ATOM     23  O   UNL     1       1.897   1.995   0.000  0.00  0.00    +0.000 OA
ENDBRANCH  18  23
BRANCH  20  25
ATOM     24  C   UNL     1       3.326  -1.305   0.000  0.00  0.00    +0.000 C 
ATOM     25  O   UNL     1       3.326  -0.480   0.000  0.00  0.00    +0.000 OA
ENDBRANCH  20  25
ENDBRANCH  15  16
ENDBRANCH   2  15
TORSDOF 5
