REMARK  Name = COR
REMARK  6 active torsions:
REMARK  status: ('A' for Active; 'I' for Inactive)
REMARK    1  A    between atoms: C_1  and  C_2
REMARK    2  A    between atoms: C_1  and  C_9
REMARK    3  A    between atoms: C_2  and  C_4
REMARK    4  A    between atoms: C_4  and  C_6
REMARK    5  A    between atoms: C_6  and  C_8
REMARK    6  A    between atoms: C_8  and  C_15
REMARK                            x       y       z     vdW  Elec       q    Type
REMARK                         _______ _______ _______ _____ _____    ______ ____
ROOT
ATOM      1  C   UNL     1       0.016   0.614   0.000  0.00  0.00    +0.000 C 
ATOM      2  O   UNL     1       0.016   1.439   0.000  0.00  0.00    +0.000 OA
ENDROOT
BRANCH   1   3
ATOM      3  C   UNL     1       0.731   0.201   0.000  0.00  0.00    +0.000 C 
ATOM      4  N   UNL     1       0.731  -0.624   0.000  0.00  0.00    +0.000 NA
BRANCH   3   5
ATOM      5  C   UNL     1       1.445   0.614   0.000  0.00  0.00    +0.000 C 
BRANCH   5   6
ATOM      6  C   UNL     1       2.160   0.201   0.000  0.00  0.00    +0.000 A 
ATOM      7  C   UNL     1       2.874   0.614   0.000  0.00  0.00    +0.000 A 
ATOM      8  C   UNL     1       3.589   0.201   0.000  0.00  0.00    +0.000 A 
ATOM      9  C   UNL     1       3.589  -0.624   0.000  0.00  0.00    +0.000 A 
ATOM     10  C   UNL     1       2.874  -1.036   0.000  0.00  0.00    +0.000 A 
ATOM     11  C   UNL     1       2.160  -0.624   0.000  0.00  0.00    +0.000 A 
ENDBRANCH   5   6
ENDBRANCH   3   5
ENDBRANCH   1   3
BRANCH   1  12
ATOM     12  C   UNL     1      -0.698   0.201   0.000  0.00  0.00    +0.000 C 
ATOM     13  N   UNL     1      -0.698  -0.624   0.000  0.00  0.00    +0.000 NA
BRANCH  12  14
ATOM     14  C   UNL     1      -1.413   0.614   0.000  0.00  0.00    +0.000 C 
BRANCH  14  15
ATOM     15  C   UNL     1      -2.127   0.201   0.000  0.00  0.00    +0.000 A 
ATOM     16  C   UNL     1      -2.127  -0.624   0.000  0.00  0.00    +0.000 A 
ATOM     17  C   UNL     1      -2.841  -1.036   0.000  0.00  0.00    +0.000 A 
ATOM     18  C   UNL     1      -3.556  -0.624   0.000  0.00  0.00    +0.000 A 
ATOM     19  C   UNL     1      -3.556   0.201   0.000  0.00  0.00    +0.000 A 
ATOM     20  C   UNL     1      -2.841   0.614   0.000  0.00  0.00    +0.000 A 
ENDBRANCH  14  15
ENDBRANCH  12  14
ENDBRANCH   1  12
TORSDOF 6
