REMARK  Name = CP8
REMARK  3 active torsions:
REMARK  status: ('A' for Active; 'I' for Inactive)
REMARK    1  A    between atoms: C_10  and  C_13
REMARK    2  A    between atoms: N_16  and  C_18
REMARK    3  A    between atoms: C_18  and  C_20
REMARK                            x       y       z     vdW  Elec       q    Type
REMARK                         _______ _______ _______ _____ _____    ______ ____
ROOT
ATOM      1  C   UNL     1       0.319  -0.620   0.000  0.00  0.00    +0.000 C 
ATOM      2  C   UNL     1       0.319   0.205   0.000  0.00  0.00    +0.000 C 
ATOM      3  O   UNL     1       1.034  -1.032   0.000  0.00  0.00    +0.000 OA
ATOM      4  N   UNL     1       1.034   0.618   0.000  0.00  0.00    +0.000 N 
ATOM      5  C   UNL     1       1.748  -0.620   0.000  0.00  0.00    +0.000 C 
ATOM      6  C   UNL     1       1.748   0.205   0.000  0.00  0.00    +0.000 C 
ATOM      7  O   UNL     1       2.462   0.618   0.000  0.00  0.00    +0.000 OA
ENDROOT
BRANCH   1  17
ATOM      8  C   UNL     1      -1.824  -1.857   0.000  0.00  0.00    +0.000 A 
ATOM      9  C   UNL     1      -1.824  -1.032   0.000  0.00  0.00    +0.000 A 
ATOM     10  N   UNL     1      -2.609  -2.112   0.000  0.00  0.00    +0.000 N 
ATOM     11  C   UNL     1      -1.110  -2.270   0.000  0.00  0.00    +0.000 A 
ATOM     12  C   UNL     1      -1.110  -0.620   0.000  0.00  0.00    +0.000 A 
ATOM     13  C   UNL     1      -2.609  -0.777   0.000  0.00  0.00    +0.000 C 
ATOM     14  S   UNL     1      -3.094  -1.445   0.000  0.00  0.00    +0.000 S 
ATOM     15  C   UNL     1      -2.864  -2.897   0.000  0.00  0.00    +0.000 C 
ATOM     16  C   UNL     1      -0.396  -1.857   0.000  0.00  0.00    +0.000 A 
ATOM     17  C   UNL     1      -0.396  -1.032   0.000  0.00  0.00    +0.000 A 
ATOM     18  O   UNL     1      -3.813  -1.850   0.000  0.00  0.00    +0.000 OA
ATOM     19  O   UNL     1      -3.813  -1.040   0.000  0.00  0.00    +0.000 OA
ENDBRANCH   1  17
BRANCH   4  20
ATOM     20  C   UNL     1       1.034   1.443   0.000  0.00  0.00    +0.000 C 
BRANCH  20  21
ATOM     21  C   UNL     1       1.748   1.855   0.000  0.00  0.00    +0.000 A 
ATOM     22  C   UNL     1       1.748   2.680   0.000  0.00  0.00    +0.000 A 
ATOM     23  C   UNL     1       2.462   1.443   0.000  0.00  0.00    +0.000 A 
ATOM     24  C   UNL     1       2.462   3.093   0.000  0.00  0.00    +0.000 A 
ATOM     25  C   UNL     1       3.177   1.855   0.000  0.00  0.00    +0.000 A 
ATOM     26  C   UNL     1       3.177   2.680   0.000  0.00  0.00    +0.000 A 
ENDBRANCH  20  21
ENDBRANCH   4  20
TORSDOF 3
