REMARK  Name = CPU
REMARK  5 active torsions:
REMARK  status: ('A' for Active; 'I' for Inactive)
REMARK    1  A    between atoms: C_6  and  C_8
REMARK    2  A    between atoms: N_7  and  C_10
REMARK    3  A    between atoms: C_8  and  C_9
REMARK    4  A    between atoms: C_9  and  C_10
REMARK    5  A    between atoms: N_13  and  C_14
REMARK                            x       y       z     vdW  Elec       q    Type
REMARK                         _______ _______ _______ _____ _____    ______ ____
ROOT
ATOM      1  N   UNL     1      -0.018   0.270   0.000  0.00  0.00    +0.000 NA
ATOM      2  C   UNL     1       0.697  -0.142   0.000  0.00  0.00    +0.000 C 
ATOM      3  O   UNL     1       0.697  -0.968   0.000  0.00  0.00    +0.000 OA
ATOM      4  N   UNL     1       1.411   0.270   0.000  0.00  0.00    +0.000 NA
ENDROOT
BRANCH   4   5
ATOM      5  C   UNL     1       2.126  -0.142   0.000  0.00  0.00    +0.000 C 
ATOM      6  C   UNL     1       2.840   0.270   0.000  0.00  0.00    +0.000 C 
ATOM      7  C   UNL     1       3.555  -0.142   0.000  0.00  0.00    +0.000 C 
ATOM      8  C   UNL     1       3.555  -0.968   0.000  0.00  0.00    +0.000 C 
ATOM      9  C   UNL     1       2.840  -1.380   0.000  0.00  0.00    +0.000 C 
ATOM     10  C   UNL     1       2.126  -0.968   0.000  0.00  0.00    +0.000 C 
ENDBRANCH   4   5
BRANCH   1  11
ATOM     11  C   UNL     1      -0.732  -0.142   0.000  0.00  0.00    +0.000 C 
BRANCH  11  12
ATOM     12  C   UNL     1      -1.446   0.270   0.000  0.00  0.00    +0.000 C 
BRANCH  12  13
ATOM     13  C   UNL     1      -2.161  -0.142   0.000  0.00  0.00    +0.000 C 
BRANCH  13  19
ATOM     14  C   UNL     1      -3.590  -0.142   0.000  0.00  0.00    +0.000 A 
ATOM     15  C   UNL     1      -4.304   0.270   0.000  0.00  0.00    +0.000 A 
ATOM     16  C   UNL     1      -4.304   1.095   0.000  0.00  0.00    +0.000 A 
ATOM     17  C   UNL     1      -3.590   1.508   0.000  0.00  0.00    +0.000 A 
ATOM     18  C   UNL     1      -2.875   1.095   0.000  0.00  0.00    +0.000 A 
ATOM     19  C   UNL     1      -2.875   0.270   0.000  0.00  0.00    +0.000 A 
ENDBRANCH  13  19
ENDBRANCH  12  13
ENDBRANCH  11  12
ENDBRANCH   1  11
TORSDOF 5
