REMARK  Name = CPV
REMARK  7 active torsions:
REMARK  status: ('A' for Active; 'I' for Inactive)
REMARK    1  A    between atoms: C_1  and  C_10
REMARK    2  A    between atoms: C_4  and  C_5
REMARK    3  A    between atoms: C_4  and  C_7
REMARK    4  A    between atoms: C_5  and  C_6
REMARK    5  A    between atoms: C_7  and  C_12
REMARK    6  A    between atoms: C_10  and  C_11
REMARK    7  A    between atoms: C_10  and  C_12
REMARK                            x       y       z     vdW  Elec       q    Type
REMARK                         _______ _______ _______ _____ _____    ______ ____
ROOT
ATOM      1  C   UNL     1       0.829  -0.215   0.000  0.00  0.00    +0.000 C 
ATOM      2  O   UNL     1       1.241   0.499   0.000  0.00  0.00    +0.000 OA
ENDROOT
BRANCH   1   4
ATOM      3  N   UNL     1      -0.409  -0.930   0.000  0.00  0.00    +0.000 NA
ATOM      4  C   UNL     1       0.004  -0.215   0.000  0.00  0.00    +0.000 C 
BRANCH   4   5
ATOM      5  C   UNL     1      -0.409   0.499   0.000  0.00  0.00    +0.000 C 
BRANCH   5   6
ATOM      6  C   UNL     1      -1.234   0.499   0.000  0.00  0.00    +0.000 C 
ATOM      7  C   UNL     1      -2.884   0.499   0.000  0.00  0.00    +0.000 C 
ATOM      8  C   UNL     1      -1.646   1.214   0.000  0.00  0.00    +0.000 C 
ATOM      9  C   UNL     1      -1.646  -0.215   0.000  0.00  0.00    +0.000 C 
ATOM     10  C   UNL     1      -2.471   1.214   0.000  0.00  0.00    +0.000 C 
ATOM     11  C   UNL     1      -2.471  -0.215   0.000  0.00  0.00    +0.000 C 
ENDBRANCH   5   6
ENDBRANCH   4   5
ENDBRANCH   1   4
BRANCH   1  12
ATOM     12  C   UNL     1       1.241  -0.930   0.000  0.00  0.00    +0.000 C 
BRANCH  12  13
ATOM     13  C   UNL     1       2.066  -0.930   0.000  0.00  0.00    +0.000 C 
BRANCH  13  14
ATOM     14  C   UNL     1       2.479  -1.644   0.000  0.00  0.00    +0.000 C 
ATOM     15  O   UNL     1       3.304  -1.644   0.000  0.00  0.00    +0.000 OA
ATOM     16  O   UNL     1       2.066  -2.358   0.000  0.00  0.00    +0.000 OA
ENDBRANCH  13  14
BRANCH  13  17
ATOM     17  C   UNL     1       2.479  -0.215   0.000  0.00  0.00    +0.000 C 
ATOM     18  C   UNL     1       3.304  -0.215   0.000  0.00  0.00    +0.000 C 
ATOM     19  C   UNL     1       2.066   0.499   0.000  0.00  0.00    +0.000 C 
ENDBRANCH  13  17
ENDBRANCH  12  13
ENDBRANCH   1  12
TORSDOF 7
