REMARK  Name = CPX
REMARK  8 active torsions:
REMARK  status: ('A' for Active; 'I' for Inactive)
REMARK    1  A    between atoms: C_4  and  C_25
REMARK    2  A    between atoms: N_6  and  C_7
REMARK    3  A    between atoms: N_12  and  C_13
REMARK    4  A    between atoms: C_13  and  C_14
REMARK    5  A    between atoms: C_13  and  C_17
REMARK    6  A    between atoms: C_20  and  C_27
REMARK    7  A    between atoms: C_21  and  N_24
REMARK    8  A    between atoms: C_27  and  C_28
REMARK                            x       y       z     vdW  Elec       q    Type
REMARK                         _______ _______ _______ _____ _____    ______ ____
ROOT
ATOM      1  C   UNL     1       0.512   0.693   0.000  0.00  0.00    +0.000 C 
ATOM      2  O   UNL     1       1.226   1.106   0.000  0.00  0.00    +0.000 OA
ATOM      3  N   UNL     1       0.512  -0.132   0.000  0.00  0.00    +0.000 N 
ATOM      4  C   UNL     1       1.179  -0.617   0.000  0.00  0.00    +0.000 C 
ATOM      5  C   UNL     1       0.924  -1.401   0.000  0.00  0.00    +0.000 C 
ATOM      6  C   UNL     1       0.099  -1.401   0.000  0.00  0.00    +0.000 C 
ATOM      7  C   UNL     1      -0.156  -0.617   0.000  0.00  0.00    +0.000 C 
ENDROOT
BRANCH   4   8
ATOM      8  C   UNL     1       1.964  -0.361   0.000  0.00  0.00    +0.000 C 
ATOM      9  C   UNL     1       1.709   0.423   0.000  0.00  0.00    +0.000 C 
ATOM     10  C   UNL     1       2.493   0.678   0.000  0.00  0.00    +0.000 C 
ATOM     11  C   UNL     1       2.748  -0.107   0.000  0.00  0.00    +0.000 C 
BRANCH   8  12
ATOM     12  C   UNL     1       2.219  -1.146   0.000  0.00  0.00    +0.000 C 
ATOM     13  O   UNL     1       1.667  -1.759   0.000  0.00  0.00    +0.000 OA
ENDBRANCH   8  12
ENDBRANCH   4   8
BRANCH   5  14
ATOM     14  N   UNL     1       1.409  -2.068   0.000  0.00  0.00    +0.000 NA
ATOM     15  C   UNL     1       1.074  -2.822   0.000  0.00  0.00    +0.000 C 
ATOM     16  O   UNL     1       0.253  -2.909   0.000  0.00  0.00    +0.000 OA
BRANCH  15  19
ATOM     17  C   UNL     1       2.312  -3.825   0.000  0.00  0.00    +0.000 C 
ATOM     18  C   UNL     1       1.645  -4.310   0.000  0.00  0.00    +0.000 C 
ATOM     19  C   UNL     1       1.558  -3.490   0.000  0.00  0.00    +0.000 C 
ENDBRANCH  15  19
ENDBRANCH   5  14
BRANCH   1  20
ATOM     20  C   UNL     1      -0.203   1.106   0.000  0.00  0.00    +0.000 C 
BRANCH  20  24
ATOM     21  O   UNL     1      -1.632   1.931   0.000  0.00  0.00    +0.000 OA
ATOM     22  C   UNL     1      -1.632   1.106   0.000  0.00  0.00    +0.000 C 
ATOM     23  N   UNL     1      -2.346   0.693   0.000  0.00  0.00    +0.000 NA
ATOM     24  N   UNL     1      -0.917   0.693   0.000  0.00  0.00    +0.000 NA
BRANCH  23  25
ATOM     25  C   UNL     1      -3.061   1.106   0.000  0.00  0.00    +0.000 C 
ATOM     26  C   UNL     1      -3.814   0.770   0.000  0.00  0.00    +0.000 C 
ATOM     27  C   UNL     1      -4.366   1.383   0.000  0.00  0.00    +0.000 C 
ATOM     28  C   UNL     1      -3.954   2.098   0.000  0.00  0.00    +0.000 C 
ATOM     29  C   UNL     1      -3.147   1.926   0.000  0.00  0.00    +0.000 C 
ENDBRANCH  23  25
ENDBRANCH  20  24
BRANCH  20  30
ATOM     30  C   UNL     1      -0.203   1.931   0.000  0.00  0.00    +0.000 C 
ATOM     31  C   UNL     1       0.512   2.343   0.000  0.00  0.00    +0.000 C 
ATOM     32  C   UNL     1      -0.917   2.343   0.000  0.00  0.00    +0.000 C 
ENDBRANCH  20  30
ENDBRANCH   1  20
TORSDOF 8
