REMARK  Name = CQP
REMARK  7 active torsions:
REMARK  status: ('A' for Active; 'I' for Inactive)
REMARK    1  A    between atoms: C_5  and  C_6
REMARK    2  A    between atoms: C_6  and  O_7
REMARK    3  A    between atoms: O_7  and  C_8
REMARK    4  A    between atoms: C_11  and  C_12
REMARK    5  A    between atoms: C_12  and  N_13
REMARK    6  A    between atoms: N_13  and  S_14
REMARK    7  A    between atoms: S_14  and  C_17
REMARK                            x       y       z     vdW  Elec       q    Type
REMARK                         _______ _______ _______ _____ _____    ______ ____
ROOT
ATOM      1  C   UNL     1      -0.779   0.830   0.000  0.00  0.00    +0.000 C 
ENDROOT
BRANCH   1   5
ATOM      2  C   UNL     1      -0.367  -1.265   0.000  0.00  0.00    +0.000 C 
ATOM      3  C   UNL     1      -1.192  -1.265   0.000  0.00  0.00    +0.000 C 
ATOM      4  N   UNL     1      -1.447  -0.480   0.000  0.00  0.00    +0.000 NA
ATOM      5  C   UNL     1      -0.779   0.005   0.000  0.00  0.00    +0.000 C 
ATOM      6  C   UNL     1      -0.112  -0.480   0.000  0.00  0.00    +0.000 C 
BRANCH   2   7
ATOM      7  O   UNL     1       0.118  -1.932   0.000  0.00  0.00    +0.000 OA
BRANCH   7   8
ATOM      8  C   UNL     1      -0.217  -2.686   0.000  0.00  0.00    +0.000 C 
BRANCH   8  13
ATOM      9 CL   UNL     1       1.722  -5.356   0.000  0.00  0.00    +0.000 Cl
ATOM     10  C   UNL     1       1.238  -4.688   0.000  0.00  0.00    +0.000 A 
ATOM     11  C   UNL     1       0.417  -4.774   0.000  0.00  0.00    +0.000 A 
ATOM     12  C   UNL     1      -0.068  -4.107   0.000  0.00  0.00    +0.000 A 
ATOM     13  C   UNL     1       0.268  -3.353   0.000  0.00  0.00    +0.000 A 
ATOM     14  C   UNL     1       1.088  -3.267   0.000  0.00  0.00    +0.000 A 
ATOM     15  C   UNL     1       1.573  -3.934   0.000  0.00  0.00    +0.000 A 
ENDBRANCH   8  13
ENDBRANCH   7   8
ENDBRANCH   2   7
ENDBRANCH   1   5
BRANCH   1  16
ATOM     16  N   UNL     1      -0.065   1.242   0.000  0.00  0.00    +0.000 NA
BRANCH  16  17
ATOM     17  S   UNL     1      -0.065   2.067   0.000  0.00  0.00    +0.000 S 
ATOM     18  O   UNL     1       0.760   2.067   0.000  0.00  0.00    +0.000 OA
ATOM     19  O   UNL     1      -0.890   2.067   0.000  0.00  0.00    +0.000 OA
BRANCH  17  20
ATOM     20  C   UNL     1      -0.065   2.892   0.000  0.00  0.00    +0.000 A 
ATOM     21  C   UNL     1      -0.779   3.305   0.000  0.00  0.00    +0.000 A 
ATOM     22  C   UNL     1      -0.779   4.130   0.000  0.00  0.00    +0.000 A 
ATOM     23  C   UNL     1      -0.065   4.542   0.000  0.00  0.00    +0.000 A 
ATOM     24  C   UNL     1       0.650   4.130   0.000  0.00  0.00    +0.000 A 
ATOM     25  C   UNL     1       1.364   4.542   0.000  0.00  0.00    +0.000 A 
ATOM     26  N   UNL     1       2.079   4.130   0.000  0.00  0.00    +0.000 NA
ATOM     27  C   UNL     1       2.079   3.305   0.000  0.00  0.00    +0.000 A 
ATOM     28  C   UNL     1       1.364   2.892   0.000  0.00  0.00    +0.000 A 
ATOM     29  C   UNL     1       0.650   3.305   0.000  0.00  0.00    +0.000 A 
ENDBRANCH  17  20
ENDBRANCH  16  17
ENDBRANCH   1  16
TORSDOF 7
