REMARK  Name = CQU
REMARK  2 active torsions:
REMARK  status: ('A' for Active; 'I' for Inactive)
REMARK    1  A    between atoms: N_1  and  C_2
REMARK    2  A    between atoms: C_13  and  C_14
REMARK                            x       y       z     vdW  Elec       q    Type
REMARK                         _______ _______ _______ _____ _____    ______ ____
ROOT
ATOM      1  C   UNL     1       0.720   0.299   0.000  0.00  0.00    +0.000 A 
ATOM      2  C   UNL     1       1.435  -0.114   0.000  0.00  0.00    +0.000 A 
ATOM      3  C   UNL     1       2.149   0.299   0.000  0.00  0.00    +0.000 A 
ATOM      4  C   UNL     1       2.149   1.124   0.000  0.00  0.00    +0.000 A 
ATOM      5  C   UNL     1       0.720   1.124   0.000  0.00  0.00    +0.000 A 
ATOM      6  C   UNL     1       1.435   1.536   0.000  0.00  0.00    +0.000 A 
ENDROOT
BRANCH   1   7
ATOM      7  N   UNL     1       0.005  -0.114   0.000  0.00  0.00    +0.000 NA
ATOM      8  C   UNL     1      -1.494  -1.096   0.000  0.00  0.00    +0.000 A 
ATOM      9  C   UNL     1       0.720  -2.176   0.000  0.00  0.00    +0.000 A 
ATOM     10  C   UNL     1       0.005  -0.939   0.000  0.00  0.00    +0.000 A 
ATOM     11  C   UNL     1      -0.709  -1.351   0.000  0.00  0.00    +0.000 A 
ATOM     12  C   UNL     1      -0.709  -2.176   0.000  0.00  0.00    +0.000 A 
ATOM     13  N   UNL     1      -1.494  -2.431   0.000  0.00  0.00    +0.000 NA
ATOM     14  C   UNL     1      -1.978  -1.764   0.000  0.00  0.00    +0.000 A 
ATOM     15  N   UNL     1       0.005  -2.588   0.000  0.00  0.00    +0.000 NA
ATOM     16  N   UNL     1       0.720  -1.351   0.000  0.00  0.00    +0.000 NA
ENDBRANCH   1   7
BRANCH   5  22
ATOM     17  C   UNL     1      -1.300   1.814   0.000  0.00  0.00    +0.000 A 
ATOM     18  C   UNL     1      -2.121   1.728   0.000  0.00  0.00    +0.000 C 
ATOM     19  N   UNL     1      -0.748   1.201   0.000  0.00  0.00    +0.000 NA
ATOM     20  N   UNL     1      -0.888   2.529   0.000  0.00  0.00    +0.000 NA
ATOM     21  N   UNL     1      -0.081   2.357   0.000  0.00  0.00    +0.000 NA
ATOM     22  C   UNL     1       0.005   1.536   0.000  0.00  0.00    +0.000 A 
ENDBRANCH   5  22
TORSDOF 2
