REMARK  Name = CQW
REMARK  0 active torsions:
REMARK  status: ('A' for Active; 'I' for Inactive)
REMARK                            x       y       z     vdW  Elec       q    Type
REMARK                         _______ _______ _______ _____ _____    ______ ____
ROOT
ATOM      1  C   UNL     1       1.433  -1.465   0.000  0.00  0.00    +0.000 A 
ATOM      2  C   UNL     1       2.148  -0.228   0.000  0.00  0.00    +0.000 A 
ATOM      3  C   UNL     1       0.719  -1.053   0.000  0.00  0.00    +0.000 A 
ATOM      4  C   UNL     1      -1.425   1.010   0.000  0.00  0.00    +0.000 A 
ATOM      5  N   UNL     1       1.262  -2.272   0.000  0.00  0.00    +0.000 NA
ATOM      6  C   UNL     1      -0.710   1.422   0.000  0.00  0.00    +0.000 C 
ATOM      7 CL   UNL     1      -0.701  -1.433   0.000  0.00  0.00    +0.000 Cl
ATOM      8  C   UNL     1       0.106  -1.605   0.000  0.00  0.00    +0.000 A 
ATOM      9  C   UNL     1       0.441  -2.358   0.000  0.00  0.00    +0.000 A 
ATOM     10  N   UNL     1       2.148  -1.053   0.000  0.00  0.00    +0.000 NA
ATOM     11  C   UNL     1       0.719  -0.228   0.000  0.00  0.00    +0.000 A 
ATOM     12  N   UNL     1       1.433   0.185   0.000  0.00  0.00    +0.000 NA
ATOM     13  N   UNL     1       0.004   0.185   0.000  0.00  0.00    +0.000 N 
ATOM     14  C   UNL     1      -0.710  -0.228   0.000  0.00  0.00    +0.000 C 
ATOM     15  C   UNL     1      -1.425   0.185   0.000  0.00  0.00    +0.000 A 
ATOM     16  N   UNL     1      -2.209  -0.070   0.000  0.00  0.00    +0.000 NA
ATOM     17  C   UNL     1      -2.694   0.597   0.000  0.00  0.00    +0.000 A 
ATOM     18  N   UNL     1      -2.209   1.265   0.000  0.00  0.00    +0.000 NA
ATOM     19  C   UNL     1       0.004   1.010   0.000  0.00  0.00    +0.000 C 
ENDROOT
TORSDOF 0
