REMARK  Name = CR3
REMARK  4 active torsions:
REMARK  status: ('A' for Active; 'I' for Inactive)
REMARK    1  A    between atoms: C_1  and  C_7
REMARK    2  A    between atoms: C_12  and  C_13
REMARK    3  A    between atoms: C_17  and  O_18
REMARK    4  A    between atoms: O_18  and  C_22
REMARK                            x       y       z     vdW  Elec       q    Type
REMARK                         _______ _______ _______ _____ _____    ______ ____
ROOT
ATOM      1  C   UNL     1      -0.708  -1.049   0.000  0.00  0.00    +0.000 A 
ATOM      2  C   UNL     1      -1.121  -1.763   0.000  0.00  0.00    +0.000 A 
ATOM      3  C   UNL     1      -1.946  -1.763   0.000  0.00  0.00    +0.000 A 
ATOM      4  C   UNL     1      -2.358  -1.049   0.000  0.00  0.00    +0.000 A 
ATOM      5  C   UNL     1      -1.946  -0.334   0.000  0.00  0.00    +0.000 A 
ATOM      6  C   UNL     1      -1.121  -0.334   0.000  0.00  0.00    +0.000 A 
ATOM      7  O   UNL     1      -0.708   0.380   0.000  0.00  0.00    +0.000 OA
ENDROOT
BRANCH   1  16
ATOM      8  C   UNL     1       2.815  -0.636   0.000  0.00  0.00    +0.000 A 
ATOM      9  C   UNL     1       2.815  -1.461   0.000  0.00  0.00    +0.000 A 
ATOM     10  C   UNL     1       2.101  -1.874   0.000  0.00  0.00    +0.000 A 
ATOM     11  C   UNL     1       1.386  -1.461   0.000  0.00  0.00    +0.000 A 
ATOM     12  C   UNL     1       1.386  -0.636   0.000  0.00  0.00    +0.000 A 
ATOM     13  C   UNL     1       2.101  -0.224   0.000  0.00  0.00    +0.000 A 
ATOM     14  N   UNL     1       0.602  -1.716   0.000  0.00  0.00    +0.000 NA
ATOM     15  C   UNL     1       0.602  -0.381   0.000  0.00  0.00    +0.000 A 
ATOM     16  C   UNL     1       0.117  -1.049   0.000  0.00  0.00    +0.000 A 
BRANCH   8  17
ATOM     17  C   UNL     1       3.530  -0.224   0.000  0.00  0.00    +0.000 C 
ATOM     18  N   UNL     1       4.244  -0.636   0.000  0.00  0.00    +0.000 NA
ATOM     19  N   UNL     1       3.530   0.601   0.000  0.00  0.00    +0.000 NA
ENDBRANCH   8  17
ENDBRANCH   1  16
BRANCH   5  20
ATOM     20  O   UNL     1      -2.358   0.380   0.000  0.00  0.00    +0.000 OA
BRANCH  20  22
ATOM     21  C   UNL     1      -1.125   1.181   0.000  0.00  0.00    +0.000 C 
ATOM     22  C   UNL     1      -1.946   1.095   0.000  0.00  0.00    +0.000 C 
ATOM     23  C   UNL     1      -2.281   1.848   0.000  0.00  0.00    +0.000 C 
ATOM     24  C   UNL     1      -1.668   2.400   0.000  0.00  0.00    +0.000 C 
ATOM     25  C   UNL     1      -0.954   1.988   0.000  0.00  0.00    +0.000 C 
ENDBRANCH  20  22
ENDBRANCH   5  20
TORSDOF 4
