REMARK  Name = Creatinine.mol
REMARK  0 active torsions:
REMARK  status: ('A' for Active; 'I' for Inactive)
REMARK                            x       y       z     vdW  Elec       q    Type
REMARK                         _______ _______ _______ _____ _____    ______ ____
ROOT
ATOM      1  N   UNL     1       0.071  -0.667   0.000  0.00  0.00    +0.000 NA
ATOM      2  C   UNL     1      -0.714  -0.412   0.000  0.00  0.00    +0.000 C 
ATOM      3  N   UNL     1      -1.381  -0.897   0.000  0.00  0.00    +0.000 NA
ATOM      4  N   UNL     1      -0.714   0.412   0.000  0.00  0.00    +0.000 N 
ATOM      5  C   UNL     1      -1.381   0.897   0.000  0.00  0.00    +0.000 C 
ATOM      6  C   UNL     1       0.071   0.667   0.000  0.00  0.00    +0.000 C 
ATOM      7  C   UNL     1       0.556   0.000   0.000  0.00  0.00    +0.000 C 
ATOM      8  O   UNL     1       1.381   0.000   0.000  0.00  0.00    +0.000 OA
ENDROOT
TORSDOF 0
