REMARK  Name = CRI
REMARK  5 active torsions:
REMARK  status: ('A' for Active; 'I' for Inactive)
REMARK    1  A    between atoms: C_4  and  C_6
REMARK    2  A    between atoms: C_9  and  C_11
REMARK    3  A    between atoms: C_13  and  N_22
REMARK    4  A    between atoms: C_15  and  C_17
REMARK    5  A    between atoms: C_23  and  C_30
REMARK                            x       y       z     vdW  Elec       q    Type
REMARK                         _______ _______ _______ _____ _____    ______ ____
ROOT
ATOM      1  C   UNL     1       0.236   0.990   0.000  0.00  0.00    +0.000 A 
ATOM      2  C   UNL     1       0.236   0.165   0.000  0.00  0.00    +0.000 A 
ATOM      3  C   UNL     1      -0.478  -0.248   0.000  0.00  0.00    +0.000 A 
ATOM      4  C   UNL     1      -1.193   0.165   0.000  0.00  0.00    +0.000 A 
ATOM      5  C   UNL     1      -1.193   0.990   0.000  0.00  0.00    +0.000 A 
ATOM      6  C   UNL     1      -0.478   1.402   0.000  0.00  0.00    +0.000 A 
ENDROOT
BRANCH   1  11
ATOM      7  C   UNL     1       1.665   2.640   0.000  0.00  0.00    +0.000 A 
ATOM      8  C   UNL     1       2.380   2.227   0.000  0.00  0.00    +0.000 A 
ATOM      9  C   UNL     1       2.380   1.402   0.000  0.00  0.00    +0.000 A 
ATOM     10  C   UNL     1       1.665   0.990   0.000  0.00  0.00    +0.000 A 
ATOM     11  C   UNL     1       0.951   1.402   0.000  0.00  0.00    +0.000 A 
ATOM     12  C   UNL     1       0.951   2.227   0.000  0.00  0.00    +0.000 A 
BRANCH   8  16
ATOM     13  N   UNL     1       3.094   3.465   0.000  0.00  0.00    +0.000 NA
ATOM     14  O   UNL     1       3.809   3.877   0.000  0.00  0.00    +0.000 OA
ATOM     15  O   UNL     1       3.809   2.227   0.000  0.00  0.00    +0.000 OA
ATOM     16  C   UNL     1       3.094   2.640   0.000  0.00  0.00    +0.000 C 
ENDBRANCH   8  16
ENDBRANCH   1  11
BRANCH   5  17
ATOM     17  C   UNL     1      -1.907   1.402   0.000  0.00  0.00    +0.000 C 
ATOM     18  O   UNL     1      -1.907   2.227   0.000  0.00  0.00    +0.000 OA
ATOM     19  N   UNL     1      -2.622   0.990   0.000  0.00  0.00    +0.000 N 
ATOM     20  C   UNL     1      -2.622   0.165   0.000  0.00  0.00    +0.000 C 
ATOM     21  C   UNL     1      -3.336   1.402   0.000  0.00  0.00    +0.000 C 
ENDBRANCH   5  17
BRANCH   3  22
ATOM     22  N   UNL     1      -0.478  -1.073   0.000  0.00  0.00    +0.000 NA
ATOM     23  C   UNL     1       0.236  -1.485   0.000  0.00  0.00    +0.000 C 
ATOM     24  O   UNL     1       0.951  -1.073   0.000  0.00  0.00    +0.000 OA
BRANCH  23  30
ATOM     25  C   UNL     1       0.951  -2.723   0.000  0.00  0.00    +0.000 A 
ATOM     26  C   UNL     1       0.951  -3.548   0.000  0.00  0.00    +0.000 A 
ATOM     27  C   UNL     1       0.236  -3.960   0.000  0.00  0.00    +0.000 A 
ATOM     28  C   UNL     1      -0.478  -3.548   0.000  0.00  0.00    +0.000 A 
ATOM     29  C   UNL     1      -0.478  -2.723   0.000  0.00  0.00    +0.000 A 
ATOM     30  C   UNL     1       0.236  -2.310   0.000  0.00  0.00    +0.000 A 
ATOM     31  C   UNL     1       0.236  -4.785   0.000  0.00  0.00    +0.000 C 
ENDBRANCH  23  30
ENDBRANCH   3  22
TORSDOF 5
