REMARK  Name = CRJ
REMARK  11 active torsions:
REMARK  status: ('A' for Active; 'I' for Inactive)
REMARK    1  A    between atoms: C_3  and  C_7
REMARK    2  A    between atoms: C_7  and  N_9
REMARK    3  A    between atoms: C_7  and  C_10
REMARK    4  A    between atoms: N_9  and  C_11
REMARK    5  A    between atoms: C_11  and  C_12
REMARK    6  A    between atoms: C_11  and  C_13
REMARK    7  A    between atoms: C_13  and  S_14
REMARK    8  A    between atoms: S_14  and  C_15
REMARK    9  A    between atoms: C_15  and  C_18
REMARK   10  A    between atoms: N_16  and  C_24
REMARK   11  A    between atoms: C_24  and  C_33
REMARK                            x       y       z     vdW  Elec       q    Type
REMARK                         _______ _______ _______ _____ _____    ______ ____
ROOT
ATOM      1  C   UNL     1       0.086   0.002   0.000  0.00  0.00    +0.000 C 
ENDROOT
BRANCH   1   2
ATOM      2  C   UNL     1       0.181   0.821   0.000  0.00  0.00    +0.000 C 
ATOM      3  N   UNL     1      -0.481   1.313   0.000  0.00  0.00    +0.000 NA
ATOM      4  O   UNL     1       0.938   1.149   0.000  0.00  0.00    +0.000 OA
BRANCH   3   5
ATOM      5  C   UNL     1      -0.387   2.132   0.000  0.00  0.00    +0.000 C 
ATOM      6  C   UNL     1      -0.017   2.870   0.000  0.00  0.00    +0.000 C 
ATOM      7  C   UNL     1       0.437   2.182   0.000  0.00  0.00    +0.000 C 
BRANCH   5   9
ATOM      8  N   UNL     1      -1.968   2.604   0.000  0.00  0.00    +0.000 NA
ATOM      9  C   UNL     1      -1.177   2.368   0.000  0.00  0.00    +0.000 C 
ENDBRANCH   5   9
ENDBRANCH   3   5
ENDBRANCH   1   2
BRANCH   1  10
ATOM     10  N   UNL     1       0.749  -0.490   0.000  0.00  0.00    +0.000 NA
BRANCH  10  11
ATOM     11  C   UNL     1       1.506  -0.162   0.000  0.00  0.00    +0.000 C 
BRANCH  11  14
ATOM     12  C   UNL     1       3.493  -1.637   0.000  0.00  0.00    +0.000 A 
ATOM     13  C   UNL     1       2.925  -0.326   0.000  0.00  0.00    +0.000 A 
ATOM     14  C   UNL     1       2.168  -0.654   0.000  0.00  0.00    +0.000 A 
ATOM     15  C   UNL     1       2.074  -1.474   0.000  0.00  0.00    +0.000 A 
ATOM     16  C   UNL     1       2.736  -1.965   0.000  0.00  0.00    +0.000 A 
ATOM     17  C   UNL     1       3.588  -0.818   0.000  0.00  0.00    +0.000 A 
ATOM     18  F   UNL     1       4.156  -2.129   0.000  0.00  0.00    +0.000 F 
ENDBRANCH  11  14
BRANCH  11  19
ATOM     19  C   UNL     1       1.601   0.657   0.000  0.00  0.00    +0.000 C 
ATOM     20  F   UNL     1       2.420   0.563   0.000  0.00  0.00    +0.000 F 
ATOM     21  F   UNL     1       0.781   0.752   0.000  0.00  0.00    +0.000 F 
ATOM     22  F   UNL     1       1.695   1.477   0.000  0.00  0.00    +0.000 F 
ENDBRANCH  11  19
ENDBRANCH  10  11
ENDBRANCH   1  10
BRANCH   1  23
ATOM     23  C   UNL     1      -0.671  -0.326   0.000  0.00  0.00    +0.000 C 
BRANCH  23  24
ATOM     24  S   UNL     1      -1.333   0.166   0.000  0.00  0.00    +0.000 S 
ATOM     25  O   UNL     1      -0.841   0.828   0.000  0.00  0.00    +0.000 OA
ATOM     26  O   UNL     1      -1.825  -0.497   0.000  0.00  0.00    +0.000 OA
BRANCH  24  27
ATOM     27  C   UNL     1      -1.995   0.657   0.000  0.00  0.00    +0.000 C 
BRANCH  27  28
ATOM     28  C   UNL     1      -2.752   0.330   0.000  0.00  0.00    +0.000 C 
ATOM     29  C   UNL     1      -2.932  -0.476   0.000  0.00  0.00    +0.000 C 
ATOM     30  C   UNL     1      -3.754  -0.553   0.000  0.00  0.00    +0.000 C 
ATOM     31  C   UNL     1      -4.081   0.204   0.000  0.00  0.00    +0.000 C 
ATOM     32  N   UNL     1      -3.463   0.749   0.000  0.00  0.00    +0.000 NA
ATOM     33  O   UNL     1      -4.887   0.383   0.000  0.00  0.00    +0.000 OA
ENDBRANCH  27  28
ENDBRANCH  24  27
ENDBRANCH  23  24
ENDBRANCH   1  23
TORSDOF 11
