REMARK  Name = Crocin
REMARK  20 active torsions:
REMARK  status: ('A' for Active; 'I' for Inactive)
REMARK    1  A    between atoms: O_5  and  C_36
REMARK    2  A    between atoms: O_5  and  C_43
REMARK    3  A    between atoms: O_6  and  C_35
REMARK    4  A    between atoms: O_6  and  C_44
REMARK    5  A    between atoms: O_19  and  C_45
REMARK    6  A    between atoms: O_19  and  C_50
REMARK    7  A    between atoms: O_20  and  C_46
REMARK    8  A    between atoms: O_20  and  C_49
REMARK    9  A    between atoms: C_25  and  C_44
REMARK   10  A    between atoms: C_26  and  C_43
REMARK   11  A    between atoms: C_39  and  C_47
REMARK   12  A    between atoms: C_40  and  C_48
REMARK   13  A    between atoms: C_49  and  C_51
REMARK   14  A    between atoms: C_50  and  C_52
REMARK   15  A    between atoms: C_55  and  C_57
REMARK   16  A    between atoms: C_56  and  C_58
REMARK   17  A    between atoms: C_59  and  C_61
REMARK   18  A    between atoms: C_60  and  C_62
REMARK   19  A    between atoms: C_65  and  C_68
REMARK   20  A    between atoms: C_66  and  C_67
REMARK                            x       y       z     vdW  Elec       q    Type
REMARK                         _______ _______ _______ _____ _____    ______ ____
ROOT
ATOM      1  C   UNL     1      11.381  -0.412   0.000  0.00  0.00    +0.000 C 
ATOM      2  C   UNL     1      11.381   0.412   0.000  0.00  0.00    +0.000 C 
ENDROOT
BRANCH   1   5
ATOM      3  C   UNL     1      10.667  -1.650   0.000  0.00  0.00    +0.000 C 
ATOM      4  C   UNL     1      11.381  -2.062   0.000  0.00  0.00    +0.000 C 
ATOM      5  C   UNL     1      10.667  -0.825   0.000  0.00  0.00    +0.000 C 
BRANCH   3   7
ATOM      6  C   UNL     1       9.952  -2.888   0.000  0.00  0.00    +0.000 C 
ATOM      7  C   UNL     1       9.952  -2.062   0.000  0.00  0.00    +0.000 C 
BRANCH   6  10
ATOM      8  C   UNL     1       9.238  -4.125   0.000  0.00  0.00    +0.000 C 
ATOM      9  C   UNL     1       9.952  -4.538   0.000  0.00  0.00    +0.000 C 
ATOM     10  C   UNL     1       9.238  -3.300   0.000  0.00  0.00    +0.000 C 
BRANCH   8  12
ATOM     11  O   UNL     1       7.809  -4.125   0.000  0.00  0.00    +0.000 OA
ATOM     12  C   UNL     1       8.523  -4.538   0.000  0.00  0.00    +0.000 C 
BRANCH  12  13
ATOM     13  O   UNL     1       8.523  -5.363   0.000  0.00  0.00    +0.000 OA
BRANCH  13  22
ATOM     14  O   UNL     1       7.094  -5.363   0.000  0.00  0.00    +0.000 OA
ATOM     15  O   UNL     1       5.665  -7.013   0.000  0.00  0.00    +0.000 OA
ATOM     16  O   UNL     1       7.094  -7.838   0.000  0.00  0.00    +0.000 OA
ATOM     17  O   UNL     1       8.523  -7.013   0.000  0.00  0.00    +0.000 OA
ATOM     18  C   UNL     1       6.380  -5.775   0.000  0.00  0.00    +0.000 C 
ATOM     19  C   UNL     1       6.380  -6.600   0.000  0.00  0.00    +0.000 C 
ATOM     20  C   UNL     1       7.094  -7.013   0.000  0.00  0.00    +0.000 C 
ATOM     21  C   UNL     1       7.809  -6.600   0.000  0.00  0.00    +0.000 C 
ATOM     22  C   UNL     1       7.809  -5.775   0.000  0.00  0.00    +0.000 C 
BRANCH  18  23
ATOM     23  C   UNL     1       5.665  -5.363   0.000  0.00  0.00    +0.000 C 
BRANCH  23  24
ATOM     24  O   UNL     1       5.665  -4.538   0.000  0.00  0.00    +0.000 OA
BRANCH  24  31
ATOM     25  O   UNL     1       4.237  -4.538   0.000  0.00  0.00    +0.000 OA
ATOM     26  O   UNL     1       5.665  -2.888   0.000  0.00  0.00    +0.000 OA
ATOM     27  O   UNL     1       4.237  -2.062   0.000  0.00  0.00    +0.000 OA
ATOM     28  O   UNL     1       2.808  -2.888   0.000  0.00  0.00    +0.000 OA
ATOM     29  C   UNL     1       4.951  -3.300   0.000  0.00  0.00    +0.000 C 
ATOM     30  C   UNL     1       4.237  -2.888   0.000  0.00  0.00    +0.000 C 
ATOM     31  C   UNL     1       4.951  -4.125   0.000  0.00  0.00    +0.000 C 
ATOM     32  C   UNL     1       3.522  -3.300   0.000  0.00  0.00    +0.000 C 
ATOM     33  C   UNL     1       3.522  -4.125   0.000  0.00  0.00    +0.000 C 
BRANCH  33  35
ATOM     34  O   UNL     1       2.093  -4.125   0.000  0.00  0.00    +0.000 OA
ATOM     35  C   UNL     1       2.808  -4.538   0.000  0.00  0.00    +0.000 C 
ENDBRANCH  33  35
ENDBRANCH  24  31
ENDBRANCH  23  24
ENDBRANCH  18  23
ENDBRANCH  13  22
ENDBRANCH  12  13
ENDBRANCH   8  12
ENDBRANCH   6  10
ENDBRANCH   3   7
ENDBRANCH   1   5
BRANCH   2  38
ATOM     36  C   UNL     1      12.096   1.650   0.000  0.00  0.00    +0.000 C 
ATOM     37  C   UNL     1      11.381   2.062   0.000  0.00  0.00    +0.000 C 
ATOM     38  C   UNL     1      12.096   0.825   0.000  0.00  0.00    +0.000 C 
BRANCH  36  40
ATOM     39  C   UNL     1      12.810   2.888   0.000  0.00  0.00    +0.000 C 
ATOM     40  C   UNL     1      12.810   2.062   0.000  0.00  0.00    +0.000 C 
BRANCH  39  43
ATOM     41  C   UNL     1      13.525   4.125   0.000  0.00  0.00    +0.000 C 
ATOM     42  C   UNL     1      12.810   4.538   0.000  0.00  0.00    +0.000 C 
ATOM     43  C   UNL     1      13.525   3.300   0.000  0.00  0.00    +0.000 C 
BRANCH  41  45
ATOM     44  O   UNL     1      14.954   4.125   0.000  0.00  0.00    +0.000 OA
ATOM     45  C   UNL     1      14.239   4.538   0.000  0.00  0.00    +0.000 C 
BRANCH  45  46
ATOM     46  O   UNL     1      14.239   5.363   0.000  0.00  0.00    +0.000 OA
BRANCH  46  55
ATOM     47  O   UNL     1      15.668   5.363   0.000  0.00  0.00    +0.000 OA
ATOM     48  O   UNL     1      17.097   7.013   0.000  0.00  0.00    +0.000 OA
ATOM     49  O   UNL     1      15.668   7.838   0.000  0.00  0.00    +0.000 OA
ATOM     50  O   UNL     1      14.239   7.013   0.000  0.00  0.00    +0.000 OA
ATOM     51  C   UNL     1      16.383   5.775   0.000  0.00  0.00    +0.000 C 
ATOM     52  C   UNL     1      16.383   6.600   0.000  0.00  0.00    +0.000 C 
ATOM     53  C   UNL     1      15.668   7.013   0.000  0.00  0.00    +0.000 C 
ATOM     54  C   UNL     1      14.954   6.600   0.000  0.00  0.00    +0.000 C 
ATOM     55  C   UNL     1      14.954   5.775   0.000  0.00  0.00    +0.000 C 
BRANCH  51  56
ATOM     56  C   UNL     1      17.097   5.363   0.000  0.00  0.00    +0.000 C 
BRANCH  56  57
ATOM     57  O   UNL     1      17.812   5.775   0.000  0.00  0.00    +0.000 OA
BRANCH  57  64
ATOM     58  O   UNL     1      19.241   5.775   0.000  0.00  0.00    +0.000 OA
ATOM     59  O   UNL     1      17.812   4.125   0.000  0.00  0.00    +0.000 OA
ATOM     60  O   UNL     1      19.241   3.300   0.000  0.00  0.00    +0.000 OA
ATOM     61  O   UNL     1      20.670   4.125   0.000  0.00  0.00    +0.000 OA
ATOM     62  C   UNL     1      18.526   4.538   0.000  0.00  0.00    +0.000 C 
ATOM     63  C   UNL     1      19.241   4.125   0.000  0.00  0.00    +0.000 C 
ATOM     64  C   UNL     1      18.526   5.363   0.000  0.00  0.00    +0.000 C 
ATOM     65  C   UNL     1      19.955   4.538   0.000  0.00  0.00    +0.000 C 
ATOM     66  C   UNL     1      19.955   5.363   0.000  0.00  0.00    +0.000 C 
BRANCH  66  68
ATOM     67  O   UNL     1      20.670   6.600   0.000  0.00  0.00    +0.000 OA
ATOM     68  C   UNL     1      20.670   5.775   0.000  0.00  0.00    +0.000 C 
ENDBRANCH  66  68
ENDBRANCH  57  64
ENDBRANCH  56  57
ENDBRANCH  51  56
ENDBRANCH  46  55
ENDBRANCH  45  46
ENDBRANCH  41  45
ENDBRANCH  39  43
ENDBRANCH  36  40
ENDBRANCH   2  38
TORSDOF 20
