REMARK  Name = CRR
REMARK  4 active torsions:
REMARK  status: ('A' for Active; 'I' for Inactive)
REMARK    1  A    between atoms: C_9  and  C_10
REMARK    2  A    between atoms: CA_11  and  C_12
REMARK    3  A    between atoms: CA_16  and  C_17
REMARK    4  A    between atoms: C_20  and  C_21
REMARK                            x       y       z     vdW  Elec       q    Type
REMARK                         _______ _______ _______ _____ _____    ______ ____
ROOT
ATOM      1  C   UNL     1      -0.254   0.302   0.000  0.00  0.00    +0.000 A 
ATOM      2  CA  UNL     1      -0.254   1.127   0.000  0.00  0.00    +0.000 A 
ATOM      3  N   UNL     1       0.531   1.382   0.000  0.00  0.00    +0.000 NA
ATOM      4  CA  UNL     1       1.016   0.715   0.000  0.00  0.00    +0.000 A 
ATOM      5  C   UNL     1       0.531   0.048   0.000  0.00  0.00    +0.000 A 
ENDROOT
BRANCH   1  14
ATOM      6  C   UNL     1      -1.706   0.072   0.000  0.00  0.00    +0.000 A 
ATOM      7  C   UNL     1      -2.041   0.826   0.000  0.00  0.00    +0.000 A 
ATOM      8  C   UNL     1      -2.862   0.912   0.000  0.00  0.00    +0.000 A 
ATOM      9  C   UNL     1      -3.347   0.245   0.000  0.00  0.00    +0.000 A 
ATOM     10  C   UNL     1      -3.011  -0.509   0.000  0.00  0.00    +0.000 A 
ATOM     11  C   UNL     1      -2.191  -0.595   0.000  0.00  0.00    +0.000 A 
ATOM     12  N   UNL     1      -1.706  -1.262   0.000  0.00  0.00    +0.000 NA
ATOM     13  C   UNL     1      -0.921  -1.008   0.000  0.00  0.00    +0.000 A 
ATOM     14  C   UNL     1      -0.921  -0.182   0.000  0.00  0.00    +0.000 A 
ENDBRANCH   1  14
BRANCH   5  15
ATOM     15  C   UNL     1       0.786  -0.737   0.000  0.00  0.00    +0.000 A 
ATOM     16  C   UNL     1       1.571  -0.992   0.000  0.00  0.00    +0.000 A 
ATOM     17  C   UNL     1       2.285  -0.580   0.000  0.00  0.00    +0.000 A 
ATOM     18  C   UNL     1       2.999  -0.992   0.000  0.00  0.00    +0.000 A 
ATOM     19  C   UNL     1       2.999  -1.817   0.000  0.00  0.00    +0.000 A 
ATOM     20  C   UNL     1       2.285  -2.229   0.000  0.00  0.00    +0.000 A 
ATOM     21  C   UNL     1       1.571  -1.817   0.000  0.00  0.00    +0.000 A 
ATOM     22  N   UNL     1       0.786  -2.072   0.000  0.00  0.00    +0.000 NA
ATOM     23  C   UNL     1       0.301  -1.405   0.000  0.00  0.00    +0.000 A 
ENDBRANCH   5  15
BRANCH   2  24
ATOM     24  C   UNL     1      -0.921   1.612   0.000  0.00  0.00    +0.000 C 
ATOM     25  O   UNL     1      -0.835   2.433   0.000  0.00  0.00    +0.000 OA
ATOM     26  OXT UNL     1      -1.675   1.277   0.000  0.00  0.00    +0.000 OA
ENDBRANCH   2  24
BRANCH   4  27
ATOM     27  C   UNL     1       1.841   0.715   0.000  0.00  0.00    +0.000 C 
ATOM     28  O   UNL     1       2.253   0.001   0.000  0.00  0.00    +0.000 OA
ATOM     29  OXT UNL     1       2.253   1.429   0.000  0.00  0.00    +0.000 OA
ENDBRANCH   4  27
TORSDOF 4
