REMARK  Name = CRV
REMARK  11 active torsions:
REMARK  status: ('A' for Active; 'I' for Inactive)
REMARK    1  A    between atoms: C_1  and  C_2
REMARK    2  A    between atoms: C_2  and  N_3
REMARK    3  A    between atoms: C_2  and  C_4
REMARK    4  A    between atoms: N_3  and  C_8
REMARK    5  A    between atoms: C_8  and  C_9
REMARK    6  A    between atoms: C_8  and  C_10
REMARK    7  A    between atoms: C_10  and  S_11
REMARK    8  A    between atoms: S_11  and  C_12
REMARK    9  A    between atoms: C_12  and  C_25
REMARK   10  A    between atoms: N_13  and  C_15
REMARK   11  A    between atoms: C_15  and  C_33
REMARK                            x       y       z     vdW  Elec       q    Type
REMARK                         _______ _______ _______ _____ _____    ______ ____
ROOT
ATOM      1  C   UNL     1       0.120  -0.669   0.000  0.00  0.00    +0.000 C 
ENDROOT
BRANCH   1   2
ATOM      2  C   UNL     1       0.026   0.151   0.000  0.00  0.00    +0.000 C 
ATOM      3  N   UNL     1      -0.731   0.479   0.000  0.00  0.00    +0.000 NA
ATOM      4  O   UNL     1       0.688   0.643   0.000  0.00  0.00    +0.000 OA
BRANCH   3   5
ATOM      5  C   UNL     1      -0.826   1.298   0.000  0.00  0.00    +0.000 C 
ATOM      6  C   UNL     1      -0.635   2.101   0.000  0.00  0.00    +0.000 C 
ATOM      7  C   UNL     1      -0.035   1.534   0.000  0.00  0.00    +0.000 C 
BRANCH   5   9
ATOM      8  N   UNL     1      -2.019   2.085   0.000  0.00  0.00    +0.000 NA
ATOM      9  C   UNL     1      -1.649   1.347   0.000  0.00  0.00    +0.000 C 
ENDBRANCH   5   9
ENDBRANCH   3   5
ENDBRANCH   1   2
BRANCH   1  10
ATOM     10  N   UNL     1      -0.542  -1.160   0.000  0.00  0.00    +0.000 NA
BRANCH  10  11
ATOM     11  C   UNL     1      -1.299  -0.833   0.000  0.00  0.00    +0.000 C 
BRANCH  11  12
ATOM     12  C   UNL     1      -1.962  -1.324   0.000  0.00  0.00    +0.000 A 
ATOM     13  C   UNL     1      -1.867  -2.144   0.000  0.00  0.00    +0.000 A 
ATOM     14  C   UNL     1      -2.529  -2.636   0.000  0.00  0.00    +0.000 A 
ATOM     15  C   UNL     1      -3.286  -2.308   0.000  0.00  0.00    +0.000 A 
ATOM     16  C   UNL     1      -3.381  -1.488   0.000  0.00  0.00    +0.000 A 
ATOM     17  C   UNL     1      -2.719  -0.997   0.000  0.00  0.00    +0.000 A 
ATOM     18  O   UNL     1      -3.949  -2.800   0.000  0.00  0.00    +0.000 OA
ENDBRANCH  11  12
BRANCH  11  19
ATOM     19  C   UNL     1      -1.394  -0.013   0.000  0.00  0.00    +0.000 C 
ATOM     20  F   UNL     1      -0.574   0.082   0.000  0.00  0.00    +0.000 F 
ATOM     21  F   UNL     1      -2.213  -0.108   0.000  0.00  0.00    +0.000 F 
ATOM     22  F   UNL     1      -1.488   0.807   0.000  0.00  0.00    +0.000 F 
ENDBRANCH  11  19
ENDBRANCH  10  11
ENDBRANCH   1  10
BRANCH   1  23
ATOM     23  C   UNL     1       0.877  -0.997   0.000  0.00  0.00    +0.000 C 
BRANCH  23  24
ATOM     24  S   UNL     1       1.540  -0.505   0.000  0.00  0.00    +0.000 S 
ATOM     25  O   UNL     1       2.032  -1.167   0.000  0.00  0.00    +0.000 OA
ATOM     26  O   UNL     1       1.048   0.158   0.000  0.00  0.00    +0.000 OA
BRANCH  24  27
ATOM     27  C   UNL     1       2.202  -0.013   0.000  0.00  0.00    +0.000 C 
BRANCH  27  28
ATOM     28  C   UNL     1       2.959  -0.341   0.000  0.00  0.00    +0.000 A 
ATOM     29  C   UNL     1       3.622   0.151   0.000  0.00  0.00    +0.000 A 
ATOM     30  C   UNL     1       4.379  -0.177   0.000  0.00  0.00    +0.000 A 
ATOM     31  C   UNL     1       4.474  -0.997   0.000  0.00  0.00    +0.000 A 
ATOM     32  C   UNL     1       3.811  -1.488   0.000  0.00  0.00    +0.000 A 
ATOM     33  C   UNL     1       3.054  -1.160   0.000  0.00  0.00    +0.000 A 
ENDBRANCH  27  28
ENDBRANCH  24  27
ENDBRANCH  23  24
ENDBRANCH   1  23
TORSDOF 11
