REMARK  Name = CRZ
REMARK  4 active torsions:
REMARK  status: ('A' for Active; 'I' for Inactive)
REMARK    1  A    between atoms: C_2  and  C_4
REMARK    2  A    between atoms: C_4  and  C_5
REMARK    3  A    between atoms: C_5  and  C_6
REMARK    4  A    between atoms: C_6  and  N_7
REMARK                            x       y       z     vdW  Elec       q    Type
REMARK                         _______ _______ _______ _____ _____    ______ ____
ROOT
ATOM      1  N   UNL     1       0.172  -0.303   0.000  0.00  0.00    +0.000 N 
ATOM      2  C   UNL     1       0.925  -0.638   0.000  0.00  0.00    +0.000 A 
ATOM      3  C   UNL     1       1.180  -1.423   0.000  0.00  0.00    +0.000 A 
ATOM      4  C   UNL     1       1.478  -0.025   0.000  0.00  0.00    +0.000 A 
ATOM      5  C   UNL     1       2.284  -0.197   0.000  0.00  0.00    +0.000 A 
ATOM      6  C   UNL     1       2.539  -0.982   0.000  0.00  0.00    +0.000 A 
ATOM      7  C   UNL     1       1.987  -1.595   0.000  0.00  0.00    +0.000 A 
ATOM      8  C   UNL     1       1.065   0.689   0.000  0.00  0.00    +0.000 A 
ATOM      9  C   UNL     1       0.258   0.517   0.000  0.00  0.00    +0.000 A 
ATOM     10  C   UNL     1      -0.294   1.131   0.000  0.00  0.00    +0.000 A 
ATOM     11  C   UNL     1       1.320   1.474   0.000  0.00  0.00    +0.000 A 
ATOM     12  C   UNL     1       0.768   2.087   0.000  0.00  0.00    +0.000 A 
ATOM     13  C   UNL     1      -0.039   1.915   0.000  0.00  0.00    +0.000 A 
ENDROOT
BRANCH   1  14
ATOM     14  C   UNL     1      -0.543  -0.715   0.000  0.00  0.00    +0.000 C 
BRANCH  14  15
ATOM     15  C   UNL     1      -1.257  -0.303   0.000  0.00  0.00    +0.000 C 
BRANCH  15  16
ATOM     16  C   UNL     1      -1.972  -0.715   0.000  0.00  0.00    +0.000 C 
BRANCH  16  18
ATOM     17  O   UNL     1      -3.401  -0.715   0.000  0.00  0.00    +0.000 OA
ATOM     18  C   UNL     1      -2.686  -0.303   0.000  0.00  0.00    +0.000 C 
ATOM     19  O   UNL     1      -2.686   0.522   0.000  0.00  0.00    +0.000 OA
ENDBRANCH  16  18
ENDBRANCH  15  16
ENDBRANCH  14  15
ENDBRANCH   1  14
TORSDOF 4
