REMARK  Name = CS4
REMARK  7 active torsions:
REMARK  status: ('A' for Active; 'I' for Inactive)
REMARK    1  A    between atoms: C_2  and  C_3
REMARK    2  A    between atoms: C_3  and  C_5
REMARK    3  A    between atoms: C_5  and  S_6
REMARK    4  A    between atoms: S_6  and  C_7
REMARK    5  A    between atoms: C_7  and  C_8
REMARK    6  A    between atoms: C_8  and  C_9
REMARK    7  A    between atoms: C_9  and  C_11
REMARK                            x       y       z     vdW  Elec       q    Type
REMARK                         _______ _______ _______ _____ _____    ______ ____
ROOT
ATOM      1  C   UNK     1       1.906   2.090   0.000  0.00  0.00    +0.000 C 
ATOM      2  O   UNK     1       1.906   2.915   0.000  0.00  0.00    +0.000 OA
ENDROOT
BRANCH   1   3
ATOM      3  C   UNK     1       2.620   1.677   0.000  0.00  0.00    +0.000 A 
ATOM      4  C   UNK     1       2.620   0.853   0.000  0.00  0.00    +0.000 A 
ATOM      5  C   UNK     1       3.335   2.090   0.000  0.00  0.00    +0.000 A 
ATOM      6  C   UNK     1       4.049   1.677   0.000  0.00  0.00    +0.000 A 
ATOM      7  C   UNK     1       4.049   0.853   0.000  0.00  0.00    +0.000 A 
ATOM      8 CL   UNK     1       4.764   0.440   0.000  0.00  0.00    +0.000 Cl
ATOM      9  C   UNK     1       3.335   0.440   0.000  0.00  0.00    +0.000 A 
ATOM     10 CL   UNK     1       3.335  -0.385   0.000  0.00  0.00    +0.000 Cl
ENDBRANCH   1   3
BRANCH   1  11
ATOM     11  C   UNK     1       1.192   1.677   0.000  0.00  0.00    +0.000 C 
BRANCH  11  12
ATOM     12  C   UNK     1       0.477   2.090   0.000  0.00  0.00    +0.000 C 
BRANCH  12  13
ATOM     13  S   UNK     1      -0.237   1.677   0.000  0.00  0.00    +0.000 S 
BRANCH  13  14
ATOM     14  C   UNK     1      -0.952   2.090   0.000  0.00  0.00    +0.000 C 
BRANCH  14  15
ATOM     15  C   UNK     1      -1.666   1.677   0.000  0.00  0.00    +0.000 C 
ATOM     16  N   UNK     1      -1.666   0.853   0.000  0.00  0.00    +0.000 NA
BRANCH  15  18
ATOM     17  O   UNK     1      -3.095   1.677   0.000  0.00  0.00    +0.000 OA
ATOM     18  C   UNK     1      -2.381   2.090   0.000  0.00  0.00    +0.000 C 
ATOM     19  O   UNK     1      -2.381   2.915   0.000  0.00  0.00    +0.000 OA
ENDBRANCH  15  18
ENDBRANCH  14  15
ENDBRANCH  13  14
ENDBRANCH  12  13
ENDBRANCH  11  12
ENDBRANCH   1  11
TORSDOF 7
