REMARK  Name = CT0
REMARK  2 active torsions:
REMARK  status: ('A' for Active; 'I' for Inactive)
REMARK    1  A    between atoms: C_2  and  C_10
REMARK    2  A    between atoms: N_11  and  C_12
REMARK                            x       y       z     vdW  Elec       q    Type
REMARK                         _______ _______ _______ _____ _____    ______ ____
ROOT
ATOM      1  O   UNL     1      -0.223  -1.079   0.000  0.00  0.00    +0.000 OA
ATOM      2  C   UNL     1      -0.223  -0.254   0.000  0.00  0.00    +0.000 C 
ATOM      3  N   UNL     1      -0.937   0.158   0.000  0.00  0.00    +0.000 NA
ATOM      4  C   UNL     1      -1.652  -0.254   0.000  0.00  0.00    +0.000 A 
ATOM      5  N   UNL     1      -1.738  -1.075   0.000  0.00  0.00    +0.000 NA
ATOM      6  S   UNL     1      -2.405   0.081   0.000  0.00  0.00    +0.000 S 
ATOM      7  C   UNL     1      -2.958  -0.532   0.000  0.00  0.00    +0.000 A 
ATOM      8  C   UNL     1      -2.545  -1.246   0.000  0.00  0.00    +0.000 A 
ENDROOT
BRANCH   2  10
ATOM      9  O   UNL     1       0.492   0.983   0.000  0.00  0.00    +0.000 OA
ATOM     10  C   UNL     1       0.492   0.158   0.000  0.00  0.00    +0.000 C 
ATOM     11  N   UNL     1       1.206  -0.254   0.000  0.00  0.00    +0.000 NA
BRANCH  11  12
ATOM     12  C   UNL     1       1.921   0.158   0.000  0.00  0.00    +0.000 C 
ATOM     13  C   UNL     1       2.007   0.979   0.000  0.00  0.00    +0.000 C 
ATOM     14  C   UNL     1       2.675  -0.177   0.000  0.00  0.00    +0.000 C 
ATOM     15  C   UNL     1       3.227   0.436   0.000  0.00  0.00    +0.000 C 
ATOM     16  C   UNL     1       2.814   1.150   0.000  0.00  0.00    +0.000 C 
ENDBRANCH  11  12
ENDBRANCH   2  10
TORSDOF 2
