REMARK  Name = CT1
REMARK  10 active torsions:
REMARK  status: ('A' for Active; 'I' for Inactive)
REMARK    1  A    between atoms: C_2  and  C_3
REMARK    2  A    between atoms: C_3  and  C_4
REMARK    3  A    between atoms: C_4  and  CA_22
REMARK    4  A    between atoms: N_6  and  CA_22
REMARK    5  A    between atoms: C_7  and  O_9
REMARK    6  A    between atoms: O_9  and  C_10
REMARK    7  A    between atoms: C_10  and  C_11
REMARK    8  A    between atoms: C_10  and  C_18
REMARK    9  A    between atoms: C_11  and  C_12
REMARK   10  A    between atoms: C_21  and  CA_22
REMARK                            x       y       z     vdW  Elec       q    Type
REMARK                         _______ _______ _______ _____ _____    ______ ____
ROOT
ATOM      1  O   UNL     1       0.184   0.836   0.000  0.00  0.00    +0.000 OA
ENDROOT
BRANCH   1   3
ATOM      2  N   UNL     1      -1.203   0.493   0.000  0.00  0.00    +0.000 NA
ATOM      3  C   UNL     1      -0.410   0.264   0.000  0.00  0.00    +0.000 C 
ATOM      4  O   UNL     1      -0.212  -0.537   0.000  0.00  0.00    +0.000 OA
BRANCH   2   5
ATOM      5  CA  UNL     1      -1.798  -0.079   0.000  0.00  0.00    +0.000 C 
BRANCH   5   7
ATOM      6  O   UNL     1      -0.807  -1.109   0.000  0.00  0.00    +0.000 OA
ATOM      7  C   UNL     1      -1.599  -0.880   0.000  0.00  0.00    +0.000 C 
ENDBRANCH   5   7
BRANCH   5   8
ATOM      8  C   UNL     1      -2.590   0.150   0.000  0.00  0.00    +0.000 C 
BRANCH   8   9
ATOM      9  C   UNL     1      -3.185  -0.422   0.000  0.00  0.00    +0.000 C 
BRANCH   9  11
ATOM     10  C   UNL     1      -4.572  -0.765   0.000  0.00  0.00    +0.000 C 
ATOM     11  C   UNL     1      -3.977  -0.193   0.000  0.00  0.00    +0.000 C 
ENDBRANCH   9  11
ENDBRANCH   8   9
ENDBRANCH   5   8
ENDBRANCH   2   5
ENDBRANCH   1   3
BRANCH   1  12
ATOM     12  C   UNL     1       0.977   0.607   0.000  0.00  0.00    +0.000 C 
BRANCH  12  13
ATOM     13  C   UNL     1       1.175  -0.193   0.000  0.00  0.00    +0.000 C 
ATOM     14  C   UNL     1       1.967  -0.422   0.000  0.00  0.00    +0.000 C 
ATOM     15  C   UNL     1       0.580  -0.765   0.000  0.00  0.00    +0.000 C 
ENDBRANCH  12  13
BRANCH  12  16
ATOM     16  C   UNL     1       1.571   1.179   0.000  0.00  0.00    +0.000 C 
BRANCH  16  17
ATOM     17  C   UNL     1       2.364   0.951   0.000  0.00  0.00    +0.000 A 
ATOM     18  C   UNL     1       2.958   1.523   0.000  0.00  0.00    +0.000 A 
ATOM     19  C   UNL     1       3.751   1.294   0.000  0.00  0.00    +0.000 A 
ATOM     20  C   UNL     1       3.949   0.493   0.000  0.00  0.00    +0.000 A 
ATOM     21  C   UNL     1       3.354  -0.079   0.000  0.00  0.00    +0.000 A 
ATOM     22  C   UNL     1       2.562   0.150   0.000  0.00  0.00    +0.000 A 
ENDBRANCH  16  17
ENDBRANCH  12  16
ENDBRANCH   1  12
TORSDOF 10
