REMARK  Name = CT2
REMARK  9 active torsions:
REMARK  status: ('A' for Active; 'I' for Inactive)
REMARK    1  A    between atoms: C_2  and  C_3
REMARK    2  A    between atoms: C_3  and  C_4
REMARK    3  A    between atoms: C_4  and  CA_5
REMARK    4  A    between atoms: CA_5  and  N_6
REMARK    5  A    between atoms: CA_5  and  C_22
REMARK    6  A    between atoms: C_7  and  O_9
REMARK    7  A    between atoms: O_9  and  C_10
REMARK    8  A    between atoms: C_10  and  C_11
REMARK    9  A    between atoms: C_11  and  C_12
REMARK                            x       y       z     vdW  Elec       q    Type
REMARK                         _______ _______ _______ _____ _____    ______ ____
ROOT
ATOM      1  C   UNL     1       1.223  -0.029   0.000  0.00  0.00    +0.000 C 
ATOM      2  C   UNL     1       0.738   0.638   0.000  0.00  0.00    +0.000 C 
ATOM      3  C   UNL     1       1.223   1.306   0.000  0.00  0.00    +0.000 C 
ATOM      4  C   UNL     1       2.007   1.051   0.000  0.00  0.00    +0.000 C 
ATOM      5  C   UNL     1       2.007   0.226   0.000  0.00  0.00    +0.000 C 
ENDROOT
BRANCH   1   6
ATOM      6  C   UNL     1       1.558  -0.783   0.000  0.00  0.00    +0.000 C 
BRANCH   6   7
ATOM      7  C   UNL     1       2.379  -0.869   0.000  0.00  0.00    +0.000 A 
ATOM      8  C   UNL     1       2.864  -0.202   0.000  0.00  0.00    +0.000 A 
ATOM      9  C   UNL     1       3.684  -0.288   0.000  0.00  0.00    +0.000 A 
ATOM     10  C   UNL     1       4.020  -1.042   0.000  0.00  0.00    +0.000 A 
ATOM     11  C   UNL     1       3.535  -1.709   0.000  0.00  0.00    +0.000 A 
ATOM     12  C   UNL     1       2.715  -1.623   0.000  0.00  0.00    +0.000 A 
ENDBRANCH   6   7
ENDBRANCH   1   6
BRANCH   1  13
ATOM     13  O   UNL     1       0.508  -0.442   0.000  0.00  0.00    +0.000 OA
BRANCH  13  15
ATOM     14  N   UNL     1      -0.920  -0.442   0.000  0.00  0.00    +0.000 NA
ATOM     15  C   UNL     1      -0.206  -0.029   0.000  0.00  0.00    +0.000 C 
ATOM     16  O   UNL     1      -0.206   0.796   0.000  0.00  0.00    +0.000 OA
BRANCH  14  17
ATOM     17  CA  UNL     1      -1.635  -0.029   0.000  0.00  0.00    +0.000 C 
BRANCH  17  18
ATOM     18  C   UNL     1      -1.635   0.796   0.000  0.00  0.00    +0.000 C 
ATOM     19  O   UNL     1      -0.920   1.208   0.000  0.00  0.00    +0.000 OA
ENDBRANCH  17  18
BRANCH  17  20
ATOM     20  C   UNL     1      -2.349  -0.442   0.000  0.00  0.00    +0.000 C 
BRANCH  20  21
ATOM     21  C   UNL     1      -3.064  -0.029   0.000  0.00  0.00    +0.000 C 
BRANCH  21  23
ATOM     22  C   UNL     1      -4.493  -0.029   0.000  0.00  0.00    +0.000 C 
ATOM     23  C   UNL     1      -3.778  -0.442   0.000  0.00  0.00    +0.000 C 
ENDBRANCH  21  23
ENDBRANCH  20  21
ENDBRANCH  17  20
ENDBRANCH  14  17
ENDBRANCH  13  15
ENDBRANCH   1  13
TORSDOF 9
