REMARK  Name = CT6
REMARK  4 active torsions:
REMARK  status: ('A' for Active; 'I' for Inactive)
REMARK    1  A    between atoms: C_4  and  C_8
REMARK    2  A    between atoms: C_10  and  N_17
REMARK    3  A    between atoms: N_17  and  C_18
REMARK    4  A    between atoms: C_18  and  C_19
REMARK                            x       y       z     vdW  Elec       q    Type
REMARK                         _______ _______ _______ _____ _____    ______ ____
ROOT
ATOM      1  C   UNL     1      -0.439   1.534   0.000  0.00  0.00    +0.000 A 
ATOM      2  C   UNL     1      -0.439   0.709   0.000  0.00  0.00    +0.000 A 
ATOM      3  C   UNL     1      -1.153   0.297   0.000  0.00  0.00    +0.000 A 
ATOM      4  N   UNL     1      -1.868   0.709   0.000  0.00  0.00    +0.000 N 
ATOM      5  N   UNL     1      -2.652   0.454   0.000  0.00  0.00    +0.000 NA
ATOM      6  C   UNL     1      -3.137   1.122   0.000  0.00  0.00    +0.000 A 
ATOM      7  C   UNL     1      -1.868   1.534   0.000  0.00  0.00    +0.000 A 
ATOM      8  C   UNL     1      -2.652   1.789   0.000  0.00  0.00    +0.000 A 
ATOM      9  N   UNL     1      -1.153   1.947   0.000  0.00  0.00    +0.000 NA
ENDROOT
BRANCH   1  13
ATOM     10 BR   UNL     1       2.419   1.534   0.000  0.00  0.00    +0.000 Br
ATOM     11  C   UNL     1       1.705   1.947   0.000  0.00  0.00    +0.000 A 
ATOM     12  C   UNL     1       0.990   1.534   0.000  0.00  0.00    +0.000 A 
ATOM     13  C   UNL     1       0.276   1.947   0.000  0.00  0.00    +0.000 A 
ATOM     14  C   UNL     1       0.276   2.772   0.000  0.00  0.00    +0.000 A 
ATOM     15  C   UNL     1       0.990   3.184   0.000  0.00  0.00    +0.000 A 
ATOM     16  C   UNL     1       1.705   2.772   0.000  0.00  0.00    +0.000 A 
ENDBRANCH   1  13
BRANCH   3  17
ATOM     17  N   UNL     1      -1.153  -0.528   0.000  0.00  0.00    +0.000 NA
BRANCH  17  18
ATOM     18  C   UNL     1      -0.439  -0.941   0.000  0.00  0.00    +0.000 C 
BRANCH  18  19
ATOM     19  C   UNL     1      -0.439  -1.766   0.000  0.00  0.00    +0.000 A 
ATOM     20  C   UNL     1       0.276  -2.178   0.000  0.00  0.00    +0.000 A 
ATOM     21  C   UNL     1       0.276  -3.003   0.000  0.00  0.00    +0.000 A 
ATOM     22  N   UNL     1      -0.439  -3.416   0.000  0.00  0.00    +0.000 NA
ATOM     23  C   UNL     1      -1.153  -3.003   0.000  0.00  0.00    +0.000 A 
ATOM     24  C   UNL     1      -1.153  -2.178   0.000  0.00  0.00    +0.000 A 
ENDBRANCH  18  19
ENDBRANCH  17  18
ENDBRANCH   3  17
TORSDOF 4
