REMARK  Name = CT7
REMARK  3 active torsions:
REMARK  status: ('A' for Active; 'I' for Inactive)
REMARK    1  A    between atoms: S_2  and  C_4
REMARK    2  A    between atoms: C_9  and  N_10
REMARK    3  A    between atoms: N_10  and  C_11
REMARK                            x       y       z     vdW  Elec       q    Type
REMARK                         _______ _______ _______ _____ _____    ______ ____
ROOT
ATOM      1  N   UNL     1      -0.654   0.135   0.000  0.00  0.00    +0.000 NA
ENDROOT
BRANCH   1   2
ATOM      2  C   UNL     1      -0.654   0.960   0.000  0.00  0.00    +0.000 A 
ATOM      3  N   UNL     1      -1.369   1.373   0.000  0.00  0.00    +0.000 N 
ATOM      4  C   UNL     1      -1.369   2.197   0.000  0.00  0.00    +0.000 A 
ATOM      5  N   UNL     1      -0.654   2.610   0.000  0.00  0.00    +0.000 NA
ATOM      6  C   UNL     1      -2.638   1.785   0.000  0.00  0.00    +0.000 A 
ATOM      7  N   UNL     1      -2.153   1.117   0.000  0.00  0.00    +0.000 NA
ATOM      8  C   UNL     1       0.060   1.373   0.000  0.00  0.00    +0.000 A 
ATOM      9  C   UNL     1       0.060   2.197   0.000  0.00  0.00    +0.000 A 
ATOM     10 CL   UNL     1       0.775   2.610   0.000  0.00  0.00    +0.000 Cl
ATOM     11  C   UNL     1      -2.153   2.452   0.000  0.00  0.00    +0.000 A 
ENDBRANCH   1   2
BRANCH   1  17
ATOM     12  C   UNL     1       1.489  -1.103   0.000  0.00  0.00    +0.000 A 
ATOM     13  C   UNL     1       0.775  -1.515   0.000  0.00  0.00    +0.000 A 
ATOM     14  C   UNL     1       1.489  -0.278   0.000  0.00  0.00    +0.000 A 
ATOM     15  C   UNL     1       0.775   0.135   0.000  0.00  0.00    +0.000 A 
ATOM     16  C   UNL     1       0.060  -1.103   0.000  0.00  0.00    +0.000 A 
ATOM     17  C   UNL     1       0.060  -0.278   0.000  0.00  0.00    +0.000 A 
BRANCH  12  19
ATOM     18  O   UNL     1       2.918  -1.927   0.000  0.00  0.00    +0.000 OA
ATOM     19  S   UNL     1       2.204  -1.515   0.000  0.00  0.00    +0.000 S 
ATOM     20  O   UNL     1       2.616  -0.801   0.000  0.00  0.00    +0.000 OA
ATOM     21  C   UNL     1       1.791  -2.229   0.000  0.00  0.00    +0.000 C 
ENDBRANCH  12  19
ENDBRANCH   1  17
TORSDOF 3
