REMARK  Name = CT8
REMARK  4 active torsions:
REMARK  status: ('A' for Active; 'I' for Inactive)
REMARK    1  A    between atoms: C_4  and  C_8
REMARK    2  A    between atoms: C_10  and  N_16
REMARK    3  A    between atoms: N_16  and  C_17
REMARK    4  A    between atoms: C_17  and  C_18
REMARK                            x       y       z     vdW  Elec       q    Type
REMARK                         _______ _______ _______ _____ _____    ______ ____
ROOT
ATOM      1  C   UNL     1      -0.561   1.551   0.000  0.00  0.00    +0.000 A 
ATOM      2  C   UNL     1      -0.561   0.726   0.000  0.00  0.00    +0.000 A 
ATOM      3  C   UNL     1      -1.276   0.313   0.000  0.00  0.00    +0.000 A 
ATOM      4  N   UNL     1      -1.990   0.726   0.000  0.00  0.00    +0.000 N 
ATOM      5  N   UNL     1      -2.775   0.471   0.000  0.00  0.00    +0.000 NA
ATOM      6  C   UNL     1      -3.260   1.138   0.000  0.00  0.00    +0.000 A 
ATOM      7  C   UNL     1      -1.990   1.551   0.000  0.00  0.00    +0.000 A 
ATOM      8  N   UNL     1      -1.276   1.963   0.000  0.00  0.00    +0.000 NA
ATOM      9  N   UNL     1      -2.775   1.806   0.000  0.00  0.00    +0.000 NA
ENDROOT
BRANCH   1  13
ATOM     10 BR   UNL     1       2.296   1.551   0.000  0.00  0.00    +0.000 Br
ATOM     11  C   UNL     1       1.582   1.963   0.000  0.00  0.00    +0.000 A 
ATOM     12  C   UNL     1       0.867   1.551   0.000  0.00  0.00    +0.000 A 
ATOM     13  C   UNL     1       0.153   1.963   0.000  0.00  0.00    +0.000 A 
ATOM     14  C   UNL     1       0.153   2.788   0.000  0.00  0.00    +0.000 A 
ATOM     15  C   UNL     1       0.867   3.201   0.000  0.00  0.00    +0.000 A 
ATOM     16  C   UNL     1       1.582   2.788   0.000  0.00  0.00    +0.000 A 
ENDBRANCH   1  13
BRANCH   3  17
ATOM     17  N   UNL     1      -1.276  -0.512   0.000  0.00  0.00    +0.000 NA
BRANCH  17  18
ATOM     18  C   UNL     1      -0.561  -0.924   0.000  0.00  0.00    +0.000 C 
BRANCH  18  19
ATOM     19  C   UNL     1      -0.561  -1.749   0.000  0.00  0.00    +0.000 A 
ATOM     20  C   UNL     1       0.153  -2.162   0.000  0.00  0.00    +0.000 A 
ATOM     21  C   UNL     1       0.153  -2.987   0.000  0.00  0.00    +0.000 A 
ATOM     22  N   UNL     1      -0.561  -3.399   0.000  0.00  0.00    +0.000 NA
ATOM     23  C   UNL     1      -1.276  -2.987   0.000  0.00  0.00    +0.000 A 
ATOM     24  C   UNL     1      -1.276  -2.162   0.000  0.00  0.00    +0.000 A 
ENDBRANCH  18  19
ENDBRANCH  17  18
ENDBRANCH   3  17
TORSDOF 4
