REMARK  Name = CTB
REMARK  4 active torsions:
REMARK  status: ('A' for Active; 'I' for Inactive)
REMARK    1  A    between atoms: B_1  and  C_4
REMARK    2  A    between atoms: C_4  and  N_5
REMARK    3  A    between atoms: C_6  and  C_8
REMARK    4  A    between atoms: C_8  and  C_9
REMARK                            x       y       z     vdW  Elec       q    Type
REMARK                         _______ _______ _______ _____ _____    ______ ____
ROOT
ATOM      1  N   UNL     1      -0.986   0.312   0.000  0.00  0.00    +0.000 NA
ATOM      2  C   UNL     1      -0.271  -0.101   0.000  0.00  0.00    +0.000 C 
ATOM      3  O   UNL     1      -0.271  -0.926   0.000  0.00  0.00    +0.000 OA
ENDROOT
BRANCH   1   4
ATOM      4  C   UNL     1      -1.700  -0.101   0.000  0.00  0.00    +0.000 C 
BRANCH   4   5
ATOM      5  B   UNL     1      -2.414   0.312   0.000  0.00  0.00    +0.000 B 
ATOM      6  O   UNL     1      -3.129  -0.101   0.000  0.00  0.00    +0.000 OA
ATOM      7  O   UNL     1      -2.414   1.137   0.000  0.00  0.00    +0.000 OA
ENDBRANCH   4   5
ENDBRANCH   1   4
BRANCH   2   8
ATOM      8  C   UNL     1       0.443   0.312   0.000  0.00  0.00    +0.000 C 
BRANCH   8   9
ATOM      9  C   UNL     1       1.158  -0.101   0.000  0.00  0.00    +0.000 A 
ATOM     10  C   UNL     1       1.911   0.235   0.000  0.00  0.00    +0.000 A 
ATOM     11  C   UNL     1       2.464  -0.379   0.000  0.00  0.00    +0.000 A 
ATOM     12  C   UNL     1       2.051  -1.093   0.000  0.00  0.00    +0.000 A 
ATOM     13  S   UNL     1       1.244  -0.921   0.000  0.00  0.00    +0.000 S 
ENDBRANCH   8   9
ENDBRANCH   2   8
TORSDOF 4
