REMARK  Name = CTF
REMARK  5 active torsions:
REMARK  status: ('A' for Active; 'I' for Inactive)
REMARK    1  A    between atoms: C_1  and  O_9
REMARK    2  A    between atoms: C_4  and  O_12
REMARK    3  A    between atoms: S_7  and  O_9
REMARK    4  A    between atoms: C_23  and  C_26
REMARK    5  A    between atoms: C_26  and  C_27
REMARK                            x       y       z     vdW  Elec       q    Type
REMARK                         _______ _______ _______ _____ _____    ______ ____
ROOT
ATOM      1  C   UNL     1       2.020  -0.308   0.000  0.00  0.00    +0.000 A 
ATOM      2  C   UNL     1       1.739   0.468   0.000  0.00  0.00    +0.000 A 
ATOM      3  C   UNL     1       0.927   0.613   0.000  0.00  0.00    +0.000 A 
ATOM      4  C   UNL     1       0.395  -0.018   0.000  0.00  0.00    +0.000 A 
ATOM      5  C   UNL     1       0.676  -0.794   0.000  0.00  0.00    +0.000 A 
ATOM      6  C   UNL     1       1.488  -0.939   0.000  0.00  0.00    +0.000 A 
ATOM      7  C   UNL     1      -0.417   0.127   0.000  0.00  0.00    +0.000 C 
ATOM      8  C   UNL     1      -0.949  -0.503   0.000  0.00  0.00    +0.000 C 
ATOM      9  C   UNL     1      -0.668  -1.279   0.000  0.00  0.00    +0.000 C 
ATOM     10  C   UNL     1       0.144  -1.425   0.000  0.00  0.00    +0.000 C 
ATOM     11  C   UNL     1      -0.697   0.903   0.000  0.00  0.00    +0.000 C 
ATOM     12  C   UNL     1      -1.509   1.048   0.000  0.00  0.00    +0.000 C 
ATOM     13  C   UNL     1      -2.041   0.418   0.000  0.00  0.00    +0.000 C 
ATOM     14  C   UNL     1      -1.761  -0.358   0.000  0.00  0.00    +0.000 C 
ATOM     15  C   UNL     1      -2.401   1.160   0.000  0.00  0.00    +0.000 C 
ATOM     16  C   UNL     1      -2.865   0.391   0.000  0.00  0.00    +0.000 C 
ATOM     17  C   UNL     1      -3.095  -0.402   0.000  0.00  0.00    +0.000 C 
ATOM     18  C   UNL     1      -2.412  -0.865   0.000  0.00  0.00    +0.000 C 
ENDROOT
BRANCH   2  19
ATOM     19  O   UNL     1       2.271   1.098   0.000  0.00  0.00    +0.000 OA
ATOM     20  C   UNL     1       1.991   1.874   0.000  0.00  0.00    +0.000 C 
ENDBRANCH   2  19
BRANCH   1  21
ATOM     21  O   UNL     1       2.832  -0.454   0.000  0.00  0.00    +0.000 OA
BRANCH  21  24
ATOM     22  O   UNL     1       3.392  -2.006   0.000  0.00  0.00    +0.000 OA
ATOM     23  O   UNL     1       3.888  -0.949   0.000  0.00  0.00    +0.000 OA
ATOM     24  S   UNL     1       3.112  -1.230   0.000  0.00  0.00    +0.000 S 
ATOM     25  N   UNL     1       2.336  -1.510   0.000  0.00  0.00    +0.000 NA
ENDBRANCH  21  24
ENDBRANCH   1  21
BRANCH  16  26
ATOM     26  C   UNL     1      -3.372   1.042   0.000  0.00  0.00    +0.000 C 
BRANCH  26  27
ATOM     27  C   UNL     1      -4.189   0.929   0.000  0.00  0.00    +0.000 C 
ATOM     28  N   UNL     1      -5.006   0.817   0.000  0.00  0.00    +0.000 NA
ENDBRANCH  26  27
ENDBRANCH  16  26
TORSDOF 5
