REMARK  Name = CTL
REMARK  0 active torsions:
REMARK  status: ('A' for Active; 'I' for Inactive)
REMARK                            x       y       z     vdW  Elec       q    Type
REMARK                         _______ _______ _______ _____ _____    ______ ____
ROOT
ATOM      1  C   UNL     1      -0.205  -0.572   0.000  0.00  0.00    +0.000 C 
ATOM      2  C   UNL     1      -0.919  -0.159   0.000  0.00  0.00    +0.000 C 
ATOM      3  C   UNL     1      -0.919   0.666   0.000  0.00  0.00    +0.000 C 
ATOM      4  C   UNL     1      -0.205   1.078   0.000  0.00  0.00    +0.000 C 
ATOM      5  C   UNL     1       0.510   0.666   0.000  0.00  0.00    +0.000 A 
ATOM      6  C   UNL     1       1.224   1.078   0.000  0.00  0.00    +0.000 A 
ATOM      7  C   UNL     1       0.510  -0.159   0.000  0.00  0.00    +0.000 A 
ATOM      8  C   UNL     1       1.224  -0.572   0.000  0.00  0.00    +0.000 A 
ATOM      9  C   UNL     1       1.939  -0.159   0.000  0.00  0.00    +0.000 A 
ATOM     10  C   UNL     1       1.939   0.666   0.000  0.00  0.00    +0.000 A 
ATOM     11  O   UNL     1      -0.205  -1.397   0.000  0.00  0.00    +0.000 OA
ATOM     12  N   UNL     1      -1.634  -0.572   0.000  0.00  0.00    +0.000 NA
ENDROOT
TORSDOF 0
