REMARK  Name = CVB
REMARK  3 active torsions:
REMARK  status: ('A' for Active; 'I' for Inactive)
REMARK    1  A    between atoms: B_1  and  C_4
REMARK    2  A    between atoms: C_7  and  C_8
REMARK    3  A    between atoms: C_9  and  C_10
REMARK                            x       y       z     vdW  Elec       q    Type
REMARK                         _______ _______ _______ _____ _____    ______ ____
ROOT
ATOM      1  C   UNL     1       1.192   0.525   0.000  0.00  0.00    +0.000 A 
ATOM      2  C   UNL     1       1.192  -0.300   0.000  0.00  0.00    +0.000 A 
ATOM      3  C   UNL     1       0.477  -0.713   0.000  0.00  0.00    +0.000 A 
ATOM      4  C   UNL     1      -0.237  -0.300   0.000  0.00  0.00    +0.000 A 
ATOM      5  C   UNL     1      -0.237   0.525   0.000  0.00  0.00    +0.000 A 
ATOM      6  C   UNL     1       0.477   0.937   0.000  0.00  0.00    +0.000 A 
ENDROOT
BRANCH   1   7
ATOM      7  B   UNL     1       1.906   0.937   0.000  0.00  0.00    +0.000 B 
ATOM      8  O   UNL     1       1.906   1.762   0.000  0.00  0.00    +0.000 OA
ATOM      9  O   UNL     1       2.621   0.525   0.000  0.00  0.00    +0.000 OA
ENDBRANCH   1   7
BRANCH   4  10
ATOM     10  C   UNL     1      -0.952  -0.713   0.000  0.00  0.00    +0.000 C 
ATOM     11  C   UNL     1      -1.666  -0.300   0.000  0.00  0.00    +0.000 C 
BRANCH  11  12
ATOM     12  C   UNL     1      -2.381  -0.713   0.000  0.00  0.00    +0.000 C 
ATOM     13  O   UNL     1      -2.381  -1.538   0.000  0.00  0.00    +0.000 OA
ATOM     14  O   UNL     1      -3.095  -0.300   0.000  0.00  0.00    +0.000 OA
ENDBRANCH  11  12
ENDBRANCH   4  10
TORSDOF 3
