REMARK  Name = CX6
REMARK  0 active torsions:
REMARK  status: ('A' for Active; 'I' for Inactive)
REMARK                            x       y       z     vdW  Elec       q    Type
REMARK                         _______ _______ _______ _____ _____    ______ ____
ROOT
ATOM      1  O   UNL     1       0.828   0.917   0.000  0.00  0.00    +0.000 OA
ATOM      2  O   UNL     1       0.828  -1.558   0.000  0.00  0.00    +0.000 OA
ATOM      3  N   UNL     1       1.543  -0.321   0.000  0.00  0.00    +0.000 N 
ATOM      4  C   UNL     1       1.543   0.504   0.000  0.00  0.00    +0.000 C 
ATOM      5  C   UNL     1       2.328   0.759   0.000  0.00  0.00    +0.000 C 
ATOM      6  C   UNL     1       2.812   0.092   0.000  0.00  0.00    +0.000 C 
ATOM      7  C   UNL     1       2.328  -0.576   0.000  0.00  0.00    +0.000 C 
ATOM      8  C   UNL     1       0.828  -0.733   0.000  0.00  0.00    +0.000 C 
ATOM      9  C   UNL     1       0.114  -0.321   0.000  0.00  0.00    +0.000 A 
ATOM     10  C   UNL     1       0.114   0.504   0.000  0.00  0.00    +0.000 A 
ATOM     11  C   UNL     1      -0.601   0.917   0.000  0.00  0.00    +0.000 A 
ATOM     12  C   UNL     1      -1.315   0.504   0.000  0.00  0.00    +0.000 A 
ATOM     13  C   UNL     1      -1.315  -0.321   0.000  0.00  0.00    +0.000 A 
ATOM     14  C   UNL     1      -0.601  -0.733   0.000  0.00  0.00    +0.000 A 
ATOM     15  O   UNL     1      -2.029   0.917   0.000  0.00  0.00    +0.000 OA
ATOM     16  O   UNL     1      -2.029  -0.733   0.000  0.00  0.00    +0.000 OA
ATOM     17  C   UNL     1      -2.744  -0.321   0.000  0.00  0.00    +0.000 C 
ATOM     18  C   UNL     1      -2.744   0.504   0.000  0.00  0.00    +0.000 C 
ENDROOT
TORSDOF 0
