REMARK  Name = CXA
REMARK  5 active torsions:
REMARK  status: ('A' for Active; 'I' for Inactive)
REMARK    1  A    between atoms: C_1  and  C_7
REMARK    2  A    between atoms: C_7  and  C_8
REMARK    3  A    between atoms: C_8  and  C_9
REMARK    4  A    between atoms: C_8  and  N_12
REMARK    5  A    between atoms: N_12  and  S_13
REMARK                            x       y       z     vdW  Elec       q    Type
REMARK                         _______ _______ _______ _____ _____    ______ ____
ROOT
ATOM      1  C   UNL     1       0.404  -0.307   0.000  0.00  0.00    +0.000 C 
ENDROOT
BRANCH   1   2
ATOM      2  C   UNL     1       0.404   0.518   0.000  0.00  0.00    +0.000 C 
ATOM      3  O   UNL     1      -0.310   0.930   0.000  0.00  0.00    +0.000 OA
ATOM      4  O   UNL     1       1.118   0.930   0.000  0.00  0.00    +0.000 OA
ENDBRANCH   1   2
BRANCH   1   5
ATOM      5  C   UNL     1      -0.310  -0.720   0.000  0.00  0.00    +0.000 C 
BRANCH   5   6
ATOM      6  C   UNL     1      -1.025  -0.307   0.000  0.00  0.00    +0.000 A 
ATOM      7  C   UNL     1      -1.739  -0.720   0.000  0.00  0.00    +0.000 A 
ATOM      8  C   UNL     1      -2.454  -0.307   0.000  0.00  0.00    +0.000 A 
ATOM      9  C   UNL     1      -2.454   0.518   0.000  0.00  0.00    +0.000 A 
ATOM     10  C   UNL     1      -1.739   0.930   0.000  0.00  0.00    +0.000 A 
ATOM     11  C   UNL     1      -1.025   0.518   0.000  0.00  0.00    +0.000 A 
ENDBRANCH   5   6
ENDBRANCH   1   5
BRANCH   1  12
ATOM     12  N   UNL     1       1.118  -0.720   0.000  0.00  0.00    +0.000 NA
BRANCH  12  13
ATOM     13  S   UNL     1       1.833  -0.307   0.000  0.00  0.00    +0.000 S 
ATOM     14  N   UNL     1       2.547   0.105   0.000  0.00  0.00    +0.000 NA
ATOM     15  O   UNL     1       2.245  -1.022   0.000  0.00  0.00    +0.000 OA
ATOM     16  O   UNL     1       1.420   0.407   0.000  0.00  0.00    +0.000 OA
ENDBRANCH  12  13
ENDBRANCH   1  12
TORSDOF 5
