REMARK  Name = CXB
REMARK  5 active torsions:
REMARK  status: ('A' for Active; 'I' for Inactive)
REMARK    1  A    between atoms: O_2  and  N_3
REMARK    2  A    between atoms: C_4  and  C_5
REMARK    3  A    between atoms: C_4  and  C_12
REMARK    4  A    between atoms: N_7  and  C_8
REMARK    5  A    between atoms: C_8  and  B_9
REMARK                            x       y       z     vdW  Elec       q    Type
REMARK                         _______ _______ _______ _____ _____    ______ ____
ROOT
ATOM      1  N   UNL     1      -0.419  -0.792   0.000  0.00  0.00    +0.000 NA
ATOM      2  C   UNL     1      -0.419   0.033   0.000  0.00  0.00    +0.000 C 
ENDROOT
BRANCH   2   3
ATOM      3  C   UNL     1      -1.133   0.445   0.000  0.00  0.00    +0.000 A 
ATOM      4  C   UNL     1      -1.887   0.110   0.000  0.00  0.00    +0.000 A 
ATOM      5  S   UNL     1      -2.439   0.723   0.000  0.00  0.00    +0.000 S 
ATOM      6  C   UNL     1      -2.026   1.437   0.000  0.00  0.00    +0.000 A 
ATOM      7  N   UNL     1      -2.362   2.191   0.000  0.00  0.00    +0.000 NA
ATOM      8  N   UNL     1      -1.219   1.266   0.000  0.00  0.00    +0.000 NA
ENDBRANCH   2   3
BRANCH   2   9
ATOM      9  C   UNL     1       0.296   0.445   0.000  0.00  0.00    +0.000 C 
ATOM     10  O   UNL     1       0.296   1.270   0.000  0.00  0.00    +0.000 OA
ATOM     11  N   UNL     1       1.010   0.033   0.000  0.00  0.00    +0.000 NA
BRANCH  11  12
ATOM     12  C   UNL     1       1.725   0.445   0.000  0.00  0.00    +0.000 C 
BRANCH  12  13
ATOM     13  B   UNL     1       2.439   0.033   0.000  0.00  0.00    +0.000 B 
ATOM     14  O   UNL     1       3.154   0.445   0.000  0.00  0.00    +0.000 OA
ATOM     15  O   UNL     1       2.439  -0.792   0.000  0.00  0.00    +0.000 OA
ENDBRANCH  12  13
ENDBRANCH  11  12
ENDBRANCH   2   9
BRANCH   1  17
ATOM     16  C   UNL     1       0.296  -2.030   0.000  0.00  0.00    +0.000 C 
ATOM     17  O   UNL     1       0.296  -1.205   0.000  0.00  0.00    +0.000 OA
ENDBRANCH   1  17
TORSDOF 5
