REMARK  Name = CXM
REMARK  5 active torsions:
REMARK  status: ('A' for Active; 'I' for Inactive)
REMARK    1  A    between atoms: N_1  and  CA_2
REMARK    2  A    between atoms: CA_2  and  CB_3
REMARK    3  A    between atoms: CA_2  and  C_7
REMARK    4  A    between atoms: CB_3  and  CG_4
REMARK    5  A    between atoms: CG_4  and  SD_5
REMARK                            x       y       z     vdW  Elec       q    Type
REMARK                         _______ _______ _______ _____ _____    ______ ____
ROOT
ATOM      1  CA  MET A   1       0.638   0.138   0.000  0.00  0.00    +0.000 C 
ENDROOT
BRANCH   1   2
ATOM      2  N   MET A   1       1.352   0.551   0.000  0.00  0.00    +0.000 NA
ATOM      3  C   UNK A   0       2.067   0.138   0.000  0.00  0.00    +0.000 C 
ATOM      4  O   UNK A   0       2.781   0.551   0.000  0.00  0.00    +0.000 OA
ATOM      5  O   UNK A   0       2.067  -0.687   0.000  0.00  0.00    +0.000 OA
ENDBRANCH   1   2
BRANCH   1   6
ATOM      6  C   MET A   1       0.638  -0.687   0.000  0.00  0.00    +0.000 C 
ATOM      7  O   MET A   1      -0.077  -1.099   0.000  0.00  0.00    +0.000 OA
ATOM      8  OXT MET A   1       1.352  -1.099   0.000  0.00  0.00    +0.000 OA
ENDBRANCH   1   6
BRANCH   1   9
ATOM      9  CB  MET A   1      -0.077   0.551   0.000  0.00  0.00    +0.000 C 
BRANCH   9  10
ATOM     10  CG  MET A   1      -0.791   0.138   0.000  0.00  0.00    +0.000 C 
BRANCH  10  11
ATOM     11  SD  MET A   1      -1.506   0.551   0.000  0.00  0.00    +0.000 S 
ATOM     12  CE  MET A   1      -2.220   0.138   0.000  0.00  0.00    +0.000 C 
ENDBRANCH  10  11
ENDBRANCH   9  10
ENDBRANCH   1   9
TORSDOF 5
