REMARK  Name = CXZ
REMARK  5 active torsions:
REMARK  status: ('A' for Active; 'I' for Inactive)
REMARK    1  A    between atoms: C_6  and  N_7
REMARK    2  A    between atoms: N_7  and  C_8
REMARK    3  A    between atoms: C_8  and  C_9
REMARK    4  A    between atoms: C_9  and  N_10
REMARK    5  A    between atoms: C_16  and  C_19
REMARK                            x       y       z     vdW  Elec       q    Type
REMARK                         _______ _______ _______ _____ _____    ______ ____
ROOT
ATOM      1  C   UNL     1      -1.018  -1.212   0.000  0.00  0.00    +0.000 A 
ATOM      2  C   UNL     1      -1.733  -1.625   0.000  0.00  0.00    +0.000 A 
ATOM      3  C   UNL     1      -2.447  -1.212   0.000  0.00  0.00    +0.000 A 
ATOM      4  C   UNL     1      -2.447  -0.388   0.000  0.00  0.00    +0.000 A 
ATOM      5  C   UNL     1      -1.733   0.025   0.000  0.00  0.00    +0.000 A 
ATOM      6  C   UNL     1      -1.018  -0.388   0.000  0.00  0.00    +0.000 A 
ATOM      7  C   UNL     1      -3.232  -0.133   0.000  0.00  0.00    +0.000 A 
ATOM      8  N   UNL     1      -3.717  -0.800   0.000  0.00  0.00    +0.000 NA
ATOM      9  O   UNL     1      -3.232  -1.467   0.000  0.00  0.00    +0.000 OA
ENDROOT
BRANCH   7  10
ATOM     10  C   UNL     1      -3.487   0.652   0.000  0.00  0.00    +0.000 A 
ATOM     11  C   UNL     1      -4.294   0.824   0.000  0.00  0.00    +0.000 A 
ATOM     12  C   UNL     1      -4.549   1.608   0.000  0.00  0.00    +0.000 A 
ATOM     13  C   UNL     1      -3.997   2.221   0.000  0.00  0.00    +0.000 A 
ATOM     14  C   UNL     1      -3.190   2.050   0.000  0.00  0.00    +0.000 A 
ATOM     15  C   UNL     1      -2.935   1.265   0.000  0.00  0.00    +0.000 A 
ATOM     16  O   UNL     1      -2.128   1.094   0.000  0.00  0.00    +0.000 OA
ATOM     17  O   UNL     1      -4.252   3.006   0.000  0.00  0.00    +0.000 OA
ATOM     18 CL   UNL     1      -5.356   1.780   0.000  0.00  0.00    +0.000 Cl
ENDBRANCH   7  10
BRANCH   6  19
ATOM     19  N   UNL     1      -0.304   0.025   0.000  0.00  0.00    +0.000 NA
BRANCH  19  20
ATOM     20  C   UNL     1       0.411  -0.388   0.000  0.00  0.00    +0.000 C 
BRANCH  20  21
ATOM     21  C   UNL     1       1.125   0.025   0.000  0.00  0.00    +0.000 C 
BRANCH  21  22
ATOM     22  N   UNL     1       1.840  -0.388   0.000  0.00  0.00    +0.000 NA
ATOM     23  C   UNL     1       2.554   0.025   0.000  0.00  0.00    +0.000 C 
ATOM     24  C   UNL     1       3.269  -0.388   0.000  0.00  0.00    +0.000 C 
ATOM     25  O   UNL     1       3.269  -1.212   0.000  0.00  0.00    +0.000 OA
ATOM     26  C   UNL     1       2.554  -1.625   0.000  0.00  0.00    +0.000 C 
ATOM     27  C   UNL     1       1.840  -1.212   0.000  0.00  0.00    +0.000 C 
ENDBRANCH  21  22
ENDBRANCH  20  21
ENDBRANCH  19  20
ENDBRANCH   6  19
TORSDOF 5
