REMARK  Name = CY0
REMARK  8 active torsions:
REMARK  status: ('A' for Active; 'I' for Inactive)
REMARK    1  A    between atoms: C_6  and  N_7
REMARK    2  A    between atoms: C_17  and  N_18
REMARK    3  A    between atoms: C_19  and  C_21
REMARK    4  A    between atoms: C_21  and  C_22
REMARK    5  A    between atoms: C_22  and  S_23
REMARK    6  A    between atoms: S_23  and  C_24
REMARK    7  A    between atoms: C_24  and  C_25
REMARK    8  A    between atoms: C_25  and  C_26
REMARK                            x       y       z     vdW  Elec       q    Type
REMARK                         _______ _______ _______ _____ _____    ______ ____
ROOT
ATOM      1  N   UNK     1      -1.502  -0.522   0.000  0.00  0.00    +0.000 NA
ATOM      2  C   UNK     1      -1.502  -1.347   0.000  0.00  0.00    +0.000 A 
ATOM      3  C   UNK     1      -0.788  -1.760   0.000  0.00  0.00    +0.000 A 
ATOM      4  C   UNK     1      -0.073  -1.347   0.000  0.00  0.00    +0.000 A 
ATOM      5  N   UNK     1      -2.217  -1.760   0.000  0.00  0.00    +0.000 NA
ATOM      6  C   UNK     1      -2.217  -2.585   0.000  0.00  0.00    +0.000 A 
ATOM      7  N   UNK     1      -1.502  -2.997   0.000  0.00  0.00    +0.000 NA
ATOM      8  C   UNK     1      -0.788  -2.585   0.000  0.00  0.00    +0.000 A 
ATOM      9  C   UNK     1      -0.073  -2.997   0.000  0.00  0.00    +0.000 A 
ATOM     10  C   UNK     1       0.641  -2.585   0.000  0.00  0.00    +0.000 A 
ATOM     11  C   UNK     1       0.641  -1.760   0.000  0.00  0.00    +0.000 A 
ENDROOT
BRANCH   1  17
ATOM     12  C   UNK     1      -2.931  -0.522   0.000  0.00  0.00    +0.000 A 
ATOM     13  C   UNK     1      -3.646  -0.110   0.000  0.00  0.00    +0.000 A 
ATOM     14  C   UNK     1      -3.646   0.715   0.000  0.00  0.00    +0.000 A 
ATOM     15  C   UNK     1      -2.931   1.128   0.000  0.00  0.00    +0.000 A 
ATOM     16  C   UNK     1      -2.217   0.715   0.000  0.00  0.00    +0.000 A 
ATOM     17  C   UNK     1      -2.217  -0.110   0.000  0.00  0.00    +0.000 A 
ENDBRANCH   1  17
BRANCH  11  18
ATOM     18  N   UNK     1       1.356  -1.347   0.000  0.00  0.00    +0.000 NA
ATOM     19  C   UNK     1       2.070  -1.760   0.000  0.00  0.00    +0.000 C 
ATOM     20  O   UNK     1       2.070  -2.585   0.000  0.00  0.00    +0.000 OA
BRANCH  19  21
ATOM     21  C   UNK     1       2.785  -1.347   0.000  0.00  0.00    +0.000 C 
BRANCH  21  22
ATOM     22  C   UNK     1       3.499  -1.760   0.000  0.00  0.00    +0.000 C 
BRANCH  22  23
ATOM     23  S   UNK     1       4.214  -1.347   0.000  0.00  0.00    +0.000 S 
BRANCH  23  24
ATOM     24  C   UNK     1       4.928  -1.760   0.000  0.00  0.00    +0.000 C 
BRANCH  24  25
ATOM     25  C   UNK     1       5.643  -1.347   0.000  0.00  0.00    +0.000 C 
ATOM     26  N   UNK     1       5.643  -0.522   0.000  0.00  0.00    +0.000 NA
BRANCH  25  27
ATOM     27  C   UNK     1       6.357  -1.760   0.000  0.00  0.00    +0.000 C 
ATOM     28  O   UNK     1       7.072  -1.347   0.000  0.00  0.00    +0.000 OA
ATOM     29  O   UNK     1       6.357  -2.585   0.000  0.00  0.00    +0.000 OA
ENDBRANCH  25  27
ENDBRANCH  24  25
ENDBRANCH  23  24
ENDBRANCH  22  23
ENDBRANCH  21  22
ENDBRANCH  19  21
ENDBRANCH  11  18
TORSDOF 8
