REMARK  Name = CYK
REMARK  8 active torsions:
REMARK  status: ('A' for Active; 'I' for Inactive)
REMARK    1  A    between atoms: C_1  and  CA_6
REMARK    2  A    between atoms: C_1  and  C_9
REMARK    3  A    between atoms: C_2  and  C_11
REMARK    4  A    between atoms: C_3  and  CA_6
REMARK    5  A    between atoms: N_5  and  CA_6
REMARK    6  A    between atoms: C_11  and  C_12
REMARK    7  A    between atoms: C_12  and  C_13
REMARK    8  A    between atoms: C_13  and  C_14
REMARK                            x       y       z     vdW  Elec       q    Type
REMARK                         _______ _______ _______ _____ _____    ______ ____
ROOT
ATOM      1  C   UNL     1      -0.681  -0.197   0.000  0.00  0.00    +0.000 C 
ATOM      2  O   UNL     1      -0.681  -1.022   0.000  0.00  0.00    +0.000 OA
ATOM      3  N   UNL     1      -1.395   0.215   0.000  0.00  0.00    +0.000 NA
ENDROOT
BRANCH   3   4
ATOM      4  CA  UNL     1      -2.110  -0.197   0.000  0.00  0.00    +0.000 C 
BRANCH   4   5
ATOM      5  C   UNL     1      -2.110  -1.022   0.000  0.00  0.00    +0.000 C 
ATOM      6  O   UNL     1      -2.824  -1.435   0.000  0.00  0.00    +0.000 OA
ATOM      7  OXT UNL     1      -1.395  -1.435   0.000  0.00  0.00    +0.000 OA
ENDBRANCH   4   5
BRANCH   4   8
ATOM      8  C   UNL     1      -2.824   0.215   0.000  0.00  0.00    +0.000 C 
BRANCH   8   9
ATOM      9  C   UNL     1      -3.539  -0.197   0.000  0.00  0.00    +0.000 C 
ATOM     10  S   UNL     1      -4.253   0.215   0.000  0.00  0.00    +0.000 S 
ENDBRANCH   8   9
ENDBRANCH   4   8
ENDBRANCH   3   4
BRANCH   1  11
ATOM     11  C   UNL     1       0.034   0.215   0.000  0.00  0.00    +0.000 C 
BRANCH  11  12
ATOM     12  C   UNL     1       0.748  -0.197   0.000  0.00  0.00    +0.000 C 
BRANCH  12  13
ATOM     13  C   UNL     1       1.462   0.215   0.000  0.00  0.00    +0.000 C 
BRANCH  13  14
ATOM     14  C   UNL     1       2.177  -0.197   0.000  0.00  0.00    +0.000 C 
ATOM     15  C   UNL     1       2.891   0.215   0.000  0.00  0.00    +0.000 C 
ENDBRANCH  13  14
ENDBRANCH  12  13
ENDBRANCH  11  12
ENDBRANCH   1  11
TORSDOF 8
