REMARK  Name = Cytidine monophosphate.mol
REMARK  4 active torsions:
REMARK  status: ('A' for Active; 'I' for Inactive)
REMARK    1  A    between atoms: C_1  and  C_2
REMARK    2  A    between atoms: C_1  and  O_19
REMARK    3  A    between atoms: C_7  and  N_9
REMARK    4  A    between atoms: P_17  and  O_19
REMARK                            x       y       z     vdW  Elec       q    Type
REMARK                         _______ _______ _______ _____ _____    ______ ____
ROOT
ATOM      1  C   UNL     1      -0.865  -0.309   0.000  0.00  0.00    +0.000 C 
ATOM      2  C   UNL     1      -0.779   0.511   0.000  0.00  0.00    +0.000 C 
ATOM      3  O   UNL     1      -1.392   1.063   0.000  0.00  0.00    +0.000 OA
ATOM      4  C   UNL     1       0.028   0.683   0.000  0.00  0.00    +0.000 C 
ATOM      5  O   UNL     1       0.364   1.436   0.000  0.00  0.00    +0.000 OA
ATOM      6  C   UNL     1       0.441  -0.032   0.000  0.00  0.00    +0.000 C 
ATOM      7  O   UNL     1      -0.111  -0.645   0.000  0.00  0.00    +0.000 OA
ENDROOT
BRANCH   6   8
ATOM      8  N   UNL     1       1.261  -0.118   0.000  0.00  0.00    +0.000 N 
ATOM      9  C   UNL     1       1.746   0.549   0.000  0.00  0.00    +0.000 A 
ATOM     10  O   UNL     1       1.411   1.303   0.000  0.00  0.00    +0.000 OA
ATOM     11  N   UNL     1       2.567   0.463   0.000  0.00  0.00    +0.000 NA
ATOM     12  C   UNL     1       2.902  -0.290   0.000  0.00  0.00    +0.000 A 
ATOM     13  N   UNL     1       3.723  -0.377   0.000  0.00  0.00    +0.000 NA
ATOM     14  C   UNL     1       2.417  -0.958   0.000  0.00  0.00    +0.000 A 
ATOM     15  C   UNL     1       1.597  -0.872   0.000  0.00  0.00    +0.000 A 
ENDBRANCH   6   8
BRANCH   1  16
ATOM     16  C   UNL     1      -1.579  -0.722   0.000  0.00  0.00    +0.000 C 
BRANCH  16  17
ATOM     17  O   UNL     1      -2.294  -0.309   0.000  0.00  0.00    +0.000 OA
BRANCH  17  18
ATOM     18  P   UNL     1      -3.008  -0.722   0.000  0.00  0.00    +0.000 P 
ATOM     19  O   UNL     1      -2.596  -1.436   0.000  0.00  0.00    +0.000 OA
ATOM     20  O   UNL     1      -3.723  -1.134   0.000  0.00  0.00    +0.000 OA
ATOM     21  O   UNL     1      -3.421  -0.007   0.000  0.00  0.00    +0.000 OA
ENDBRANCH  17  18
ENDBRANCH  16  17
ENDBRANCH   1  16
TORSDOF 4
