REMARK  Name = CZA
REMARK  1 active torsions:
REMARK  status: ('A' for Active; 'I' for Inactive)
REMARK    1  A    between atoms: C_3  and  C_4
REMARK                            x       y       z     vdW  Elec       q    Type
REMARK                         _______ _______ _______ _____ _____    ______ ____
ROOT
ATOM      1  O   UNL     1      -1.182  -0.757   0.000  0.00  0.00    +0.000 OA
ATOM      2  C   UNL     1      -1.437  -1.542   0.000  0.00  0.00    +0.000 C 
ATOM      3  C   UNL     1      -2.222  -1.796   0.000  0.00  0.00    +0.000 C 
ATOM      4  C   UNL     1      -0.952  -2.209   0.000  0.00  0.00    +0.000 C 
ATOM      5  C   UNL     1      -0.168  -2.464   0.000  0.00  0.00    +0.000 C 
ATOM      6  C   UNL     1       0.545  -2.051   0.000  0.00  0.00    +0.000 A 
ATOM      7  C   UNL     1       0.845  -1.194   0.000  0.00  0.00    +0.000 A 
ATOM      8  N   UNL     1       1.670  -1.194   0.000  0.00  0.00    +0.000 NA
ATOM      9  C   UNL     1       1.975  -2.051   0.000  0.00  0.00    +0.000 A 
ATOM     10  C   UNL     1       1.257  -2.464   0.000  0.00  0.00    +0.000 A 
ATOM     11  C   UNL     1       2.688  -2.464   0.000  0.00  0.00    +0.000 A 
ATOM     12  C   UNL     1       2.688  -3.289   0.000  0.00  0.00    +0.000 A 
ATOM     13  C   UNL     1       1.975  -3.701   0.000  0.00  0.00    +0.000 A 
ATOM     14  C   UNL     1       1.257  -3.289   0.000  0.00  0.00    +0.000 A 
ATOM     15  C   UNL     1       0.545  -3.701   0.000  0.00  0.00    +0.000 C 
ATOM     16  C   UNL     1      -0.168  -3.289   0.000  0.00  0.00    +0.000 C 
ATOM     17  C   UNL     1      -0.952  -3.544   0.000  0.00  0.00    +0.000 C 
ATOM     18  C   UNL     1      -0.617  -4.298   0.000  0.00  0.00    +0.000 C 
ATOM     19  C   UNL     1      -1.667  -3.956   0.000  0.00  0.00    +0.000 C 
ATOM     20  N   UNL     1      -1.437  -2.876   0.000  0.00  0.00    +0.000 N 
ATOM     21  C   UNL     1      -2.222  -2.621   0.000  0.00  0.00    +0.000 C 
ATOM     22  O   UNL     1      -2.889  -3.106   0.000  0.00  0.00    +0.000 OA
ENDROOT
BRANCH   3  23
ATOM     23  C   UNL     1      -2.889  -1.312   0.000  0.00  0.00    +0.000 C 
ATOM     24  O   UNL     1      -3.643  -1.647   0.000  0.00  0.00    +0.000 OA
ATOM     25  C   UNL     1      -2.803  -0.491   0.000  0.00  0.00    +0.000 C 
ENDBRANCH   3  23
TORSDOF 1
