REMARK  Name = D01
REMARK  3 active torsions:
REMARK  status: ('A' for Active; 'I' for Inactive)
REMARK    1  A    between atoms: C_10  and  S_11
REMARK    2  A    between atoms: S_11  and  N_14
REMARK    3  A    between atoms: C_18  and  C_20
REMARK                            x       y       z     vdW  Elec       q    Type
REMARK                         _______ _______ _______ _____ _____    ______ ____
ROOT
ATOM      1  N   UNL     1      -0.544   0.022   0.000  0.00  0.00    +0.000 NA
ATOM      2  C   UNL     1      -0.956   0.737   0.000  0.00  0.00    +0.000 C 
ATOM      3  C   UNL     1      -0.544   1.451   0.000  0.00  0.00    +0.000 C 
ATOM      4  N   UNL     1       0.281   1.451   0.000  0.00  0.00    +0.000 N 
ATOM      5  C   UNL     1       0.694   2.166   0.000  0.00  0.00    +0.000 C 
ATOM      6  O   UNL     1       0.281   2.880   0.000  0.00  0.00    +0.000 OA
ATOM      7  C   UNL     1       0.694   0.737   0.000  0.00  0.00    +0.000 C 
ATOM      8  C   UNL     1       0.281   0.022   0.000  0.00  0.00    +0.000 C 
ENDROOT
BRANCH   5   9
ATOM      9  C   UNL     1       1.519   2.166   0.000  0.00  0.00    +0.000 A 
ATOM     10  C   UNL     1       2.003   1.498   0.000  0.00  0.00    +0.000 A 
ATOM     11  C   UNL     1       2.788   1.753   0.000  0.00  0.00    +0.000 A 
ATOM     12  C   UNL     1       2.788   2.578   0.000  0.00  0.00    +0.000 A 
ATOM     13  S   UNL     1       2.003   2.833   0.000  0.00  0.00    +0.000 S 
ATOM     14  C   UNL     1       3.503   2.991   0.000  0.00  0.00    +0.000 A 
ATOM     15  C   UNL     1       4.217   2.578   0.000  0.00  0.00    +0.000 A 
ATOM     16  C   UNL     1       4.217   1.753   0.000  0.00  0.00    +0.000 A 
ATOM     17  N   UNL     1       3.503   1.341   0.000  0.00  0.00    +0.000 N 
ATOM     18  O   UNL     1       3.503   0.516   0.000  0.00  0.00    +0.000 OA
ENDBRANCH   5   9
BRANCH   1  19
ATOM     19  S   UNL     1      -0.956  -0.692   0.000  0.00  0.00    +0.000 S 
ATOM     20  O   UNL     1      -0.242  -1.105   0.000  0.00  0.00    +0.000 OA
ATOM     21  O   UNL     1      -1.671  -0.280   0.000  0.00  0.00    +0.000 OA
BRANCH  19  31
ATOM     22  N   UNL     1      -1.033  -2.160   0.000  0.00  0.00    +0.000 NA
ATOM     23  C   UNL     1      -1.647  -2.712   0.000  0.00  0.00    +0.000 A 
ATOM     24  C   UNL     1      -1.647  -3.537   0.000  0.00  0.00    +0.000 A 
ATOM     25  C   UNL     1      -2.361  -3.950   0.000  0.00  0.00    +0.000 A 
ATOM     26  C   UNL     1      -3.075  -3.537   0.000  0.00  0.00    +0.000 A 
ATOM     27 CL   UNL     1      -3.790  -3.950   0.000  0.00  0.00    +0.000 Cl
ATOM     28  C   UNL     1      -3.075  -2.712   0.000  0.00  0.00    +0.000 A 
ATOM     29  C   UNL     1      -2.361  -2.300   0.000  0.00  0.00    +0.000 A 
ATOM     30  C   UNL     1      -2.189  -1.493   0.000  0.00  0.00    +0.000 A 
ATOM     31  C   UNL     1      -1.369  -1.407   0.000  0.00  0.00    +0.000 A 
ENDBRANCH  19  31
ENDBRANCH   1  19
TORSDOF 3
