REMARK  Name = D05
REMARK  4 active torsions:
REMARK  status: ('A' for Active; 'I' for Inactive)
REMARK    1  A    between atoms: C_2  and  C_20
REMARK    2  A    between atoms: N_7  and  C_11
REMARK    3  A    between atoms: C_9  and  C_18
REMARK    4  A    between atoms: C_20  and  C_23
REMARK                            x       y       z     vdW  Elec       q    Type
REMARK                         _______ _______ _______ _____ _____    ______ ____
ROOT
ATOM      1  N   UNL     1       1.275   1.232   0.000  0.00  0.00    +0.000 NA
ATOM      2  C   UNL     1       1.275   0.407   0.000  0.00  0.00    +0.000 A 
ATOM      3  N   UNL     1       0.560  -0.006   0.000  0.00  0.00    +0.000 NA
ATOM      4  C   UNL     1      -0.154   0.407   0.000  0.00  0.00    +0.000 A 
ATOM      5  C   UNL     1      -0.154   1.232   0.000  0.00  0.00    +0.000 A 
ATOM      6  C   UNL     1       0.560   1.644   0.000  0.00  0.00    +0.000 A 
ATOM      7  N   UNL     1      -0.939   0.152   0.000  0.00  0.00    +0.000 N 
ATOM      8  N   UNL     1      -1.424   0.819   0.000  0.00  0.00    +0.000 NA
ATOM      9  C   UNL     1      -0.939   1.487   0.000  0.00  0.00    +0.000 A 
ATOM     10  O   UNL     1       0.560   2.469   0.000  0.00  0.00    +0.000 OA
ENDROOT
BRANCH   7  11
ATOM     11  C   UNL     1      -1.194  -0.633   0.000  0.00  0.00    +0.000 A 
ATOM     12  C   UNL     1      -0.642  -1.246   0.000  0.00  0.00    +0.000 A 
ATOM     13  C   UNL     1      -2.001  -0.804   0.000  0.00  0.00    +0.000 A 
ATOM     14  C   UNL     1      -0.897  -2.031   0.000  0.00  0.00    +0.000 A 
ATOM     15  C   UNL     1      -2.256  -1.589   0.000  0.00  0.00    +0.000 A 
ATOM     16  C   UNL     1      -1.704  -2.202   0.000  0.00  0.00    +0.000 A 
ATOM     17 CL   UNL     1      -1.959  -2.987   0.000  0.00  0.00    +0.000 Cl
ATOM     18 CL   UNL     1       0.165  -1.074   0.000  0.00  0.00    +0.000 Cl
ATOM     19 CL   UNL     1      -2.553  -0.191   0.000  0.00  0.00    +0.000 Cl
ENDBRANCH   7  11
BRANCH   9  20
ATOM     20  C   UNL     1      -1.194   2.271   0.000  0.00  0.00    +0.000 C 
ATOM     21  C   UNL     1      -2.001   2.443   0.000  0.00  0.00    +0.000 C 
ENDBRANCH   9  20
BRANCH   2  22
ATOM     22  C   UNL     1       1.989  -0.006   0.000  0.00  0.00    +0.000 C 
BRANCH  22  23
ATOM     23  C   UNL     1       1.989  -0.831   0.000  0.00  0.00    +0.000 A 
ATOM     24  C   UNL     1       2.704  -1.243   0.000  0.00  0.00    +0.000 A 
ATOM     25  C   UNL     1       2.704  -2.068   0.000  0.00  0.00    +0.000 A 
ATOM     26  C   UNL     1       1.989  -2.481   0.000  0.00  0.00    +0.000 A 
ATOM     27  C   UNL     1       1.275  -2.068   0.000  0.00  0.00    +0.000 A 
ATOM     28  C   UNL     1       1.275  -1.243   0.000  0.00  0.00    +0.000 A 
ATOM     29  O   UNL     1       3.418  -2.481   0.000  0.00  0.00    +0.000 OA
ATOM     30  O   UNL     1       1.989  -3.306   0.000  0.00  0.00    +0.000 OA
ENDBRANCH  22  23
ENDBRANCH   2  22
TORSDOF 4
