REMARK  Name = D13
REMARK  4 active torsions:
REMARK  status: ('A' for Active; 'I' for Inactive)
REMARK    1  A    between atoms: C_1  and  C_19
REMARK    2  A    between atoms: C_3  and  C_6
REMARK    3  A    between atoms: C_4  and  C_12
REMARK    4  A    between atoms: C_22  and  S_25
REMARK                            x       y       z     vdW  Elec       q    Type
REMARK                         _______ _______ _______ _____ _____    ______ ____
ROOT
ATOM      1  C   UNL     1      -0.145   0.275   0.000  0.00  0.00    +0.000 A 
ATOM      2  N   UNL     1       0.523  -0.210   0.000  0.00  0.00    +0.000 NA
ATOM      3  C   UNL     1       0.268  -0.995   0.000  0.00  0.00    +0.000 A 
ATOM      4  C   UNL     1      -0.557  -0.995   0.000  0.00  0.00    +0.000 A 
ATOM      5  N   UNL     1      -0.812  -0.210   0.000  0.00  0.00    +0.000 NA
ENDROOT
BRANCH   4   6
ATOM      6  C   UNL     1      -1.042  -1.662   0.000  0.00  0.00    +0.000 A 
ATOM      7  C   UNL     1      -0.707  -2.416   0.000  0.00  0.00    +0.000 A 
ATOM      8  C   UNL     1      -1.191  -3.083   0.000  0.00  0.00    +0.000 A 
ATOM      9  I   UNL     1      -0.856  -3.837   0.000  0.00  0.00    +0.000 I 
ATOM     10  C   UNL     1      -2.012  -2.997   0.000  0.00  0.00    +0.000 A 
ATOM     11  C   UNL     1      -2.347  -2.243   0.000  0.00  0.00    +0.000 A 
ATOM     12  C   UNL     1      -1.863  -1.576   0.000  0.00  0.00    +0.000 A 
ENDBRANCH   4   6
BRANCH   3  13
ATOM     13  C   UNL     1       0.753  -1.662   0.000  0.00  0.00    +0.000 A 
ATOM     14  C   UNL     1       1.573  -1.576   0.000  0.00  0.00    +0.000 A 
ATOM     15  C   UNL     1       2.058  -2.243   0.000  0.00  0.00    +0.000 A 
ATOM     16  N   UNL     1       1.723  -2.997   0.000  0.00  0.00    +0.000 NA
ATOM     17  C   UNL     1       0.902  -3.083   0.000  0.00  0.00    +0.000 A 
ATOM     18  C   UNL     1       0.417  -2.416   0.000  0.00  0.00    +0.000 A 
ENDBRANCH   3  13
BRANCH   1  19
ATOM     19  C   UNL     1      -0.145   1.100   0.000  0.00  0.00    +0.000 A 
ATOM     20  C   UNL     1      -0.859   1.512   0.000  0.00  0.00    +0.000 A 
ATOM     21  C   UNL     1      -0.859   2.337   0.000  0.00  0.00    +0.000 A 
ATOM     22  C   UNL     1      -0.145   2.750   0.000  0.00  0.00    +0.000 A 
ATOM     23  C   UNL     1       0.570   2.337   0.000  0.00  0.00    +0.000 A 
ATOM     24  C   UNL     1       0.570   1.512   0.000  0.00  0.00    +0.000 A 
BRANCH  22  25
ATOM     25  S   UNL     1      -0.145   3.575   0.000  0.00  0.00    +0.000 S 
ATOM     26  O   UNL     1      -0.859   3.987   0.000  0.00  0.00    +0.000 OA
ATOM     27  C   UNL     1       0.570   3.987   0.000  0.00  0.00    +0.000 C 
ENDBRANCH  22  25
ENDBRANCH   1  19
TORSDOF 4
