REMARK  Name = D15
REMARK  6 active torsions:
REMARK  status: ('A' for Active; 'I' for Inactive)
REMARK    1  A    between atoms: C_7  and  C_8
REMARK    2  A    between atoms: C_8  and  C_9
REMARK    3  A    between atoms: C_8  and  C_12
REMARK    4  A    between atoms: C_9  and  C_10
REMARK    5  A    between atoms: N_14  and  C_15
REMARK    6  A    between atoms: C_25  and  C_27
REMARK                            x       y       z     vdW  Elec       q    Type
REMARK                         _______ _______ _______ _____ _____    ______ ____
ROOT
ATOM      1  C   UNL     1      22.600  11.275   0.000  0.00  0.00    +0.000 A 
ATOM      2  C   UNL     1      23.013  11.990   0.000  0.00  0.00    +0.000 A 
ATOM      3  C   UNL     1      23.838  11.990   0.000  0.00  0.00    +0.000 A 
ATOM      4  C   UNL     1      23.013  10.561   0.000  0.00  0.00    +0.000 A 
ATOM      5  C   UNL     1      23.838  10.561   0.000  0.00  0.00    +0.000 A 
ATOM      6  C   UNL     1      24.250  11.275   0.000  0.00  0.00    +0.000 A 
ATOM      7  N   UNL     1      25.057  11.447   0.000  0.00  0.00    +0.000 NA
ATOM      8  N   UNL     1      25.143  12.268   0.000  0.00  0.00    +0.000 NA
ATOM      9  C   UNL     1      24.390  12.603   0.000  0.00  0.00    +0.000 A 
ATOM     10  N   UNL     1      24.218  13.410   0.000  0.00  0.00    +0.000 NA
ATOM     11  C   UNL     1      23.433  13.665   0.000  0.00  0.00    +0.000 C 
ATOM     12  O   UNL     1      22.820  13.113   0.000  0.00  0.00    +0.000 OA
ENDROOT
BRANCH  11  13
ATOM     13  C   UNL     1      23.262  14.472   0.000  0.00  0.00    +0.000 A 
ATOM     14  C   UNL     1      22.477  14.727   0.000  0.00  0.00    +0.000 A 
ATOM     15  C   UNL     1      22.306  15.534   0.000  0.00  0.00    +0.000 A 
ATOM     16  C   UNL     1      22.919  16.086   0.000  0.00  0.00    +0.000 A 
ATOM     17  C   UNL     1      23.703  15.831   0.000  0.00  0.00    +0.000 A 
ATOM     18  C   UNL     1      23.875  15.024   0.000  0.00  0.00    +0.000 A 
ENDBRANCH  11  13
BRANCH   1  21
ATOM     19  C   UNL     1      21.363  10.561   0.000  0.00  0.00    +0.000 C 
ATOM     20  O   UNL     1      21.775   9.847   0.000  0.00  0.00    +0.000 OA
ATOM     21  N   UNL     1      21.775  11.275   0.000  0.00  0.00    +0.000 NA
BRANCH  19  22
ATOM     22  C   UNL     1      20.538  10.561   0.000  0.00  0.00    +0.000 C 
BRANCH  22  29
ATOM     23  C   UNL     1      20.538   9.132   0.000  0.00  0.00    +0.000 A 
ATOM     24  C   UNL     1      20.125   8.418   0.000  0.00  0.00    +0.000 A 
ATOM     25 CL   UNL     1      20.538   7.703   0.000  0.00  0.00    +0.000 Cl
ATOM     26  C   UNL     1      19.300   8.418   0.000  0.00  0.00    +0.000 A 
ATOM     27  C   UNL     1      18.888   9.132   0.000  0.00  0.00    +0.000 A 
ATOM     28  C   UNL     1      19.300   9.847   0.000  0.00  0.00    +0.000 A 
ATOM     29  C   UNL     1      20.125   9.847   0.000  0.00  0.00    +0.000 A 
ENDBRANCH  22  29
BRANCH  22  30
ATOM     30  C   UNL     1      20.125  11.275   0.000  0.00  0.00    +0.000 C 
BRANCH  30  31
ATOM     31  C   UNL     1      19.300  11.275   0.000  0.00  0.00    +0.000 C 
ATOM     32  N   UNL     1      18.888  11.990   0.000  0.00  0.00    +0.000 NA
ENDBRANCH  30  31
ENDBRANCH  22  30
ENDBRANCH  19  22
ENDBRANCH   1  21
TORSDOF 6
