REMARK  Name = D1G
REMARK  3 active torsions:
REMARK  status: ('A' for Active; 'I' for Inactive)
REMARK    1  A    between atoms: C_1  and  C_7
REMARK    2  A    between atoms: C_10  and  C_12
REMARK    3  A    between atoms: C_12  and  N_13
REMARK                            x       y       z     vdW  Elec       q    Type
REMARK                         _______ _______ _______ _____ _____    ______ ____
ROOT
ATOM      1  C   UNL     1       0.389   0.484   0.000  0.00  0.00    +0.000 A 
ATOM      2  C   UNL     1       1.056  -0.001   0.000  0.00  0.00    +0.000 A 
ATOM      3  C   UNL     1       0.801  -0.785   0.000  0.00  0.00    +0.000 A 
ATOM      4  C   UNL     1      -0.024  -0.785   0.000  0.00  0.00    +0.000 A 
ATOM      5  O   UNL     1      -0.279  -0.001   0.000  0.00  0.00    +0.000 OA
ENDROOT
BRANCH   1   6
ATOM      6  C   UNL     1       0.389   1.309   0.000  0.00  0.00    +0.000 A 
ATOM      7  C   UNL     1      -0.326   1.722   0.000  0.00  0.00    +0.000 A 
ATOM      8  C   UNL     1      -0.326   2.547   0.000  0.00  0.00    +0.000 A 
ATOM      9  C   UNL     1       0.389   2.959   0.000  0.00  0.00    +0.000 A 
ATOM     10  N   UNL     1       1.103   2.547   0.000  0.00  0.00    +0.000 NA
ATOM     11  C   UNL     1       1.103   1.722   0.000  0.00  0.00    +0.000 A 
ENDBRANCH   1   6
BRANCH   4  12
ATOM     12  C   UNL     1      -0.509  -1.453   0.000  0.00  0.00    +0.000 C 
BRANCH  12  13
ATOM     13  N   UNL     1      -1.329  -1.366   0.000  0.00  0.00    +0.000 NA
ATOM     14  C   UNL     1      -1.814  -2.034   0.000  0.00  0.00    +0.000 C 
ATOM     15  C   UNL     1      -1.665  -0.613   0.000  0.00  0.00    +0.000 C 
ENDBRANCH  12  13
ENDBRANCH   4  12
TORSDOF 3
