REMARK  Name = D1L
REMARK  5 active torsions:
REMARK  status: ('A' for Active; 'I' for Inactive)
REMARK    1  A    between atoms: C_2  and  C_4
REMARK    2  A    between atoms: C_4  and  O_6
REMARK    3  A    between atoms: O_6  and  C_7
REMARK    4  A    between atoms: C_12  and  O_13
REMARK    5  A    between atoms: O_13  and  C_14
REMARK                            x       y       z     vdW  Elec       q    Type
REMARK                         _______ _______ _______ _____ _____    ______ ____
ROOT
ATOM      1  C   UNL     1       0.921   0.864   0.000  0.00  0.00    +0.000 A 
ATOM      2  C   UNL     1       1.636   0.452   0.000  0.00  0.00    +0.000 A 
ATOM      3  C   UNL     1       1.636  -0.373   0.000  0.00  0.00    +0.000 A 
ATOM      4  C   UNL     1       0.207   0.452   0.000  0.00  0.00    +0.000 A 
ATOM      5  C   UNL     1       0.207  -0.373   0.000  0.00  0.00    +0.000 A 
ATOM      6  C   UNL     1       0.921  -0.786   0.000  0.00  0.00    +0.000 A 
ENDROOT
BRANCH   1   7
ATOM      7  O   UNL     1       0.921   1.689   0.000  0.00  0.00    +0.000 OA
BRANCH   7   8
ATOM      8  C   UNL     1       0.207   2.102   0.000  0.00  0.00    +0.000 C 
ATOM      9  C   UNL     1      -0.507   1.689   0.000  0.00  0.00    +0.000 C 
BRANCH   8  11
ATOM     10  O   UNL     1      -0.507   3.339   0.000  0.00  0.00    +0.000 OA
ATOM     11  C   UNL     1       0.207   2.927   0.000  0.00  0.00    +0.000 C 
ATOM     12  O   UNL     1       0.921   3.339   0.000  0.00  0.00    +0.000 OA
ENDBRANCH   8  11
ENDBRANCH   7   8
ENDBRANCH   1   7
BRANCH   6  13
ATOM     13  O   UNL     1       0.921  -1.611   0.000  0.00  0.00    +0.000 OA
BRANCH  13  14
ATOM     14  C   UNL     1       0.207  -2.023   0.000  0.00  0.00    +0.000 A 
ATOM     15  C   UNL     1       0.207  -2.848   0.000  0.00  0.00    +0.000 A 
ATOM     16  C   UNL     1      -0.507  -3.261   0.000  0.00  0.00    +0.000 A 
ATOM     17  C   UNL     1      -1.222  -2.848   0.000  0.00  0.00    +0.000 A 
ATOM     18 CL   UNL     1      -1.936  -3.261   0.000  0.00  0.00    +0.000 Cl
ATOM     19  C   UNL     1      -1.222  -2.023   0.000  0.00  0.00    +0.000 A 
ATOM     20  C   UNL     1      -0.507  -1.611   0.000  0.00  0.00    +0.000 A 
ATOM     21 CL   UNL     1      -0.507  -0.786   0.000  0.00  0.00    +0.000 Cl
ENDBRANCH  13  14
ENDBRANCH   6  13
TORSDOF 5
