REMARK  Name = D23
REMARK  3 active torsions:
REMARK  status: ('A' for Active; 'I' for Inactive)
REMARK    1  A    between atoms: C_6  and  C_8
REMARK    2  A    between atoms: C_15  and  C_23
REMARK    3  A    between atoms: N_18  and  C_19
REMARK                            x       y       z     vdW  Elec       q    Type
REMARK                         _______ _______ _______ _____ _____    ______ ____
ROOT
ATOM      1  C   UNL     1      -1.403  -0.886   0.000  0.00  0.00    +0.000 A 
ATOM      2  C   UNL     1      -1.403  -1.712   0.000  0.00  0.00    +0.000 A 
ATOM      3  C   UNL     1      -0.688  -2.124   0.000  0.00  0.00    +0.000 A 
ATOM      4  C   UNL     1       0.026  -1.712   0.000  0.00  0.00    +0.000 A 
ATOM      5  C   UNL     1       0.026  -0.886   0.000  0.00  0.00    +0.000 A 
ATOM      6  C   UNL     1      -0.688  -0.474   0.000  0.00  0.00    +0.000 A 
ATOM      7  N   UNL     1       0.741  -2.124   0.000  0.00  0.00    +0.000 NA
ATOM      8  C   UNL     1       1.455  -1.712   0.000  0.00  0.00    +0.000 A 
ATOM      9  N   UNL     1       1.455  -0.886   0.000  0.00  0.00    +0.000 NA
ATOM     10  C   UNL     1       0.741  -0.474   0.000  0.00  0.00    +0.000 A 
ATOM     11  N   UNL     1       0.741   0.351   0.000  0.00  0.00    +0.000 NA
ENDROOT
BRANCH   1  17
ATOM     12  C   UNL     1      -2.832  -0.886   0.000  0.00  0.00    +0.000 A 
ATOM     13  C   UNL     1      -3.546  -0.474   0.000  0.00  0.00    +0.000 A 
ATOM     14  C   UNL     1      -3.546   0.351   0.000  0.00  0.00    +0.000 A 
ATOM     15  C   UNL     1      -2.832   0.763   0.000  0.00  0.00    +0.000 A 
ATOM     16  C   UNL     1      -2.117   0.351   0.000  0.00  0.00    +0.000 A 
ATOM     17  C   UNL     1      -2.117  -0.474   0.000  0.00  0.00    +0.000 A 
ATOM     18  N   UNL     1      -4.261  -0.886   0.000  0.00  0.00    +0.000 NA
ENDBRANCH   1  17
BRANCH  11  19
ATOM     19  C   UNL     1       1.455   0.763   0.000  0.00  0.00    +0.000 C 
ATOM     20  C   UNL     1       1.868   0.049   0.000  0.00  0.00    +0.000 C 
ATOM     21  C   UNL     1       1.043   1.478   0.000  0.00  0.00    +0.000 C 
ATOM     22  C   UNL     1       2.170   1.176   0.000  0.00  0.00    +0.000 C 
ENDBRANCH  11  19
BRANCH   8  23
ATOM     23  C   UNL     1       2.170  -2.124   0.000  0.00  0.00    +0.000 C 
ATOM     24  F   UNL     1       2.884  -2.537   0.000  0.00  0.00    +0.000 F 
ATOM     25  F   UNL     1       1.757  -2.838   0.000  0.00  0.00    +0.000 F 
ATOM     26  F   UNL     1       2.582  -1.409   0.000  0.00  0.00    +0.000 F 
ENDBRANCH   8  23
TORSDOF 3
