REMARK  Name = D25
REMARK  2 active torsions:
REMARK  status: ('A' for Active; 'I' for Inactive)
REMARK    1  A    between atoms: C_2  and  C_3
REMARK    2  A    between atoms: C_8  and  C_9
REMARK                            x       y       z     vdW  Elec       q    Type
REMARK                         _______ _______ _______ _____ _____    ______ ____
ROOT
ATOM      1  C   UNL     1     -17.450   6.545   0.000  0.00  0.00    +0.000 A 
ATOM      2  C   UNL     1     -17.195   7.330   0.000  0.00  0.00    +0.000 A 
ATOM      3  O   UNL     1     -16.783   6.060   0.000  0.00  0.00    +0.000 OA
ATOM      4  N   UNL     1     -16.115   6.545   0.000  0.00  0.00    +0.000 NA
ATOM      5  C   UNL     1     -16.370   7.330   0.000  0.00  0.00    +0.000 A 
ENDROOT
BRANCH   5   6
ATOM      6  C   UNL     1     -15.885   7.997   0.000  0.00  0.00    +0.000 A 
ATOM      7  C   UNL     1     -16.221   8.751   0.000  0.00  0.00    +0.000 A 
ATOM      8  C   UNL     1     -15.736   9.418   0.000  0.00  0.00    +0.000 A 
ATOM      9  C   UNL     1     -14.915   9.332   0.000  0.00  0.00    +0.000 A 
ATOM     10  C   UNL     1     -14.580   8.579   0.000  0.00  0.00    +0.000 A 
ATOM     11  C   UNL     1     -15.065   7.911   0.000  0.00  0.00    +0.000 A 
ENDBRANCH   5   6
BRANCH   1  13
ATOM     12  C   UNL     1     -18.902   6.775   0.000  0.00  0.00    +0.000 A 
ATOM     13  C   UNL     1     -18.235   6.290   0.000  0.00  0.00    +0.000 A 
ATOM     14  C   UNL     1     -19.570   6.290   0.000  0.00  0.00    +0.000 A 
ATOM     15  N   UNL     1     -18.490   5.506   0.000  0.00  0.00    +0.000 NA
ATOM     16  N   UNL     1     -19.315   5.506   0.000  0.00  0.00    +0.000 NA
ENDBRANCH   1  13
TORSDOF 2
