REMARK  Name = D27
REMARK  6 active torsions:
REMARK  status: ('A' for Active; 'I' for Inactive)
REMARK    1  A    between atoms: C_1  and  C_3
REMARK    2  A    between atoms: C_2  and  N_4
REMARK    3  A    between atoms: C_5  and  C_6
REMARK    4  A    between atoms: C_7  and  O_17
REMARK    5  A    between atoms: C_8  and  C_13
REMARK    6  A    between atoms: C_9  and  O_19
REMARK                            x       y       z     vdW  Elec       q    Type
REMARK                         _______ _______ _______ _____ _____    ______ ____
ROOT
ATOM      1  N   UNL     1      70.339   7.682   0.000  0.00  0.00    +0.000 NA
ATOM      2  C   UNL     1      69.624   7.269   0.000  0.00  0.00    +0.000 C 
ATOM      3  O   UNL     1      69.624   6.444   0.000  0.00  0.00    +0.000 OA
ENDROOT
BRANCH   1   5
ATOM      4  C   UNL     1      71.768   7.682   0.000  0.00  0.00    +0.000 A 
ATOM      5  C   UNL     1      71.053   7.269   0.000  0.00  0.00    +0.000 A 
ATOM      6  C   UNL     1      72.482   7.269   0.000  0.00  0.00    +0.000 A 
ATOM      7  C   UNL     1      71.053   6.444   0.000  0.00  0.00    +0.000 A 
ATOM      8  C   UNL     1      72.482   6.444   0.000  0.00  0.00    +0.000 A 
ATOM      9  C   UNL     1      71.768   6.032   0.000  0.00  0.00    +0.000 A 
BRANCH   4  10
ATOM     10  C   UNL     1      71.768   8.507   0.000  0.00  0.00    +0.000 C 
ATOM     11  O   UNL     1      71.053   8.919   0.000  0.00  0.00    +0.000 OA
ATOM     12  O   UNL     1      72.482   8.919   0.000  0.00  0.00    +0.000 OA
ENDBRANCH   4  10
ENDBRANCH   1   5
BRANCH   2  13
ATOM     13  C   UNL     1      68.910   7.682   0.000  0.00  0.00    +0.000 C 
ATOM     14  C   UNL     1      68.195   7.269   0.000  0.00  0.00    +0.000 C 
BRANCH  14  18
ATOM     15  C   UNL     1      66.052   7.682   0.000  0.00  0.00    +0.000 A 
ATOM     16  C   UNL     1      66.052   8.507   0.000  0.00  0.00    +0.000 A 
ATOM     17  C   UNL     1      66.766   7.269   0.000  0.00  0.00    +0.000 A 
ATOM     18  C   UNL     1      67.481   7.682   0.000  0.00  0.00    +0.000 A 
ATOM     19  C   UNL     1      66.766   8.919   0.000  0.00  0.00    +0.000 A 
ATOM     20  C   UNL     1      67.481   8.507   0.000  0.00  0.00    +0.000 A 
BRANCH  15  21
ATOM     21  O   UNL     1      65.338   7.269   0.000  0.00  0.00    +0.000 OA
ATOM     22  C   UNL     1      65.338   6.444   0.000  0.00  0.00    +0.000 C 
ENDBRANCH  15  21
BRANCH  16  23
ATOM     23  O   UNL     1      65.338   8.919   0.000  0.00  0.00    +0.000 OA
ATOM     24  C   UNL     1      64.623   8.507   0.000  0.00  0.00    +0.000 C 
ENDBRANCH  16  23
ENDBRANCH  14  18
ENDBRANCH   2  13
TORSDOF 6
