REMARK  Name = D28
REMARK  3 active torsions:
REMARK  status: ('A' for Active; 'I' for Inactive)
REMARK    1  A    between atoms: C_1  and  C_2
REMARK    2  A    between atoms: N_11  and  C_14
REMARK    3  A    between atoms: C_20  and  C_22
REMARK                            x       y       z     vdW  Elec       q    Type
REMARK                         _______ _______ _______ _____ _____    ______ ____
ROOT
ATOM      1  C   UNL     1       7.619   3.597   0.000  0.00  0.00    +0.000 A 
ATOM      2  N   UNL     1       8.287   3.112   0.000  0.00  0.00    +0.000 NA
ATOM      3  C   UNL     1       6.952   3.112   0.000  0.00  0.00    +0.000 A 
ATOM      4  C   UNL     1       8.032   2.327   0.000  0.00  0.00    +0.000 A 
ATOM      5  S   UNL     1       7.207   2.327   0.000  0.00  0.00    +0.000 S 
ATOM      6  N   UNL     1       8.517   1.660   0.000  0.00  0.00    +0.000 NA
ENDROOT
BRANCH   1   7
ATOM      7  C   UNL     1       7.619   4.422   0.000  0.00  0.00    +0.000 A 
ATOM      8  C   UNL     1       6.905   4.834   0.000  0.00  0.00    +0.000 A 
ATOM      9  C   UNL     1       8.334   4.834   0.000  0.00  0.00    +0.000 A 
ATOM     10  C   UNL     1       6.905   5.659   0.000  0.00  0.00    +0.000 A 
ATOM     11  C   UNL     1       8.334   5.659   0.000  0.00  0.00    +0.000 A 
ATOM     12  C   UNL     1       7.619   6.072   0.000  0.00  0.00    +0.000 A 
ATOM     13  C   UNL     1       6.191   6.072   0.000  0.00  0.00    +0.000 C 
ATOM     14  F   UNL     1       7.619   6.897   0.000  0.00  0.00    +0.000 F 
ENDBRANCH   1   7
BRANCH   6  15
ATOM     15  C   UNL     1       8.181   0.906   0.000  0.00  0.00    +0.000 A 
ATOM     16  C   UNL     1       8.666   0.238   0.000  0.00  0.00    +0.000 A 
ATOM     17  C   UNL     1       7.361   0.820   0.000  0.00  0.00    +0.000 A 
ATOM     18  C   UNL     1       8.331  -0.515   0.000  0.00  0.00    +0.000 A 
ATOM     19  C   UNL     1       7.025   0.066   0.000  0.00  0.00    +0.000 A 
ATOM     20  C   UNL     1       7.510  -0.601   0.000  0.00  0.00    +0.000 A 
ATOM     21  O   UNL     1       8.816  -1.183   0.000  0.00  0.00    +0.000 OA
BRANCH  20  22
ATOM     22  C   UNL     1       7.175  -1.355   0.000  0.00  0.00    +0.000 C 
ATOM     23  O   UNL     1       7.660  -2.023   0.000  0.00  0.00    +0.000 OA
ATOM     24  O   UNL     1       6.354  -1.441   0.000  0.00  0.00    +0.000 OA
ENDBRANCH  20  22
ENDBRANCH   6  15
TORSDOF 3
