REMARK  Name = D2G
REMARK  3 active torsions:
REMARK  status: ('A' for Active; 'I' for Inactive)
REMARK    1  A    between atoms: C_1  and  C_7
REMARK    2  A    between atoms: C_10  and  C_12
REMARK    3  A    between atoms: C_12  and  N_13
REMARK                            x       y       z     vdW  Elec       q    Type
REMARK                         _______ _______ _______ _____ _____    ______ ____
ROOT
ATOM      1  C   UNL     1       0.852   0.277   0.000  0.00  0.00    +0.000 A 
ATOM      2  C   UNL     1       1.520  -0.208   0.000  0.00  0.00    +0.000 A 
ATOM      3  C   UNL     1       1.265  -0.993   0.000  0.00  0.00    +0.000 A 
ATOM      4  C   UNL     1       0.440  -0.993   0.000  0.00  0.00    +0.000 A 
ATOM      5  O   UNL     1       0.185  -0.208   0.000  0.00  0.00    +0.000 OA
ENDROOT
BRANCH   1   6
ATOM      6  C   UNL     1       0.852   1.102   0.000  0.00  0.00    +0.000 A 
ATOM      7  C   UNL     1       0.138   1.514   0.000  0.00  0.00    +0.000 A 
ATOM      8  C   UNL     1       0.138   2.339   0.000  0.00  0.00    +0.000 A 
ATOM      9  C   UNL     1       0.852   2.752   0.000  0.00  0.00    +0.000 A 
ATOM     10  N   UNL     1       1.567   2.339   0.000  0.00  0.00    +0.000 NA
ATOM     11  C   UNL     1       1.567   1.514   0.000  0.00  0.00    +0.000 A 
ENDBRANCH   1   6
BRANCH   4  12
ATOM     12  C   UNL     1      -0.045  -1.660   0.000  0.00  0.00    +0.000 C 
BRANCH  12  13
ATOM     13  N   UNL     1      -0.866  -1.574   0.000  0.00  0.00    +0.000 NA
ATOM     14  C   UNL     1      -1.351  -2.241   0.000  0.00  0.00    +0.000 C 
ENDBRANCH  12  13
ENDBRANCH   4  12
TORSDOF 3
