REMARK  Name = D31
REMARK  5 active torsions:
REMARK  status: ('A' for Active; 'I' for Inactive)
REMARK    1  A    between atoms: C_2  and  C_3
REMARK    2  A    between atoms: N_6  and  C_9
REMARK    3  A    between atoms: C_9  and  C_10
REMARK    4  A    between atoms: N_11  and  C_12
REMARK    5  A    between atoms: C_22  and  C_23
REMARK                            x       y       z     vdW  Elec       q    Type
REMARK                         _______ _______ _______ _____ _____    ______ ____
ROOT
ATOM      1  C   UNL     1      -0.004  -1.254   0.000  0.00  0.00    +0.000 A 
ATOM      2  C   UNL     1       0.560  -1.856   0.000  0.00  0.00    +0.000 A 
ATOM      3  C   UNL     1       0.321  -2.645   0.000  0.00  0.00    +0.000 A 
ATOM      4  C   UNL     1      -0.483  -2.833   0.000  0.00  0.00    +0.000 A 
ATOM      5  C   UNL     1      -1.047  -2.231   0.000  0.00  0.00    +0.000 A 
ATOM      6  C   UNL     1      -0.807  -1.441   0.000  0.00  0.00    +0.000 A 
ATOM      7  C   UNL     1      -1.872  -2.247   0.000  0.00  0.00    +0.000 A 
ATOM      8  C   UNL     1      -2.142  -1.467   0.000  0.00  0.00    +0.000 A 
ATOM      9  C   UNL     1      -1.484  -0.969   0.000  0.00  0.00    +0.000 C 
ATOM     10  N   UNL     1      -3.206  -2.273   0.000  0.00  0.00    +0.000 NA
ATOM     11  C   UNL     1      -2.967  -1.484   0.000  0.00  0.00    +0.000 A 
ATOM     12  O   UNL     1      -1.500  -0.145   0.000  0.00  0.00    +0.000 OA
ATOM     13  N   UNL     1      -2.529  -2.745   0.000  0.00  0.00    +0.000 NA
ENDROOT
BRANCH  11  14
ATOM     14  C   UNL     1      -3.465  -0.826   0.000  0.00  0.00    +0.000 C 
ATOM     15  C   UNL     1      -4.284  -0.928   0.000  0.00  0.00    +0.000 C 
ATOM     16  C   UNL     1      -4.782  -0.271   0.000  0.00  0.00    +0.000 C 
ATOM     17  C   UNL     1      -4.461   0.490   0.000  0.00  0.00    +0.000 C 
ATOM     18  C   UNL     1      -3.642   0.592   0.000  0.00  0.00    +0.000 C 
ATOM     19  C   UNL     1      -3.144  -0.066   0.000  0.00  0.00    +0.000 C 
ENDBRANCH  11  14
BRANCH   1  21
ATOM     20  C   UNL     1       1.039  -0.277   0.000  0.00  0.00    +0.000 C 
ATOM     21  N   UNL     1       0.235  -0.464   0.000  0.00  0.00    +0.000 NA
ATOM     22  O   UNL     1       1.603  -0.879   0.000  0.00  0.00    +0.000 OA
BRANCH  20  23
ATOM     23  C   UNL     1       1.278   0.513   0.000  0.00  0.00    +0.000 C 
BRANCH  23  27
ATOM     24  C   UNL     1       3.689   1.075   0.000  0.00  0.00    +0.000 C 
ATOM     25  C   UNL     1       3.449   0.285   0.000  0.00  0.00    +0.000 C 
ATOM     26  C   UNL     1       2.646   0.098   0.000  0.00  0.00    +0.000 C 
ATOM     27  N   UNL     1       2.082   0.700   0.000  0.00  0.00    +0.000 NA
ATOM     28  C   UNL     1       2.321   1.490   0.000  0.00  0.00    +0.000 C 
ATOM     29  C   UNL     1       3.125   1.677   0.000  0.00  0.00    +0.000 C 
BRANCH  24  31
ATOM     30  N   UNL     1       4.731   2.052   0.000  0.00  0.00    +0.000 NA
ATOM     31  C   UNL     1       4.492   1.262   0.000  0.00  0.00    +0.000 C 
ENDBRANCH  24  31
ENDBRANCH  23  27
ENDBRANCH  20  23
ENDBRANCH   1  21
TORSDOF 5
