REMARK  Name = D3E
REMARK  6 active torsions:
REMARK  status: ('A' for Active; 'I' for Inactive)
REMARK    1  A    between atoms: C_2  and  C_5
REMARK    2  A    between atoms: C_5  and  C_8
REMARK    3  A    between atoms: C_11  and  C_14
REMARK    4  A    between atoms: N_16  and  C_17
REMARK    5  A    between atoms: N_16  and  C_20
REMARK    6  A    between atoms: C_23  and  C_26
REMARK                            x       y       z     vdW  Elec       q    Type
REMARK                         _______ _______ _______ _____ _____    ______ ____
ROOT
ATOM      1  C   UNL     1       0.337   0.467   0.000  0.00  0.00    +0.000 C 
ATOM      2  O   UNL     1       0.337   1.292   0.000  0.00  0.00    +0.000 OA
ATOM      3  N   UNL     1      -0.377   0.054   0.000  0.00  0.00    +0.000 N 
ENDROOT
BRANCH   3   4
ATOM      4  C   UNL     1      -1.092   0.467   0.000  0.00  0.00    +0.000 C 
ATOM      5  C   UNL     1      -1.806   0.054   0.000  0.00  0.00    +0.000 C 
ATOM      6  C   UNL     1      -2.521   0.467   0.000  0.00  0.00    +0.000 C 
ATOM      7  C   UNL     1      -2.521   1.292   0.000  0.00  0.00    +0.000 C 
ATOM      8  C   UNL     1      -1.806   1.704   0.000  0.00  0.00    +0.000 C 
ATOM      9  C   UNL     1      -1.092   1.292   0.000  0.00  0.00    +0.000 C 
BRANCH   7  10
ATOM     10  C   UNL     1      -3.235   1.704   0.000  0.00  0.00    +0.000 A 
ATOM     11  C   UNL     1      -3.950   1.292   0.000  0.00  0.00    +0.000 A 
ATOM     12  C   UNL     1      -4.664   1.704   0.000  0.00  0.00    +0.000 A 
ATOM     13  C   UNL     1      -4.664   2.529   0.000  0.00  0.00    +0.000 A 
ATOM     14  N   UNL     1      -3.950   2.942   0.000  0.00  0.00    +0.000 NA
ATOM     15  C   UNL     1      -3.235   2.529   0.000  0.00  0.00    +0.000 A 
ENDBRANCH   7  10
ENDBRANCH   3   4
BRANCH   1  19
ATOM     16  C   UNL     1       2.481  -0.771   0.000  0.00  0.00    +0.000 A 
ATOM     17  C   UNL     1       1.766  -1.183   0.000  0.00  0.00    +0.000 A 
ATOM     18  C   UNL     1       1.052  -0.771   0.000  0.00  0.00    +0.000 A 
ATOM     19  C   UNL     1       1.052   0.054   0.000  0.00  0.00    +0.000 A 
ATOM     20  C   UNL     1       1.766   0.467   0.000  0.00  0.00    +0.000 A 
ATOM     21  C   UNL     1       2.481   0.054   0.000  0.00  0.00    +0.000 A 
BRANCH  16  22
ATOM     22  C   UNL     1       3.195  -1.183   0.000  0.00  0.00    +0.000 C 
ATOM     23  C   UNL     1       3.608  -0.469   0.000  0.00  0.00    +0.000 C 
ATOM     24  O   UNL     1       2.783  -1.897   0.000  0.00  0.00    +0.000 OA
BRANCH  22  26
ATOM     25  F   UNL     1       4.624  -2.008   0.000  0.00  0.00    +0.000 F 
ATOM     26  C   UNL     1       3.910  -1.596   0.000  0.00  0.00    +0.000 C 
ATOM     27  F   UNL     1       4.322  -0.881   0.000  0.00  0.00    +0.000 F 
ATOM     28  F   UNL     1       3.497  -2.310   0.000  0.00  0.00    +0.000 F 
ENDBRANCH  22  26
ENDBRANCH  16  22
ENDBRANCH   1  19
BRANCH   3  29
ATOM     29  C   UNL     1      -0.377  -0.771   0.000  0.00  0.00    +0.000 C 
ATOM     30  C   UNL     1       0.035  -1.485   0.000  0.00  0.00    +0.000 C 
ATOM     31  C   UNL     1      -0.790  -1.485   0.000  0.00  0.00    +0.000 C 
ENDBRANCH   3  29
TORSDOF 6
