REMARK  Name = D3F
REMARK  5 active torsions:
REMARK  status: ('A' for Active; 'I' for Inactive)
REMARK    1  A    between atoms: C_4  and  S_8
REMARK    2  A    between atoms: S_8  and  C_11
REMARK    3  A    between atoms: C_12  and  N_24
REMARK    4  A    between atoms: C_14  and  C_20
REMARK    5  A    between atoms: C_16  and  N_17
REMARK                            x       y       z     vdW  Elec       q    Type
REMARK                         _______ _______ _______ _____ _____    ______ ____
ROOT
ATOM      1  C   UNL     1      -0.073  -0.684   0.000  0.00  0.00    +0.000 A 
ATOM      2  C   UNL     1       0.642  -1.096   0.000  0.00  0.00    +0.000 A 
ATOM      3  C   UNL     1       0.642  -1.921   0.000  0.00  0.00    +0.000 A 
ATOM      4  C   UNL     1      -0.073  -2.334   0.000  0.00  0.00    +0.000 A 
ATOM      5  C   UNL     1      -0.787  -1.921   0.000  0.00  0.00    +0.000 A 
ATOM      6  C   UNL     1      -0.787  -1.096   0.000  0.00  0.00    +0.000 A 
ENDROOT
BRANCH   4   7
ATOM      7  C   UNL     1      -0.073  -3.159   0.000  0.00  0.00    +0.000 C 
ATOM      8  F   UNL     1      -0.073  -3.984   0.000  0.00  0.00    +0.000 F 
ATOM      9  F   UNL     1       0.752  -3.159   0.000  0.00  0.00    +0.000 F 
ATOM     10  F   UNL     1      -0.898  -3.159   0.000  0.00  0.00    +0.000 F 
ENDBRANCH   4   7
BRANCH   1  11
ATOM     11  S   UNL     1      -0.073   0.141   0.000  0.00  0.00    +0.000 S 
ATOM     12  O   UNL     1       0.752   0.141   0.000  0.00  0.00    +0.000 OA
ATOM     13  O   UNL     1      -0.898   0.141   0.000  0.00  0.00    +0.000 OA
BRANCH  11  17
ATOM     14  C   UNL     1      -0.073   2.616   0.000  0.00  0.00    +0.000 A 
ATOM     15  C   UNL     1       0.642   2.204   0.000  0.00  0.00    +0.000 A 
ATOM     16  C   UNL     1       0.642   1.379   0.000  0.00  0.00    +0.000 A 
ATOM     17  C   UNL     1      -0.073   0.966   0.000  0.00  0.00    +0.000 A 
ATOM     18  C   UNL     1      -0.787   1.379   0.000  0.00  0.00    +0.000 A 
ATOM     19  C   UNL     1      -0.787   2.204   0.000  0.00  0.00    +0.000 A 
ATOM     20  C   UNL     1      -1.502   2.616   0.000  0.00  0.00    +0.000 C 
ATOM     21 CL   UNL     1       1.356   0.966   0.000  0.00  0.00    +0.000 Cl
ATOM     22 CL   UNL     1      -0.073   3.441   0.000  0.00  0.00    +0.000 Cl
ENDBRANCH  11  17
ENDBRANCH   1  11
BRANCH   6  23
ATOM     23  N   UNL     1      -1.502  -0.684   0.000  0.00  0.00    +0.000 N 
ATOM     24  O   UNL     1      -2.216  -1.096   0.000  0.00  0.00    +0.000 OA
ATOM     25  O   UNL     1      -1.502   0.141   0.000  0.00  0.00    +0.000 OA
ENDBRANCH   6  23
BRANCH   2  26
ATOM     26  N   UNL     1       1.356  -0.684   0.000  0.00  0.00    +0.000 N 
ATOM     27  O   UNL     1       2.071  -1.096   0.000  0.00  0.00    +0.000 OA
ATOM     28  O   UNL     1       1.356   0.141   0.000  0.00  0.00    +0.000 OA
ENDBRANCH   2  26
TORSDOF 5
