REMARK  Name = D3G
REMARK  2 active torsions:
REMARK  status: ('A' for Active; 'I' for Inactive)
REMARK    1  A    between atoms: C_6  and  C_7
REMARK    2  A    between atoms: C_10  and  C_12
REMARK                            x       y       z     vdW  Elec       q    Type
REMARK                         _______ _______ _______ _____ _____    ______ ____
ROOT
ATOM      1  C   UNL     1       0.024   0.065   0.000  0.00  0.00    +0.000 A 
ATOM      2  C   UNL     1       0.691  -0.420   0.000  0.00  0.00    +0.000 A 
ATOM      3  C   UNL     1       0.436  -1.204   0.000  0.00  0.00    +0.000 A 
ATOM      4  C   UNL     1      -0.389  -1.204   0.000  0.00  0.00    +0.000 A 
ATOM      5  O   UNL     1      -0.644  -0.420   0.000  0.00  0.00    +0.000 OA
ENDROOT
BRANCH   1  11
ATOM      6  C   UNL     1      -0.691   1.303   0.000  0.00  0.00    +0.000 A 
ATOM      7  C   UNL     1      -0.691   2.128   0.000  0.00  0.00    +0.000 A 
ATOM      8  C   UNL     1       0.024   2.540   0.000  0.00  0.00    +0.000 A 
ATOM      9  N   UNL     1       0.738   2.128   0.000  0.00  0.00    +0.000 NA
ATOM     10  C   UNL     1       0.738   1.303   0.000  0.00  0.00    +0.000 A 
ATOM     11  C   UNL     1       0.024   0.890   0.000  0.00  0.00    +0.000 A 
ENDBRANCH   1  11
BRANCH   4  12
ATOM     12  C   UNL     1      -0.874  -1.872   0.000  0.00  0.00    +0.000 C 
ATOM     13  N   UNL     1      -0.538  -2.626   0.000  0.00  0.00    +0.000 NA
ENDBRANCH   4  12
TORSDOF 2
