REMARK  Name = D42
REMARK  3 active torsions:
REMARK  status: ('A' for Active; 'I' for Inactive)
REMARK    1  A    between atoms: N_3  and  N_8
REMARK    2  A    between atoms: N_10  and  C_11
REMARK    3  A    between atoms: C_22  and  C_23
REMARK                            x       y       z     vdW  Elec       q    Type
REMARK                         _______ _______ _______ _____ _____    ______ ____
ROOT
ATOM      1  C   UNL     1       0.386  -0.716   0.000  0.00  0.00    +0.000 A 
ATOM      2  C   UNL     1       0.950  -1.318   0.000  0.00  0.00    +0.000 A 
ATOM      3  C   UNL     1       0.711  -2.107   0.000  0.00  0.00    +0.000 A 
ATOM      4  C   UNL     1      -0.093  -2.295   0.000  0.00  0.00    +0.000 A 
ATOM      5  C   UNL     1      -0.657  -1.692   0.000  0.00  0.00    +0.000 A 
ATOM      6  C   UNL     1      -0.417  -0.903   0.000  0.00  0.00    +0.000 A 
ATOM      7  C   UNL     1      -1.482  -1.709   0.000  0.00  0.00    +0.000 A 
ATOM      8  C   UNL     1      -1.752  -0.929   0.000  0.00  0.00    +0.000 A 
ATOM      9  C   UNL     1      -1.094  -0.431   0.000  0.00  0.00    +0.000 C 
ATOM     10  N   UNL     1      -2.139  -2.207   0.000  0.00  0.00    +0.000 NA
ATOM     11  N   UNL     1      -2.816  -1.735   0.000  0.00  0.00    +0.000 NA
ATOM     12  C   UNL     1      -2.577  -0.946   0.000  0.00  0.00    +0.000 A 
ATOM     13  O   UNL     1      -1.111   0.394   0.000  0.00  0.00    +0.000 OA
ENDROOT
BRANCH  12  14
ATOM     14  C   UNL     1      -3.075  -0.288   0.000  0.00  0.00    +0.000 A 
ATOM     15  S   UNL     1      -3.900  -0.304   0.000  0.00  0.00    +0.000 S 
ATOM     16  C   UNL     1      -4.170   0.475   0.000  0.00  0.00    +0.000 A 
ATOM     17  N   UNL     1      -3.512   0.973   0.000  0.00  0.00    +0.000 NA
ATOM     18  C   UNL     1      -2.836   0.502   0.000  0.00  0.00    +0.000 A 
ATOM     19  C   UNL     1      -2.056   0.772   0.000  0.00  0.00    +0.000 C 
ATOM     20  C   UNL     1      -4.960   0.715   0.000  0.00  0.00    +0.000 C 
ENDBRANCH  12  14
BRANCH   1  23
ATOM     21  N   UNL     1       1.668   1.051   0.000  0.00  0.00    +0.000 NA
ATOM     22  C   UNL     1       1.429   0.261   0.000  0.00  0.00    +0.000 C 
ATOM     23  N   UNL     1       0.625   0.074   0.000  0.00  0.00    +0.000 NA
ATOM     24  O   UNL     1       1.993  -0.341   0.000  0.00  0.00    +0.000 OA
BRANCH  21  27
ATOM     25  C   UNL     1       3.839   0.824   0.000  0.00  0.00    +0.000 C 
ATOM     26  C   UNL     1       3.036   0.636   0.000  0.00  0.00    +0.000 C 
ATOM     27  N   UNL     1       2.472   1.238   0.000  0.00  0.00    +0.000 NA
ATOM     28  C   UNL     1       2.711   2.028   0.000  0.00  0.00    +0.000 C 
ATOM     29  C   UNL     1       3.515   2.215   0.000  0.00  0.00    +0.000 C 
ATOM     30  N   UNL     1       4.079   1.613   0.000  0.00  0.00    +0.000 NA
ATOM     31  C   UNL     1       4.882   1.800   0.000  0.00  0.00    +0.000 C 
ENDBRANCH  21  27
ENDBRANCH   1  23
TORSDOF 3
