REMARK  Name = D4G
REMARK  3 active torsions:
REMARK  status: ('A' for Active; 'I' for Inactive)
REMARK    1  A    between atoms: C_6  and  S_7
REMARK    2  A    between atoms: S_7  and  S_8
REMARK    3  A    between atoms: S_8  and  C_9
REMARK                            x       y       z     vdW  Elec       q    Type
REMARK                         _______ _______ _______ _____ _____    ______ ____
ROOT
ATOM      1  S   UNL     1       0.357   0.447   0.000  0.00  0.00    +0.000 S 
ENDROOT
BRANCH   1   7
ATOM      2  C   UNL     1       1.786   0.447   0.000  0.00  0.00    +0.000 A 
ATOM      3  C   UNL     1       2.501   0.035   0.000  0.00  0.00    +0.000 A 
ATOM      4  N   UNL     1       2.501  -0.790   0.000  0.00  0.00    +0.000 NA
ATOM      5  C   UNL     1       1.786  -1.203   0.000  0.00  0.00    +0.000 A 
ATOM      6  C   UNL     1       1.072  -0.790   0.000  0.00  0.00    +0.000 A 
ATOM      7  C   UNL     1       1.072   0.035   0.000  0.00  0.00    +0.000 A 
ENDBRANCH   1   7
BRANCH   1   8
ATOM      8  S   UNL     1      -0.357   0.035   0.000  0.00  0.00    +0.000 S 
BRANCH   8   9
ATOM      9  C   UNL     1      -1.072   0.447   0.000  0.00  0.00    +0.000 A 
ATOM     10  C   UNL     1      -1.786   0.035   0.000  0.00  0.00    +0.000 A 
ATOM     11  C   UNL     1      -2.501   0.447   0.000  0.00  0.00    +0.000 A 
ATOM     12  N   UNL     1      -2.501   1.272   0.000  0.00  0.00    +0.000 NA
ATOM     13  C   UNL     1      -1.786   1.685   0.000  0.00  0.00    +0.000 A 
ATOM     14  C   UNL     1      -1.072   1.272   0.000  0.00  0.00    +0.000 A 
ENDBRANCH   8   9
ENDBRANCH   1   8
TORSDOF 3
