REMARK  Name = D4M
REMARK  4 active torsions:
REMARK  status: ('A' for Active; 'I' for Inactive)
REMARK    1  A    between atoms: P_2  and  O_5
REMARK    2  A    between atoms: O_5  and  C_6
REMARK    3  A    between atoms: C_6  and  C_7
REMARK    4  A    between atoms: C_11  and  N_12
REMARK                            x       y       z     vdW  Elec       q    Type
REMARK                         _______ _______ _______ _____ _____    ______ ____
ROOT
ATOM      1  C   UNL     1      -0.374   0.925   0.000  0.00  0.00    +0.000 C 
ATOM      2  O   UNL     1       0.294   0.440   0.000  0.00  0.00    +0.000 OA
ATOM      3  C   UNL     1      -1.041   0.440   0.000  0.00  0.00    +0.000 C 
ATOM      4  C   UNL     1      -0.786  -0.344   0.000  0.00  0.00    +0.000 C 
ATOM      5  C   UNL     1       0.039  -0.344   0.000  0.00  0.00    +0.000 C 
ENDROOT
BRANCH   5   6
ATOM      6  N   UNL     1       0.524  -1.012   0.000  0.00  0.00    +0.000 N 
ATOM      7  C   UNL     1       1.344  -0.925   0.000  0.00  0.00    +0.000 A 
ATOM      8  C   UNL     1       1.829  -1.593   0.000  0.00  0.00    +0.000 A 
ATOM      9  C   UNL     1       2.650  -1.507   0.000  0.00  0.00    +0.000 C 
ATOM     10  C   UNL     1       1.494  -2.346   0.000  0.00  0.00    +0.000 A 
ATOM     11  O   UNL     1       1.979  -3.014   0.000  0.00  0.00    +0.000 OA
ATOM     12  N   UNL     1       0.673  -2.433   0.000  0.00  0.00    +0.000 NA
ATOM     13  C   UNL     1       0.188  -1.765   0.000  0.00  0.00    +0.000 A 
ATOM     14  O   UNL     1      -0.632  -1.852   0.000  0.00  0.00    +0.000 OA
ENDBRANCH   5   6
BRANCH   1  15
ATOM     15  C   UNL     1      -0.374   1.750   0.000  0.00  0.00    +0.000 C 
BRANCH  15  16
ATOM     16  O   UNL     1      -1.088   2.163   0.000  0.00  0.00    +0.000 OA
BRANCH  16  18
ATOM     17  O   UNL     1      -1.088   3.813   0.000  0.00  0.00    +0.000 OA
ATOM     18  P   UNL     1      -1.088   2.988   0.000  0.00  0.00    +0.000 P 
ATOM     19  O   UNL     1      -1.913   2.988   0.000  0.00  0.00    +0.000 OA
ATOM     20  O   UNL     1      -0.263   2.988   0.000  0.00  0.00    +0.000 OA
ENDBRANCH  16  18
ENDBRANCH  15  16
ENDBRANCH   1  15
TORSDOF 4
