REMARK  Name = D4N
REMARK  7 active torsions:
REMARK  status: ('A' for Active; 'I' for Inactive)
REMARK    1  A    between atoms: C_2  and  C_4
REMARK    2  A    between atoms: C_2  and  C_29
REMARK    3  A    between atoms: C_3  and  C_5
REMARK    4  A    between atoms: C_5  and  C_8
REMARK    5  A    between atoms: C_11  and  S_20
REMARK    6  A    between atoms: S_20  and  N_23
REMARK    7  A    between atoms: N_28  and  C_29
REMARK                            x       y       z     vdW  Elec       q    Type
REMARK                         _______ _______ _______ _____ _____    ______ ____
ROOT
ATOM      1  S   UNL     1      -0.208   0.497   0.000  0.00  0.00    +0.000 S 
ATOM      2  O   UNL     1       0.604   0.640   0.000  0.00  0.00    +0.000 OA
ATOM      3  O   UNL     1      -1.021   0.354   0.000  0.00  0.00    +0.000 OA
ENDROOT
BRANCH   1   5
ATOM      4  C   UNL     1      -0.697  -0.846   0.000  0.00  0.00    +0.000 C 
ATOM      5  N   UNL     1      -0.065  -0.316   0.000  0.00  0.00    +0.000 NA
ATOM      6  C   UNL     1       0.710  -0.598   0.000  0.00  0.00    +0.000 C 
ATOM      7  C   UNL     1       1.342  -0.067   0.000  0.00  0.00    +0.000 C 
ATOM      8  C   UNL     1       0.854  -1.410   0.000  0.00  0.00    +0.000 C 
ATOM      9  C   UNL     1      -0.554  -1.658   0.000  0.00  0.00    +0.000 C 
ATOM     10  N   UNL     1       0.221  -1.941   0.000  0.00  0.00    +0.000 NA
BRANCH  10  11
ATOM     11  C   UNL     1       0.365  -2.753   0.000  0.00  0.00    +0.000 C 
BRANCH  11  12
ATOM     12  C   UNL     1      -0.267  -3.284   0.000  0.00  0.00    +0.000 C 
ATOM     13  C   UNL     1       0.145  -3.998   0.000  0.00  0.00    +0.000 C 
ATOM     14  C   UNL     1      -0.680  -3.998   0.000  0.00  0.00    +0.000 C 
BRANCH  12  16
ATOM     15  O   UNL     1      -1.675  -3.035   0.000  0.00  0.00    +0.000 OA
ATOM     16  C   UNL     1      -0.899  -2.753   0.000  0.00  0.00    +0.000 C 
ATOM     17  N   UNL     1      -0.756  -1.941   0.000  0.00  0.00    +0.000 NA
ENDBRANCH  12  16
ENDBRANCH  11  12
ENDBRANCH  10  11
ENDBRANCH   1   5
BRANCH   1  21
ATOM     18  C   UNL     1      -0.638   2.934   0.000  0.00  0.00    +0.000 A 
ATOM     19  C   UNL     1       0.137   2.652   0.000  0.00  0.00    +0.000 A 
ATOM     20  C   UNL     1       0.280   1.840   0.000  0.00  0.00    +0.000 A 
ATOM     21  C   UNL     1      -0.352   1.310   0.000  0.00  0.00    +0.000 A 
ATOM     22  C   UNL     1      -1.127   1.592   0.000  0.00  0.00    +0.000 A 
ATOM     23  C   UNL     1      -1.270   2.404   0.000  0.00  0.00    +0.000 A 
BRANCH  18  24
ATOM     24  C   UNL     1      -0.781   3.747   0.000  0.00  0.00    +0.000 C 
ATOM     25  C   UNL     1      -1.594   3.604   0.000  0.00  0.00    +0.000 C 
ATOM     26  O   UNL     1       0.031   3.890   0.000  0.00  0.00    +0.000 OA
BRANCH  24  27
ATOM     27  C   UNL     1      -0.925   4.559   0.000  0.00  0.00    +0.000 C 
ATOM     28  F   UNL     1      -1.068   5.372   0.000  0.00  0.00    +0.000 F 
ATOM     29  F   UNL     1      -0.112   4.703   0.000  0.00  0.00    +0.000 F 
ATOM     30  F   UNL     1      -1.737   4.416   0.000  0.00  0.00    +0.000 F 
ENDBRANCH  24  27
ENDBRANCH  18  24
ENDBRANCH   1  21
TORSDOF 7
