REMARK  Name = D55
REMARK  9 active torsions:
REMARK  status: ('A' for Active; 'I' for Inactive)
REMARK    1  A    between atoms: C_1  and  O_26
REMARK    2  A    between atoms: C_3  and  O_24
REMARK    3  A    between atoms: C_7  and  O_24
REMARK    4  A    between atoms: C_9  and  N_10
REMARK    5  A    between atoms: C_11  and  C_13
REMARK    6  A    between atoms: C_17  and  O_18
REMARK    7  A    between atoms: O_18  and  C_19
REMARK    8  A    between atoms: C_19  and  C_20
REMARK    9  A    between atoms: O_26  and  C_27
REMARK                            x       y       z     vdW  Elec       q    Type
REMARK                         _______ _______ _______ _____ _____    ______ ____
ROOT
ATOM      1  N   UNL     1      13.881   5.013   0.000  0.00  0.00    +0.000 NA
ATOM      2  C   UNL     1      14.595   5.425   0.000  0.00  0.00    +0.000 C 
ATOM      3  O   UNL     1      14.595   6.250   0.000  0.00  0.00    +0.000 OA
ENDROOT
BRANCH   2   4
ATOM      4  C   UNL     1      15.310   5.013   0.000  0.00  0.00    +0.000 A 
ATOM      5  C   UNL     1      16.024   5.425   0.000  0.00  0.00    +0.000 A 
ATOM      6  C   UNL     1      16.739   5.013   0.000  0.00  0.00    +0.000 A 
ATOM      7  C   UNL     1      17.453   5.425   0.000  0.00  0.00    +0.000 C 
ATOM      8  C   UNL     1      16.739   4.188   0.000  0.00  0.00    +0.000 A 
ATOM      9  C   UNL     1      16.024   3.775   0.000  0.00  0.00    +0.000 A 
ATOM     10  C   UNL     1      16.024   2.950   0.000  0.00  0.00    +0.000 C 
ATOM     11  C   UNL     1      15.310   4.188   0.000  0.00  0.00    +0.000 A 
BRANCH   8  12
ATOM     12  O   UNL     1      17.453   3.775   0.000  0.00  0.00    +0.000 OA
BRANCH  12  13
ATOM     13  C   UNL     1      18.168   4.188   0.000  0.00  0.00    +0.000 C 
BRANCH  13  14
ATOM     14  C   UNL     1      18.882   3.775   0.000  0.00  0.00    +0.000 C 
ATOM     15  N   UNL     1      19.597   4.188   0.000  0.00  0.00    +0.000 NA
ENDBRANCH  13  14
ENDBRANCH  12  13
ENDBRANCH   8  12
ENDBRANCH   2   4
BRANCH   1  20
ATOM     16  C   UNL     1      12.452   6.663   0.000  0.00  0.00    +0.000 A 
ATOM     17  C   UNL     1      11.738   6.250   0.000  0.00  0.00    +0.000 A 
ATOM     18  C   UNL     1      11.738   5.425   0.000  0.00  0.00    +0.000 A 
ATOM     19  C   UNL     1      12.452   5.013   0.000  0.00  0.00    +0.000 A 
ATOM     20  C   UNL     1      13.166   5.425   0.000  0.00  0.00    +0.000 A 
ATOM     21  C   UNL     1      13.166   6.250   0.000  0.00  0.00    +0.000 A 
BRANCH  18  22
ATOM     22  O   UNL     1      11.023   5.013   0.000  0.00  0.00    +0.000 OA
BRANCH  22  23
ATOM     23  C   UNL     1      10.309   5.425   0.000  0.00  0.00    +0.000 C 
ATOM     24  C   UNL     1       9.594   5.013   0.000  0.00  0.00    +0.000 C 
ENDBRANCH  22  23
ENDBRANCH  18  22
BRANCH  21  25
ATOM     25  O   UNL     1      13.881   6.663   0.000  0.00  0.00    +0.000 OA
BRANCH  25  26
ATOM     26  C   UNL     1      13.881   7.488   0.000  0.00  0.00    +0.000 C 
ATOM     27  C   UNL     1      14.595   7.900   0.000  0.00  0.00    +0.000 C 
ENDBRANCH  25  26
ENDBRANCH  21  25
ENDBRANCH   1  20
TORSDOF 9
