REMARK  Name = D56
REMARK  8 active torsions:
REMARK  status: ('A' for Active; 'I' for Inactive)
REMARK    1  A    between atoms: N_1  and  C_7
REMARK    2  A    between atoms: C_11  and  O_30
REMARK    3  A    between atoms: C_12  and  N_13
REMARK    4  A    between atoms: C_14  and  C_16
REMARK    5  A    between atoms: C_21  and  O_22
REMARK    6  A    between atoms: O_22  and  C_23
REMARK    7  A    between atoms: C_23  and  C_24
REMARK    8  A    between atoms: O_30  and  C_31
REMARK                            x       y       z     vdW  Elec       q    Type
REMARK                         _______ _______ _______ _____ _____    ______ ____
ROOT
ATOM      1  C   UNL     1      11.910   5.842   0.000  0.00  0.00    +0.000 A 
ATOM      2  C   UNL     1      11.910   6.667   0.000  0.00  0.00    +0.000 A 
ATOM      3  C   UNL     1      12.624   7.080   0.000  0.00  0.00    +0.000 A 
ATOM      4 CL   UNL     1      12.624   7.904   0.000  0.00  0.00    +0.000 Cl
ATOM      5  C   UNL     1      13.339   6.667   0.000  0.00  0.00    +0.000 A 
ATOM      6  C   UNL     1      13.339   5.842   0.000  0.00  0.00    +0.000 A 
ATOM      7  C   UNL     1      12.624   5.429   0.000  0.00  0.00    +0.000 A 
ENDROOT
BRANCH   1   8
ATOM      8  N   UNL     1      11.195   5.429   0.000  0.00  0.00    +0.000 N 
ATOM      9  C   UNL     1      11.195   4.604   0.000  0.00  0.00    +0.000 C 
ATOM     10  C   UNL     1      10.481   4.192   0.000  0.00  0.00    +0.000 C 
ATOM     11  C   UNL     1       9.766   4.604   0.000  0.00  0.00    +0.000 C 
ATOM     12  C   UNL     1       9.766   5.429   0.000  0.00  0.00    +0.000 C 
ATOM     13  C   UNL     1      10.481   5.842   0.000  0.00  0.00    +0.000 C 
ENDBRANCH   1   8
BRANCH   6  14
ATOM     14  N   UNL     1      14.053   5.429   0.000  0.00  0.00    +0.000 NA
ATOM     15  C   UNL     1      14.768   5.842   0.000  0.00  0.00    +0.000 C 
ATOM     16  O   UNL     1      14.768   6.667   0.000  0.00  0.00    +0.000 OA
BRANCH  15  17
ATOM     17  C   UNL     1      15.482   5.429   0.000  0.00  0.00    +0.000 A 
ATOM     18  C   UNL     1      16.197   5.842   0.000  0.00  0.00    +0.000 A 
ATOM     19  C   UNL     1      16.911   5.429   0.000  0.00  0.00    +0.000 A 
ATOM     20  C   UNL     1      17.625   5.842   0.000  0.00  0.00    +0.000 C 
ATOM     21  C   UNL     1      16.911   4.604   0.000  0.00  0.00    +0.000 A 
ATOM     22  C   UNL     1      16.197   4.192   0.000  0.00  0.00    +0.000 A 
ATOM     23  C   UNL     1      16.197   3.367   0.000  0.00  0.00    +0.000 C 
ATOM     24  C   UNL     1      15.482   4.604   0.000  0.00  0.00    +0.000 A 
BRANCH  21  25
ATOM     25  O   UNL     1      17.625   4.192   0.000  0.00  0.00    +0.000 OA
BRANCH  25  26
ATOM     26  C   UNL     1      18.340   4.604   0.000  0.00  0.00    +0.000 C 
BRANCH  26  27
ATOM     27  C   UNL     1      19.054   4.192   0.000  0.00  0.00    +0.000 C 
ATOM     28  N   UNL     1      19.769   4.604   0.000  0.00  0.00    +0.000 NA
ENDBRANCH  26  27
ENDBRANCH  25  26
ENDBRANCH  21  25
ENDBRANCH  15  17
ENDBRANCH   6  14
BRANCH   5  29
ATOM     29  O   UNL     1      14.053   7.080   0.000  0.00  0.00    +0.000 OA
BRANCH  29  31
ATOM     30  C   UNL     1      14.768   8.317   0.000  0.00  0.00    +0.000 C 
ATOM     31  C   UNL     1      14.053   7.904   0.000  0.00  0.00    +0.000 C 
ENDBRANCH  29  31
ENDBRANCH   5  29
TORSDOF 8
