REMARK  Name = D5G
REMARK  8 active torsions:
REMARK  status: ('A' for Active; 'I' for Inactive)
REMARK    1  A    between atoms: C_6  and  N_7
REMARK    2  A    between atoms: N_7  and  C_8
REMARK    3  A    between atoms: C_8  and  N_10
REMARK    4  A    between atoms: N_10  and  C_11
REMARK    5  A    between atoms: C_11  and  C_12
REMARK    6  A    between atoms: C_11  and  C_16
REMARK    7  A    between atoms: C_12  and  C_13
REMARK    8  A    between atoms: N_18  and  C_19
REMARK                            x       y       z     vdW  Elec       q    Type
REMARK                         _______ _______ _______ _____ _____    ______ ____
ROOT
ATOM      1  C   UNL     1      -0.169   0.080   0.000  0.00  0.00    +0.000 C 
ENDROOT
BRANCH   1   2
ATOM      2  C   UNL     1       0.546   0.493   0.000  0.00  0.00    +0.000 C 
ATOM      3  O   UNL     1       0.546   1.318   0.000  0.00  0.00    +0.000 OA
ATOM      4  N   UNL     1       1.260   0.080   0.000  0.00  0.00    +0.000 NA
BRANCH   4   5
ATOM      5  C   UNL     1       1.975   0.493   0.000  0.00  0.00    +0.000 C 
ATOM      6  C   UNL     1       2.061   1.313   0.000  0.00  0.00    +0.000 C 
ATOM      7  O   UNL     1       2.868   1.485   0.000  0.00  0.00    +0.000 OA
ATOM      8  C   UNL     1       2.728   0.157   0.000  0.00  0.00    +0.000 C 
ATOM      9  C   UNL     1       3.281   0.770   0.000  0.00  0.00    +0.000 C 
ATOM     10  O   UNL     1       4.101   0.684   0.000  0.00  0.00    +0.000 OA
ENDBRANCH   4   5
ENDBRANCH   1   2
BRANCH   1  11
ATOM     11  C   UNL     1      -0.169  -0.745   0.000  0.00  0.00    +0.000 C 
BRANCH  11  12
ATOM     12  C   UNL     1       0.546  -1.157   0.000  0.00  0.00    +0.000 C 
ATOM     13  C   UNL     1       1.260  -0.745   0.000  0.00  0.00    +0.000 C 
ATOM     14  C   UNL     1       0.546  -1.982   0.000  0.00  0.00    +0.000 C 
ENDBRANCH  11  12
ENDBRANCH   1  11
BRANCH   1  15
ATOM     15  N   UNL     1      -0.883   0.493   0.000  0.00  0.00    +0.000 NA
BRANCH  15  16
ATOM     16  C   UNL     1      -1.597   0.080   0.000  0.00  0.00    +0.000 C 
ATOM     17  S   UNL     1      -1.597  -0.745   0.000  0.00  0.00    +0.000 S 
BRANCH  16  18
ATOM     18  N   UNL     1      -2.312   0.493   0.000  0.00  0.00    +0.000 NA
BRANCH  18  24
ATOM     19  C   UNL     1      -3.026  -0.745   0.000  0.00  0.00    +0.000 A 
ATOM     20  C   UNL     1      -3.741  -1.157   0.000  0.00  0.00    +0.000 A 
ATOM     21  C   UNL     1      -4.455  -0.745   0.000  0.00  0.00    +0.000 A 
ATOM     22  C   UNL     1      -4.455   0.080   0.000  0.00  0.00    +0.000 A 
ATOM     23  C   UNL     1      -3.741   0.493   0.000  0.00  0.00    +0.000 A 
ATOM     24  C   UNL     1      -3.026   0.080   0.000  0.00  0.00    +0.000 A 
ENDBRANCH  18  24
ENDBRANCH  16  18
ENDBRANCH  15  16
ENDBRANCH   1  15
TORSDOF 8
