REMARK  Name = D8G
REMARK  2 active torsions:
REMARK  status: ('A' for Active; 'I' for Inactive)
REMARK    1  A    between atoms: N_15  and  C_16
REMARK    2  A    between atoms: C_16  and  C_17
REMARK                            x       y       z     vdW  Elec       q    Type
REMARK                         _______ _______ _______ _____ _____    ______ ____
ROOT
ATOM      1  O   UNL     1      -0.475   1.369   0.000  0.00  0.00    +0.000 OA
ATOM      2  C   UNL     1      -0.235   0.580   0.000  0.00  0.00    +0.000 A 
ATOM      3  C   UNL     1       0.568   0.393   0.000  0.00  0.00    +0.000 A 
ATOM      4  N   UNL     1       1.245   0.864   0.000  0.00  0.00    +0.000 N 
ATOM      5  C   UNL     1       1.261   1.689   0.000  0.00  0.00    +0.000 C 
ATOM      6  C   UNL     1       1.903   0.366   0.000  0.00  0.00    +0.000 A 
ATOM      7  C   UNL     1       2.728   0.350   0.000  0.00  0.00    +0.000 A 
ATOM      8  C   UNL     1       2.967  -0.440   0.000  0.00  0.00    +0.000 A 
ATOM      9  C   UNL     1       3.746  -0.710   0.000  0.00  0.00    +0.000 C 
ATOM     10  S   UNL     1       2.290  -0.911   0.000  0.00  0.00    +0.000 S 
ATOM     11  C   UNL     1       1.632  -0.413   0.000  0.00  0.00    +0.000 A 
ATOM     12  C   UNL     1       0.807  -0.397   0.000  0.00  0.00    +0.000 A 
ATOM     13  C   UNL     1       0.243  -0.999   0.000  0.00  0.00    +0.000 A 
ATOM     14  N   UNL     1      -0.560  -0.812   0.000  0.00  0.00    +0.000 NA
ATOM     15  N   UNL     1      -0.799  -0.022   0.000  0.00  0.00    +0.000 N 
ENDROOT
BRANCH  15  16
ATOM     16  C   UNL     1      -1.603   0.165   0.000  0.00  0.00    +0.000 C 
BRANCH  16  17
ATOM     17  C   UNL     1      -2.167  -0.437   0.000  0.00  0.00    +0.000 A 
ATOM     18  C   UNL     1      -2.970  -0.249   0.000  0.00  0.00    +0.000 A 
ATOM     19  C   UNL     1      -3.534  -0.852   0.000  0.00  0.00    +0.000 A 
ATOM     20  C   UNL     1      -3.295  -1.641   0.000  0.00  0.00    +0.000 A 
ATOM     21  C   UNL     1      -2.491  -1.829   0.000  0.00  0.00    +0.000 A 
ATOM     22  C   UNL     1      -1.927  -1.226   0.000  0.00  0.00    +0.000 A 
ATOM     23  F   UNL     1      -1.124  -1.414   0.000  0.00  0.00    +0.000 F 
ENDBRANCH  16  17
ENDBRANCH  15  16
TORSDOF 2
