REMARK  Name = D8W
REMARK  3 active torsions:
REMARK  status: ('A' for Active; 'I' for Inactive)
REMARK    1  A    between atoms: C_6  and  S_7
REMARK    2  A    between atoms: S_7  and  N_10
REMARK    3  A    between atoms: C_15  and  S_16
REMARK                            x       y       z     vdW  Elec       q    Type
REMARK                         _______ _______ _______ _____ _____    ______ ____
ROOT
ATOM      1  N   UNL     1       0.385  -0.025   0.000  0.00  0.00    +0.000 NA
ATOM      2  C   UNL     1       0.385  -0.851   0.000  0.00  0.00    +0.000 A 
ATOM      3  S   UNL     1       1.052  -1.335   0.000  0.00  0.00    +0.000 S 
ATOM      4  N   UNL     1      -0.282  -1.335   0.000  0.00  0.00    +0.000 NA
ATOM      5  N   UNL     1      -0.028  -2.120   0.000  0.00  0.00    +0.000 NA
ATOM      6  C   UNL     1       0.797  -2.120   0.000  0.00  0.00    +0.000 A 
ENDROOT
BRANCH   6   7
ATOM      7  S   UNL     1       1.282  -2.787   0.000  0.00  0.00    +0.000 S 
ATOM      8  O   UNL     1       1.767  -3.455   0.000  0.00  0.00    +0.000 OA
ATOM      9  O   UNL     1       0.615  -3.272   0.000  0.00  0.00    +0.000 OA
ATOM     10  N   UNL     1       1.950  -2.303   0.000  0.00  0.00    +0.000 NA
ENDBRANCH   6   7
BRANCH   1  11
ATOM     11  S   UNL     1      -0.330   0.387   0.000  0.00  0.00    +0.000 S 
ATOM     12  O   UNL     1      -0.742  -0.327   0.000  0.00  0.00    +0.000 OA
ATOM     13  O   UNL     1       0.083   1.101   0.000  0.00  0.00    +0.000 OA
BRANCH  11  19
ATOM     14  C   UNL     1      -1.758   0.387   0.000  0.00  0.00    +0.000 A 
ATOM     15  C   UNL     1      -2.473   0.799   0.000  0.00  0.00    +0.000 A 
ATOM     16  C   UNL     1      -2.473   1.625   0.000  0.00  0.00    +0.000 A 
ATOM     17  C   UNL     1      -1.758   2.037   0.000  0.00  0.00    +0.000 A 
ATOM     18  C   UNL     1      -1.044   1.625   0.000  0.00  0.00    +0.000 A 
ATOM     19  C   UNL     1      -1.044   0.799   0.000  0.00  0.00    +0.000 A 
ENDBRANCH  11  19
ENDBRANCH   1  11
TORSDOF 3
