REMARK  Name = D92
REMARK  4 active torsions:
REMARK  status: ('A' for Active; 'I' for Inactive)
REMARK    1  A    between atoms: C_10  and  C_11
REMARK    2  A    between atoms: N_13  and  C_14
REMARK    3  A    between atoms: C_19  and  N_20
REMARK    4  A    between atoms: C_21  and  C_23
REMARK                            x       y       z     vdW  Elec       q    Type
REMARK                         _______ _______ _______ _____ _____    ______ ____
ROOT
ATOM      1  C   UNL     1      -1.350   0.659   0.000  0.00  0.00    +0.000 C 
ATOM      2  C   UNL     1      -2.175   0.659   0.000  0.00  0.00    +0.000 C 
ATOM      3  C   UNL     1      -2.587   1.373   0.000  0.00  0.00    +0.000 C 
ATOM      4  C   UNL     1      -2.175   2.088   0.000  0.00  0.00    +0.000 C 
ATOM      5  C   UNL     1      -1.350   2.088   0.000  0.00  0.00    +0.000 C 
ATOM      6  C   UNL     1      -0.937   1.373   0.000  0.00  0.00    +0.000 C 
ENDROOT
BRANCH   1   9
ATOM      7  C   UNL     1      -1.350  -0.770   0.000  0.00  0.00    +0.000 C 
ATOM      8  O   UNL     1      -2.175  -0.770   0.000  0.00  0.00    +0.000 OA
ATOM      9  N   UNL     1      -0.937  -0.056   0.000  0.00  0.00    +0.000 NA
BRANCH   7  19
ATOM     10 CL   UNL     1       0.055  -4.853   0.000  0.00  0.00    +0.000 Cl
ATOM     11  C   UNL     1       0.055  -4.028   0.000  0.00  0.00    +0.000 A 
ATOM     12  C   UNL     1       0.769  -3.615   0.000  0.00  0.00    +0.000 A 
ATOM     13  C   UNL     1       0.769  -2.790   0.000  0.00  0.00    +0.000 A 
ATOM     14  C   UNL     1       0.055  -2.378   0.000  0.00  0.00    +0.000 A 
ATOM     15  N   UNL     1      -0.117  -1.571   0.000  0.00  0.00    +0.000 NA
ATOM     16  C   UNL     1      -0.660  -3.615   0.000  0.00  0.00    +0.000 A 
ATOM     17  C   UNL     1      -0.660  -2.790   0.000  0.00  0.00    +0.000 A 
ATOM     18  C   UNL     1      -1.273  -2.238   0.000  0.00  0.00    +0.000 A 
ATOM     19  C   UNL     1      -0.937  -1.484   0.000  0.00  0.00    +0.000 A 
ENDBRANCH   7  19
ENDBRANCH   1   9
BRANCH   6  20
ATOM     20  N   UNL     1      -0.112   1.373   0.000  0.00  0.00    +0.000 NA
ATOM     21  C   UNL     1       0.300   2.088   0.000  0.00  0.00    +0.000 C 
ATOM     22  O   UNL     1      -0.112   2.802   0.000  0.00  0.00    +0.000 OA
BRANCH  21  23
ATOM     23  C   UNL     1       1.125   2.088   0.000  0.00  0.00    +0.000 A 
ATOM     24  S   UNL     1       1.610   2.755   0.000  0.00  0.00    +0.000 S 
ATOM     25  C   UNL     1       2.395   2.500   0.000  0.00  0.00    +0.000 A 
ATOM     26  C   UNL     1       3.109   2.913   0.000  0.00  0.00    +0.000 C 
ATOM     27  N   UNL     1       3.824   2.500   0.000  0.00  0.00    +0.000 NA
ATOM     28  C   UNL     1       4.538   2.913   0.000  0.00  0.00    +0.000 C 
ATOM     29  C   UNL     1       3.824   1.675   0.000  0.00  0.00    +0.000 C 
ATOM     30  C   UNL     1       3.109   1.263   0.000  0.00  0.00    +0.000 C 
ATOM     31  C   UNL     1       2.395   1.675   0.000  0.00  0.00    +0.000 A 
ATOM     32  N   UNL     1       1.610   1.420   0.000  0.00  0.00    +0.000 NA
ENDBRANCH  21  23
ENDBRANCH   6  20
TORSDOF 4
