REMARK  Name = D93
REMARK  4 active torsions:
REMARK  status: ('A' for Active; 'I' for Inactive)
REMARK    1  A    between atoms: C_10  and  C_11
REMARK    2  A    between atoms: N_13  and  C_14
REMARK    3  A    between atoms: C_19  and  N_20
REMARK    4  A    between atoms: C_21  and  C_23
REMARK                            x       y       z     vdW  Elec       q    Type
REMARK                         _______ _______ _______ _____ _____    ______ ____
ROOT
ATOM      1  C   UNL     1      -0.020  -0.033   0.000  0.00  0.00    +0.000 C 
ATOM      2  C   UNL     1      -0.845  -0.033   0.000  0.00  0.00    +0.000 C 
ATOM      3  C   UNL     1      -1.257  -0.748   0.000  0.00  0.00    +0.000 C 
ATOM      4  C   UNL     1      -0.845  -1.462   0.000  0.00  0.00    +0.000 C 
ATOM      5  C   UNL     1      -0.020  -1.462   0.000  0.00  0.00    +0.000 C 
ATOM      6  C   UNL     1       0.393  -0.748   0.000  0.00  0.00    +0.000 C 
ENDROOT
BRANCH   1   9
ATOM      7  C   UNL     1      -0.020   1.396   0.000  0.00  0.00    +0.000 C 
ATOM      8  O   UNL     1      -0.845   1.396   0.000  0.00  0.00    +0.000 OA
ATOM      9  N   UNL     1       0.393   0.681   0.000  0.00  0.00    +0.000 NA
BRANCH   7  19
ATOM     10 CL   UNL     1       2.814   4.654   0.000  0.00  0.00    +0.000 Cl
ATOM     11  C   UNL     1       2.099   4.241   0.000  0.00  0.00    +0.000 A 
ATOM     12  C   UNL     1       1.385   4.654   0.000  0.00  0.00    +0.000 A 
ATOM     13  C   UNL     1       0.670   4.241   0.000  0.00  0.00    +0.000 A 
ATOM     14  C   UNL     1       0.670   3.416   0.000  0.00  0.00    +0.000 A 
ATOM     15  N   UNL     1       0.057   2.864   0.000  0.00  0.00    +0.000 NA
ATOM     16  C   UNL     1       2.099   3.416   0.000  0.00  0.00    +0.000 A 
ATOM     17  C   UNL     1       1.385   3.004   0.000  0.00  0.00    +0.000 A 
ATOM     18  C   UNL     1       1.213   2.197   0.000  0.00  0.00    +0.000 A 
ATOM     19  C   UNL     1       0.393   2.110   0.000  0.00  0.00    +0.000 A 
ENDBRANCH   7  19
ENDBRANCH   1   9
BRANCH   6  20
ATOM     20  N   UNL     1       1.218  -0.748   0.000  0.00  0.00    +0.000 NA
ATOM     21  C   UNL     1       1.630  -0.033   0.000  0.00  0.00    +0.000 C 
ATOM     22  O   UNL     1       1.218   0.681   0.000  0.00  0.00    +0.000 OA
BRANCH  21  23
ATOM     23  C   UNL     1       2.455  -0.033   0.000  0.00  0.00    +0.000 A 
ATOM     24  S   UNL     1       2.940   0.634   0.000  0.00  0.00    +0.000 S 
ATOM     25  C   UNL     1       3.725   0.380   0.000  0.00  0.00    +0.000 A 
ATOM     26  C   UNL     1       4.439   0.792   0.000  0.00  0.00    +0.000 C 
ATOM     27  N   UNL     1       5.154   0.380   0.000  0.00  0.00    +0.000 NA
ATOM     28  C   UNL     1       5.868   0.792   0.000  0.00  0.00    +0.000 C 
ATOM     29  C   UNL     1       5.154  -0.446   0.000  0.00  0.00    +0.000 C 
ATOM     30  C   UNL     1       4.439  -0.858   0.000  0.00  0.00    +0.000 C 
ATOM     31  C   UNL     1       3.725  -0.446   0.000  0.00  0.00    +0.000 A 
ATOM     32  N   UNL     1       2.940  -0.700   0.000  0.00  0.00    +0.000 NA
ENDBRANCH  21  23
ENDBRANCH   6  20
TORSDOF 4
