REMARK  Name = D9Z
REMARK  2 active torsions:
REMARK  status: ('A' for Active; 'I' for Inactive)
REMARK    1  A    between atoms: S_2  and  C_5
REMARK    2  A    between atoms: C_9  and  C_10
REMARK                            x       y       z     vdW  Elec       q    Type
REMARK                         _______ _______ _______ _____ _____    ______ ____
ROOT
ATOM      1  C   UNL     1      -0.473   0.956   0.000  0.00  0.00    +0.000 A 
ATOM      2  S   UNL     1       0.195   0.471   0.000  0.00  0.00    +0.000 S 
ATOM      3  N   UNL     1      -1.140   0.471   0.000  0.00  0.00    +0.000 NA
ATOM      4  N   UNL     1      -0.885  -0.314   0.000  0.00  0.00    +0.000 NA
ATOM      5  C   UNL     1      -0.060  -0.314   0.000  0.00  0.00    +0.000 A 
ENDROOT
BRANCH   5   6
ATOM      6  C   UNL     1       0.425  -0.981   0.000  0.00  0.00    +0.000 A 
ATOM      7  C   UNL     1       1.245  -0.895   0.000  0.00  0.00    +0.000 A 
ATOM      8  C   UNL     1       0.089  -1.735   0.000  0.00  0.00    +0.000 A 
ATOM      9  C   UNL     1       0.574  -2.402   0.000  0.00  0.00    +0.000 A 
ATOM     10  C   UNL     1       1.395  -2.316   0.000  0.00  0.00    +0.000 A 
ATOM     11  C   UNL     1       1.730  -1.563   0.000  0.00  0.00    +0.000 A 
ATOM     12 CL   UNL     1      -0.731  -1.821   0.000  0.00  0.00    +0.000 Cl
ENDBRANCH   5   6
BRANCH   1  14
ATOM     13  O   UNL     1      -0.473   2.606   0.000  0.00  0.00    +0.000 OA
ATOM     14  S   UNL     1      -0.473   1.781   0.000  0.00  0.00    +0.000 S 
ATOM     15  O   UNL     1      -1.298   1.781   0.000  0.00  0.00    +0.000 OA
ATOM     16  N   UNL     1       0.352   1.781   0.000  0.00  0.00    +0.000 NA
ENDBRANCH   1  14
TORSDOF 2
