REMARK  Name = Daidzin
REMARK  4 active torsions:
REMARK  status: ('A' for Active; 'I' for Inactive)
REMARK    1  A    between atoms: C_2  and  C_3
REMARK    2  A    between atoms: C_5  and  O_6
REMARK    3  A    between atoms: O_6  and  C_7
REMARK    4  A    between atoms: C_15  and  C_18
REMARK                            x       y       z     vdW  Elec       q    Type
REMARK                         _______ _______ _______ _____ _____    ______ ____
ROOT
ATOM      1  C   UNL     1      -0.715   0.412   0.000  0.00  0.00    +0.000 A 
ATOM      2  C   UNL     1       0.000   0.825   0.000  0.00  0.00    +0.000 A 
ATOM      3  C   UNL     1       0.715   0.412   0.000  0.00  0.00    +0.000 A 
ATOM      4  C   UNL     1       0.715  -0.412   0.000  0.00  0.00    +0.000 A 
ATOM      5  C   UNL     1       0.000  -0.825   0.000  0.00  0.00    +0.000 A 
ATOM      6  C   UNL     1      -0.715  -0.412   0.000  0.00  0.00    +0.000 A 
ATOM      7  C   UNL     1       1.429  -0.825   0.000  0.00  0.00    +0.000 A 
ATOM      8  O   UNL     1       1.429  -1.650   0.000  0.00  0.00    +0.000 OA
ATOM      9  C   UNL     1       2.143  -0.412   0.000  0.00  0.00    +0.000 A 
ATOM     10  C   UNL     1       2.143   0.412   0.000  0.00  0.00    +0.000 A 
ATOM     11  O   UNL     1       1.429   0.825   0.000  0.00  0.00    +0.000 OA
ENDROOT
BRANCH   9  12
ATOM     12  C   UNL     1       2.858  -0.825   0.000  0.00  0.00    +0.000 A 
ATOM     13  C   UNL     1       2.858  -1.650   0.000  0.00  0.00    +0.000 A 
ATOM     14  C   UNL     1       3.572  -2.062   0.000  0.00  0.00    +0.000 A 
ATOM     15  C   UNL     1       4.287  -1.650   0.000  0.00  0.00    +0.000 A 
ATOM     16  O   UNL     1       5.001  -2.062   0.000  0.00  0.00    +0.000 OA
ATOM     17  C   UNL     1       4.287  -0.825   0.000  0.00  0.00    +0.000 A 
ATOM     18  C   UNL     1       3.572  -0.412   0.000  0.00  0.00    +0.000 A 
ENDBRANCH   9  12
BRANCH   1  19
ATOM     19  O   UNL     1      -1.429   0.825   0.000  0.00  0.00    +0.000 OA
BRANCH  19  22
ATOM     20  C   UNL     1      -2.858  -0.825   0.000  0.00  0.00    +0.000 C 
ATOM     21  O   UNL     1      -2.143  -0.412   0.000  0.00  0.00    +0.000 OA
ATOM     22  C   UNL     1      -2.143   0.412   0.000  0.00  0.00    +0.000 C 
ATOM     23  C   UNL     1      -2.858   0.825   0.000  0.00  0.00    +0.000 C 
ATOM     24  O   UNL     1      -2.858   1.650   0.000  0.00  0.00    +0.000 OA
ATOM     25  C   UNL     1      -3.572   0.412   0.000  0.00  0.00    +0.000 C 
ATOM     26  O   UNL     1      -4.287   0.825   0.000  0.00  0.00    +0.000 OA
ATOM     27  C   UNL     1      -3.572  -0.412   0.000  0.00  0.00    +0.000 C 
ATOM     28  O   UNL     1      -4.287  -0.825   0.000  0.00  0.00    +0.000 OA
BRANCH  20  30
ATOM     29  O   UNL     1      -3.572  -2.062   0.000  0.00  0.00    +0.000 OA
ATOM     30  C   UNL     1      -2.858  -1.650   0.000  0.00  0.00    +0.000 C 
ENDBRANCH  20  30
ENDBRANCH  19  22
ENDBRANCH   1  19
TORSDOF 4
