REMARK  Name = Daidzein
REMARK  1 active torsions:
REMARK  status: ('A' for Active; 'I' for Inactive)
REMARK    1  A    between atoms: C_5  and  C_8
REMARK                            x       y       z     vdW  Elec       q    Type
REMARK                         _______ _______ _______ _____ _____    ______ ____
ROOT
ATOM      1  C   UNL     1       0.038  -0.152   0.000  0.00  0.00    +0.000 A 
ATOM      2  C   UNL     1       0.038   0.673   0.000  0.00  0.00    +0.000 A 
ATOM      3  O   UNL     1      -0.677   1.085   0.000  0.00  0.00    +0.000 OA
ATOM      4  C   UNL     1      -1.391   0.673   0.000  0.00  0.00    +0.000 A 
ATOM      5  C   UNL     1      -1.391  -0.152   0.000  0.00  0.00    +0.000 A 
ATOM      6  C   UNL     1      -2.106  -0.565   0.000  0.00  0.00    +0.000 A 
ATOM      7  C   UNL     1      -2.820  -0.152   0.000  0.00  0.00    +0.000 A 
ATOM      8  C   UNL     1      -2.820   0.673   0.000  0.00  0.00    +0.000 A 
ATOM      9  O   UNL     1      -3.535   1.085   0.000  0.00  0.00    +0.000 OA
ATOM     10  C   UNL     1      -2.106   1.085   0.000  0.00  0.00    +0.000 A 
ATOM     11  C   UNL     1      -0.677  -0.565   0.000  0.00  0.00    +0.000 A 
ATOM     12  O   UNL     1      -0.677  -1.389   0.000  0.00  0.00    +0.000 OA
ENDROOT
BRANCH   1  17
ATOM     13  O   UNL     1       2.896  -1.802   0.000  0.00  0.00    +0.000 OA
ATOM     14  C   UNL     1       2.181  -1.389   0.000  0.00  0.00    +0.000 A 
ATOM     15  C   UNL     1       1.466  -1.802   0.000  0.00  0.00    +0.000 A 
ATOM     16  C   UNL     1       0.752  -1.389   0.000  0.00  0.00    +0.000 A 
ATOM     17  C   UNL     1       0.752  -0.565   0.000  0.00  0.00    +0.000 A 
ATOM     18  C   UNL     1       1.466  -0.152   0.000  0.00  0.00    +0.000 A 
ATOM     19  C   UNL     1       2.181  -0.565   0.000  0.00  0.00    +0.000 A 
ENDBRANCH   1  17
TORSDOF 1
