REMARK  Name = DBA
REMARK  3 active torsions:
REMARK  status: ('A' for Active; 'I' for Inactive)
REMARK    1  A    between atoms: C_1  and  C_2
REMARK    2  A    between atoms: C_2  and  O_13
REMARK    3  A    between atoms: C_3  and  O_13
REMARK                            x       y       z     vdW  Elec       q    Type
REMARK                         _______ _______ _______ _____ _____    ______ ____
ROOT
ATOM      1  C   UNL     1      -0.030  -0.183   0.000  0.00  0.00    +0.000 A 
ATOM      2  C   UNL     1      -0.030  -1.008   0.000  0.00  0.00    +0.000 A 
ATOM      3  C   UNL     1      -0.744  -1.420   0.000  0.00  0.00    +0.000 A 
ATOM      4  C   UNL     1      -1.459  -1.008   0.000  0.00  0.00    +0.000 A 
ATOM      5  C   UNL     1      -1.459  -0.183   0.000  0.00  0.00    +0.000 A 
ATOM      6  C   UNL     1      -0.744   0.230   0.000  0.00  0.00    +0.000 A 
ATOM      7  C   UNL     1       0.685  -1.420   0.000  0.00  0.00    +0.000 C 
ATOM      8  C   UNL     1      -0.744   1.055   0.000  0.00  0.00    +0.000 C 
ENDROOT
BRANCH   1   9
ATOM      9  O   UNL     1       0.685   0.230   0.000  0.00  0.00    +0.000 OA
BRANCH   9  10
ATOM     10  C   UNL     1       0.685   1.055   0.000  0.00  0.00    +0.000 C 
BRANCH  10  11
ATOM     11  C   UNL     1       1.399   1.467   0.000  0.00  0.00    +0.000 C 
ATOM     12  O   UNL     1       1.399   2.292   0.000  0.00  0.00    +0.000 OA
ATOM     13  O   UNL     1       2.114   1.055   0.000  0.00  0.00    +0.000 OA
ENDBRANCH  10  11
ENDBRANCH   9  10
ENDBRANCH   1   9
TORSDOF 3
