REMARK  Name = DBD
REMARK  6 active torsions:
REMARK  status: ('A' for Active; 'I' for Inactive)
REMARK    1  A    between atoms: C_2  and  C_19
REMARK    2  A    between atoms: C_8  and  N_13
REMARK    3  A    between atoms: C_9  and  C_10
REMARK    4  A    between atoms: C_14  and  C_15
REMARK    5  A    between atoms: C_19  and  O_20
REMARK    6  A    between atoms: O_20  and  C_21
REMARK                            x       y       z     vdW  Elec       q    Type
REMARK                         _______ _______ _______ _____ _____    ______ ____
ROOT
ATOM      1  O   UNL     1       0.039   0.559   0.000  0.00  0.00    +0.000 OA
ATOM      2  C   UNL     1      -0.216  -0.226   0.000  0.00  0.00    +0.000 C 
ATOM      3  C   UNL     1      -1.023  -0.397   0.000  0.00  0.00    +0.000 A 
ATOM      4  C   UNL     1      -1.575   0.216   0.000  0.00  0.00    +0.000 A 
ATOM      5  C   UNL     1      -1.320   1.001   0.000  0.00  0.00    +0.000 C 
ATOM      6  C   UNL     1      -0.513   1.172   0.000  0.00  0.00    +0.000 C 
ATOM      7  S   UNL     1      -1.435  -1.112   0.000  0.00  0.00    +0.000 S 
ATOM      8  C   UNL     1      -2.242  -0.940   0.000  0.00  0.00    +0.000 A 
ATOM      9  C   UNL     1      -2.328  -0.120   0.000  0.00  0.00    +0.000 A 
ENDROOT
BRANCH   8  10
ATOM     10  N   UNL     1      -2.855  -1.492   0.000  0.00  0.00    +0.000 NA
ATOM     11  C   UNL     1      -2.684  -2.299   0.000  0.00  0.00    +0.000 C 
ATOM     12  O   UNL     1      -1.899  -2.554   0.000  0.00  0.00    +0.000 OA
BRANCH  11  13
ATOM     13  C   UNL     1      -3.297  -2.851   0.000  0.00  0.00    +0.000 C 
ATOM     14  O   UNL     1      -4.081  -2.596   0.000  0.00  0.00    +0.000 OA
ATOM     15  O   UNL     1      -3.125  -3.658   0.000  0.00  0.00    +0.000 OA
ENDBRANCH  11  13
ENDBRANCH   8  10
BRANCH   9  16
ATOM     16  C   UNL     1      -3.043   0.293   0.000  0.00  0.00    +0.000 C 
ATOM     17  O   UNL     1      -3.757  -0.120   0.000  0.00  0.00    +0.000 OA
ATOM     18  O   UNL     1      -3.043   1.118   0.000  0.00  0.00    +0.000 OA
ENDBRANCH   9  16
BRANCH   2  19
ATOM     19  C   UNL     1       0.336  -0.839   0.000  0.00  0.00    +0.000 C 
BRANCH  19  20
ATOM     20  O   UNL     1       1.143  -0.667   0.000  0.00  0.00    +0.000 OA
BRANCH  20  21
ATOM     21  C   UNL     1       1.398   0.117   0.000  0.00  0.00    +0.000 C 
ATOM     22  C   UNL     1       2.183   0.372   0.000  0.00  0.00    +0.000 A 
ATOM     23  C   UNL     1       2.183   1.197   0.000  0.00  0.00    +0.000 A 
ATOM     24  S   UNL     1       1.398   1.452   0.000  0.00  0.00    +0.000 S 
ATOM     25  N   UNL     1       0.913   0.785   0.000  0.00  0.00    +0.000 NA
ATOM     26  C   UNL     1       2.897  -0.040   0.000  0.00  0.00    +0.000 A 
ATOM     27  C   UNL     1       3.612   0.372   0.000  0.00  0.00    +0.000 A 
ATOM     28  C   UNL     1       3.612   1.197   0.000  0.00  0.00    +0.000 A 
ATOM     29  C   UNL     1       2.897   1.610   0.000  0.00  0.00    +0.000 A 
ATOM     30  O   UNL     1       1.561   2.261   0.000  0.00  0.00    +0.000 OA
ATOM     31  O   UNL     1       0.791   2.011   0.000  0.00  0.00    +0.000 OA
ENDBRANCH  20  21
ENDBRANCH  19  20
ENDBRANCH   2  19
TORSDOF 6
