REMARK  Name = DBF
REMARK  2 active torsions:
REMARK  status: ('A' for Active; 'I' for Inactive)
REMARK    1  A    between atoms: C_2  and  C_15
REMARK    2  A    between atoms: C_8  and  C_18
REMARK                            x       y       z     vdW  Elec       q    Type
REMARK                         _______ _______ _______ _____ _____    ______ ____
ROOT
ATOM      1  C   UNL     1       1.856  -0.303   0.000  0.00  0.00    +0.000 A 
ATOM      2  C   UNL     1       1.304   0.310   0.000  0.00  0.00    +0.000 A 
ATOM      3  C   UNL     1       0.497   0.139   0.000  0.00  0.00    +0.000 A 
ATOM      4  C   UNL     1       0.242  -0.646   0.000  0.00  0.00    +0.000 A 
ATOM      5  C   UNL     1       0.794  -1.259   0.000  0.00  0.00    +0.000 A 
ATOM      6  C   UNL     1       1.601  -1.087   0.000  0.00  0.00    +0.000 A 
ATOM      7  O   UNL     1      -0.171   0.624   0.000  0.00  0.00    +0.000 OA
ATOM      8  C   UNL     1      -1.645   0.310   0.000  0.00  0.00    +0.000 A 
ATOM      9  C   UNL     1      -0.838   0.139   0.000  0.00  0.00    +0.000 A 
ATOM     10  C   UNL     1      -0.583  -0.646   0.000  0.00  0.00    +0.000 A 
ATOM     11  C   UNL     1      -1.135  -1.259   0.000  0.00  0.00    +0.000 A 
ATOM     12  C   UNL     1      -1.942  -1.087   0.000  0.00  0.00    +0.000 A 
ATOM     13  C   UNL     1      -2.197  -0.303   0.000  0.00  0.00    +0.000 A 
ENDROOT
BRANCH   2  15
ATOM     14  O   UNL     1       2.365   1.266   0.000  0.00  0.00    +0.000 OA
ATOM     15  C   UNL     1       1.558   1.095   0.000  0.00  0.00    +0.000 C 
ATOM     16  O   UNL     1       1.006   1.708   0.000  0.00  0.00    +0.000 OA
ENDBRANCH   2  15
BRANCH   8  18
ATOM     17  O   UNL     1      -2.707   1.266   0.000  0.00  0.00    +0.000 OA
ATOM     18  C   UNL     1      -1.900   1.095   0.000  0.00  0.00    +0.000 C 
ATOM     19  O   UNL     1      -1.348   1.708   0.000  0.00  0.00    +0.000 OA
ENDBRANCH   8  18
TORSDOF 2
