REMARK  Name = DBS
REMARK  4 active torsions:
REMARK  status: ('A' for Active; 'I' for Inactive)
REMARK    1  A    between atoms: C_6  and  C_9
REMARK    2  A    between atoms: N_11  and  CA_12
REMARK    3  A    between atoms: CA_12  and  CB_13
REMARK    4  A    between atoms: CA_12  and  C_15
REMARK                            x       y       z     vdW  Elec       q    Type
REMARK                         _______ _______ _______ _____ _____    ______ ____
ROOT
ATOM      1  C   UNK A   0       0.271   0.428   0.000  0.00  0.00    +0.000 C 
ATOM      2  O   UNK A   0       0.986   0.840   0.000  0.00  0.00    +0.000 OA
ATOM      3  N   SER A   1       0.271  -0.397   0.000  0.00  0.00    +0.000 NA
ENDROOT
BRANCH   1   9
ATOM      4  O   UNK A   0      -2.587   0.428   0.000  0.00  0.00    +0.000 OA
ATOM      5  C   UNK A   0      -1.872   0.840   0.000  0.00  0.00    +0.000 A 
ATOM      6  C   UNK A   0      -1.872   1.665   0.000  0.00  0.00    +0.000 A 
ATOM      7  C   UNK A   0      -1.158   0.428   0.000  0.00  0.00    +0.000 A 
ATOM      8  O   UNK A   0      -1.158  -0.397   0.000  0.00  0.00    +0.000 OA
ATOM      9  C   UNK A   0      -0.443   0.840   0.000  0.00  0.00    +0.000 A 
ATOM     10  C   UNK A   0      -0.443   1.665   0.000  0.00  0.00    +0.000 A 
ATOM     11  C   UNK A   0      -1.158   2.078   0.000  0.00  0.00    +0.000 A 
ENDBRANCH   1   9
BRANCH   3  12
ATOM     12  CA  SER A   1       0.986  -0.810   0.000  0.00  0.00    +0.000 C 
BRANCH  12  13
ATOM     13  C   SER A   1       1.700  -0.397   0.000  0.00  0.00    +0.000 C 
ATOM     14  O   SER A   1       1.700   0.428   0.000  0.00  0.00    +0.000 OA
ATOM     15  OXT SER A   1       2.414  -0.810   0.000  0.00  0.00    +0.000 OA
ENDBRANCH  12  13
BRANCH  12  16
ATOM     16  CB  SER A   1       0.986  -1.635   0.000  0.00  0.00    +0.000 C 
ATOM     17  OG  SER A   1       1.700  -2.047   0.000  0.00  0.00    +0.000 OA
ENDBRANCH  12  16
ENDBRANCH   3  12
TORSDOF 4
