REMARK  Name = DC8
REMARK  1 active torsions:
REMARK  status: ('A' for Active; 'I' for Inactive)
REMARK    1  A    between atoms: C_2  and  C_20
REMARK                            x       y       z     vdW  Elec       q    Type
REMARK                         _______ _______ _______ _____ _____    ______ ____
ROOT
ATOM      1  C   UNL     1      -1.222   0.161   0.000  0.00  0.00    +0.000 A 
ATOM      2  C   UNL     1       0.037  -0.515   0.000  0.00  0.00    +0.000 C 
ATOM      3  C   UNL     1       0.427   0.212   0.000  0.00  0.00    +0.000 C 
ATOM      4  C   UNL     1       1.228   0.409   0.000  0.00  0.00    +0.000 C 
ATOM      5  C   UNL     1      -0.007   0.913   0.000  0.00  0.00    +0.000 C 
ATOM      6  C   UNL     1      -0.832   0.888   0.000  0.00  0.00    +0.000 A 
ATOM      7  C   UNL     1      -2.091   1.563   0.000  0.00  0.00    +0.000 A 
ATOM      8  C   UNL     1      -2.481   0.836   0.000  0.00  0.00    +0.000 A 
ATOM      9  C   UNL     1      -2.046   0.135   0.000  0.00  0.00    +0.000 A 
ATOM     10  O   UNL     1      -0.787  -0.540   0.000  0.00  0.00    +0.000 OA
ATOM     11  C   UNL     1       1.289   1.232   0.000  0.00  0.00    +0.000 C 
ATOM     12  F   UNL     1       1.687   1.954   0.000  0.00  0.00    +0.000 F 
ATOM     13  F   UNL     1       2.113   1.266   0.000  0.00  0.00    +0.000 F 
ATOM     14  C   UNL     1       0.525   1.544   0.000  0.00  0.00    +0.000 C 
ATOM     15  C   UNL     1      -1.266   1.589   0.000  0.00  0.00    +0.000 A 
ATOM     16  O   UNL     1      -2.526   2.264   0.000  0.00  0.00    +0.000 OA
ENDROOT
BRANCH   2  21
ATOM     17  C   UNL     1       0.082  -1.943   0.000  0.00  0.00    +0.000 A 
ATOM     18  C   UNL     1       0.516  -2.644   0.000  0.00  0.00    +0.000 A 
ATOM     19  C   UNL     1       1.341  -2.619   0.000  0.00  0.00    +0.000 A 
ATOM     20  C   UNL     1       1.731  -1.891   0.000  0.00  0.00    +0.000 A 
ATOM     21  C   UNL     1       0.472  -1.216   0.000  0.00  0.00    +0.000 A 
ATOM     22  O   UNL     1       1.776  -3.320   0.000  0.00  0.00    +0.000 OA
ATOM     23  C   UNL     1       1.296  -1.190   0.000  0.00  0.00    +0.000 A 
ENDBRANCH   2  21
TORSDOF 1
