REMARK  Name = DCN
REMARK  2 active torsions:
REMARK  status: ('A' for Active; 'I' for Inactive)
REMARK    1  A    between atoms: C_4  and  O_13
REMARK    2  A    between atoms: C_10  and  O_13
REMARK                            x       y       z     vdW  Elec       q    Type
REMARK                         _______ _______ _______ _____ _____    ______ ____
ROOT
ATOM      1  C   UNL     1       0.880   1.956   0.000  0.00  0.00    +0.000 A 
ATOM      2  C   UNL     1       1.594   1.543   0.000  0.00  0.00    +0.000 A 
ATOM      3  C   UNL     1       0.166   1.543   0.000  0.00  0.00    +0.000 A 
ATOM      4  C   UNL     1       0.166   0.718   0.000  0.00  0.00    +0.000 A 
ATOM      5  C   UNL     1       0.880   0.306   0.000  0.00  0.00    +0.000 A 
ATOM      6  C   UNL     1       1.594   0.718   0.000  0.00  0.00    +0.000 A 
ATOM      7 CL   UNL     1       2.309   1.956   0.000  0.00  0.00    +0.000 Cl
ATOM      8  O   UNL     1      -0.549   1.956   0.000  0.00  0.00    +0.000 OA
ENDROOT
BRANCH   4   9
ATOM      9  O   UNL     1      -0.549   0.306   0.000  0.00  0.00    +0.000 OA
BRANCH   9  13
ATOM     10  C   UNL     1      -0.549  -2.169   0.000  0.00  0.00    +0.000 A 
ATOM     11  C   UNL     1      -1.264  -1.757   0.000  0.00  0.00    +0.000 A 
ATOM     12  C   UNL     1      -1.264  -0.932   0.000  0.00  0.00    +0.000 A 
ATOM     13  C   UNL     1      -0.549  -0.519   0.000  0.00  0.00    +0.000 A 
ATOM     14  C   UNL     1       0.166  -1.757   0.000  0.00  0.00    +0.000 A 
ATOM     15  C   UNL     1       0.166  -0.932   0.000  0.00  0.00    +0.000 A 
ATOM     16 CL   UNL     1      -0.549  -2.994   0.000  0.00  0.00    +0.000 Cl
ENDBRANCH   9  13
ENDBRANCH   4   9
TORSDOF 2
