REMARK  Name = DCQ
REMARK  11 active torsions:
REMARK  status: ('A' for Active; 'I' for Inactive)
REMARK    1  A    between atoms: C_3  and  O_4
REMARK    2  A    between atoms: C_6  and  O_7
REMARK    3  A    between atoms: C_13  and  C_14
REMARK    4  A    between atoms: C_14  and  C_15
REMARK    5  A    between atoms: C_15  and  C_16
REMARK    6  A    between atoms: C_16  and  C_17
REMARK    7  A    between atoms: C_17  and  C_18
REMARK    8  A    between atoms: C_18  and  C_19
REMARK    9  A    between atoms: C_19  and  C_20
REMARK   10  A    between atoms: C_20  and  C_21
REMARK   11  A    between atoms: C_21  and  C_22
REMARK                            x       y       z     vdW  Elec       q    Type
REMARK                         _______ _______ _______ _____ _____    ______ ____
ROOT
ATOM      1  O   UNL     1      -4.792  -0.576   0.000  0.00  0.00    +0.000 OA
ATOM      2  C   UNL     1      -4.078  -0.163   0.000  0.00  0.00    +0.000 C 
ATOM      3  C   UNL     1      -4.078   0.662   0.000  0.00  0.00    +0.000 C 
ATOM      4  C   UNL     1      -3.363   1.074   0.000  0.00  0.00    +0.000 C 
ATOM      5  C   UNL     1      -2.649   0.662   0.000  0.00  0.00    +0.000 C 
ATOM      6  O   UNL     1      -1.935   1.074   0.000  0.00  0.00    +0.000 OA
ATOM      7  C   UNL     1      -3.363  -0.576   0.000  0.00  0.00    +0.000 C 
ATOM      8  C   UNL     1      -3.363  -1.401   0.000  0.00  0.00    +0.000 C 
ATOM      9  C   UNL     1      -2.649  -0.163   0.000  0.00  0.00    +0.000 C 
ENDROOT
BRANCH   3  10
ATOM     10  O   UNL     1      -4.792   1.074   0.000  0.00  0.00    +0.000 OA
ATOM     11  C   UNL     1      -5.507   0.662   0.000  0.00  0.00    +0.000 C 
ENDBRANCH   3  10
BRANCH   4  12
ATOM     12  O   UNL     1      -3.363   1.899   0.000  0.00  0.00    +0.000 OA
ATOM     13  C   UNL     1      -2.649   2.312   0.000  0.00  0.00    +0.000 C 
ENDBRANCH   4  12
BRANCH   9  14
ATOM     14  C   UNL     1      -1.935  -0.576   0.000  0.00  0.00    +0.000 C 
BRANCH  14  15
ATOM     15  C   UNL     1      -1.220  -0.163   0.000  0.00  0.00    +0.000 C 
BRANCH  15  16
ATOM     16  C   UNL     1      -0.505  -0.576   0.000  0.00  0.00    +0.000 C 
BRANCH  16  17
ATOM     17  C   UNL     1       0.209  -0.163   0.000  0.00  0.00    +0.000 C 
BRANCH  17  18
ATOM     18  C   UNL     1       0.923  -0.576   0.000  0.00  0.00    +0.000 C 
BRANCH  18  19
ATOM     19  C   UNL     1       1.638  -0.163   0.000  0.00  0.00    +0.000 C 
BRANCH  19  20
ATOM     20  C   UNL     1       2.352  -0.576   0.000  0.00  0.00    +0.000 C 
BRANCH  20  21
ATOM     21  C   UNL     1       3.067  -0.163   0.000  0.00  0.00    +0.000 C 
BRANCH  21  22
ATOM     22  C   UNL     1       3.781  -0.576   0.000  0.00  0.00    +0.000 C 
ATOM     23  C   UNL     1       4.496  -0.163   0.000  0.00  0.00    +0.000 C 
ENDBRANCH  21  22
ENDBRANCH  20  21
ENDBRANCH  19  20
ENDBRANCH  18  19
ENDBRANCH  17  18
ENDBRANCH  16  17
ENDBRANCH  15  16
ENDBRANCH  14  15
ENDBRANCH   9  14
TORSDOF 11
