REMARK  Name = DCX
REMARK  9 active torsions:
REMARK  status: ('A' for Active; 'I' for Inactive)
REMARK    1  A    between atoms: C_3  and  C_11
REMARK    2  A    between atoms: C_3  and  C_12
REMARK    3  A    between atoms: C_5  and  C_6
REMARK    4  A    between atoms: C_6  and  C_7
REMARK    5  A    between atoms: C_7  and  C_8
REMARK    6  A    between atoms: C_8  and  C_9
REMARK    7  A    between atoms: C_9  and  C_10
REMARK    8  A    between atoms: C_10  and  C_11
REMARK    9  A    between atoms: C_12  and  P_13
REMARK                            x       y       z     vdW  Elec       q    Type
REMARK                         _______ _______ _______ _____ _____    ______ ____
ROOT
ATOM      1  C   UNL     1      -0.294  -0.077   0.000  0.00  0.00    +0.000 C 
ENDROOT
BRANCH   1   2
ATOM      2  C   UNL     1      -1.008   0.336   0.000  0.00  0.00    +0.000 C 
BRANCH   2   3
ATOM      3  C   UNL     1      -1.723  -0.077   0.000  0.00  0.00    +0.000 C 
BRANCH   3   4
ATOM      4  C   UNL     1      -2.438   0.336   0.000  0.00  0.00    +0.000 C 
BRANCH   4   5
ATOM      5  C   UNL     1      -3.152  -0.077   0.000  0.00  0.00    +0.000 C 
BRANCH   5   7
ATOM      6  C   UNL     1      -4.581  -0.077   0.000  0.00  0.00    +0.000 C 
ATOM      7  C   UNL     1      -3.867   0.336   0.000  0.00  0.00    +0.000 C 
ENDBRANCH   5   7
ENDBRANCH   4   5
ENDBRANCH   3   4
ENDBRANCH   2   3
ENDBRANCH   1   2
BRANCH   1   8
ATOM      8  C   UNL     1       0.420   0.336   0.000  0.00  0.00    +0.000 C 
BRANCH   8   9
ATOM      9  C   UNL     1       1.135  -0.077   0.000  0.00  0.00    +0.000 C 
BRANCH   9  10
ATOM     10  C   UNL     1       1.850   0.336   0.000  0.00  0.00    +0.000 C 
BRANCH  10  13
ATOM     11  C   UNL     1       3.279  -0.489   0.000  0.00  0.00    +0.000 C 
ATOM     12  O   UNL     1       2.977   0.637   0.000  0.00  0.00    +0.000 OA
ATOM     13  P   UNL     1       2.564  -0.077   0.000  0.00  0.00    +0.000 P 
ATOM     14  C   UNL     1       2.152  -0.791   0.000  0.00  0.00    +0.000 C 
ENDBRANCH  10  13
ENDBRANCH   9  10
ENDBRANCH   8   9
ENDBRANCH   1   8
TORSDOF 9
