REMARK  Name = DD1
REMARK  5 active torsions:
REMARK  status: ('A' for Active; 'I' for Inactive)
REMARK    1  A    between atoms: C_7  and  C_8
REMARK    2  A    between atoms: C_8  and  N_9
REMARK    3  A    between atoms: C_12  and  C_15
REMARK    4  A    between atoms: C_15  and  O_16
REMARK    5  A    between atoms: O_16  and  C_17
REMARK                            x       y       z     vdW  Elec       q    Type
REMARK                         _______ _______ _______ _____ _____    ______ ____
ROOT
ATOM      1  N   UNL     1      -0.495   1.546   0.000  0.00  0.00    +0.000 NA
ATOM      2  C   UNL     1       0.219   1.133   0.000  0.00  0.00    +0.000 C 
ATOM      3  C   UNL     1       0.219   0.308   0.000  0.00  0.00    +0.000 C 
ATOM      4  C   UNL     1      -0.495  -0.104   0.000  0.00  0.00    +0.000 C 
ATOM      5  C   UNL     1      -1.210   0.308   0.000  0.00  0.00    +0.000 C 
ATOM      6  C   UNL     1      -1.210   1.133   0.000  0.00  0.00    +0.000 C 
ENDROOT
BRANCH   1   7
ATOM      7  C   UNL     1      -0.495   2.371   0.000  0.00  0.00    +0.000 C 
BRANCH   7  14
ATOM      8  F   UNL     1      -1.925   1.546   0.000  0.00  0.00    +0.000 F 
ATOM      9  C   UNL     1      -1.925   2.371   0.000  0.00  0.00    +0.000 A 
ATOM     10  C   UNL     1      -2.639   2.783   0.000  0.00  0.00    +0.000 A 
ATOM     11  C   UNL     1      -2.639   3.608   0.000  0.00  0.00    +0.000 A 
ATOM     12  C   UNL     1      -1.925   4.021   0.000  0.00  0.00    +0.000 A 
ATOM     13  C   UNL     1      -1.210   3.608   0.000  0.00  0.00    +0.000 A 
ATOM     14  C   UNL     1      -1.210   2.783   0.000  0.00  0.00    +0.000 A 
ENDBRANCH   7  14
ENDBRANCH   1   7
BRANCH   4  15
ATOM     15  C   UNL     1      -0.495  -0.929   0.000  0.00  0.00    +0.000 C 
BRANCH  15  16
ATOM     16  O   UNL     1       0.219  -1.342   0.000  0.00  0.00    +0.000 OA
BRANCH  16  17
ATOM     17  C   UNL     1       0.219  -2.167   0.000  0.00  0.00    +0.000 A 
ATOM     18  C   UNL     1       0.933  -2.579   0.000  0.00  0.00    +0.000 A 
ATOM     19  C   UNL     1       1.648  -2.167   0.000  0.00  0.00    +0.000 A 
ATOM     20  N   UNL     1       1.648  -1.342   0.000  0.00  0.00    +0.000 NA
ATOM     21  N   UNL     1       2.362  -2.579   0.000  0.00  0.00    +0.000 NA
ATOM     22  C   UNL     1       2.362  -3.404   0.000  0.00  0.00    +0.000 A 
ATOM     23  N   UNL     1       3.077  -3.817   0.000  0.00  0.00    +0.000 NA
ATOM     24  N   UNL     1       1.648  -3.817   0.000  0.00  0.00    +0.000 NA
ATOM     25  C   UNL     1       0.933  -3.404   0.000  0.00  0.00    +0.000 A 
ATOM     26  C   UNL     1       0.219  -3.817   0.000  0.00  0.00    +0.000 A 
ATOM     27  C   UNL     1      -0.495  -3.404   0.000  0.00  0.00    +0.000 A 
ATOM     28  C   UNL     1      -0.495  -2.579   0.000  0.00  0.00    +0.000 A 
ENDBRANCH  16  17
ENDBRANCH  15  16
ENDBRANCH   4  15
TORSDOF 5
