REMARK  Name = DD2
REMARK  5 active torsions:
REMARK  status: ('A' for Active; 'I' for Inactive)
REMARK    1  A    between atoms: C_2  and  C_7
REMARK    2  A    between atoms: C_7  and  N_21
REMARK    3  A    between atoms: O_11  and  C_12
REMARK    4  A    between atoms: O_11  and  C_24
REMARK    5  A    between atoms: C_22  and  C_24
REMARK                            x       y       z     vdW  Elec       q    Type
REMARK                         _______ _______ _______ _____ _____    ______ ____
ROOT
ATOM      1  C   UNL     1      -1.284   1.326   0.000  0.00  0.00    +0.000 C 
ATOM      2  C   UNL     1       0.145   0.501   0.000  0.00  0.00    +0.000 C 
ATOM      3  C   UNL     1       0.145   1.326   0.000  0.00  0.00    +0.000 C 
ATOM      4  N   UNL     1      -0.569   1.738   0.000  0.00  0.00    +0.000 NA
ATOM      5  C   UNL     1      -0.569   0.088   0.000  0.00  0.00    +0.000 C 
ATOM      6  C   UNL     1      -1.284   0.501   0.000  0.00  0.00    +0.000 C 
ENDROOT
BRANCH   4   7
ATOM      7  C   UNL     1      -0.569   2.563   0.000  0.00  0.00    +0.000 C 
BRANCH   7   9
ATOM      8  C   UNL     1      -1.284   3.801   0.000  0.00  0.00    +0.000 A 
ATOM      9  C   UNL     1      -1.284   2.976   0.000  0.00  0.00    +0.000 A 
ATOM     10  C   UNL     1      -1.998   2.563   0.000  0.00  0.00    +0.000 A 
ATOM     11  C   UNL     1      -2.712   2.976   0.000  0.00  0.00    +0.000 A 
ATOM     12  C   UNL     1      -2.712   3.801   0.000  0.00  0.00    +0.000 A 
ATOM     13  C   UNL     1      -1.998   4.213   0.000  0.00  0.00    +0.000 A 
ATOM     14 CL   UNL     1      -0.569   4.213   0.000  0.00  0.00    +0.000 Cl
ATOM     15 CL   UNL     1      -1.998   5.038   0.000  0.00  0.00    +0.000 Cl
ENDBRANCH   7   9
ENDBRANCH   4   7
BRANCH   5  16
ATOM     16  C   UNL     1      -0.569  -0.737   0.000  0.00  0.00    +0.000 C 
BRANCH  16  17
ATOM     17  O   UNL     1       0.145  -1.149   0.000  0.00  0.00    +0.000 OA
BRANCH  17  18
ATOM     18  C   UNL     1       0.145  -1.974   0.000  0.00  0.00    +0.000 A 
ATOM     19  C   UNL     1      -0.569  -2.386   0.000  0.00  0.00    +0.000 A 
ATOM     20  C   UNL     1      -0.569  -3.212   0.000  0.00  0.00    +0.000 A 
ATOM     21  C   UNL     1       0.145  -3.624   0.000  0.00  0.00    +0.000 A 
ATOM     22  C   UNL     1       0.860  -3.212   0.000  0.00  0.00    +0.000 A 
ATOM     23  C   UNL     1       1.574  -1.974   0.000  0.00  0.00    +0.000 A 
ATOM     24  C   UNL     1       2.289  -3.212   0.000  0.00  0.00    +0.000 A 
ATOM     25  C   UNL     1       0.860  -2.386   0.000  0.00  0.00    +0.000 A 
ATOM     26  N   UNL     1       1.574  -1.149   0.000  0.00  0.00    +0.000 NA
ATOM     27  N   UNL     1       2.289  -2.386   0.000  0.00  0.00    +0.000 NA
ATOM     28  N   UNL     1       3.003  -3.624   0.000  0.00  0.00    +0.000 NA
ATOM     29  N   UNL     1       1.574  -3.624   0.000  0.00  0.00    +0.000 NA
ENDBRANCH  17  18
ENDBRANCH  16  17
ENDBRANCH   5  16
TORSDOF 5
