REMARK  Name = DD3
REMARK  3 active torsions:
REMARK  status: ('A' for Active; 'I' for Inactive)
REMARK    1  A    between atoms: C_1  and  C_3
REMARK    2  A    between atoms: C_3  and  O_17
REMARK    3  A    between atoms: C_8  and  O_17
REMARK                            x       y       z     vdW  Elec       q    Type
REMARK                         _______ _______ _______ _____ _____    ______ ____
ROOT
ATOM      1  N   UNL     1      -2.268   1.140   0.000  0.00  0.00    +0.000 NA
ATOM      2  C   UNL     1      -0.124   0.727   0.000  0.00  0.00    +0.000 A 
ATOM      3  C   UNL     1       0.590   1.965   0.000  0.00  0.00    +0.000 A 
ATOM      4  C   UNL     1      -0.124   2.377   0.000  0.00  0.00    +0.000 A 
ATOM      5  C   UNL     1      -0.839   1.140   0.000  0.00  0.00    +0.000 A 
ATOM      6  C   UNL     1      -1.553   0.727   0.000  0.00  0.00    +0.000 A 
ATOM      7  C   UNL     1       0.590   1.140   0.000  0.00  0.00    +0.000 A 
ATOM      8  C   UNL     1      -0.839   1.965   0.000  0.00  0.00    +0.000 A 
ATOM      9  N   UNL     1      -1.553   2.377   0.000  0.00  0.00    +0.000 NA
ATOM     10  N   UNL     1      -1.553  -0.098   0.000  0.00  0.00    +0.000 NA
ATOM     11  C   UNL     1      -2.268   1.965   0.000  0.00  0.00    +0.000 A 
ATOM     12  N   UNL     1      -2.982   2.377   0.000  0.00  0.00    +0.000 NA
ENDROOT
BRANCH   2  13
ATOM     13  O   UNL     1      -0.124  -0.098   0.000  0.00  0.00    +0.000 OA
BRANCH  13  15
ATOM     14  C   UNL     1       1.304  -0.098   0.000  0.00  0.00    +0.000 C 
ATOM     15  C   UNL     1       0.590  -0.510   0.000  0.00  0.00    +0.000 C 
BRANCH  15  16
ATOM     16  C   UNL     1       0.590  -1.335   0.000  0.00  0.00    +0.000 A 
ATOM     17  C   UNL     1       0.590  -2.985   0.000  0.00  0.00    +0.000 A 
ATOM     18  C   UNL     1       1.304  -2.573   0.000  0.00  0.00    +0.000 A 
ATOM     19  C   UNL     1       1.304  -1.748   0.000  0.00  0.00    +0.000 A 
ATOM     20  C   UNL     1      -0.124  -1.748   0.000  0.00  0.00    +0.000 A 
ATOM     21 CL   UNL     1       2.019  -2.985   0.000  0.00  0.00    +0.000 Cl
ATOM     22  C   UNL     1      -0.124  -2.573   0.000  0.00  0.00    +0.000 A 
ENDBRANCH  15  16
ENDBRANCH  13  15
ENDBRANCH   2  13
TORSDOF 3
