REMARK  Name = DEB
REMARK  1 active torsions:
REMARK  status: ('A' for Active; 'I' for Inactive)
REMARK    1  A    between atoms: C_13  and  C_14
REMARK                            x       y       z     vdW  Elec       q    Type
REMARK                         _______ _______ _______ _____ _____    ______ ____
ROOT
ATOM      1  C   UNL     1       1.408   0.892   0.000  0.00  0.00    +0.000 C 
ATOM      2  C   UNL     1       2.003   0.320   0.000  0.00  0.00    +0.000 C 
ATOM      3  C   UNL     1       1.805  -0.481   0.000  0.00  0.00    +0.000 C 
ATOM      4  C   UNL     1       1.012  -0.710   0.000  0.00  0.00    +0.000 C 
ATOM      5  C   UNL     1       0.814  -1.511   0.000  0.00  0.00    +0.000 C 
ATOM      6  C   UNL     1       0.021  -1.740   0.000  0.00  0.00    +0.000 C 
ATOM      7  C   UNL     1      -0.573  -1.168   0.000  0.00  0.00    +0.000 C 
ATOM      8  C   UNL     1      -1.366  -1.396   0.000  0.00  0.00    +0.000 C 
ATOM      9  C   UNL     1      -1.960  -0.824   0.000  0.00  0.00    +0.000 C 
ATOM     10  C   UNL     1      -1.762  -0.024   0.000  0.00  0.00    +0.000 C 
ATOM     11  C   UNL     1      -0.970   0.205   0.000  0.00  0.00    +0.000 C 
ATOM     12  C   UNL     1      -0.771   1.006   0.000  0.00  0.00    +0.000 C 
ATOM     13  C   UNL     1       0.021   1.235   0.000  0.00  0.00    +0.000 C 
ATOM     14  O   UNL     1       0.616   0.663   0.000  0.00  0.00    +0.000 OA
ATOM     15  O   UNL     1       1.607   1.693   0.000  0.00  0.00    +0.000 OA
ATOM     16  C   UNL     1       2.796   0.548   0.000  0.00  0.00    +0.000 C 
ATOM     17  O   UNL     1       2.399  -1.053   0.000  0.00  0.00    +0.000 OA
ATOM     18  C   UNL     1       0.418  -0.138   0.000  0.00  0.00    +0.000 C 
ATOM     19  O   UNL     1       1.408  -2.083   0.000  0.00  0.00    +0.000 OA
ATOM     20  C   UNL     1      -0.177  -2.540   0.000  0.00  0.00    +0.000 C 
ATOM     21  C   UNL     1      -1.564  -2.197   0.000  0.00  0.00    +0.000 C 
ATOM     22  O   UNL     1      -2.753  -1.053   0.000  0.00  0.00    +0.000 OA
ATOM     23  C   UNL     1      -2.357   0.548   0.000  0.00  0.00    +0.000 C 
ATOM     24  O   UNL     1      -0.375  -0.367   0.000  0.00  0.00    +0.000 OA
ATOM     25  C   UNL     1      -1.366   1.578   0.000  0.00  0.00    +0.000 C 
ENDROOT
BRANCH  13  26
ATOM     26  C   UNL     1       0.220   2.036   0.000  0.00  0.00    +0.000 C 
ATOM     27  C   UNL     1       1.012   2.265   0.000  0.00  0.00    +0.000 C 
ENDBRANCH  13  26
TORSDOF 1
