REMARK  Name = DF1
REMARK  5 active torsions:
REMARK  status: ('A' for Active; 'I' for Inactive)
REMARK    1  A    between atoms: C_6  and  C_7
REMARK    2  A    between atoms: C_9  and  N_10
REMARK    3  A    between atoms: N_10  and  C_11
REMARK    4  A    between atoms: C_11  and  C_12
REMARK    5  A    between atoms: C_20  and  C_21
REMARK                            x       y       z     vdW  Elec       q    Type
REMARK                         _______ _______ _______ _____ _____    ______ ____
ROOT
ATOM      1  C   UNL     1      -0.065  -0.612   0.000  0.00  0.00    +0.000 A 
ATOM      2  C   UNL     1       0.720  -0.867   0.000  0.00  0.00    +0.000 A 
ATOM      3  C   UNL     1       1.434  -0.454   0.000  0.00  0.00    +0.000 A 
ATOM      4  N   UNL     1       2.148  -0.867   0.000  0.00  0.00    +0.000 NA
ATOM      5  C   UNL     1       2.148  -1.692   0.000  0.00  0.00    +0.000 A 
ATOM      6  N   UNL     1       1.434  -2.104   0.000  0.00  0.00    +0.000 NA
ATOM      7  C   UNL     1       0.720  -1.692   0.000  0.00  0.00    +0.000 A 
ATOM      8  N   UNL     1      -0.065  -1.947   0.000  0.00  0.00    +0.000 NA
ATOM      9  C   UNL     1      -0.550  -1.279   0.000  0.00  0.00    +0.000 A 
ENDROOT
BRANCH   1  15
ATOM     10  C   UNL     1      -1.127   0.344   0.000  0.00  0.00    +0.000 A 
ATOM     11  C   UNL     1      -1.382   1.129   0.000  0.00  0.00    +0.000 A 
ATOM     12  C   UNL     1      -0.830   1.742   0.000  0.00  0.00    +0.000 A 
ATOM     13  C   UNL     1      -0.023   1.571   0.000  0.00  0.00    +0.000 A 
ATOM     14  C   UNL     1       0.232   0.786   0.000  0.00  0.00    +0.000 A 
ATOM     15  C   UNL     1      -0.320   0.173   0.000  0.00  0.00    +0.000 A 
ENDBRANCH   1  15
BRANCH   9  16
ATOM     16  C   UNL     1      -1.375  -1.279   0.000  0.00  0.00    +0.000 A 
ATOM     17  C   UNL     1      -1.787  -1.994   0.000  0.00  0.00    +0.000 A 
ATOM     18  C   UNL     1      -2.612  -1.994   0.000  0.00  0.00    +0.000 A 
ATOM     19  C   UNL     1      -3.025  -1.279   0.000  0.00  0.00    +0.000 A 
ATOM     20  C   UNL     1      -2.612  -0.565   0.000  0.00  0.00    +0.000 A 
ATOM     21  C   UNL     1      -1.787  -0.565   0.000  0.00  0.00    +0.000 A 
ENDBRANCH   9  16
BRANCH   3  22
ATOM     22  N   UNL     1       1.434   0.371   0.000  0.00  0.00    +0.000 NA
BRANCH  22  23
ATOM     23  C   UNL     1       2.148   0.783   0.000  0.00  0.00    +0.000 C 
BRANCH  23  24
ATOM     24  C   UNL     1       2.148   1.608   0.000  0.00  0.00    +0.000 C 
ATOM     25  C   UNL     1       2.863   2.021   0.000  0.00  0.00    +0.000 C 
ATOM     26  O   UNL     1       1.434   2.021   0.000  0.00  0.00    +0.000 OA
ENDBRANCH  23  24
ENDBRANCH  22  23
ENDBRANCH   3  22
TORSDOF 5
