REMARK  Name = DF2
REMARK  6 active torsions:
REMARK  status: ('A' for Active; 'I' for Inactive)
REMARK    1  A    between atoms: C_2  and  C_3
REMARK    2  A    between atoms: C_14  and  C_25
REMARK    3  A    between atoms: N_18  and  C_19
REMARK    4  A    between atoms: N_18  and  C_26
REMARK    5  A    between atoms: C_23  and  C_24
REMARK    6  A    between atoms: C_25  and  C_26
REMARK                            x       y       z     vdW  Elec       q    Type
REMARK                         _______ _______ _______ _____ _____    ______ ____
ROOT
ATOM      1  C   UNL     1       3.845  -2.104   0.000  0.00  0.00    +0.000 A 
ATOM      2  C   UNL     1       1.147  -1.692   0.000  0.00  0.00    +0.000 A 
ATOM      3  N   UNL     1       3.131  -2.517   0.000  0.00  0.00    +0.000 NA
ATOM      4  C   UNL     1       2.416  -2.104   0.000  0.00  0.00    +0.000 A 
ATOM      5  C   UNL     1       2.416  -1.279   0.000  0.00  0.00    +0.000 A 
ATOM      6  C   UNL     1       3.131  -0.867   0.000  0.00  0.00    +0.000 A 
ATOM      7  N   UNL     1       3.845  -1.279   0.000  0.00  0.00    +0.000 NA
ATOM      8  N   UNL     1       1.632  -2.359   0.000  0.00  0.00    +0.000 NA
ATOM      9  C   UNL     1       1.632  -1.024   0.000  0.00  0.00    +0.000 A 
ENDROOT
BRANCH   2  10
ATOM     10  C   UNL     1       0.322  -1.692   0.000  0.00  0.00    +0.000 A 
ATOM     11  C   UNL     1      -0.091  -2.406   0.000  0.00  0.00    +0.000 A 
ATOM     12  C   UNL     1      -0.916  -2.406   0.000  0.00  0.00    +0.000 A 
ATOM     13  C   UNL     1      -1.328  -1.692   0.000  0.00  0.00    +0.000 A 
ATOM     14  C   UNL     1      -0.916  -0.977   0.000  0.00  0.00    +0.000 A 
ATOM     15  C   UNL     1      -0.091  -0.977   0.000  0.00  0.00    +0.000 A 
ENDBRANCH   2  10
BRANCH   9  21
ATOM     16  C   UNL     1       0.570  -0.068   0.000  0.00  0.00    +0.000 A 
ATOM     17  C   UNL     1       0.315   0.717   0.000  0.00  0.00    +0.000 A 
ATOM     18  C   UNL     1       0.867   1.330   0.000  0.00  0.00    +0.000 A 
ATOM     19  C   UNL     1       1.674   1.158   0.000  0.00  0.00    +0.000 A 
ATOM     20  C   UNL     1       1.929   0.373   0.000  0.00  0.00    +0.000 A 
ATOM     21  C   UNL     1       1.377  -0.240   0.000  0.00  0.00    +0.000 A 
ENDBRANCH   9  21
BRANCH   6  22
ATOM     22  N   UNL     1       3.131  -0.042   0.000  0.00  0.00    +0.000 NA
BRANCH  22  23
ATOM     23  C   UNL     1       3.845   0.371   0.000  0.00  0.00    +0.000 C 
BRANCH  23  24
ATOM     24  C   UNL     1       3.845   1.196   0.000  0.00  0.00    +0.000 C 
ATOM     25  O   UNL     1       3.131   1.608   0.000  0.00  0.00    +0.000 OA
BRANCH  24  26
ATOM     26  C   UNL     1       4.560   1.608   0.000  0.00  0.00    +0.000 C 
ATOM     27  O   UNL     1       4.560   2.433   0.000  0.00  0.00    +0.000 OA
ENDBRANCH  24  26
ENDBRANCH  23  24
ENDBRANCH  22  23
ENDBRANCH   6  22
TORSDOF 6
