REMARK  Name = DF9
REMARK  6 active torsions:
REMARK  status: ('A' for Active; 'I' for Inactive)
REMARK    1  A    between atoms: C_10  and  C_11
REMARK    2  A    between atoms: C_11  and  N_12
REMARK    3  A    between atoms: C_17  and  C_18
REMARK    4  A    between atoms: C_18  and  S_19
REMARK    5  A    between atoms: S_19  and  C_20
REMARK    6  A    between atoms: C_20  and  C_21
REMARK                            x       y       z     vdW  Elec       q    Type
REMARK                         _______ _______ _______ _____ _____    ______ ____
ROOT
ATOM      1  N   UNL     1      -0.247   0.652   0.000  0.00  0.00    +0.000 NA
ATOM      2  C   UNL     1       0.574   0.739   0.000  0.00  0.00    +0.000 C 
ATOM      3  C   UNL     1       0.909  -0.015   0.000  0.00  0.00    +0.000 C 
ATOM      4  O   UNL     1       1.716  -0.187   0.000  0.00  0.00    +0.000 OA
ATOM      5  C   UNL     1      -0.418  -0.155   0.000  0.00  0.00    +0.000 C 
ATOM      6  C   UNL     1       0.296  -0.567   0.000  0.00  0.00    +0.000 C 
ENDROOT
BRANCH   1   7
ATOM      7  C   UNL     1      -0.799   1.265   0.000  0.00  0.00    +0.000 C 
BRANCH   7  17
ATOM      8  N   UNL     1       0.955   4.367   0.000  0.00  0.00    +0.000 NA
ATOM      9  C   UNL     1       0.955   3.542   0.000  0.00  0.00    +0.000 A 
ATOM     10  N   UNL     1       1.669   3.130   0.000  0.00  0.00    +0.000 NA
ATOM     11  C   UNL     1       1.669   2.305   0.000  0.00  0.00    +0.000 A 
ATOM     12  N   UNL     1       0.955   1.893   0.000  0.00  0.00    +0.000 NA
ATOM     13  C   UNL     1       0.240   3.130   0.000  0.00  0.00    +0.000 A 
ATOM     14  C   UNL     1       0.240   2.305   0.000  0.00  0.00    +0.000 A 
ATOM     15  N   UNL     1      -0.544   3.385   0.000  0.00  0.00    +0.000 NA
ATOM     16  C   UNL     1      -1.029   2.717   0.000  0.00  0.00    +0.000 A 
ATOM     17  C   UNL     1      -0.544   2.050   0.000  0.00  0.00    +0.000 A 
ENDBRANCH   7  17
ENDBRANCH   1   7
BRANCH   6  18
ATOM     18  C   UNL     1       0.382  -1.388   0.000  0.00  0.00    +0.000 C 
BRANCH  18  19
ATOM     19  S   UNL     1      -0.285  -1.873   0.000  0.00  0.00    +0.000 S 
BRANCH  19  20
ATOM     20  C   UNL     1      -0.199  -2.693   0.000  0.00  0.00    +0.000 C 
BRANCH  20  21
ATOM     21  C   UNL     1      -0.867  -3.178   0.000  0.00  0.00    +0.000 A 
ATOM     22  C   UNL     1      -0.780  -3.998   0.000  0.00  0.00    +0.000 A 
ATOM     23  C   UNL     1      -1.448  -4.483   0.000  0.00  0.00    +0.000 A 
ATOM     24  C   UNL     1      -2.201  -4.148   0.000  0.00  0.00    +0.000 A 
ATOM     25  C   UNL     1      -2.288  -3.327   0.000  0.00  0.00    +0.000 A 
ATOM     26  C   UNL     1      -1.620  -2.842   0.000  0.00  0.00    +0.000 A 
ENDBRANCH  20  21
ENDBRANCH  19  20
ENDBRANCH  18  19
ENDBRANCH   6  18
TORSDOF 6
