REMARK  Name = DFA
REMARK  3 active torsions:
REMARK  status: ('A' for Active; 'I' for Inactive)
REMARK    1  A    between atoms: C_1  and  C_15
REMARK    2  A    between atoms: C_5  and  C_15
REMARK    3  A    between atoms: C_9  and  C_15
REMARK                            x       y       z     vdW  Elec       q    Type
REMARK                         _______ _______ _______ _____ _____    ______ ____
ROOT
ATOM      1  C   UNL     1       0.320   0.290   0.000  0.00  0.00    +0.000 C 
ENDROOT
BRANCH   1   4
ATOM      2  C   UNL     1      -1.109   1.940   0.000  0.00  0.00    +0.000 A 
ATOM      3  C   UNL     1      -0.395   1.528   0.000  0.00  0.00    +0.000 A 
ATOM      4  C   UNL     1      -0.395   0.703   0.000  0.00  0.00    +0.000 A 
ATOM      5  C   UNL     1      -1.109   0.290   0.000  0.00  0.00    +0.000 A 
ATOM      6  C   UNL     1      -1.824   0.703   0.000  0.00  0.00    +0.000 A 
ATOM      7  C   UNL     1      -1.824   1.528   0.000  0.00  0.00    +0.000 A 
ENDBRANCH   1   4
BRANCH   1   8
ATOM      8  C   UNL     1       0.320  -0.534   0.000  0.00  0.00    +0.000 A 
ATOM      9  C   UNL     1       1.034  -0.947   0.000  0.00  0.00    +0.000 A 
ATOM     10  C   UNL     1       1.034  -1.772   0.000  0.00  0.00    +0.000 A 
ATOM     11  C   UNL     1       0.320  -2.184   0.000  0.00  0.00    +0.000 A 
ATOM     12  C   UNL     1      -0.395  -1.772   0.000  0.00  0.00    +0.000 A 
ATOM     13  C   UNL     1      -0.395  -0.947   0.000  0.00  0.00    +0.000 A 
ENDBRANCH   1   8
BRANCH   1  14
ATOM     14  C   UNL     1       1.034   0.703   0.000  0.00  0.00    +0.000 C 
ATOM     15  O   UNL     1       1.034   1.528   0.000  0.00  0.00    +0.000 OA
ATOM     16  O   UNL     1       1.748   0.290   0.000  0.00  0.00    +0.000 OA
ENDBRANCH   1  14
TORSDOF 3
