REMARK  Name = DFM
REMARK  10 active torsions:
REMARK  status: ('A' for Active; 'I' for Inactive)
REMARK    1  A    between atoms: C_1  and  C_5
REMARK    2  A    between atoms: C_1  and  P_33
REMARK    3  A    between atoms: C_8  and  C_11
REMARK    4  A    between atoms: C_11  and  C_12
REMARK    5  A    between atoms: C_12  and  C_13
REMARK    6  A    between atoms: C_12  and  N_16
REMARK    7  A    between atoms: C_17  and  C_18
REMARK    8  A    between atoms: C_18  and  N_20
REMARK    9  A    between atoms: C_18  and  C_21
REMARK   10  A    between atoms: C_21  and  C_22
REMARK                            x       y       z     vdW  Elec       q    Type
REMARK                         _______ _______ _______ _____ _____    ______ ____
ROOT
ATOM      1  C   UNL     1      -0.617   0.171   0.000  0.00  0.00    +0.000 C 
ENDROOT
BRANCH   1   2
ATOM      2  N   UNL     1       0.097  -0.242   0.000  0.00  0.00    +0.000 NA
ATOM      3  C   UNL     1       0.812   0.171   0.000  0.00  0.00    +0.000 C 
ATOM      4  O   UNL     1       0.812   0.996   0.000  0.00  0.00    +0.000 OA
BRANCH   3   5
ATOM      5  C   UNL     1       1.526  -0.242   0.000  0.00  0.00    +0.000 C 
BRANCH   5   6
ATOM      6  N   UNL     1       2.241   0.171   0.000  0.00  0.00    +0.000 NA
ATOM      7  C   UNL     1       2.241   0.996   0.000  0.00  0.00    +0.000 C 
ATOM      8  O   UNL     1       2.955   1.408   0.000  0.00  0.00    +0.000 OA
ATOM      9  C   UNL     1       1.526   1.408   0.000  0.00  0.00    +0.000 C 
ENDBRANCH   5   6
BRANCH   5  10
ATOM     10  C   UNL     1       1.526  -1.067   0.000  0.00  0.00    +0.000 C 
BRANCH  10  11
ATOM     11  C   UNL     1       0.812  -1.479   0.000  0.00  0.00    +0.000 A 
ATOM     12  C   UNL     1       0.812  -2.304   0.000  0.00  0.00    +0.000 A 
ATOM     13  C   UNL     1       0.097  -2.717   0.000  0.00  0.00    +0.000 A 
ATOM     14  C   UNL     1      -0.617  -2.304   0.000  0.00  0.00    +0.000 A 
ATOM     15  C   UNL     1      -0.617  -1.479   0.000  0.00  0.00    +0.000 A 
ATOM     16  C   UNL     1       0.097  -1.067   0.000  0.00  0.00    +0.000 A 
ENDBRANCH  10  11
ENDBRANCH   5  10
ENDBRANCH   3   5
ENDBRANCH   1   2
BRANCH   1  17
ATOM     17  C   UNL     1      -0.617   0.996   0.000  0.00  0.00    +0.000 C 
ATOM     18  O   UNL     1      -1.332   1.408   0.000  0.00  0.00    +0.000 OA
ATOM     19  N   UNL     1       0.097   1.408   0.000  0.00  0.00    +0.000 NA
ENDBRANCH   1  17
BRANCH   1  20
ATOM     20  C   UNL     1      -1.332  -0.242   0.000  0.00  0.00    +0.000 C 
BRANCH  20  24
ATOM     21  C   UNL     1      -3.475   0.996   0.000  0.00  0.00    +0.000 A 
ATOM     22  C   UNL     1      -2.761   1.408   0.000  0.00  0.00    +0.000 A 
ATOM     23  C   UNL     1      -2.046   0.996   0.000  0.00  0.00    +0.000 A 
ATOM     24  C   UNL     1      -2.046   0.171   0.000  0.00  0.00    +0.000 A 
ATOM     25  C   UNL     1      -2.761  -0.242   0.000  0.00  0.00    +0.000 A 
ATOM     26  C   UNL     1      -3.475   0.171   0.000  0.00  0.00    +0.000 A 
BRANCH  21  27
ATOM     27  C   UNL     1      -4.189   1.408   0.000  0.00  0.00    +0.000 C 
ATOM     28  F   UNL     1      -4.602   0.694   0.000  0.00  0.00    +0.000 F 
ATOM     29  F   UNL     1      -3.777   2.123   0.000  0.00  0.00    +0.000 F 
BRANCH  27  33
ATOM     30  O   UNL     1      -5.618   2.233   0.000  0.00  0.00    +0.000 OA
ATOM     31  O   UNL     1      -5.316   1.106   0.000  0.00  0.00    +0.000 OA
ATOM     32  O   UNL     1      -4.492   2.535   0.000  0.00  0.00    +0.000 OA
ATOM     33  P   UNL     1      -4.904   1.821   0.000  0.00  0.00    +0.000 P 
ENDBRANCH  27  33
ENDBRANCH  21  27
ENDBRANCH  20  24
ENDBRANCH   1  20
TORSDOF 10
