REMARK  Name = DFN
REMARK  6 active torsions:
REMARK  status: ('A' for Active; 'I' for Inactive)
REMARK    1  A    between atoms: C_11  and  C_12
REMARK    2  A    between atoms: C_13  and  C_19
REMARK    3  A    between atoms: C_21  and  N_25
REMARK    4  A    between atoms: N_25  and  C_26
REMARK    5  A    between atoms: C_26  and  C_27
REMARK    6  A    between atoms: C_27  and  C_29
REMARK                            x       y       z     vdW  Elec       q    Type
REMARK                         _______ _______ _______ _____ _____    ______ ____
ROOT
ATOM      1  C   UNL     1      -1.618   0.580   0.000  0.00  0.00    +0.000 C 
ATOM      2  C   UNL     1      -1.133  -0.087   0.000  0.00  0.00    +0.000 C 
ATOM      3  C   UNL     1      -1.618  -0.755   0.000  0.00  0.00    +0.000 C 
ATOM      4  O   UNL     1      -1.363  -1.540   0.000  0.00  0.00    +0.000 OA
ATOM      5  N   UNL     1      -2.403  -0.500   0.000  0.00  0.00    +0.000 NA
ATOM      6  C   UNL     1      -2.403   0.325   0.000  0.00  0.00    +0.000 C 
ATOM      7  O   UNL     1      -3.070   0.810   0.000  0.00  0.00    +0.000 OA
ENDROOT
BRANCH   1  18
ATOM      8  C   UNL     1      -1.618   3.484   0.000  0.00  0.00    +0.000 C 
ATOM      9  N   UNL     1      -1.363   2.699   0.000  0.00  0.00    +0.000 N 
ATOM     10  C   UNL     1      -1.848   2.032   0.000  0.00  0.00    +0.000 A 
ATOM     11  C   UNL     1      -0.579   2.445   0.000  0.00  0.00    +0.000 A 
ATOM     12  C   UNL     1       0.136   2.857   0.000  0.00  0.00    +0.000 A 
ATOM     13  C   UNL     1       0.850   2.445   0.000  0.00  0.00    +0.000 A 
ATOM     14  C   UNL     1       0.850   1.619   0.000  0.00  0.00    +0.000 A 
ATOM     15  F   UNL     1       1.565   1.207   0.000  0.00  0.00    +0.000 F 
ATOM     16  C   UNL     1      -0.579   1.619   0.000  0.00  0.00    +0.000 A 
ATOM     17  C   UNL     1       0.136   1.207   0.000  0.00  0.00    +0.000 A 
ATOM     18  C   UNL     1      -1.363   1.365   0.000  0.00  0.00    +0.000 A 
ENDBRANCH   1  18
BRANCH   2  19
ATOM     19  C   UNL     1      -0.308  -0.087   0.000  0.00  0.00    +0.000 A 
ATOM     20  C   UNL     1       0.104  -0.802   0.000  0.00  0.00    +0.000 A 
ATOM     21  C   UNL     1       0.929  -0.802   0.000  0.00  0.00    +0.000 A 
ATOM     22  C   UNL     1       1.342  -0.087   0.000  0.00  0.00    +0.000 A 
ATOM     23  C   UNL     1       0.929   0.627   0.000  0.00  0.00    +0.000 A 
ATOM     24  C   UNL     1       0.104   0.627   0.000  0.00  0.00    +0.000 A 
BRANCH  21  25
ATOM     25  N   UNL     1       1.342  -1.516   0.000  0.00  0.00    +0.000 NA
BRANCH  25  26
ATOM     26  C   UNL     1       2.167  -1.516   0.000  0.00  0.00    +0.000 C 
BRANCH  26  27
ATOM     27  C   UNL     1       2.579  -2.231   0.000  0.00  0.00    +0.000 C 
ATOM     28  O   UNL     1       2.167  -2.945   0.000  0.00  0.00    +0.000 OA
BRANCH  27  29
ATOM     29  C   UNL     1       3.404  -2.231   0.000  0.00  0.00    +0.000 C 
ATOM     30  O   UNL     1       3.817  -2.945   0.000  0.00  0.00    +0.000 OA
ENDBRANCH  27  29
ENDBRANCH  26  27
ENDBRANCH  25  26
ENDBRANCH  21  25
ENDBRANCH   2  19
TORSDOF 6
