REMARK  Name = DFT
REMARK  4 active torsions:
REMARK  status: ('A' for Active; 'I' for Inactive)
REMARK    1  A    between atoms: P_1  and  O_5
REMARK    2  A    between atoms: O_5  and  C_6
REMARK    3  A    between atoms: C_6  and  C_7
REMARK    4  A    between atoms: C_12  and  C_21
REMARK                            x       y       z     vdW  Elec       q    Type
REMARK                         _______ _______ _______ _____ _____    ______ ____
ROOT
ATOM      1  C   UNL     1      -0.349   0.817   0.000  0.00  0.00    +0.000 C 
ATOM      2  O   UNL     1       0.319   0.332   0.000  0.00  0.00    +0.000 OA
ATOM      3  C   UNL     1      -1.016   0.332   0.000  0.00  0.00    +0.000 C 
ATOM      4  O   UNL     1      -1.801   0.587   0.000  0.00  0.00    +0.000 OA
ATOM      5  C   UNL     1      -0.761  -0.453   0.000  0.00  0.00    +0.000 C 
ATOM      6  C   UNL     1       0.064  -0.453   0.000  0.00  0.00    +0.000 C 
ENDROOT
BRANCH   6  15
ATOM      7  C   UNL     1       1.369  -1.034   0.000  0.00  0.00    +0.000 A 
ATOM      8  C   UNL     1       1.519  -2.455   0.000  0.00  0.00    +0.000 A 
ATOM      9  C   UNL     1       0.698  -2.542   0.000  0.00  0.00    +0.000 A 
ATOM     10  C   UNL     1       0.363  -3.295   0.000  0.00  0.00    +0.000 C 
ATOM     11  C   UNL     1       0.213  -1.874   0.000  0.00  0.00    +0.000 A 
ATOM     12  F   UNL     1       2.004  -3.123   0.000  0.00  0.00    +0.000 F 
ATOM     13  C   UNL     1       1.854  -1.702   0.000  0.00  0.00    +0.000 A 
ATOM     14  F   UNL     1       1.705  -0.280   0.000  0.00  0.00    +0.000 F 
ATOM     15  C   UNL     1       0.549  -1.120   0.000  0.00  0.00    +0.000 A 
ENDBRANCH   6  15
BRANCH   1  16
ATOM     16  C   UNL     1      -0.349   1.642   0.000  0.00  0.00    +0.000 C 
BRANCH  16  17
ATOM     17  O   UNL     1      -1.063   2.054   0.000  0.00  0.00    +0.000 OA
BRANCH  17  18
ATOM     18  P   UNL     1      -1.063   2.879   0.000  0.00  0.00    +0.000 P 
ATOM     19  O   UNL     1      -1.063   3.704   0.000  0.00  0.00    +0.000 OA
ATOM     20  O   UNL     1      -1.888   2.879   0.000  0.00  0.00    +0.000 OA
ATOM     21  O   UNL     1      -0.238   2.879   0.000  0.00  0.00    +0.000 OA
ENDBRANCH  17  18
ENDBRANCH  16  17
ENDBRANCH   1  16
TORSDOF 4
