REMARK  Name = DHC
REMARK  2 active torsions:
REMARK  status: ('A' for Active; 'I' for Inactive)
REMARK    1  A    between atoms: C_1  and  C_3
REMARK    2  A    between atoms: C_4  and  C_5
REMARK                            x       y       z     vdW  Elec       q    Type
REMARK                         _______ _______ _______ _____ _____    ______ ____
ROOT
ATOM      1  C   UNL     1       1.666  -0.773   0.000  0.00  0.00    +0.000 A 
ATOM      2  C   UNL     1       1.666  -1.598   0.000  0.00  0.00    +0.000 A 
ATOM      3  C   UNL     1       0.952  -2.010   0.000  0.00  0.00    +0.000 A 
ATOM      4  C   UNL     1       0.237  -1.598   0.000  0.00  0.00    +0.000 A 
ATOM      5  C   UNL     1       0.237  -0.773   0.000  0.00  0.00    +0.000 A 
ATOM      6  C   UNL     1       0.952  -0.360   0.000  0.00  0.00    +0.000 A 
ATOM      7  O   UNL     1      -0.477  -2.010   0.000  0.00  0.00    +0.000 OA
ATOM      8  O   UNL     1       0.952  -2.835   0.000  0.00  0.00    +0.000 OA
ENDROOT
BRANCH   1  10
ATOM      9  C   UNL     1       2.381   0.465   0.000  0.00  0.00    +0.000 C 
ATOM     10  C   UNL     1       2.381  -0.360   0.000  0.00  0.00    +0.000 C 
BRANCH   9  11
ATOM     11  C   UNL     1       3.095   0.877   0.000  0.00  0.00    +0.000 C 
ATOM     12  O   UNL     1       3.095   1.702   0.000  0.00  0.00    +0.000 OA
ATOM     13  O   UNL     1       3.810   0.465   0.000  0.00  0.00    +0.000 OA
ENDBRANCH   9  11
ENDBRANCH   1  10
TORSDOF 2
