REMARK  Name = DHP
REMARK  9 active torsions:
REMARK  status: ('A' for Active; 'I' for Inactive)
REMARK    1  A    between atoms: C_8  and  C_9
REMARK    2  A    between atoms: C_9  and  C_10
REMARK    3  A    between atoms: C_10  and  C_11
REMARK    4  A    between atoms: C_11  and  C_12
REMARK    5  A    between atoms: C_12  and  C_13
REMARK    6  A    between atoms: C_13  and  C_14
REMARK    7  A    between atoms: C_14  and  C_15
REMARK    8  A    between atoms: C_15  and  C_16
REMARK    9  A    between atoms: C_16  and  C_17
REMARK                            x       y       z     vdW  Elec       q    Type
REMARK                         _______ _______ _______ _____ _____    ______ ____
ROOT
ATOM      1  C   UNL     1      -2.224  -0.344   0.000  0.00  0.00    +0.000 C 
ENDROOT
BRANCH   1   9
ATOM      2  N   UNL     1      -4.244   0.346   0.000  0.00  0.00    +0.000 NA
ATOM      3  C   UNL     1      -3.025   0.889   0.000  0.00  0.00    +0.000 C 
ATOM      4  O   UNL     1      -2.412   1.441   0.000  0.00  0.00    +0.000 OA
ATOM      5  C   UNL     1      -3.832   1.061   0.000  0.00  0.00    +0.000 C 
ATOM      6  O   UNL     1      -4.167   1.814   0.000  0.00  0.00    +0.000 OA
ATOM      7  C   UNL     1      -3.692  -0.267   0.000  0.00  0.00    +0.000 C 
ATOM      8  O   UNL     1      -3.864  -1.074   0.000  0.00  0.00    +0.000 OA
ATOM      9  C   UNL     1      -2.938   0.069   0.000  0.00  0.00    +0.000 C 
ENDBRANCH   1   9
BRANCH   1  10
ATOM     10  C   UNL     1      -1.509   0.069   0.000  0.00  0.00    +0.000 C 
BRANCH  10  11
ATOM     11  C   UNL     1      -0.795  -0.344   0.000  0.00  0.00    +0.000 C 
BRANCH  11  12
ATOM     12  C   UNL     1      -0.081   0.069   0.000  0.00  0.00    +0.000 C 
BRANCH  12  13
ATOM     13  C   UNL     1       0.634  -0.344   0.000  0.00  0.00    +0.000 C 
BRANCH  13  14
ATOM     14  C   UNL     1       1.349   0.069   0.000  0.00  0.00    +0.000 C 
BRANCH  14  15
ATOM     15  C   UNL     1       2.063  -0.344   0.000  0.00  0.00    +0.000 C 
BRANCH  15  16
ATOM     16  C   UNL     1       2.777   0.069   0.000  0.00  0.00    +0.000 C 
BRANCH  16  17
ATOM     17  C   UNL     1       3.492  -0.344   0.000  0.00  0.00    +0.000 C 
ATOM     18  C   UNL     1       4.206   0.069   0.000  0.00  0.00    +0.000 C 
ENDBRANCH  16  17
ENDBRANCH  15  16
ENDBRANCH  14  15
ENDBRANCH  13  14
ENDBRANCH  12  13
ENDBRANCH  11  12
ENDBRANCH  10  11
ENDBRANCH   1  10
TORSDOF 9
