REMARK  Name = DI4
REMARK  12 active torsions:
REMARK  status: ('A' for Active; 'I' for Inactive)
REMARK    1  A    between atoms: B_1  and  C_2
REMARK    2  A    between atoms: C_2  and  C_3
REMARK    3  A    between atoms: C_2  and  N_24
REMARK    4  A    between atoms: C_3  and  C_4
REMARK    5  A    between atoms: C_4  and  C_5
REMARK    6  A    between atoms: C_5  and  C_6
REMARK    7  A    between atoms: C_6  and  C_7
REMARK    8  A    between atoms: C_8  and  C_9
REMARK    9  A    between atoms: C_13  and  C_15
REMARK   10  A    between atoms: C_14  and  C_15
REMARK   11  A    between atoms: C_14  and  C_22
REMARK   12  A    between atoms: C_15  and  N_27
REMARK                            x       y       z     vdW  Elec       q    Type
REMARK                         _______ _______ _______ _____ _____    ______ ____
ROOT
ATOM      1  C   UNL     1       0.487  -0.745   0.000  0.00  0.00    +0.000 C 
ATOM      2  C   UNL     1       0.573  -1.565   0.000  0.00  0.00    +0.000 C 
ATOM      3  C   UNL     1       1.380  -1.736   0.000  0.00  0.00    +0.000 C 
ATOM      4  C   UNL     1       1.792  -1.022   0.000  0.00  0.00    +0.000 C 
ATOM      5  C   UNL     1       1.412   0.398   0.000  0.00  0.00    +0.000 C 
ATOM      6  N   UNL     1       1.240  -0.409   0.000  0.00  0.00    +0.000 N 
ATOM      7  O   UNL     1       0.799   0.950   0.000  0.00  0.00    +0.000 OA
ENDROOT
BRANCH   1   8
ATOM      8  C   UNL     1      -0.228  -0.332   0.000  0.00  0.00    +0.000 C 
ATOM      9  N   UNL     1      -0.942  -0.745   0.000  0.00  0.00    +0.000 NA
ATOM     10  O   UNL     1      -0.228   0.493   0.000  0.00  0.00    +0.000 OA
BRANCH   9  11
ATOM     11  C   UNL     1      -1.657  -0.332   0.000  0.00  0.00    +0.000 C 
BRANCH  11  12
ATOM     12  B   UNL     1      -1.657   0.493   0.000  0.00  0.00    +0.000 B 
ATOM     13  O   UNL     1      -0.942   0.905   0.000  0.00  0.00    +0.000 OA
ATOM     14  O   UNL     1      -2.371   0.905   0.000  0.00  0.00    +0.000 OA
ENDBRANCH  11  12
BRANCH  11  15
ATOM     15  C   UNL     1      -2.371  -0.745   0.000  0.00  0.00    +0.000 C 
BRANCH  15  16
ATOM     16  C   UNL     1      -3.086  -0.332   0.000  0.00  0.00    +0.000 C 
BRANCH  16  17
ATOM     17  C   UNL     1      -3.800  -0.745   0.000  0.00  0.00    +0.000 C 
BRANCH  17  18
ATOM     18  C   UNL     1      -4.515  -0.332   0.000  0.00  0.00    +0.000 C 
BRANCH  18  19
ATOM     19  C   UNL     1      -5.229  -0.745   0.000  0.00  0.00    +0.000 C 
ATOM     20  N   UNL     1      -5.944  -0.332   0.000  0.00  0.00    +0.000 NA
ENDBRANCH  18  19
ENDBRANCH  17  18
ENDBRANCH  16  17
ENDBRANCH  15  16
ENDBRANCH  11  15
ENDBRANCH   9  11
ENDBRANCH   1   8
BRANCH   5  21
ATOM     21  C   UNL     1       2.196   0.653   0.000  0.00  0.00    +0.000 C 
BRANCH  21  24
ATOM     22  C   UNL     1       1.755   2.012   0.000  0.00  0.00    +0.000 C 
ATOM     23  C   UNL     1       0.970   1.757   0.000  0.00  0.00    +0.000 C 
ATOM     24  N   UNL     1       2.368   1.460   0.000  0.00  0.00    +0.000 NA
ATOM     25  O   UNL     1       1.926   2.819   0.000  0.00  0.00    +0.000 OA
ENDBRANCH  21  24
BRANCH  21  26
ATOM     26  C   UNL     1       2.810   0.101   0.000  0.00  0.00    +0.000 C 
BRANCH  26  31
ATOM     27  C   UNL     1       4.550   1.418   0.000  0.00  0.00    +0.000 A 
ATOM     28  C   UNL     1       5.163   0.866   0.000  0.00  0.00    +0.000 A 
ATOM     29  C   UNL     1       4.992   0.059   0.000  0.00  0.00    +0.000 A 
ATOM     30  C   UNL     1       4.207  -0.196   0.000  0.00  0.00    +0.000 A 
ATOM     31  C   UNL     1       3.594   0.356   0.000  0.00  0.00    +0.000 A 
ATOM     32  C   UNL     1       3.766   1.163   0.000  0.00  0.00    +0.000 A 
ENDBRANCH  26  31
ENDBRANCH  21  26
ENDBRANCH   5  21
TORSDOF 12
