REMARK  Name = DI5
REMARK  10 active torsions:
REMARK  status: ('A' for Active; 'I' for Inactive)
REMARK    1  A    between atoms: B_1  and  C_2
REMARK    2  A    between atoms: C_2  and  C_3
REMARK    3  A    between atoms: C_2  and  N_22
REMARK    4  A    between atoms: C_3  and  C_4
REMARK    5  A    between atoms: C_4  and  C_5
REMARK    6  A    between atoms: C_6  and  C_7
REMARK    7  A    between atoms: C_11  and  C_13
REMARK    8  A    between atoms: C_12  and  C_13
REMARK    9  A    between atoms: C_12  and  C_20
REMARK   10  A    between atoms: C_13  and  N_25
REMARK                            x       y       z     vdW  Elec       q    Type
REMARK                         _______ _______ _______ _____ _____    ______ ____
ROOT
ATOM      1  C   UNL     1      -0.087  -0.792   0.000  0.00  0.00    +0.000 C 
ATOM      2  C   UNL     1      -0.001  -1.612   0.000  0.00  0.00    +0.000 C 
ATOM      3  C   UNL     1       0.806  -1.784   0.000  0.00  0.00    +0.000 C 
ATOM      4  C   UNL     1       1.218  -1.069   0.000  0.00  0.00    +0.000 C 
ATOM      5  C   UNL     1       0.838   0.351   0.000  0.00  0.00    +0.000 C 
ATOM      6  N   UNL     1       0.666  -0.456   0.000  0.00  0.00    +0.000 N 
ATOM      7  O   UNL     1       0.225   0.903   0.000  0.00  0.00    +0.000 OA
ENDROOT
BRANCH   1   8
ATOM      8  C   UNL     1      -0.802  -0.379   0.000  0.00  0.00    +0.000 C 
ATOM      9  N   UNL     1      -1.516  -0.792   0.000  0.00  0.00    +0.000 NA
ATOM     10  O   UNL     1      -0.802   0.446   0.000  0.00  0.00    +0.000 OA
BRANCH   9  11
ATOM     11  C   UNL     1      -2.231  -0.379   0.000  0.00  0.00    +0.000 C 
BRANCH  11  12
ATOM     12  B   UNL     1      -2.231   0.446   0.000  0.00  0.00    +0.000 B 
ATOM     13  O   UNL     1      -1.516   0.858   0.000  0.00  0.00    +0.000 OA
ATOM     14  O   UNL     1      -2.945   0.858   0.000  0.00  0.00    +0.000 OA
ENDBRANCH  11  12
BRANCH  11  15
ATOM     15  C   UNL     1      -2.945  -0.792   0.000  0.00  0.00    +0.000 C 
BRANCH  15  16
ATOM     16  C   UNL     1      -3.660  -0.379   0.000  0.00  0.00    +0.000 C 
BRANCH  16  17
ATOM     17  C   UNL     1      -4.374  -0.792   0.000  0.00  0.00    +0.000 C 
ATOM     18  N   UNL     1      -5.089  -0.379   0.000  0.00  0.00    +0.000 NA
ENDBRANCH  16  17
ENDBRANCH  15  16
ENDBRANCH  11  15
ENDBRANCH   9  11
ENDBRANCH   1   8
BRANCH   5  19
ATOM     19  C   UNL     1       1.622   0.606   0.000  0.00  0.00    +0.000 C 
BRANCH  19  22
ATOM     20  C   UNL     1       1.181   1.965   0.000  0.00  0.00    +0.000 C 
ATOM     21  C   UNL     1       0.396   1.710   0.000  0.00  0.00    +0.000 C 
ATOM     22  N   UNL     1       1.794   1.413   0.000  0.00  0.00    +0.000 NA
ATOM     23  O   UNL     1       1.352   2.772   0.000  0.00  0.00    +0.000 OA
ENDBRANCH  19  22
BRANCH  19  24
ATOM     24  C   UNL     1       2.235   0.054   0.000  0.00  0.00    +0.000 C 
BRANCH  24  29
ATOM     25  C   UNL     1       3.976   1.371   0.000  0.00  0.00    +0.000 A 
ATOM     26  C   UNL     1       4.589   0.819   0.000  0.00  0.00    +0.000 A 
ATOM     27  C   UNL     1       4.418   0.012   0.000  0.00  0.00    +0.000 A 
ATOM     28  C   UNL     1       3.633  -0.243   0.000  0.00  0.00    +0.000 A 
ATOM     29  C   UNL     1       3.020   0.309   0.000  0.00  0.00    +0.000 A 
ATOM     30  C   UNL     1       3.192   1.116   0.000  0.00  0.00    +0.000 A 
ENDBRANCH  24  29
ENDBRANCH  19  24
ENDBRANCH   5  19
TORSDOF 10
