REMARK  Name = DID
REMARK  11 active torsions:
REMARK  status: ('A' for Active; 'I' for Inactive)
REMARK    1  A    between atoms: C_1  and  C_7
REMARK    2  A    between atoms: C_4  and  O_10
REMARK    3  A    between atoms: O_10  and  C_11
REMARK    4  A    between atoms: C_11  and  C_12
REMARK    5  A    between atoms: C_12  and  C_13
REMARK    6  A    between atoms: C_13  and  C_14
REMARK    7  A    between atoms: C_14  and  C_15
REMARK    8  A    between atoms: C_15  and  C_16
REMARK    9  A    between atoms: C_16  and  O_17
REMARK   10  A    between atoms: O_17  and  C_18
REMARK   11  A    between atoms: C_21  and  C_24
REMARK                            x       y       z     vdW  Elec       q    Type
REMARK                         _______ _______ _______ _____ _____    ______ ____
ROOT
ATOM      1  C   UNL     1      -0.369   0.206   0.000  0.00  0.00    +0.000 C 
ENDROOT
BRANCH   1   2
ATOM      2  C   UNL     1      -1.083  -0.206   0.000  0.00  0.00    +0.000 C 
BRANCH   2   3
ATOM      3  C   UNL     1      -1.798   0.206   0.000  0.00  0.00    +0.000 C 
BRANCH   3   4
ATOM      4  O   UNL     1      -2.512  -0.206   0.000  0.00  0.00    +0.000 OA
BRANCH   4   8
ATOM      5  C   UNL     1      -4.656   1.031   0.000  0.00  0.00    +0.000 A 
ATOM      6  C   UNL     1      -3.941   1.444   0.000  0.00  0.00    +0.000 A 
ATOM      7  C   UNL     1      -3.227   1.031   0.000  0.00  0.00    +0.000 A 
ATOM      8  C   UNL     1      -3.227   0.206   0.000  0.00  0.00    +0.000 A 
ATOM      9  C   UNL     1      -3.941  -0.206   0.000  0.00  0.00    +0.000 A 
ATOM     10  C   UNL     1      -4.656   0.206   0.000  0.00  0.00    +0.000 A 
BRANCH   5  11
ATOM     11  C   UNL     1      -5.370   1.444   0.000  0.00  0.00    +0.000 C 
ATOM     12  N   UNL     1      -6.085   1.031   0.000  0.00  0.00    +0.000 NA
ATOM     13  N   UNL     1      -5.370   2.269   0.000  0.00  0.00    +0.000 NA
ENDBRANCH   5  11
ENDBRANCH   4   8
ENDBRANCH   3   4
ENDBRANCH   2   3
ENDBRANCH   1   2
BRANCH   1  14
ATOM     14  C   UNL     1       0.345  -0.206   0.000  0.00  0.00    +0.000 C 
BRANCH  14  15
ATOM     15  C   UNL     1       1.060   0.206   0.000  0.00  0.00    +0.000 C 
BRANCH  15  16
ATOM     16  C   UNL     1       1.774  -0.206   0.000  0.00  0.00    +0.000 C 
BRANCH  16  17
ATOM     17  O   UNL     1       2.489   0.206   0.000  0.00  0.00    +0.000 OA
BRANCH  17  18
ATOM     18  C   UNL     1       3.203  -0.206   0.000  0.00  0.00    +0.000 A 
ATOM     19  C   UNL     1       3.918   0.206   0.000  0.00  0.00    +0.000 A 
ATOM     20  C   UNL     1       4.632  -0.206   0.000  0.00  0.00    +0.000 A 
ATOM     21  C   UNL     1       4.632  -1.031   0.000  0.00  0.00    +0.000 A 
ATOM     22  C   UNL     1       3.918  -1.444   0.000  0.00  0.00    +0.000 A 
ATOM     23  C   UNL     1       3.203  -1.031   0.000  0.00  0.00    +0.000 A 
BRANCH  21  24
ATOM     24  C   UNL     1       5.347  -1.444   0.000  0.00  0.00    +0.000 C 
ATOM     25  N   UNL     1       6.061  -1.031   0.000  0.00  0.00    +0.000 NA
ATOM     26  N   UNL     1       5.347  -2.269   0.000  0.00  0.00    +0.000 NA
ENDBRANCH  21  24
ENDBRANCH  17  18
ENDBRANCH  16  17
ENDBRANCH  15  16
ENDBRANCH  14  15
ENDBRANCH   1  14
TORSDOF 11
