REMARK  Name = DK2
REMARK  5 active torsions:
REMARK  status: ('A' for Active; 'I' for Inactive)
REMARK    1  A    between atoms: C_8  and  C_9
REMARK    2  A    between atoms: N_12  and  C_15
REMARK    3  A    between atoms: C_15  and  C_16
REMARK    4  A    between atoms: C_15  and  C_19
REMARK    5  A    between atoms: C_19  and  C_20
REMARK                            x       y       z     vdW  Elec       q    Type
REMARK                         _______ _______ _______ _____ _____    ______ ____
ROOT
ATOM      1  O   UNL     1       0.671  -1.429   0.000  0.00  0.00    +0.000 OA
ATOM      2  C   UNL     1       0.926  -0.645   0.000  0.00  0.00    +0.000 C 
ATOM      3  C   UNL     1       1.711  -0.390   0.000  0.00  0.00    +0.000 A 
ATOM      4  C   UNL     1       1.711   0.435   0.000  0.00  0.00    +0.000 A 
ATOM      5  C   UNL     1       2.425   0.848   0.000  0.00  0.00    +0.000 A 
ATOM      6  C   UNL     1       2.425  -0.802   0.000  0.00  0.00    +0.000 A 
ATOM      7  C   UNL     1       3.140  -0.390   0.000  0.00  0.00    +0.000 A 
ATOM      8  C   UNL     1       3.140   0.435   0.000  0.00  0.00    +0.000 A 
ATOM      9  N   UNL     1       0.441   0.023   0.000  0.00  0.00    +0.000 N 
ATOM     10  C   UNL     1       0.926   0.690   0.000  0.00  0.00    +0.000 C 
ATOM     11  O   UNL     1       0.671   1.475   0.000  0.00  0.00    +0.000 OA
ENDROOT
BRANCH   8  12
ATOM     12  C   UNL     1       3.854   0.848   0.000  0.00  0.00    +0.000 C 
ATOM     13  O   UNL     1       4.569   0.435   0.000  0.00  0.00    +0.000 OA
ATOM     14  O   UNL     1       3.854   1.673   0.000  0.00  0.00    +0.000 OA
ENDBRANCH   8  12
BRANCH   9  15
ATOM     15  C   UNL     1      -0.384   0.023   0.000  0.00  0.00    +0.000 C 
BRANCH  15  16
ATOM     16  C   UNL     1      -0.796   0.737   0.000  0.00  0.00    +0.000 C 
ATOM     17  O   UNL     1      -0.384   1.452   0.000  0.00  0.00    +0.000 OA
ATOM     18  O   UNL     1      -1.621   0.737   0.000  0.00  0.00    +0.000 OA
ENDBRANCH  15  16
BRANCH  15  19
ATOM     19  C   UNL     1      -0.796  -0.692   0.000  0.00  0.00    +0.000 C 
BRANCH  19  20
ATOM     20  C   UNL     1      -1.621  -0.692   0.000  0.00  0.00    +0.000 A 
ATOM     21  C   UNL     1      -2.034  -1.406   0.000  0.00  0.00    +0.000 A 
ATOM     22  C   UNL     1      -2.859  -1.406   0.000  0.00  0.00    +0.000 A 
ATOM     23  C   UNL     1      -3.271  -0.692   0.000  0.00  0.00    +0.000 A 
ATOM     24  O   UNL     1      -4.096  -0.692   0.000  0.00  0.00    +0.000 OA
ATOM     25  C   UNL     1      -2.859   0.023   0.000  0.00  0.00    +0.000 A 
ATOM     26  C   UNL     1      -2.034   0.023   0.000  0.00  0.00    +0.000 A 
ENDBRANCH  19  20
ENDBRANCH  15  19
ENDBRANCH   9  15
TORSDOF 5
