REMARK  Name = DLG
REMARK  7 active torsions:
REMARK  status: ('A' for Active; 'I' for Inactive)
REMARK    1  A    between atoms: C_1  and  O_7
REMARK    2  A    between atoms: C_5  and  C_6
REMARK    3  A    between atoms: O_7  and  C_12
REMARK    4  A    between atoms: C_12  and  C_13
REMARK    5  A    between atoms: C_13  and  C_14
REMARK    6  A    between atoms: C_14  and  C_15
REMARK    7  A    between atoms: C_15  and  C_16
REMARK                            x       y       z     vdW  Elec       q    Type
REMARK                         _______ _______ _______ _____ _____    ______ ____
ROOT
ATOM      1  C   UNL     1      -0.982   0.133   0.000  0.00  0.00    +0.000 C 
ATOM      2  C   UNL     1      -0.982  -0.692   0.000  0.00  0.00    +0.000 C 
ATOM      3  C   UNL     1      -1.696  -1.105   0.000  0.00  0.00    +0.000 C 
ATOM      4  C   UNL     1      -2.411  -0.692   0.000  0.00  0.00    +0.000 C 
ATOM      5  C   UNL     1      -2.411   0.133   0.000  0.00  0.00    +0.000 C 
ATOM      6  O   UNL     1      -0.268  -1.105   0.000  0.00  0.00    +0.000 OA
ATOM      7  O   UNL     1      -3.125  -1.105   0.000  0.00  0.00    +0.000 OA
ATOM      8  O   UNL     1      -1.696   0.545   0.000  0.00  0.00    +0.000 OA
ENDROOT
BRANCH   5   9
ATOM      9  C   UNL     1      -3.125   0.545   0.000  0.00  0.00    +0.000 C 
ATOM     10  O   UNL     1      -3.125   1.370   0.000  0.00  0.00    +0.000 OA
ENDBRANCH   5   9
BRANCH   1  11
ATOM     11  O   UNL     1      -0.268   0.545   0.000  0.00  0.00    +0.000 OA
BRANCH  11  12
ATOM     12  C   UNL     1       0.447   0.133   0.000  0.00  0.00    +0.000 C 
BRANCH  12  13
ATOM     13  C   UNL     1       1.161   0.545   0.000  0.00  0.00    +0.000 C 
BRANCH  13  14
ATOM     14  C   UNL     1       1.876   0.133   0.000  0.00  0.00    +0.000 C 
BRANCH  14  15
ATOM     15  C   UNL     1       2.590   0.545   0.000  0.00  0.00    +0.000 C 
BRANCH  15  16
ATOM     16  C   UNL     1       3.305   0.133   0.000  0.00  0.00    +0.000 C 
ATOM     17  C   UNL     1       4.019   0.545   0.000  0.00  0.00    +0.000 C 
ENDBRANCH  15  16
ENDBRANCH  14  15
ENDBRANCH  13  14
ENDBRANCH  12  13
ENDBRANCH  11  12
ENDBRANCH   1  11
TORSDOF 7
