REMARK  Name = DLI
REMARK  4 active torsions:
REMARK  status: ('A' for Active; 'I' for Inactive)
REMARK    1  A    between atoms: C_4  and  C_14
REMARK    2  A    between atoms: C_9  and  C_24
REMARK    3  A    between atoms: C_11  and  S_29
REMARK    4  A    between atoms: N_17  and  C_20
REMARK                            x       y       z     vdW  Elec       q    Type
REMARK                         _______ _______ _______ _____ _____    ______ ____
ROOT
ATOM      1  C   UNL     1      -0.028  -3.411   0.000  0.00  0.00    +0.000 A 
ATOM      2  C   UNL     1       0.643  -1.904   0.000  0.00  0.00    +0.000 A 
ATOM      3  C   UNL     1      -0.177  -1.990   0.000  0.00  0.00    +0.000 A 
ATOM      4  N   UNL     1      -0.513  -2.744   0.000  0.00  0.00    +0.000 NA
ATOM      5  N   UNL     1       0.792  -3.325   0.000  0.00  0.00    +0.000 NA
ATOM      6  C   UNL     1       1.128  -2.571   0.000  0.00  0.00    +0.000 A 
ENDROOT
BRANCH   3  10
ATOM      7  C   UNL     1      -1.075  -0.053   0.000  0.00  0.00    +0.000 C 
ATOM      8  C   UNL     1      -0.407  -0.538   0.000  0.00  0.00    +0.000 C 
ATOM      9  C   UNL     1      -1.742  -0.538   0.000  0.00  0.00    +0.000 C 
ATOM     10  N   UNL     1      -0.662  -1.323   0.000  0.00  0.00    +0.000 N 
ATOM     11  C   UNL     1      -1.487  -1.323   0.000  0.00  0.00    +0.000 C 
ATOM     12  N   UNL     1      -2.527  -0.283   0.000  0.00  0.00    +0.000 NA
BRANCH   7  18
ATOM     13  C   UNL     1      -1.789   1.185   0.000  0.00  0.00    +0.000 A 
ATOM     14  C   UNL     1      -1.789   2.010   0.000  0.00  0.00    +0.000 A 
ATOM     15  C   UNL     1      -1.075   2.422   0.000  0.00  0.00    +0.000 A 
ATOM     16  C   UNL     1      -0.360   2.010   0.000  0.00  0.00    +0.000 A 
ATOM     17  C   UNL     1      -0.360   1.185   0.000  0.00  0.00    +0.000 A 
ATOM     18  C   UNL     1      -1.075   0.772   0.000  0.00  0.00    +0.000 A 
ATOM     19  F   UNL     1      -2.504   0.772   0.000  0.00  0.00    +0.000 F 
ATOM     20  F   UNL     1      -1.075   3.247   0.000  0.00  0.00    +0.000 F 
ATOM     21  F   UNL     1       0.354   2.422   0.000  0.00  0.00    +0.000 F 
ENDBRANCH   7  18
ENDBRANCH   3  10
BRANCH   6  22
ATOM     22  C   UNL     1       1.948  -2.485   0.000  0.00  0.00    +0.000 A 
ATOM     23  C   UNL     1       3.254  -3.066   0.000  0.00  0.00    +0.000 A 
ATOM     24  C   UNL     1       3.104  -1.645   0.000  0.00  0.00    +0.000 A 
ATOM     25  C   UNL     1       2.433  -3.152   0.000  0.00  0.00    +0.000 A 
ATOM     26  C   UNL     1       3.589  -2.312   0.000  0.00  0.00    +0.000 A 
ATOM     27  C   UNL     1       2.284  -1.731   0.000  0.00  0.00    +0.000 A 
BRANCH  24  29
ATOM     28  C   UNL     1       3.776  -0.138   0.000  0.00  0.00    +0.000 C 
ATOM     29  S   UNL     1       3.440  -0.891   0.000  0.00  0.00    +0.000 S 
ATOM     30  O   UNL     1       2.686  -0.556   0.000  0.00  0.00    +0.000 OA
ATOM     31  O   UNL     1       4.194  -1.227   0.000  0.00  0.00    +0.000 OA
ENDBRANCH  24  29
ENDBRANCH   6  22
TORSDOF 4
