REMARK  Name = DMA
REMARK  5 active torsions:
REMARK  status: ('A' for Active; 'I' for Inactive)
REMARK    1  A    between atoms: C_1  and  O_2
REMARK    2  A    between atoms: C_1  and  C_3
REMARK    3  A    between atoms: O_2  and  P_7
REMARK    4  A    between atoms: P_7  and  O_10
REMARK    5  A    between atoms: O_10  and  P_11
REMARK                            x       y       z     vdW  Elec       q    Type
REMARK                         _______ _______ _______ _____ _____    ______ ____
ROOT
ATOM      1  P   UNL     1       0.745  -0.615   0.000  0.00  0.00    +0.000 P 
ATOM      2  O   UNL     1       0.333  -1.329   0.000  0.00  0.00    +0.000 OA
ATOM      3  O   UNL     1       1.158   0.100   0.000  0.00  0.00    +0.000 OA
ENDROOT
BRANCH   1   4
ATOM      4  O   UNL     1       0.031  -0.202   0.000  0.00  0.00    +0.000 OA
BRANCH   4   5
ATOM      5  C   UNL     1      -0.684  -0.615   0.000  0.00  0.00    +0.000 C 
BRANCH   5   6
ATOM      6  C   UNL     1      -1.398  -0.202   0.000  0.00  0.00    +0.000 C 
ATOM      7  C   UNL     1      -1.398   0.623   0.000  0.00  0.00    +0.000 C 
ATOM      8  C   UNL     1      -2.112   1.035   0.000  0.00  0.00    +0.000 C 
ATOM      9  C   UNL     1      -0.684   1.035   0.000  0.00  0.00    +0.000 C 
ENDBRANCH   5   6
ENDBRANCH   4   5
ENDBRANCH   1   4
BRANCH   1  10
ATOM     10  O   UNL     1       1.460  -1.027   0.000  0.00  0.00    +0.000 OA
BRANCH  10  11
ATOM     11  P   UNL     1       2.174  -0.615   0.000  0.00  0.00    +0.000 P 
ATOM     12  O   UNL     1       2.889  -0.202   0.000  0.00  0.00    +0.000 OA
ATOM     13  O   UNL     1       2.587  -1.329   0.000  0.00  0.00    +0.000 OA
ATOM     14  O   UNL     1       1.762   0.100   0.000  0.00  0.00    +0.000 OA
ENDBRANCH  10  11
ENDBRANCH   1  10
TORSDOF 5
