REMARK  Name = DMB
REMARK  3 active torsions:
REMARK  status: ('A' for Active; 'I' for Inactive)
REMARK    1  A    between atoms: C_1  and  N_16
REMARK    2  A    between atoms: C_2  and  C_13
REMARK    3  A    between atoms: C_7  and  N_17
REMARK                            x       y       z     vdW  Elec       q    Type
REMARK                         _______ _______ _______ _____ _____    ______ ____
ROOT
ATOM      1  N   UNL     1       0.281  -0.790   0.000  0.00  0.00    +0.000 NA
ATOM      2  N   UNL     1      -0.434  -0.378   0.000  0.00  0.00    +0.000 NA
ENDROOT
BRANCH   2   3
ATOM      3  C   UNL     1      -0.434   0.447   0.000  0.00  0.00    +0.000 A 
ATOM      4  C   UNL     1      -1.148   0.860   0.000  0.00  0.00    +0.000 A 
ATOM      5  C   UNL     1      -1.148   1.685   0.000  0.00  0.00    +0.000 A 
ATOM      6  C   UNL     1      -0.434   2.097   0.000  0.00  0.00    +0.000 A 
ATOM      7  C   UNL     1       0.281   1.685   0.000  0.00  0.00    +0.000 A 
ATOM      8  C   UNL     1       0.281   0.860   0.000  0.00  0.00    +0.000 A 
ATOM      9  C   UNL     1      -1.863   2.097   0.000  0.00  0.00    +0.000 C 
ATOM     10  C   UNL     1       0.995   2.097   0.000  0.00  0.00    +0.000 C 
ATOM     11  O   UNL     1      -0.434   2.922   0.000  0.00  0.00    +0.000 OA
ENDBRANCH   2   3
BRANCH   1  12
ATOM     12  C   UNL     1       0.281  -1.615   0.000  0.00  0.00    +0.000 A 
ATOM     13  C   UNL     1       0.995  -2.028   0.000  0.00  0.00    +0.000 A 
ATOM     14  C   UNL     1       0.995  -2.853   0.000  0.00  0.00    +0.000 A 
ATOM     15  C   UNL     1       0.281  -3.265   0.000  0.00  0.00    +0.000 A 
ATOM     16  C   UNL     1      -0.434  -2.853   0.000  0.00  0.00    +0.000 A 
ATOM     17  C   UNL     1      -0.434  -2.028   0.000  0.00  0.00    +0.000 A 
BRANCH  13  18
ATOM     18  C   UNL     1       1.710  -1.615   0.000  0.00  0.00    +0.000 C 
ATOM     19  O   UNL     1       2.424  -2.028   0.000  0.00  0.00    +0.000 OA
ATOM     20  O   UNL     1       1.710  -0.790   0.000  0.00  0.00    +0.000 OA
ENDBRANCH  13  18
ENDBRANCH   1  12
TORSDOF 3
