REMARK  Name = DMC
REMARK  5 active torsions:
REMARK  status: ('A' for Active; 'I' for Inactive)
REMARK    1  A    between atoms: C_2  and  C_3
REMARK    2  A    between atoms: C_4  and  C_6
REMARK    3  A    between atoms: C_9  and  N_13
REMARK    4  A    between atoms: N_13  and  C_14
REMARK    5  A    between atoms: N_13  and  C_15
REMARK                            x       y       z     vdW  Elec       q    Type
REMARK                         _______ _______ _______ _____ _____    ______ ____
ROOT
ATOM      1  C   UNL     1       1.186   0.392   0.000  0.00  0.00    +0.000 A 
ATOM      2  C   UNL     1       1.186  -0.433   0.000  0.00  0.00    +0.000 A 
ATOM      3  C   UNL     1       0.471  -0.846   0.000  0.00  0.00    +0.000 A 
ATOM      4  C   UNL     1      -0.243  -0.433   0.000  0.00  0.00    +0.000 A 
ATOM      5  C   UNL     1      -0.243   0.392   0.000  0.00  0.00    +0.000 A 
ATOM      6  C   UNL     1       0.471   0.804   0.000  0.00  0.00    +0.000 A 
ATOM      7  O   UNL     1       1.900  -0.846   0.000  0.00  0.00    +0.000 OA
ENDROOT
BRANCH   1   9
ATOM      8  C   UNL     1       1.900   1.629   0.000  0.00  0.00    +0.000 C 
ATOM      9  C   UNL     1       1.900   0.804   0.000  0.00  0.00    +0.000 C 
ATOM     10  C   UNL     1       1.186   2.042   0.000  0.00  0.00    +0.000 C 
BRANCH   8  12
ATOM     11  O   UNL     1       2.615   2.867   0.000  0.00  0.00    +0.000 OA
ATOM     12  C   UNL     1       2.615   2.042   0.000  0.00  0.00    +0.000 C 
ATOM     13  O   UNL     1       3.329   1.629   0.000  0.00  0.00    +0.000 OA
ENDBRANCH   8  12
ENDBRANCH   1   9
BRANCH   4  14
ATOM     14  N   UNL     1      -0.958  -0.846   0.000  0.00  0.00    +0.000 N 
BRANCH  14  15
ATOM     15  C   UNL     1      -1.672  -0.433   0.000  0.00  0.00    +0.000 C 
ATOM     16  C   UNL     1      -2.387  -0.846   0.000  0.00  0.00    +0.000 C 
ENDBRANCH  14  15
BRANCH  14  17
ATOM     17  C   UNL     1      -0.958  -1.671   0.000  0.00  0.00    +0.000 C 
ATOM     18  C   UNL     1      -1.672  -2.083   0.000  0.00  0.00    +0.000 C 
ENDBRANCH  14  17
ENDBRANCH   4  14
TORSDOF 5
