REMARK  Name = DMZ
REMARK  4 active torsions:
REMARK  status: ('A' for Active; 'I' for Inactive)
REMARK    1  A    between atoms: C_5  and  S_8
REMARK    2  A    between atoms: S_8  and  N_11
REMARK    3  A    between atoms: N_11  and  C_13
REMARK    4  A    between atoms: N_17  and  C_18
REMARK                            x       y       z     vdW  Elec       q    Type
REMARK                         _______ _______ _______ _____ _____    ______ ____
ROOT
ATOM      1  N   UNL     1      -0.237  -0.044   0.000  0.00  0.00    +0.000 N 
ATOM      2  C   UNL     1      -0.952   0.369   0.000  0.00  0.00    +0.000 C 
ENDROOT
BRANCH   1   3
ATOM      3  C   UNL     1      -0.237  -0.869   0.000  0.00  0.00    +0.000 A 
ATOM      4  C   UNL     1       0.430  -1.354   0.000  0.00  0.00    +0.000 A 
ATOM      5  C   UNL     1       0.175  -2.138   0.000  0.00  0.00    +0.000 A 
ATOM      6  N   UNL     1      -0.650  -2.138   0.000  0.00  0.00    +0.000 NA
ATOM      7  N   UNL     1      -0.904  -1.354   0.000  0.00  0.00    +0.000 N 
BRANCH   7   8
ATOM      8  C   UNL     1      -1.689  -1.099   0.000  0.00  0.00    +0.000 A 
ATOM      9  C   UNL     1      -2.302  -1.651   0.000  0.00  0.00    +0.000 A 
ATOM     10  C   UNL     1      -3.087  -1.396   0.000  0.00  0.00    +0.000 A 
ATOM     11  C   UNL     1      -3.258  -0.589   0.000  0.00  0.00    +0.000 A 
ATOM     12  C   UNL     1      -2.645  -0.037   0.000  0.00  0.00    +0.000 A 
ATOM     13  C   UNL     1      -1.861  -0.292   0.000  0.00  0.00    +0.000 A 
ENDBRANCH   7   8
ENDBRANCH   1   3
BRANCH   1  14
ATOM     14  S   UNL     1       0.477   0.369   0.000  0.00  0.00    +0.000 S 
ATOM     15  O   UNL     1       0.065   1.083   0.000  0.00  0.00    +0.000 OA
ATOM     16  O   UNL     1       0.890  -0.346   0.000  0.00  0.00    +0.000 OA
BRANCH  14  21
ATOM     17  C   UNL     1       1.906   2.019   0.000  0.00  0.00    +0.000 A 
ATOM     18  C   UNL     1       2.621   1.606   0.000  0.00  0.00    +0.000 A 
ATOM     19  C   UNL     1       2.621   0.781   0.000  0.00  0.00    +0.000 A 
ATOM     20  C   UNL     1       1.906   0.369   0.000  0.00  0.00    +0.000 A 
ATOM     21  C   UNL     1       1.192   0.781   0.000  0.00  0.00    +0.000 A 
ATOM     22  C   UNL     1       1.192   1.606   0.000  0.00  0.00    +0.000 A 
ATOM     23  C   UNL     1       3.335   2.019   0.000  0.00  0.00    +0.000 C 
ENDBRANCH  14  21
ENDBRANCH   1  14
TORSDOF 4
