REMARK  Name = DP4
REMARK  2 active torsions:
REMARK  status: ('A' for Active; 'I' for Inactive)
REMARK    1  A    between atoms: C_4  and  SI_9
REMARK    2  A    between atoms: SI_9  and  C_10
REMARK                            x       y       z     vdW  Elec       q    Type
REMARK                         _______ _______ _______ _____ _____    ______ ____
ROOT
ATOM      1  C   UNL     1      -0.710   0.512   0.000  0.00  0.00    +0.000 C 
ATOM      2  C   UNL     1       0.940   0.512   0.000  0.00  0.00    +0.000 C 
ATOM      3 SI   UNL     1       0.115   0.512   0.000  0.00  0.00    +0.000 Si
ENDROOT
BRANCH   3   4
ATOM      4  C   UNL     1       0.115  -0.313   0.000  0.00  0.00    +0.000 C 
ATOM      5  C   UNL     1       0.830  -0.726   0.000  0.00  0.00    +0.000 C 
ATOM      6  C   UNL     1       0.830  -1.550   0.000  0.00  0.00    +0.000 C 
ATOM      7  C   UNL     1      -0.599  -1.550   0.000  0.00  0.00    +0.000 C 
ATOM      8  C   UNL     1      -0.599  -0.726   0.000  0.00  0.00    +0.000 C 
ATOM      9  N   UNL     1       0.115  -1.963   0.000  0.00  0.00    +0.000 N 
ATOM     10  O   UNL     1       0.502  -2.691   0.000  0.00  0.00    +0.000 OA
ATOM     11  C   UNL     1      -0.272  -2.691   0.000  0.00  0.00    +0.000 C 
ENDBRANCH   3   4
BRANCH   3  15
ATOM     12  C   UNL     1       0.115   2.987   0.000  0.00  0.00    +0.000 A 
ATOM     13  C   UNL     1       0.830   2.575   0.000  0.00  0.00    +0.000 A 
ATOM     14  C   UNL     1       0.830   1.750   0.000  0.00  0.00    +0.000 A 
ATOM     15  C   UNL     1       0.115   1.337   0.000  0.00  0.00    +0.000 A 
ATOM     16  C   UNL     1      -0.599   1.750   0.000  0.00  0.00    +0.000 A 
ATOM     17  C   UNL     1      -0.599   2.575   0.000  0.00  0.00    +0.000 A 
ENDBRANCH   3  15
TORSDOF 2
