REMARK  Name = DPB
REMARK  3 active torsions:
REMARK  status: ('A' for Active; 'I' for Inactive)
REMARK    1  A    between atoms: C_3  and  C_23
REMARK    2  A    between atoms: N_8  and  C_16
REMARK    3  A    between atoms: C_23  and  P_25
REMARK                            x       y       z     vdW  Elec       q    Type
REMARK                         _______ _______ _______ _____ _____    ______ ____
ROOT
ATOM      1  C   UNL     1      -1.121  -0.268   0.000  0.00  0.00    +0.000 C 
ATOM      2  O   UNL     1      -0.636  -0.935   0.000  0.00  0.00    +0.000 OA
ATOM      3  C   UNL     1       0.149  -0.681   0.000  0.00  0.00    +0.000 C 
ATOM      4  C   UNL     1       0.149   0.144   0.000  0.00  0.00    +0.000 C 
ATOM      5  C   UNL     1      -0.636   0.399   0.000  0.00  0.00    +0.000 C 
ATOM      6  C   UNL     1       0.863  -1.093   0.000  0.00  0.00    +0.000 C 
ATOM      7  O   UNL     1       1.578  -0.681   0.000  0.00  0.00    +0.000 OA
ATOM      8  C   UNL     1       1.578   0.144   0.000  0.00  0.00    +0.000 C 
ATOM      9  O   UNL     1       0.863   0.557   0.000  0.00  0.00    +0.000 OA
ENDROOT
BRANCH   1  11
ATOM     10  C   UNL     1      -2.358  -0.983   0.000  0.00  0.00    +0.000 A 
ATOM     11  N   UNL     1      -1.946  -0.268   0.000  0.00  0.00    +0.000 N 
ATOM     12  C   UNL     1      -2.358   0.446   0.000  0.00  0.00    +0.000 A 
ATOM     13  C   UNL     1      -3.183   0.446   0.000  0.00  0.00    +0.000 A 
ATOM     14  C   UNL     1      -3.596  -0.268   0.000  0.00  0.00    +0.000 A 
ATOM     15  N   UNL     1      -3.183  -0.983   0.000  0.00  0.00    +0.000 NA
ATOM     16  O   UNL     1      -1.946  -1.697   0.000  0.00  0.00    +0.000 OA
ATOM     17  O   UNL     1      -4.421  -0.268   0.000  0.00  0.00    +0.000 OA
ATOM     18  C   UNL     1      -3.596   1.161   0.000  0.00  0.00    +0.000 C 
ENDBRANCH   1  11
BRANCH   8  21
ATOM     19  C   UNL     1       3.485  -0.917   0.000  0.00  0.00    +0.000 A 
ATOM     20  C   UNL     1       2.672  -0.774   0.000  0.00  0.00    +0.000 A 
ATOM     21  C   UNL     1       2.390   0.001   0.000  0.00  0.00    +0.000 A 
ATOM     22  C   UNL     1       2.921   0.633   0.000  0.00  0.00    +0.000 A 
ATOM     23  C   UNL     1       3.733   0.490   0.000  0.00  0.00    +0.000 A 
ATOM     24  C   UNL     1       4.015  -0.285   0.000  0.00  0.00    +0.000 A 
ENDBRANCH   8  21
BRANCH   8  25
ATOM     25  P   UNL     1       1.860   0.920   0.000  0.00  0.00    +0.000 P 
ATOM     26  O   UNL     1       2.635   0.637   0.000  0.00  0.00    +0.000 OA
ATOM     27  O   UNL     1       1.085   1.202   0.000  0.00  0.00    +0.000 OA
ATOM     28  O   UNL     1       2.142   1.695   0.000  0.00  0.00    +0.000 OA
ENDBRANCH   8  25
TORSDOF 3
