REMARK  Name = DPK
REMARK  5 active torsions:
REMARK  status: ('A' for Active; 'I' for Inactive)
REMARK    1  A    between atoms: C_2  and  C_3
REMARK    2  A    between atoms: C_3  and  N_4
REMARK    3  A    between atoms: N_4  and  C_6
REMARK    4  A    between atoms: C_6  and  C_8
REMARK    5  A    between atoms: C_8  and  C_9
REMARK                            x       y       z     vdW  Elec       q    Type
REMARK                         _______ _______ _______ _____ _____    ______ ____
ROOT
ATOM      1  C   UNL     1       0.032  -0.036   0.000  0.00  0.00    +0.000 C 
ATOM      2  C   UNL     1       0.032  -0.861   0.000  0.00  0.00    +0.000 C 
ENDROOT
BRANCH   1   3
ATOM      3  N   UNL     1      -0.682   0.376   0.000  0.00  0.00    +0.000 NA
ATOM      4  C   UNL     1      -0.682   1.201   0.000  0.00  0.00    +0.000 C 
BRANCH   3   5
ATOM      5  C   UNL     1      -1.397  -0.036   0.000  0.00  0.00    +0.000 C 
BRANCH   5   7
ATOM      6  C   UNL     1      -2.826  -0.036   0.000  0.00  0.00    +0.000 C 
ATOM      7  C   UNL     1      -2.111   0.376   0.000  0.00  0.00    +0.000 C 
ENDBRANCH   5   7
ENDBRANCH   3   5
ENDBRANCH   1   3
BRANCH   1   8
ATOM      8  C   UNL     1       0.747   0.376   0.000  0.00  0.00    +0.000 C 
BRANCH   8   9
ATOM      9  C   UNL     1       1.461  -0.036   0.000  0.00  0.00    +0.000 A 
ATOM     10  C   UNL     1       2.176   0.376   0.000  0.00  0.00    +0.000 A 
ATOM     11  C   UNL     1       2.890  -0.036   0.000  0.00  0.00    +0.000 A 
ATOM     12  C   UNL     1       2.890  -0.861   0.000  0.00  0.00    +0.000 A 
ATOM     13  C   UNL     1       2.176  -1.274   0.000  0.00  0.00    +0.000 A 
ATOM     14  C   UNL     1       1.461  -0.861   0.000  0.00  0.00    +0.000 A 
ENDBRANCH   8   9
ENDBRANCH   1   8
TORSDOF 5
