REMARK  Name = DPT
REMARK  0 active torsions:
REMARK  status: ('A' for Active; 'I' for Inactive)
REMARK                            x       y       z     vdW  Elec       q    Type
REMARK                         _______ _______ _______ _____ _____    ______ ____
ROOT
ATOM      1  N   UNL     1      -0.610  -1.312   0.000  0.00  0.00    +0.000 NA
ATOM      2  C   UNL     1      -1.435  -1.312   0.000  0.00  0.00    +0.000 A 
ATOM      3  C   UNL     1      -1.847  -0.598   0.000  0.00  0.00    +0.000 A 
ATOM      4  C   UNL     1      -1.435   0.117   0.000  0.00  0.00    +0.000 A 
ATOM      5  C   UNL     1      -0.610   0.117   0.000  0.00  0.00    +0.000 A 
ATOM      6  C   UNL     1      -0.197   0.831   0.000  0.00  0.00    +0.000 A 
ATOM      7  C   UNL     1       0.628   0.831   0.000  0.00  0.00    +0.000 A 
ATOM      8  C   UNL     1       1.040   0.117   0.000  0.00  0.00    +0.000 A 
ATOM      9  C   UNL     1       1.865   0.117   0.000  0.00  0.00    +0.000 A 
ATOM     10  C   UNL     1       2.278  -0.598   0.000  0.00  0.00    +0.000 A 
ATOM     11  C   UNL     1       1.865  -1.312   0.000  0.00  0.00    +0.000 A 
ATOM     12  N   UNL     1       1.040  -1.312   0.000  0.00  0.00    +0.000 NA
ATOM     13  C   UNL     1       0.628  -0.598   0.000  0.00  0.00    +0.000 A 
ATOM     14  C   UNL     1      -0.197  -0.598   0.000  0.00  0.00    +0.000 A 
ATOM     15  C   UNL     1      -1.847   0.831   0.000  0.00  0.00    +0.000 C 
ATOM     16  C   UNL     1       2.278   0.831   0.000  0.00  0.00    +0.000 C 
ENDROOT
TORSDOF 0
