REMARK  Name = DQO
REMARK  3 active torsions:
REMARK  status: ('A' for Active; 'I' for Inactive)
REMARK    1  A    between atoms: C_2  and  C_8
REMARK    2  A    between atoms: C_4  and  N_7
REMARK    3  A    between atoms: N_9  and  C_14
REMARK                            x       y       z     vdW  Elec       q    Type
REMARK                         _______ _______ _______ _____ _____    ______ ____
ROOT
ATOM      1  C   UNL     1       0.383  -0.720   0.000  0.00  0.00    +0.000 A 
ATOM      2  C   UNL     1      -0.332  -1.133   0.000  0.00  0.00    +0.000 A 
ATOM      3  C   UNL     1      -1.046  -0.720   0.000  0.00  0.00    +0.000 A 
ATOM      4  C   UNL     1      -1.046   0.105   0.000  0.00  0.00    +0.000 A 
ATOM      5  C   UNL     1      -0.332   0.517   0.000  0.00  0.00    +0.000 A 
ATOM      6  C   UNL     1       0.383   0.105   0.000  0.00  0.00    +0.000 A 
ATOM      7  N   UNL     1       1.097   0.517   0.000  0.00  0.00    +0.000 N 
ATOM      8  C   UNL     1       1.812   0.105   0.000  0.00  0.00    +0.000 C 
ATOM      9  N   UNL     1       1.812  -0.720   0.000  0.00  0.00    +0.000 NA
ATOM     10  C   UNL     1       1.097  -1.133   0.000  0.00  0.00    +0.000 C 
ATOM     11  O   UNL     1       2.526   0.517   0.000  0.00  0.00    +0.000 OA
ENDROOT
BRANCH   2  12
ATOM     12  C   UNL     1      -0.332  -1.958   0.000  0.00  0.00    +0.000 A 
ATOM     13  C   UNL     1       0.383  -2.370   0.000  0.00  0.00    +0.000 A 
ATOM     14  C   UNL     1       0.383  -3.195   0.000  0.00  0.00    +0.000 A 
ATOM     15  C   UNL     1      -0.332  -3.607   0.000  0.00  0.00    +0.000 A 
ATOM     16  C   UNL     1      -1.046  -3.195   0.000  0.00  0.00    +0.000 A 
ATOM     17  C   UNL     1      -1.046  -2.370   0.000  0.00  0.00    +0.000 A 
ATOM     18  F   UNL     1      -1.760  -1.958   0.000  0.00  0.00    +0.000 F 
ATOM     19  F   UNL     1      -0.332  -4.433   0.000  0.00  0.00    +0.000 F 
ENDBRANCH   2  12
BRANCH   7  20
ATOM     20  C   UNL     1       1.097   1.343   0.000  0.00  0.00    +0.000 A 
ATOM     21  C   UNL     1       0.383   1.755   0.000  0.00  0.00    +0.000 A 
ATOM     22  C   UNL     1       0.383   2.580   0.000  0.00  0.00    +0.000 A 
ATOM     23  C   UNL     1       1.097   2.993   0.000  0.00  0.00    +0.000 A 
ATOM     24  C   UNL     1       1.812   2.580   0.000  0.00  0.00    +0.000 A 
ATOM     25  C   UNL     1       1.812   1.755   0.000  0.00  0.00    +0.000 A 
ATOM     26 CL   UNL     1       2.526   1.343   0.000  0.00  0.00    +0.000 Cl
ATOM     27 CL   UNL     1      -0.332   1.343   0.000  0.00  0.00    +0.000 Cl
ENDBRANCH   7  20
BRANCH   4  28
ATOM     28  N   UNL     1      -1.760   0.517   0.000  0.00  0.00    +0.000 N 
ATOM     29  C   UNL     1      -2.475   0.105   0.000  0.00  0.00    +0.000 C 
ATOM     30  C   UNL     1      -3.189   0.517   0.000  0.00  0.00    +0.000 C 
ATOM     31  N   UNL     1      -3.189   1.343   0.000  0.00  0.00    +0.000 NA
ATOM     32  C   UNL     1      -2.475   1.755   0.000  0.00  0.00    +0.000 C 
ATOM     33  C   UNL     1      -1.760   1.343   0.000  0.00  0.00    +0.000 C 
ENDBRANCH   4  28
TORSDOF 3
