REMARK  Name = DRF
REMARK  9 active torsions:
REMARK  status: ('A' for Active; 'I' for Inactive)
REMARK    1  A    between atoms: C_2  and  C_4
REMARK    2  A    between atoms: C_4  and  O_5
REMARK    3  A    between atoms: C_4  and  C_8
REMARK    4  A    between atoms: O_5  and  C_6
REMARK    5  A    between atoms: C_8  and  C_9
REMARK    6  A    between atoms: C_12  and  O_13
REMARK    7  A    between atoms: O_13  and  C_14
REMARK    8  A    between atoms: C_14  and  C_15
REMARK    9  A    between atoms: C_15  and  N_16
REMARK                            x       y       z     vdW  Elec       q    Type
REMARK                         _______ _______ _______ _____ _____    ______ ____
ROOT
ATOM      1  C   UNL     1      -1.196  -0.036   0.000  0.00  0.00    +0.000 C 
ENDROOT
BRANCH   1   2
ATOM      2  C   UNL     1      -1.910   0.376   0.000  0.00  0.00    +0.000 C 
BRANCH   2   3
ATOM      3  N   UNL     1      -1.910   1.201   0.000  0.00  0.00    +0.000 N 
ATOM      4  C   UNL     1      -1.196   1.613   0.000  0.00  0.00    +0.000 A 
ATOM      5  C   UNL     1      -1.196   2.438   0.000  0.00  0.00    +0.000 A 
ATOM      6  O   UNL     1      -1.910   2.851   0.000  0.00  0.00    +0.000 OA
ATOM      7  C   UNL     1      -2.625   2.438   0.000  0.00  0.00    +0.000 A 
ATOM      8  C   UNL     1      -2.625   1.613   0.000  0.00  0.00    +0.000 A 
ATOM      9  C   UNL     1      -3.339   1.201   0.000  0.00  0.00    +0.000 A 
ATOM     10  C   UNL     1      -4.054   1.613   0.000  0.00  0.00    +0.000 A 
ATOM     11  C   UNL     1      -4.054   2.438   0.000  0.00  0.00    +0.000 A 
ATOM     12  C   UNL     1      -3.339   2.851   0.000  0.00  0.00    +0.000 A 
ATOM     13  C   UNL     1      -0.481   2.851   0.000  0.00  0.00    +0.000 A 
ATOM     14  C   UNL     1       0.233   2.438   0.000  0.00  0.00    +0.000 A 
ATOM     15  C   UNL     1       0.233   1.613   0.000  0.00  0.00    +0.000 A 
ATOM     16  C   UNL     1      -0.481   1.201   0.000  0.00  0.00    +0.000 A 
ENDBRANCH   2   3
ENDBRANCH   1   2
BRANCH   1  17
ATOM     17  O   UNL     1      -1.196  -0.862   0.000  0.00  0.00    +0.000 OA
BRANCH  17  21
ATOM     18  C   UNL     1       0.948  -2.099   0.000  0.00  0.00    +0.000 A 
ATOM     19  C   UNL     1       0.233  -2.511   0.000  0.00  0.00    +0.000 A 
ATOM     20  C   UNL     1      -0.481  -2.099   0.000  0.00  0.00    +0.000 A 
ATOM     21  C   UNL     1      -0.481  -1.274   0.000  0.00  0.00    +0.000 A 
ATOM     22  C   UNL     1       0.233  -0.862   0.000  0.00  0.00    +0.000 A 
ATOM     23  C   UNL     1       0.948  -1.274   0.000  0.00  0.00    +0.000 A 
BRANCH  18  24
ATOM     24  C   UNL     1       1.662  -2.511   0.000  0.00  0.00    +0.000 C 
BRANCH  24  25
ATOM     25  C   UNL     1       2.377  -2.099   0.000  0.00  0.00    +0.000 C 
BRANCH  25  27
ATOM     26  O   UNL     1       1.662  -0.862   0.000  0.00  0.00    +0.000 OA
ATOM     27  C   UNL     1       2.377  -1.274   0.000  0.00  0.00    +0.000 C 
ATOM     28  O   UNL     1       3.091  -0.862   0.000  0.00  0.00    +0.000 OA
ENDBRANCH  25  27
BRANCH  25  29
ATOM     29  O   UNL     1       3.091  -2.511   0.000  0.00  0.00    +0.000 OA
BRANCH  29  30
ATOM     30  C   UNL     1       3.806  -2.099   0.000  0.00  0.00    +0.000 C 
ATOM     31  C   UNL     1       4.520  -2.511   0.000  0.00  0.00    +0.000 C 
ENDBRANCH  29  30
ENDBRANCH  25  29
ENDBRANCH  24  25
ENDBRANCH  18  24
ENDBRANCH  17  21
ENDBRANCH   1  17
TORSDOF 9
