REMARK  Name = DRG
REMARK  0 active torsions:
REMARK  status: ('A' for Active; 'I' for Inactive)
REMARK                            x       y       z     vdW  Elec       q    Type
REMARK                         _______ _______ _______ _____ _____    ______ ____
ROOT
ATOM      1  C   UNL     1      -1.651   0.305   0.000  0.00  0.00    +0.000 A 
ATOM      2  C   UNL     1      -0.826   0.305   0.000  0.00  0.00    +0.000 A 
ATOM      3  C   UNL     1      -0.413   1.019   0.000  0.00  0.00    +0.000 C 
ATOM      4  C   UNL     1       0.412   1.019   0.000  0.00  0.00    +0.000 C 
ATOM      5  C   UNL     1       0.824   0.305   0.000  0.00  0.00    +0.000 A 
ATOM      6  C   UNL     1       1.649   0.305   0.000  0.00  0.00    +0.000 A 
ATOM      7  C   UNL     1       2.062  -0.410   0.000  0.00  0.00    +0.000 A 
ATOM      8  C   UNL     1       1.649  -1.124   0.000  0.00  0.00    +0.000 A 
ATOM      9  C   UNL     1       0.824  -1.124   0.000  0.00  0.00    +0.000 A 
ATOM     10  C   UNL     1       0.412  -0.410   0.000  0.00  0.00    +0.000 A 
ATOM     11  C   UNL     1      -0.413  -0.410   0.000  0.00  0.00    +0.000 A 
ATOM     12  N   UNL     1      -0.826  -1.124   0.000  0.00  0.00    +0.000 NA
ATOM     13  N   UNL     1      -1.651  -1.124   0.000  0.00  0.00    +0.000 NA
ATOM     14  C   UNL     1      -2.063  -0.410   0.000  0.00  0.00    +0.000 A 
ATOM     15  N   UNL     1      -2.888  -0.410   0.000  0.00  0.00    +0.000 NA
ENDROOT
TORSDOF 0
