REMARK  Name = DRL
REMARK  0 active torsions:
REMARK  status: ('A' for Active; 'I' for Inactive)
REMARK                            x       y       z     vdW  Elec       q    Type
REMARK                         _______ _______ _______ _____ _____    ______ ____
ROOT
ATOM      1  C   UNL     1      -1.720   0.896   0.000  0.00  0.00    +0.000 C 
ATOM      2  C   UNL     1      -1.005   0.484   0.000  0.00  0.00    +0.000 A 
ATOM      3  N   UNL     1      -0.291   0.896   0.000  0.00  0.00    +0.000 NA
ATOM      4  C   UNL     1       0.424   0.484   0.000  0.00  0.00    +0.000 A 
ATOM      5  C   UNL     1       1.138   0.896   0.000  0.00  0.00    +0.000 C 
ATOM      6  C   UNL     1       1.853   0.484   0.000  0.00  0.00    +0.000 C 
ATOM      7  S   UNL     1       1.853  -0.341   0.000  0.00  0.00    +0.000 S 
ATOM      8  C   UNL     1       1.138  -0.754   0.000  0.00  0.00    +0.000 C 
ATOM      9  C   UNL     1       0.424  -0.341   0.000  0.00  0.00    +0.000 A 
ATOM     10  C   UNL     1      -0.291  -0.754   0.000  0.00  0.00    +0.000 A 
ATOM     11  O   UNL     1      -0.291  -1.579   0.000  0.00  0.00    +0.000 OA
ATOM     12  N   UNL     1      -1.005  -0.341   0.000  0.00  0.00    +0.000 NA
ENDROOT
TORSDOF 0
