REMARK  Name = DRS
REMARK  2 active torsions:
REMARK  status: ('A' for Active; 'I' for Inactive)
REMARK    1  A    between atoms: CB_2  and  CA_4
REMARK    2  A    between atoms: CA_8  and  C_9
REMARK                            x       y       z     vdW  Elec       q    Type
REMARK                         _______ _______ _______ _____ _____    ______ ____
ROOT
ATOM      1  CA  UNL     1       1.276  -0.513   0.000  0.00  0.00    +0.000 C 
ATOM      2  C   UNL     1       0.649  -1.050   0.000  0.00  0.00    +0.000 C 
ATOM      3  O   UNL     1       1.042  -1.757   0.000  0.00  0.00    +0.000 OA
ATOM      4  N   UNL     1      -0.140  -1.300   0.000  0.00  0.00    +0.000 NA
ATOM      5  CA  UNL     1      -0.966  -1.242   0.000  0.00  0.00    +0.000 C 
ATOM      6  C   UNL     1      -1.714  -0.876   0.000  0.00  0.00    +0.000 C 
ATOM      7  C   UNL     1      -2.121  -0.136   0.000  0.00  0.00    +0.000 A 
ATOM      8  C   UNL     1      -2.771   0.378   0.000  0.00  0.00    +0.000 A 
ATOM      9  C   UNL     1      -2.663   1.191   0.000  0.00  0.00    +0.000 A 
ATOM     10  C   UNL     1      -1.377   0.209   0.000  0.00  0.00    +0.000 A 
ATOM     11  C   UNL     1      -1.274   1.010   0.000  0.00  0.00    +0.000 A 
ATOM     12  C   UNL     1      -1.909   1.525   0.000  0.00  0.00    +0.000 A 
ATOM     13  O   UNL     1      -1.424   2.205   0.000  0.00  0.00    +0.000 OA
ATOM     14  C   UNL     1      -0.733   2.667   0.000  0.00  0.00    +0.000 C 
ATOM     15  C   UNL     1       0.098   2.746   0.000  0.00  0.00    +0.000 C 
ATOM     16  C   UNL     1       0.862   2.432   0.000  0.00  0.00    +0.000 C 
ATOM     17  C   UNL     1       1.427   1.831   0.000  0.00  0.00    +0.000 C 
ATOM     18  C   UNL     1       1.704   1.053   0.000  0.00  0.00    +0.000 C 
ATOM     19  O   UNL     1       2.505   1.166   0.000  0.00  0.00    +0.000 OA
ATOM     20  N   UNL     1       1.652   0.228   0.000  0.00  0.00    +0.000 NA
ENDROOT
BRANCH   1  22
ATOM     21  CG1 UNL     1       2.662  -0.712   0.000  0.00  0.00    +0.000 C 
ATOM     22  CB  UNL     1       1.912  -1.013   0.000  0.00  0.00    +0.000 C 
ATOM     23  CG2 UNL     1       1.798  -1.813   0.000  0.00  0.00    +0.000 C 
ENDBRANCH   1  22
BRANCH   5  24
ATOM     24  C   UNL     1      -1.176  -2.023   0.000  0.00  0.00    +0.000 C 
ATOM     25  O   UNL     1      -1.957  -2.231   0.000  0.00  0.00    +0.000 OA
ATOM     26  OXT UNL     1      -0.605  -2.595   0.000  0.00  0.00    +0.000 OA
ENDBRANCH   5  24
TORSDOF 2
