REMARK  Name = DRX
REMARK  4 active torsions:
REMARK  status: ('A' for Active; 'I' for Inactive)
REMARK    1  A    between atoms: C_10  and  C_11
REMARK    2  A    between atoms: C_11  and  P_12
REMARK    3  A    between atoms: C_11  and  C_16
REMARK    4  A    between atoms: N_18  and  C_19
REMARK                            x       y       z     vdW  Elec       q    Type
REMARK                         _______ _______ _______ _____ _____    ______ ____
ROOT
ATOM      1  C   UNL     1       1.701  -3.476   0.000  0.00  0.00    +0.000 C 
ENDROOT
BRANCH   1  11
ATOM      2  C   UNL     1       0.900  -2.243   0.000  0.00  0.00    +0.000 A 
ATOM      3  C   UNL     1       1.452  -1.630   0.000  0.00  0.00    +0.000 A 
ATOM      4  C   UNL     1       1.197  -0.846   0.000  0.00  0.00    +0.000 A 
ATOM      5 CL   UNL     1       1.749  -0.233   0.000  0.00  0.00    +0.000 Cl
ATOM      6  C   UNL     1       0.390  -0.674   0.000  0.00  0.00    +0.000 A 
ATOM      7  C   UNL     1      -0.162  -1.287   0.000  0.00  0.00    +0.000 A 
ATOM      8  C   UNL     1       0.093  -2.072   0.000  0.00  0.00    +0.000 A 
ATOM      9  S   UNL     1      -0.319  -2.786   0.000  0.00  0.00    +0.000 S 
ATOM     10  C   UNL     1       0.233  -3.400   0.000  0.00  0.00    +0.000 A 
ATOM     11  C   UNL     1       0.986  -3.064   0.000  0.00  0.00    +0.000 A 
ENDBRANCH   1  11
BRANCH   1  12
ATOM     12  P   UNL     1       1.701  -4.301   0.000  0.00  0.00    +0.000 P 
ATOM     13  O   UNL     1       2.526  -4.301   0.000  0.00  0.00    +0.000 OA
ATOM     14  O   UNL     1       0.876  -4.301   0.000  0.00  0.00    +0.000 OA
ATOM     15  O   UNL     1       1.701  -5.126   0.000  0.00  0.00    +0.000 OA
ENDBRANCH   1  12
BRANCH   1  16
ATOM     16  C   UNL     1       2.415  -3.064   0.000  0.00  0.00    +0.000 C 
ATOM     17  O   UNL     1       2.415  -2.239   0.000  0.00  0.00    +0.000 OA
ATOM     18  N   UNL     1       3.130  -3.476   0.000  0.00  0.00    +0.000 NA
BRANCH  18  19
ATOM     19  C   UNL     1       3.844  -3.064   0.000  0.00  0.00    +0.000 A 
ATOM     20  C   UNL     1       4.559  -3.476   0.000  0.00  0.00    +0.000 A 
ATOM     21  C   UNL     1       5.273  -3.064   0.000  0.00  0.00    +0.000 A 
ATOM     22  C   UNL     1       5.988  -3.476   0.000  0.00  0.00    +0.000 A 
ATOM     23  C   UNL     1       6.702  -3.064   0.000  0.00  0.00    +0.000 A 
ATOM     24  C   UNL     1       6.702  -2.239   0.000  0.00  0.00    +0.000 A 
ATOM     25  C   UNL     1       5.988  -1.826   0.000  0.00  0.00    +0.000 A 
ATOM     26  C   UNL     1       5.273  -2.239   0.000  0.00  0.00    +0.000 A 
ATOM     27  C   UNL     1       4.559  -1.826   0.000  0.00  0.00    +0.000 A 
ATOM     28  C   UNL     1       3.844  -2.239   0.000  0.00  0.00    +0.000 A 
ENDBRANCH  18  19
ENDBRANCH   1  16
TORSDOF 4
