REMARK  Name = DSB
REMARK  9 active torsions:
REMARK  status: ('A' for Active; 'I' for Inactive)
REMARK    1  A    between atoms: C_1  and  C_3
REMARK    2  A    between atoms: C_3  and  C_4
REMARK    3  A    between atoms: C_4  and  C_14
REMARK    4  A    between atoms: C_5  and  C_7
REMARK    5  A    between atoms: C_5  and  C_14
REMARK    6  A    between atoms: C_7  and  C_13
REMARK    7  A    between atoms: C_8  and  C_9
REMARK    8  A    between atoms: C_8  and  C_13
REMARK    9  A    between atoms: C_9  and  C_10
REMARK                            x       y       z     vdW  Elec       q    Type
REMARK                         _______ _______ _______ _____ _____    ______ ____
ROOT
ATOM      1  C   UNL     1      -0.203   0.834   0.000  0.00  0.00    +0.000 C 
ENDROOT
BRANCH   1   2
ATOM      2  C   UNL     1      -0.917   0.422   0.000  0.00  0.00    +0.000 C 
ATOM      3  O   UNL     1      -0.917  -0.403   0.000  0.00  0.00    +0.000 OA
BRANCH   2   4
ATOM      4  C   UNL     1      -1.631   0.834   0.000  0.00  0.00    +0.000 C 
BRANCH   4   5
ATOM      5  C   UNL     1      -2.346   0.422   0.000  0.00  0.00    +0.000 C 
BRANCH   5   6
ATOM      6  C   UNL     1      -3.061   0.834   0.000  0.00  0.00    +0.000 C 
ATOM      7  O   UNL     1      -3.775   0.422   0.000  0.00  0.00    +0.000 OA
ATOM      8  O   UNL     1      -3.061   1.659   0.000  0.00  0.00    +0.000 OA
ENDBRANCH   5   6
ENDBRANCH   4   5
ENDBRANCH   2   4
ENDBRANCH   1   2
BRANCH   1   9
ATOM      9  C   UNL     1       0.512   0.422   0.000  0.00  0.00    +0.000 C 
BRANCH   9  10
ATOM     10  C   UNL     1       1.226   0.834   0.000  0.00  0.00    +0.000 C 
ATOM     11  O   UNL     1       1.226   1.659   0.000  0.00  0.00    +0.000 OA
BRANCH  10  12
ATOM     12  C   UNL     1       1.941   0.422   0.000  0.00  0.00    +0.000 C 
BRANCH  12  13
ATOM     13  C   UNL     1       2.655   0.834   0.000  0.00  0.00    +0.000 C 
BRANCH  13  14
ATOM     14  C   UNL     1       3.370   0.422   0.000  0.00  0.00    +0.000 C 
ATOM     15  O   UNL     1       4.084   0.834   0.000  0.00  0.00    +0.000 OA
ATOM     16  O   UNL     1       3.370  -0.403   0.000  0.00  0.00    +0.000 OA
ENDBRANCH  13  14
ENDBRANCH  12  13
ENDBRANCH  10  12
ENDBRANCH   9  10
ENDBRANCH   1   9
TORSDOF 9
