REMARK  Name = DST
REMARK  6 active torsions:
REMARK  status: ('A' for Active; 'I' for Inactive)
REMARK    1  A    between atoms: P_2  and  O_5
REMARK    2  A    between atoms: O_5  and  P_6
REMARK    3  A    between atoms: P_6  and  S_9
REMARK    4  A    between atoms: S_9  and  C_10
REMARK    5  A    between atoms: C_10  and  C_11
REMARK    6  A    between atoms: C_11  and  C_12
REMARK                            x       y       z     vdW  Elec       q    Type
REMARK                         _______ _______ _______ _____ _____    ______ ____
ROOT
ATOM      1  P   UNL     1      -1.048   0.047   0.000  0.00  0.00    +0.000 P 
ATOM      2  O   UNL     1      -0.635  -0.668   0.000  0.00  0.00    +0.000 OA
ATOM      3  O   UNL     1      -1.460   0.761   0.000  0.00  0.00    +0.000 OA
ENDROOT
BRANCH   1   4
ATOM      4  O   UNL     1      -1.762  -0.366   0.000  0.00  0.00    +0.000 OA
BRANCH   4   6
ATOM      5  O   UNL     1      -3.191   0.459   0.000  0.00  0.00    +0.000 OA
ATOM      6  P   UNL     1      -2.477   0.047   0.000  0.00  0.00    +0.000 P 
ATOM      7  O   UNL     1      -2.889  -0.668   0.000  0.00  0.00    +0.000 OA
ATOM      8  O   UNL     1      -2.064   0.761   0.000  0.00  0.00    +0.000 OA
ENDBRANCH   4   6
ENDBRANCH   1   4
BRANCH   1   9
ATOM      9  S   UNL     1      -0.333   0.459   0.000  0.00  0.00    +0.000 S 
BRANCH   9  10
ATOM     10  C   UNL     1       0.382   0.047   0.000  0.00  0.00    +0.000 C 
BRANCH  10  11
ATOM     11  C   UNL     1       1.096   0.459   0.000  0.00  0.00    +0.000 C 
BRANCH  11  12
ATOM     12  C   UNL     1       1.811   0.047   0.000  0.00  0.00    +0.000 C 
ATOM     13  C   UNL     1       2.525   0.459   0.000  0.00  0.00    +0.000 C 
ATOM     14  C   UNL     1       1.811  -0.778   0.000  0.00  0.00    +0.000 C 
ENDBRANCH  11  12
ENDBRANCH  10  11
ENDBRANCH   9  10
ENDBRANCH   1   9
TORSDOF 6
