REMARK  Name = DSV
REMARK  5 active torsions:
REMARK  status: ('A' for Active; 'I' for Inactive)
REMARK    1  A    between atoms: C_1  and  S_14
REMARK    2  A    between atoms: S_14  and  N_17
REMARK    3  A    between atoms: N_17  and  C_18
REMARK    4  A    between atoms: C_18  and  C_19
REMARK    5  A    between atoms: C_18  and  C_22
REMARK                            x       y       z     vdW  Elec       q    Type
REMARK                         _______ _______ _______ _____ _____    ______ ____
ROOT
ATOM      1  C   UNL     1      -0.313   0.002   0.000  0.00  0.00    +0.000 A 
ATOM      2  C   UNL     1       0.402   0.415   0.000  0.00  0.00    +0.000 A 
ATOM      3  C   UNL     1       0.402   1.240   0.000  0.00  0.00    +0.000 A 
ATOM      4  C   UNL     1      -0.313   1.652   0.000  0.00  0.00    +0.000 A 
ATOM      5  C   UNL     1      -1.027   1.240   0.000  0.00  0.00    +0.000 A 
ATOM      6  C   UNL     1      -1.027   0.415   0.000  0.00  0.00    +0.000 A 
ATOM      7  S   UNL     1       1.015   1.792   0.000  0.00  0.00    +0.000 S 
ATOM      8  C   UNL     1       0.679   2.545   0.000  0.00  0.00    +0.000 A 
ATOM      9  C   UNL     1      -0.141   2.459   0.000  0.00  0.00    +0.000 A 
ATOM     10  C   UNL     1       1.015   3.299   0.000  0.00  0.00    +0.000 A 
ATOM     11  C   UNL     1       0.530   3.966   0.000  0.00  0.00    +0.000 A 
ATOM     12  C   UNL     1      -0.291   3.880   0.000  0.00  0.00    +0.000 A 
ATOM     13  C   UNL     1      -0.626   3.127   0.000  0.00  0.00    +0.000 A 
ENDROOT
BRANCH   1  14
ATOM     14  S   UNL     1      -0.313  -0.823   0.000  0.00  0.00    +0.000 S 
ATOM     15  O   UNL     1      -1.138  -0.823   0.000  0.00  0.00    +0.000 OA
ATOM     16  O   UNL     1       0.512  -0.823   0.000  0.00  0.00    +0.000 OA
BRANCH  14  17
ATOM     17  N   UNL     1      -0.313  -1.648   0.000  0.00  0.00    +0.000 NA
BRANCH  17  18
ATOM     18  C   UNL     1       0.402  -2.060   0.000  0.00  0.00    +0.000 C 
BRANCH  18  19
ATOM     19  C   UNL     1       0.402  -2.885   0.000  0.00  0.00    +0.000 C 
ATOM     20  C   UNL     1       1.116  -3.298   0.000  0.00  0.00    +0.000 C 
ATOM     21  C   UNL     1      -0.313  -3.298   0.000  0.00  0.00    +0.000 C 
ENDBRANCH  18  19
BRANCH  18  22
ATOM     22  C   UNL     1       1.116  -1.648   0.000  0.00  0.00    +0.000 C 
ATOM     23  O   UNL     1       1.116  -0.823   0.000  0.00  0.00    +0.000 OA
ATOM     24  O   UNL     1       1.831  -2.060   0.000  0.00  0.00    +0.000 OA
ENDBRANCH  18  22
ENDBRANCH  17  18
ENDBRANCH  14  17
ENDBRANCH   1  14
TORSDOF 5
