REMARK  Name = DSY
REMARK  2 active torsions:
REMARK  status: ('A' for Active; 'I' for Inactive)
REMARK    1  A    between atoms: C_2  and  S_14
REMARK    2  A    between atoms: C_6  and  N_11
REMARK                            x       y       z     vdW  Elec       q    Type
REMARK                         _______ _______ _______ _____ _____    ______ ____
ROOT
ATOM      1  C   UNL     1      -0.561  -1.285   0.000  0.00  0.00    +0.000 A 
ATOM      2  C   UNL     1      -1.275  -0.872   0.000  0.00  0.00    +0.000 A 
ATOM      3  C   UNL     1      -1.275  -0.047   0.000  0.00  0.00    +0.000 A 
ATOM      4  C   UNL     1      -0.561   0.365   0.000  0.00  0.00    +0.000 A 
ATOM      5  C   UNL     1       0.154  -0.047   0.000  0.00  0.00    +0.000 A 
ATOM      6  C   UNL     1       0.868   0.365   0.000  0.00  0.00    +0.000 A 
ATOM      7  C   UNL     1       1.583  -0.047   0.000  0.00  0.00    +0.000 A 
ATOM      8  C   UNL     1       1.583  -0.872   0.000  0.00  0.00    +0.000 A 
ATOM      9  C   UNL     1       0.868  -1.285   0.000  0.00  0.00    +0.000 A 
ATOM     10  C   UNL     1       0.154  -0.872   0.000  0.00  0.00    +0.000 A 
ENDROOT
BRANCH   2  11
ATOM     11  S   UNL     1      -1.990  -1.285   0.000  0.00  0.00    +0.000 S 
ATOM     12  O   UNL     1      -2.704  -1.697   0.000  0.00  0.00    +0.000 OA
ATOM     13  O   UNL     1      -2.402  -0.570   0.000  0.00  0.00    +0.000 OA
ATOM     14  O   UNL     1      -1.577  -1.999   0.000  0.00  0.00    +0.000 OA
ENDBRANCH   2  11
BRANCH   6  15
ATOM     15  N   UNL     1       0.868   1.190   0.000  0.00  0.00    +0.000 N 
ATOM     16  C   UNL     1       1.583   1.603   0.000  0.00  0.00    +0.000 C 
ATOM     17  C   UNL     1       0.154   1.603   0.000  0.00  0.00    +0.000 C 
ENDBRANCH   6  15
TORSDOF 2
