REMARK  Name = DT1
REMARK  6 active torsions:
REMARK  status: ('A' for Active; 'I' for Inactive)
REMARK    1  A    between atoms: S_2  and  C_5
REMARK    2  A    between atoms: C_10  and  N_11
REMARK    3  A    between atoms: N_11  and  C_12
REMARK    4  A    between atoms: C_20  and  O_22
REMARK    5  A    between atoms: C_21  and  O_22
REMARK    6  A    between atoms: C_21  and  C_23
REMARK                            x       y       z     vdW  Elec       q    Type
REMARK                         _______ _______ _______ _____ _____    ______ ____
ROOT
ATOM      1  C   UNL     1      -1.032  -0.799   0.000  0.00  0.00    +0.000 A 
ATOM      2  N   UNL     1      -1.747  -0.387   0.000  0.00  0.00    +0.000 N 
ATOM      3  C   UNL     1      -1.747   0.439   0.000  0.00  0.00    +0.000 A 
ATOM      4  N   UNL     1      -1.032   0.851   0.000  0.00  0.00    +0.000 NA
ATOM      5  N   UNL     1      -2.532   0.694   0.000  0.00  0.00    +0.000 NA
ATOM      6  C   UNL     1      -3.017   0.026   0.000  0.00  0.00    +0.000 A 
ATOM      7  N   UNL     1      -2.532  -0.641   0.000  0.00  0.00    +0.000 NA
ATOM      8  C   UNL     1      -0.318  -0.387   0.000  0.00  0.00    +0.000 A 
ATOM      9  C   UNL     1      -0.318   0.439   0.000  0.00  0.00    +0.000 A 
ENDROOT
BRANCH   1  10
ATOM     10  N   UNL     1      -1.032  -1.624   0.000  0.00  0.00    +0.000 NA
BRANCH  10  16
ATOM     11  C   UNL     1      -3.176  -2.861   0.000  0.00  0.00    +0.000 A 
ATOM     12  C   UNL     1      -3.176  -2.037   0.000  0.00  0.00    +0.000 A 
ATOM     13  C   UNL     1      -2.462  -3.274   0.000  0.00  0.00    +0.000 A 
ATOM     14  C   UNL     1      -1.747  -2.861   0.000  0.00  0.00    +0.000 A 
ATOM     15  C   UNL     1      -2.462  -1.624   0.000  0.00  0.00    +0.000 A 
ATOM     16  C   UNL     1      -1.747  -2.037   0.000  0.00  0.00    +0.000 A 
BRANCH  11  18
ATOM     17  O   UNL     1      -4.605  -3.687   0.000  0.00  0.00    +0.000 OA
ATOM     18  S   UNL     1      -3.890  -3.274   0.000  0.00  0.00    +0.000 S 
ATOM     19  O   UNL     1      -3.478  -3.988   0.000  0.00  0.00    +0.000 OA
ATOM     20  N   UNL     1      -4.303  -2.559   0.000  0.00  0.00    +0.000 NA
ENDBRANCH  11  18
ENDBRANCH  10  16
ENDBRANCH   1  10
BRANCH   9  21
ATOM     21  O   UNL     1       0.396   0.851   0.000  0.00  0.00    +0.000 OA
BRANCH  21  22
ATOM     22  C   UNL     1       0.396   1.676   0.000  0.00  0.00    +0.000 C 
BRANCH  22  23
ATOM     23  C   UNL     1       1.111   2.088   0.000  0.00  0.00    +0.000 C 
ATOM     24  C   UNL     1       1.111   2.913   0.000  0.00  0.00    +0.000 C 
ATOM     25  C   UNL     1       1.825   3.326   0.000  0.00  0.00    +0.000 C 
ATOM     26  C   UNL     1       2.540   2.913   0.000  0.00  0.00    +0.000 C 
ATOM     27  C   UNL     1       2.540   2.088   0.000  0.00  0.00    +0.000 C 
ATOM     28  C   UNL     1       1.825   1.676   0.000  0.00  0.00    +0.000 C 
ENDBRANCH  22  23
ENDBRANCH  21  22
ENDBRANCH   9  21
TORSDOF 6
