REMARK  Name = DT4
REMARK  4 active torsions:
REMARK  status: ('A' for Active; 'I' for Inactive)
REMARK    1  A    between atoms: S_2  and  C_5
REMARK    2  A    between atoms: C_8  and  N_11
REMARK    3  A    between atoms: N_11  and  C_12
REMARK    4  A    between atoms: N_21  and  C_22
REMARK                            x       y       z     vdW  Elec       q    Type
REMARK                         _______ _______ _______ _____ _____    ______ ____
ROOT
ATOM      1  C   UNL     1       0.216   0.236   0.000  0.00  0.00    +0.000 A 
ATOM      2  N   UNL     1      -0.499   0.649   0.000  0.00  0.00    +0.000 N 
ATOM      3  N   UNL     1      -1.283   0.394   0.000  0.00  0.00    +0.000 NA
ATOM      4  C   UNL     1      -1.768   1.062   0.000  0.00  0.00    +0.000 A 
ATOM      5  C   UNL     1      -0.499   1.474   0.000  0.00  0.00    +0.000 A 
ATOM      6  N   UNL     1      -1.283   1.729   0.000  0.00  0.00    +0.000 NA
ATOM      7  N   UNL     1       0.216   1.887   0.000  0.00  0.00    +0.000 NA
ATOM      8  C   UNL     1       0.930   1.474   0.000  0.00  0.00    +0.000 A 
ATOM      9  C   UNL     1       0.930   0.649   0.000  0.00  0.00    +0.000 A 
ATOM     10  N   UNL     1       1.645   1.887   0.000  0.00  0.00    +0.000 NA
ENDROOT
BRANCH  10  11
ATOM     11  C   UNL     1       2.359   1.474   0.000  0.00  0.00    +0.000 C 
ATOM     12  C   UNL     1       3.074   1.887   0.000  0.00  0.00    +0.000 C 
ATOM     13  C   UNL     1       3.788   1.474   0.000  0.00  0.00    +0.000 C 
ATOM     14  C   UNL     1       3.788   0.649   0.000  0.00  0.00    +0.000 C 
ATOM     15  N   UNL     1       4.503   0.236   0.000  0.00  0.00    +0.000 NA
ATOM     16  C   UNL     1       3.074   0.236   0.000  0.00  0.00    +0.000 C 
ATOM     17  C   UNL     1       2.359   0.649   0.000  0.00  0.00    +0.000 C 
ENDBRANCH  10  11
BRANCH   1  18
ATOM     18  N   UNL     1       0.216  -0.589   0.000  0.00  0.00    +0.000 NA
BRANCH  18  22
ATOM     19  C   UNL     1      -1.927  -1.826   0.000  0.00  0.00    +0.000 A 
ATOM     20  C   UNL     1      -1.927  -1.001   0.000  0.00  0.00    +0.000 A 
ATOM     21  C   UNL     1      -1.213  -0.589   0.000  0.00  0.00    +0.000 A 
ATOM     22  C   UNL     1      -0.499  -1.001   0.000  0.00  0.00    +0.000 A 
ATOM     23  C   UNL     1      -0.499  -1.826   0.000  0.00  0.00    +0.000 A 
ATOM     24  C   UNL     1      -1.213  -2.239   0.000  0.00  0.00    +0.000 A 
BRANCH  19  26
ATOM     25  O   UNL     1      -3.357  -2.651   0.000  0.00  0.00    +0.000 OA
ATOM     26  S   UNL     1      -2.642  -2.239   0.000  0.00  0.00    +0.000 S 
ATOM     27  O   UNL     1      -2.229  -2.953   0.000  0.00  0.00    +0.000 OA
ATOM     28  N   UNL     1      -3.054  -1.524   0.000  0.00  0.00    +0.000 NA
ENDBRANCH  19  26
ENDBRANCH  18  22
ENDBRANCH   1  18
TORSDOF 4
