REMARK  Name = DT5
REMARK  5 active torsions:
REMARK  status: ('A' for Active; 'I' for Inactive)
REMARK    1  A    between atoms: S_2  and  C_5
REMARK    2  A    between atoms: C_10  and  N_11
REMARK    3  A    between atoms: N_11  and  C_12
REMARK    4  A    between atoms: C_20  and  O_21
REMARK    5  A    between atoms: O_21  and  C_22
REMARK                            x       y       z     vdW  Elec       q    Type
REMARK                         _______ _______ _______ _____ _____    ______ ____
ROOT
ATOM      1  C   UNL     1      -0.875   0.217   0.000  0.00  0.00    +0.000 A 
ATOM      2  N   UNL     1      -1.589   0.630   0.000  0.00  0.00    +0.000 N 
ATOM      3  C   UNL     1      -1.589   1.455   0.000  0.00  0.00    +0.000 A 
ATOM      4  N   UNL     1      -0.875   1.867   0.000  0.00  0.00    +0.000 NA
ATOM      5  N   UNL     1      -2.374   1.710   0.000  0.00  0.00    +0.000 NA
ATOM      6  C   UNL     1      -2.859   1.042   0.000  0.00  0.00    +0.000 A 
ATOM      7  N   UNL     1      -2.374   0.375   0.000  0.00  0.00    +0.000 NA
ATOM      8  C   UNL     1      -0.161   0.630   0.000  0.00  0.00    +0.000 A 
ATOM      9  C   UNL     1      -0.161   1.455   0.000  0.00  0.00    +0.000 A 
ENDROOT
BRANCH   1  10
ATOM     10  N   UNL     1      -0.875  -0.608   0.000  0.00  0.00    +0.000 NA
BRANCH  10  16
ATOM     11  C   UNL     1      -3.018  -1.845   0.000  0.00  0.00    +0.000 A 
ATOM     12  C   UNL     1      -3.018  -1.020   0.000  0.00  0.00    +0.000 A 
ATOM     13  C   UNL     1      -2.304  -2.258   0.000  0.00  0.00    +0.000 A 
ATOM     14  C   UNL     1      -1.589  -1.845   0.000  0.00  0.00    +0.000 A 
ATOM     15  C   UNL     1      -2.304  -0.608   0.000  0.00  0.00    +0.000 A 
ATOM     16  C   UNL     1      -1.589  -1.020   0.000  0.00  0.00    +0.000 A 
BRANCH  11  18
ATOM     17  N   UNL     1      -4.447  -2.670   0.000  0.00  0.00    +0.000 NA
ATOM     18  S   UNL     1      -3.733  -2.258   0.000  0.00  0.00    +0.000 S 
ATOM     19  O   UNL     1      -3.320  -2.972   0.000  0.00  0.00    +0.000 OA
ATOM     20  O   UNL     1      -4.145  -1.543   0.000  0.00  0.00    +0.000 OA
ENDBRANCH  11  18
ENDBRANCH  10  16
ENDBRANCH   1  10
BRANCH   9  21
ATOM     21  O   UNL     1       0.554   1.867   0.000  0.00  0.00    +0.000 OA
BRANCH  21  22
ATOM     22  C   UNL     1       1.268   1.455   0.000  0.00  0.00    +0.000 C 
ATOM     23  C   UNL     1       1.983   1.867   0.000  0.00  0.00    +0.000 C 
ATOM     24  C   UNL     1       2.697   1.455   0.000  0.00  0.00    +0.000 C 
ATOM     25  C   UNL     1       2.697   0.630   0.000  0.00  0.00    +0.000 C 
ATOM     26  C   UNL     1       1.983   0.217   0.000  0.00  0.00    +0.000 C 
ATOM     27  C   UNL     1       1.268   0.630   0.000  0.00  0.00    +0.000 C 
ENDBRANCH  21  22
ENDBRANCH   9  21
TORSDOF 5
