REMARK  Name = DTM
REMARK  6 active torsions:
REMARK  status: ('A' for Active; 'I' for Inactive)
REMARK    1  A    between atoms: C_5  and  N_24
REMARK    2  A    between atoms: C_8  and  C_9
REMARK    3  A    between atoms: C_8  and  N_24
REMARK    4  A    between atoms: C_11  and  O_25
REMARK    5  A    between atoms: C_12  and  O_26
REMARK    6  A    between atoms: C_13  and  O_27
REMARK                            x       y       z     vdW  Elec       q    Type
REMARK                         _______ _______ _______ _____ _____    ______ ____
ROOT
ATOM      1  C   UNL     1      -0.658   0.777   0.000  0.00  0.00    +0.000 C 
ATOM      2  N   UNL     1      -0.658  -0.048   0.000  0.00  0.00    +0.000 N 
ENDROOT
BRANCH   2   7
ATOM      3  C   UNL     1      -4.230  -1.285   0.000  0.00  0.00    +0.000 A 
ATOM      4  C   UNL     1      -3.516  -0.048   0.000  0.00  0.00    +0.000 A 
ATOM      5  C   UNL     1      -2.801  -0.460   0.000  0.00  0.00    +0.000 A 
ATOM      6  C   UNL     1      -2.087  -0.048   0.000  0.00  0.00    +0.000 A 
ATOM      7  C   UNL     1      -1.372  -0.460   0.000  0.00  0.00    +0.000 A 
ATOM      8  C   UNL     1      -1.372  -1.285   0.000  0.00  0.00    +0.000 A 
ATOM      9  C   UNL     1      -2.801  -1.285   0.000  0.00  0.00    +0.000 A 
ATOM     10  N   UNL     1      -3.516  -1.698   0.000  0.00  0.00    +0.000 NA
ATOM     11  N   UNL     1      -4.945  -1.698   0.000  0.00  0.00    +0.000 NA
ATOM     12  N   UNL     1      -4.230  -0.460   0.000  0.00  0.00    +0.000 NA
ATOM     13  N   UNL     1      -3.516   0.777   0.000  0.00  0.00    +0.000 NA
ATOM     14  N   UNL     1      -2.087  -1.698   0.000  0.00  0.00    +0.000 NA
ENDBRANCH   2   7
BRANCH   2  15
ATOM     15  C   UNL     1       0.057  -0.460   0.000  0.00  0.00    +0.000 C 
BRANCH  15  16
ATOM     16  C   UNL     1       0.771  -0.048   0.000  0.00  0.00    +0.000 A 
ATOM     17  C   UNL     1       0.771   0.777   0.000  0.00  0.00    +0.000 A 
ATOM     18  C   UNL     1       1.486   1.190   0.000  0.00  0.00    +0.000 A 
ATOM     19  C   UNL     1       2.200   0.777   0.000  0.00  0.00    +0.000 A 
ATOM     20  C   UNL     1       2.200  -0.048   0.000  0.00  0.00    +0.000 A 
ATOM     21  C   UNL     1       1.486  -0.460   0.000  0.00  0.00    +0.000 A 
BRANCH  18  23
ATOM     22  C   UNL     1       2.200   2.427   0.000  0.00  0.00    +0.000 C 
ATOM     23  O   UNL     1       1.486   2.015   0.000  0.00  0.00    +0.000 OA
ENDBRANCH  18  23
BRANCH  19  25
ATOM     24  C   UNL     1       3.629   0.777   0.000  0.00  0.00    +0.000 C 
ATOM     25  O   UNL     1       2.914   1.190   0.000  0.00  0.00    +0.000 OA
ENDBRANCH  19  25
BRANCH  20  27
ATOM     26  C   UNL     1       2.914  -1.285   0.000  0.00  0.00    +0.000 C 
ATOM     27  O   UNL     1       2.914  -0.460   0.000  0.00  0.00    +0.000 OA
ENDBRANCH  20  27
ENDBRANCH  15  16
ENDBRANCH   2  15
TORSDOF 6
