REMARK  Name = DTQ
REMARK  4 active torsions:
REMARK  status: ('A' for Active; 'I' for Inactive)
REMARK    1  A    between atoms: C_6  and  N_11
REMARK    2  A    between atoms: C_8  and  O_19
REMARK    3  A    between atoms: C_9  and  O_21
REMARK    4  A    between atoms: N_11  and  C_12
REMARK                            x       y       z     vdW  Elec       q    Type
REMARK                         _______ _______ _______ _____ _____    ______ ____
ROOT
ATOM      1  N   UNL     1      -1.365  -0.619   0.000  0.00  0.00    +0.000 NA
ATOM      2  C   UNL     1      -1.365  -1.444   0.000  0.00  0.00    +0.000 A 
ATOM      3  N   UNL     1      -0.650  -1.856   0.000  0.00  0.00    +0.000 NA
ATOM      4  C   UNL     1       0.064  -1.444   0.000  0.00  0.00    +0.000 A 
ATOM      5  C   UNL     1       0.064  -0.619   0.000  0.00  0.00    +0.000 A 
ATOM      6  C   UNL     1      -0.650  -0.206   0.000  0.00  0.00    +0.000 A 
ATOM      7  C   UNL     1       0.778  -1.856   0.000  0.00  0.00    +0.000 A 
ATOM      8  C   UNL     1       1.493  -1.444   0.000  0.00  0.00    +0.000 A 
ATOM      9  C   UNL     1       1.493  -0.619   0.000  0.00  0.00    +0.000 A 
ATOM     10  C   UNL     1       0.778  -0.206   0.000  0.00  0.00    +0.000 A 
ENDROOT
BRANCH   8  11
ATOM     11  O   UNL     1       2.207  -1.856   0.000  0.00  0.00    +0.000 OA
ATOM     12  C   UNL     1       2.922  -1.444   0.000  0.00  0.00    +0.000 C 
ENDBRANCH   8  11
BRANCH   9  13
ATOM     13  O   UNL     1       2.207  -0.206   0.000  0.00  0.00    +0.000 OA
ATOM     14  C   UNL     1       2.207   0.619   0.000  0.00  0.00    +0.000 C 
ENDBRANCH   9  13
BRANCH   6  15
ATOM     15  N   UNL     1      -0.650   0.619   0.000  0.00  0.00    +0.000 NA
BRANCH  15  16
ATOM     16  C   UNL     1      -1.365   1.032   0.000  0.00  0.00    +0.000 A 
ATOM     17  C   UNL     1      -2.079   0.619   0.000  0.00  0.00    +0.000 A 
ATOM     18  C   UNL     1      -2.794   1.032   0.000  0.00  0.00    +0.000 A 
ATOM     19  C   UNL     1      -2.794   1.857   0.000  0.00  0.00    +0.000 A 
ATOM     20  C   UNL     1      -2.079   2.269   0.000  0.00  0.00    +0.000 A 
ATOM     21  C   UNL     1      -1.365   1.857   0.000  0.00  0.00    +0.000 A 
ATOM     22  O   UNL     1      -3.508   0.619   0.000  0.00  0.00    +0.000 OA
ENDBRANCH  15  16
ENDBRANCH   6  15
TORSDOF 4
