REMARK  Name = DUX
REMARK  7 active torsions:
REMARK  status: ('A' for Active; 'I' for Inactive)
REMARK    1  A    between atoms: C_4  and  N_5
REMARK    2  A    between atoms: C_14  and  C_15
REMARK    3  A    between atoms: C_15  and  O_16
REMARK    4  A    between atoms: O_16  and  C_17
REMARK    5  A    between atoms: C_17  and  C_18
REMARK    6  A    between atoms: C_17  and  C_24
REMARK    7  A    between atoms: C_17  and  C_30
REMARK                            x       y       z     vdW  Elec       q    Type
REMARK                         _______ _______ _______ _____ _____    ______ ____
ROOT
ATOM      1  C   UNL     1      -1.109   0.263   0.000  0.00  0.00    +0.000 C 
ENDROOT
BRANCH   1   2
ATOM      2  C   UNL     1      -1.364  -0.521   0.000  0.00  0.00    +0.000 A 
ATOM      3  C   UNL     1      -0.812  -1.135   0.000  0.00  0.00    +0.000 A 
ATOM      4  C   UNL     1      -1.067  -1.919   0.000  0.00  0.00    +0.000 A 
ATOM      5  C   UNL     1      -1.874  -2.091   0.000  0.00  0.00    +0.000 A 
ATOM      6  C   UNL     1      -2.426  -1.478   0.000  0.00  0.00    +0.000 A 
ATOM      7  C   UNL     1      -2.171  -0.693   0.000  0.00  0.00    +0.000 A 
ENDBRANCH   1   2
BRANCH   1   8
ATOM      8  C   UNL     1      -1.894   0.518   0.000  0.00  0.00    +0.000 A 
ATOM      9  C   UNL     1      -2.507  -0.034   0.000  0.00  0.00    +0.000 A 
ATOM     10  C   UNL     1      -3.292   0.221   0.000  0.00  0.00    +0.000 A 
ATOM     11  C   UNL     1      -3.463   1.028   0.000  0.00  0.00    +0.000 A 
ATOM     12  C   UNL     1      -2.850   1.580   0.000  0.00  0.00    +0.000 A 
ATOM     13  C   UNL     1      -2.065   1.325   0.000  0.00  0.00    +0.000 A 
ENDBRANCH   1   8
BRANCH   1  14
ATOM     14  C   UNL     1      -0.854   1.048   0.000  0.00  0.00    +0.000 A 
ATOM     15  C   UNL     1      -1.406   1.661   0.000  0.00  0.00    +0.000 A 
ATOM     16  C   UNL     1      -1.151   2.446   0.000  0.00  0.00    +0.000 A 
ATOM     17  C   UNL     1      -0.344   2.617   0.000  0.00  0.00    +0.000 A 
ATOM     18  C   UNL     1       0.208   2.004   0.000  0.00  0.00    +0.000 A 
ATOM     19  C   UNL     1      -0.047   1.219   0.000  0.00  0.00    +0.000 A 
ENDBRANCH   1  14
BRANCH   1  20
ATOM     20  O   UNL     1      -0.325   0.008   0.000  0.00  0.00    +0.000 OA
BRANCH  20  21
ATOM     21  C   UNL     1       0.288   0.560   0.000  0.00  0.00    +0.000 C 
BRANCH  21  27
ATOM     22  F   UNL     1       1.741   1.615   0.000  0.00  0.00    +0.000 F 
ATOM     23  C   UNL     1       1.741   0.790   0.000  0.00  0.00    +0.000 C 
ATOM     24  C   UNL     1       2.408   0.305   0.000  0.00  0.00    +0.000 C 
ATOM     25  C   UNL     1       2.153  -0.479   0.000  0.00  0.00    +0.000 C 
ATOM     26  O   UNL     1       1.328  -0.479   0.000  0.00  0.00    +0.000 OA
ATOM     27  C   UNL     1       1.073   0.305   0.000  0.00  0.00    +0.000 C 
BRANCH  25  28
ATOM     28  N   UNL     1       2.638  -1.147   0.000  0.00  0.00    +0.000 N 
ATOM     29  C   UNL     1       3.458  -1.060   0.000  0.00  0.00    +0.000 A 
ATOM     30  N   UNL     1       3.943  -1.728   0.000  0.00  0.00    +0.000 NA
ATOM     31  C   UNL     1       3.608  -2.482   0.000  0.00  0.00    +0.000 A 
ATOM     32  C   UNL     1       2.787  -2.568   0.000  0.00  0.00    +0.000 A 
ATOM     33  C   UNL     1       2.303  -1.900   0.000  0.00  0.00    +0.000 A 
ATOM     34  O   UNL     1       4.093  -3.149   0.000  0.00  0.00    +0.000 OA
ATOM     35  O   UNL     1       3.794  -0.307   0.000  0.00  0.00    +0.000 OA
ENDBRANCH  25  28
ENDBRANCH  21  27
ENDBRANCH  20  21
ENDBRANCH   1  20
TORSDOF 7
