REMARK  Name = DVP
REMARK  6 active torsions:
REMARK  status: ('A' for Active; 'I' for Inactive)
REMARK    1  A    between atoms: O_2  and  C_3
REMARK    2  A    between atoms: C_3  and  C_5
REMARK    3  A    between atoms: C_11  and  C_13
REMARK    4  A    between atoms: C_18  and  N_19
REMARK    5  A    between atoms: N_19  and  C_20
REMARK    6  A    between atoms: C_20  and  C_21
REMARK                            x       y       z     vdW  Elec       q    Type
REMARK                         _______ _______ _______ _____ _____    ______ ____
ROOT
ATOM      1  C   UNL     1      -0.910  -1.385   0.000  0.00  0.00    +0.000 A 
ATOM      2  C   UNL     1      -0.910  -0.560   0.000  0.00  0.00    +0.000 A 
ATOM      3  C   UNL     1      -0.196  -0.148   0.000  0.00  0.00    +0.000 A 
ATOM      4  C   UNL     1      -0.196  -1.798   0.000  0.00  0.00    +0.000 A 
ATOM      5  C   UNL     1       0.519  -1.385   0.000  0.00  0.00    +0.000 A 
ATOM      6  C   UNL     1       0.519  -0.560   0.000  0.00  0.00    +0.000 A 
ENDROOT
BRANCH   1  13
ATOM      7  C   UNL     1      -3.768  -0.560   0.000  0.00  0.00    +0.000 C 
ATOM      8  C   UNL     1      -3.053  -0.148   0.000  0.00  0.00    +0.000 C 
ATOM      9  C   UNL     1      -2.339  -0.560   0.000  0.00  0.00    +0.000 C 
ATOM     10  C   UNL     1      -3.768  -1.385   0.000  0.00  0.00    +0.000 C 
ATOM     11  C   UNL     1      -3.053  -1.798   0.000  0.00  0.00    +0.000 C 
ATOM     12  N   UNL     1      -2.339  -1.385   0.000  0.00  0.00    +0.000 N 
ATOM     13  C   UNL     1      -1.624  -1.798   0.000  0.00  0.00    +0.000 C 
ATOM     14  O   UNL     1      -1.624  -2.623   0.000  0.00  0.00    +0.000 OA
BRANCH   7  15
ATOM     15  C   UNL     1      -4.482  -0.148   0.000  0.00  0.00    +0.000 C 
ATOM     16  O   UNL     1      -4.482   0.677   0.000  0.00  0.00    +0.000 OA
BRANCH  15  18
ATOM     17  C   UNL     1      -5.911  -0.148   0.000  0.00  0.00    +0.000 C 
ATOM     18  O   UNL     1      -5.197  -0.560   0.000  0.00  0.00    +0.000 OA
ENDBRANCH  15  18
ENDBRANCH   7  15
ENDBRANCH   1  13
BRANCH   6  19
ATOM     19  N   UNL     1       1.234  -0.148   0.000  0.00  0.00    +0.000 NA
BRANCH  19  20
ATOM     20  C   UNL     1       1.234   0.677   0.000  0.00  0.00    +0.000 C 
BRANCH  20  21
ATOM     21  C   UNL     1       1.948   1.090   0.000  0.00  0.00    +0.000 A 
ATOM     22  C   UNL     1       1.948   1.915   0.000  0.00  0.00    +0.000 A 
ATOM     23  N   UNL     1       2.662   2.327   0.000  0.00  0.00    +0.000 NA
ATOM     24  C   UNL     1       3.377   1.915   0.000  0.00  0.00    +0.000 A 
ATOM     25  N   UNL     1       4.091   2.327   0.000  0.00  0.00    +0.000 NA
ATOM     26  C   UNL     1       4.806   1.915   0.000  0.00  0.00    +0.000 A 
ATOM     27  N   UNL     1       5.520   2.327   0.000  0.00  0.00    +0.000 NA
ATOM     28  N   UNL     1       4.806   1.090   0.000  0.00  0.00    +0.000 NA
ATOM     29  C   UNL     1       4.091   0.677   0.000  0.00  0.00    +0.000 A 
ATOM     30  N   UNL     1       4.091  -0.148   0.000  0.00  0.00    +0.000 NA
ATOM     31  C   UNL     1       3.377   1.090   0.000  0.00  0.00    +0.000 A 
ATOM     32  N   UNL     1       2.662   0.677   0.000  0.00  0.00    +0.000 NA
ENDBRANCH  20  21
ENDBRANCH  19  20
ENDBRANCH   6  19
TORSDOF 6
