REMARK  Name = DY6
REMARK  5 active torsions:
REMARK  status: ('A' for Active; 'I' for Inactive)
REMARK    1  A    between atoms: N_1  and  S_2
REMARK    2  A    between atoms: S_2  and  C_5
REMARK    3  A    between atoms: C_14  and  C_18
REMARK    4  A    between atoms: N_21  and  C_23
REMARK    5  A    between atoms: C_24  and  C_27
REMARK                            x       y       z     vdW  Elec       q    Type
REMARK                         _______ _______ _______ _____ _____    ______ ____
ROOT
ATOM      1  C   UNL     1      -0.078  -1.044   0.000  0.00  0.00    +0.000 A 
ATOM      2  C   UNL     1      -0.792  -0.632   0.000  0.00  0.00    +0.000 A 
ATOM      3  C   UNL     1      -0.078  -1.869   0.000  0.00  0.00    +0.000 A 
ATOM      4  C   UNL     1      -1.507  -1.044   0.000  0.00  0.00    +0.000 A 
ATOM      5  C   UNL     1      -0.792  -2.282   0.000  0.00  0.00    +0.000 A 
ATOM      6  C   UNL     1      -1.507  -1.869   0.000  0.00  0.00    +0.000 A 
ENDROOT
BRANCH   1   7
ATOM      7  S   UNL     1       0.637  -0.632   0.000  0.00  0.00    +0.000 S 
ATOM      8  O   UNL     1       0.224   0.083   0.000  0.00  0.00    +0.000 OA
ATOM      9  O   UNL     1       1.049  -1.346   0.000  0.00  0.00    +0.000 OA
BRANCH   7  10
ATOM     10  N   UNL     1       1.351  -0.219   0.000  0.00  0.00    +0.000 NA
ATOM     11  C   UNL     1       2.066  -0.632   0.000  0.00  0.00    +0.000 C 
ATOM     12  C   UNL     1       1.351   0.606   0.000  0.00  0.00    +0.000 C 
ATOM     13  C   UNL     1       2.780  -0.219   0.000  0.00  0.00    +0.000 A 
ATOM     14  C   UNL     1       2.066   1.018   0.000  0.00  0.00    +0.000 C 
ATOM     15  C   UNL     1       2.780   0.606   0.000  0.00  0.00    +0.000 A 
ATOM     16  C   UNL     1       3.494  -0.632   0.000  0.00  0.00    +0.000 A 
ATOM     17  C   UNL     1       3.494   1.018   0.000  0.00  0.00    +0.000 A 
ATOM     18  C   UNL     1       4.209  -0.219   0.000  0.00  0.00    +0.000 A 
ATOM     19  C   UNL     1       4.209   0.606   0.000  0.00  0.00    +0.000 A 
ENDBRANCH   7  10
ENDBRANCH   1   7
BRANCH   4  20
ATOM     20  C   UNL     1      -2.221  -0.632   0.000  0.00  0.00    +0.000 C 
ATOM     21  N   UNL     1      -2.221   0.193   0.000  0.00  0.00    +0.000 NA
ATOM     22  O   UNL     1      -2.936  -1.044   0.000  0.00  0.00    +0.000 OA
BRANCH  21  23
ATOM     23  C   UNL     1      -2.936   0.606   0.000  0.00  0.00    +0.000 A 
ATOM     24  C   UNL     1      -2.936   1.431   0.000  0.00  0.00    +0.000 A 
ATOM     25  C   UNL     1      -3.650   0.193   0.000  0.00  0.00    +0.000 A 
ATOM     26  C   UNL     1      -3.650   1.843   0.000  0.00  0.00    +0.000 A 
ATOM     27  C   UNL     1      -4.365   0.606   0.000  0.00  0.00    +0.000 A 
ATOM     28  C   UNL     1      -4.365   1.431   0.000  0.00  0.00    +0.000 A 
BRANCH  24  29
ATOM     29  C   UNL     1      -2.221   1.843   0.000  0.00  0.00    +0.000 C 
ATOM     30  O   UNL     1      -2.221   2.668   0.000  0.00  0.00    +0.000 OA
ATOM     31  O   UNL     1      -1.507   1.431   0.000  0.00  0.00    +0.000 OA
ENDBRANCH  24  29
ENDBRANCH  21  23
ENDBRANCH   4  20
TORSDOF 5
