REMARK  Name = DYY
REMARK  4 active torsions:
REMARK  status: ('A' for Active; 'I' for Inactive)
REMARK    1  A    between atoms: C_10  and  S_11
REMARK    2  A    between atoms: S_11  and  N_14
REMARK    3  A    between atoms: N_19  and  S_20
REMARK    4  A    between atoms: S_20  and  C_23
REMARK                            x       y       z     vdW  Elec       q    Type
REMARK                         _______ _______ _______ _____ _____    ______ ____
ROOT
ATOM      1  N   UNL     1      -0.222   0.044   0.000  0.00  0.00    +0.000 NA
ATOM      2  C   UNL     1      -0.222  -0.781   0.000  0.00  0.00    +0.000 C 
ATOM      3  C   UNL     1      -0.936  -1.194   0.000  0.00  0.00    +0.000 C 
ATOM      4  C   UNL     1      -0.936   0.456   0.000  0.00  0.00    +0.000 C 
ATOM      5  C   UNL     1      -1.651   0.044   0.000  0.00  0.00    +0.000 C 
ATOM      6  N   UNL     1      -1.651  -0.781   0.000  0.00  0.00    +0.000 NA
ENDROOT
BRANCH   1   7
ATOM      7  S   UNL     1       0.492   0.456   0.000  0.00  0.00    +0.000 S 
ATOM      8  O   UNL     1       0.905  -0.258   0.000  0.00  0.00    +0.000 OA
ATOM      9  O   UNL     1       0.080   1.171   0.000  0.00  0.00    +0.000 OA
BRANCH   7  19
ATOM     10  C   UNL     1       1.921   0.456   0.000  0.00  0.00    +0.000 A 
ATOM     11  C   UNL     1       2.636   0.869   0.000  0.00  0.00    +0.000 A 
ATOM     12  O   UNL     1       3.350   0.456   0.000  0.00  0.00    +0.000 OA
ATOM     13  C   UNL     1       4.065   0.869   0.000  0.00  0.00    +0.000 C 
ATOM     14  C   UNL     1       4.065   1.694   0.000  0.00  0.00    +0.000 C 
ATOM     15  O   UNL     1       3.350   2.106   0.000  0.00  0.00    +0.000 OA
ATOM     16  C   UNL     1       2.636   1.694   0.000  0.00  0.00    +0.000 A 
ATOM     17  C   UNL     1       1.921   2.106   0.000  0.00  0.00    +0.000 A 
ATOM     18  C   UNL     1       1.207   1.694   0.000  0.00  0.00    +0.000 A 
ATOM     19  C   UNL     1       1.207   0.869   0.000  0.00  0.00    +0.000 A 
ENDBRANCH   7  19
ENDBRANCH   1   7
BRANCH   6  20
ATOM     20  S   UNL     1      -2.365  -1.194   0.000  0.00  0.00    +0.000 S 
ATOM     21  O   UNL     1      -2.778  -0.479   0.000  0.00  0.00    +0.000 OA
ATOM     22  O   UNL     1      -1.953  -1.908   0.000  0.00  0.00    +0.000 OA
BRANCH  20  23
ATOM     23  C   UNL     1      -3.080  -1.606   0.000  0.00  0.00    +0.000 A 
ATOM     24  C   UNL     1      -3.794  -1.194   0.000  0.00  0.00    +0.000 A 
ATOM     25  F   UNL     1      -3.794  -0.369   0.000  0.00  0.00    +0.000 F 
ATOM     26  C   UNL     1      -4.509  -1.606   0.000  0.00  0.00    +0.000 A 
ATOM     27  C   UNL     1      -4.509  -2.431   0.000  0.00  0.00    +0.000 A 
ATOM     28  C   UNL     1      -3.794  -2.844   0.000  0.00  0.00    +0.000 A 
ATOM     29  C   UNL     1      -3.080  -2.431   0.000  0.00  0.00    +0.000 A 
ATOM     30  F   UNL     1      -2.365  -2.844   0.000  0.00  0.00    +0.000 F 
ENDBRANCH  20  23
ENDBRANCH   6  20
TORSDOF 4
