REMARK  Name = DZ1
REMARK  2 active torsions:
REMARK  status: ('A' for Active; 'I' for Inactive)
REMARK    1  A    between atoms: C_8  and  C_9
REMARK    2  A    between atoms: N_11  and  C_12
REMARK                            x       y       z     vdW  Elec       q    Type
REMARK                         _______ _______ _______ _____ _____    ______ ____
ROOT
ATOM      1  C   UNL     1       1.406   0.055   0.000  0.00  0.00    +0.000 C 
ATOM      2  O   UNL     1       1.406   0.880   0.000  0.00  0.00    +0.000 OA
ATOM      3  N   UNL     1       0.692  -0.358   0.000  0.00  0.00    +0.000 NA
ENDROOT
BRANCH   3   4
ATOM      4  C   UNL     1      -0.023   0.055   0.000  0.00  0.00    +0.000 A 
ATOM      5  C   UNL     1      -0.737  -0.358   0.000  0.00  0.00    +0.000 A 
ATOM      6  C   UNL     1      -1.452   0.055   0.000  0.00  0.00    +0.000 A 
ATOM      7 BR   UNL     1      -2.166  -0.358   0.000  0.00  0.00    +0.000 Br
ATOM      8  C   UNL     1      -1.452   0.880   0.000  0.00  0.00    +0.000 A 
ATOM      9  O   UNL     1      -2.166   1.292   0.000  0.00  0.00    +0.000 OA
ATOM     10  C   UNL     1      -0.737   1.292   0.000  0.00  0.00    +0.000 A 
ATOM     11 BR   UNL     1      -0.737   2.117   0.000  0.00  0.00    +0.000 Br
ATOM     12  C   UNL     1      -0.023   0.880   0.000  0.00  0.00    +0.000 A 
ENDBRANCH   3   4
BRANCH   1  20
ATOM     13  C   UNL     1       2.835   0.880   0.000  0.00  0.00    +0.000 C 
ATOM     14  C   UNL     1       2.835   0.055   0.000  0.00  0.00    +0.000 A 
ATOM     15  C   UNL     1       3.550  -0.358   0.000  0.00  0.00    +0.000 A 
ATOM     16  C   UNL     1       3.550  -1.183   0.000  0.00  0.00    +0.000 A 
ATOM     17  C   UNL     1       2.835  -1.595   0.000  0.00  0.00    +0.000 A 
ATOM     18  C   UNL     1       2.121  -1.183   0.000  0.00  0.00    +0.000 A 
ATOM     19  C   UNL     1       1.406  -1.595   0.000  0.00  0.00    +0.000 C 
ATOM     20  C   UNL     1       2.121  -0.358   0.000  0.00  0.00    +0.000 A 
ENDBRANCH   1  20
TORSDOF 2
