REMARK  Name = DZ2
REMARK  2 active torsions:
REMARK  status: ('A' for Active; 'I' for Inactive)
REMARK    1  A    between atoms: C_9  and  N_10
REMARK    2  A    between atoms: C_11  and  C_13
REMARK                            x       y       z     vdW  Elec       q    Type
REMARK                         _______ _______ _______ _____ _____    ______ ____
ROOT
ATOM      1  N   UNL     1       0.850   0.241   0.000  0.00  0.00    +0.000 NA
ATOM      2  C   UNL     1       0.136  -0.172   0.000  0.00  0.00    +0.000 C 
ATOM      3  O   UNL     1       0.136  -0.997   0.000  0.00  0.00    +0.000 OA
ENDROOT
BRANCH   1  12
ATOM      4  C   UNL     1       2.279   0.241   0.000  0.00  0.00    +0.000 A 
ATOM      5  C   UNL     1       2.993  -0.172   0.000  0.00  0.00    +0.000 A 
ATOM      6 BR   UNL     1       3.708   0.241   0.000  0.00  0.00    +0.000 Br
ATOM      7  C   UNL     1       2.993  -0.997   0.000  0.00  0.00    +0.000 A 
ATOM      8  O   UNL     1       3.708  -1.409   0.000  0.00  0.00    +0.000 OA
ATOM      9  C   UNL     1       2.279  -1.409   0.000  0.00  0.00    +0.000 A 
ATOM     10 BR   UNL     1       2.279  -2.234   0.000  0.00  0.00    +0.000 Br
ATOM     11  C   UNL     1       1.565  -0.997   0.000  0.00  0.00    +0.000 A 
ATOM     12  C   UNL     1       1.565  -0.172   0.000  0.00  0.00    +0.000 A 
ENDBRANCH   1  12
BRANCH   2  13
ATOM     13  C   UNL     1      -0.579   0.241   0.000  0.00  0.00    +0.000 A 
ATOM     14  C   UNL     1      -1.293  -0.172   0.000  0.00  0.00    +0.000 A 
ATOM     15  C   UNL     1      -2.008   0.241   0.000  0.00  0.00    +0.000 A 
ATOM     16 CL   UNL     1      -2.722  -0.172   0.000  0.00  0.00    +0.000 Cl
ATOM     17  C   UNL     1      -2.008   1.066   0.000  0.00  0.00    +0.000 A 
ATOM     18  C   UNL     1      -1.293   1.478   0.000  0.00  0.00    +0.000 A 
ATOM     19  C   UNL     1      -0.579   1.066   0.000  0.00  0.00    +0.000 A 
ATOM     20 CL   UNL     1       0.136   1.478   0.000  0.00  0.00    +0.000 Cl
ENDBRANCH   2  13
TORSDOF 2
