REMARK  Name = DZ3
REMARK  2 active torsions:
REMARK  status: ('A' for Active; 'I' for Inactive)
REMARK    1  A    between atoms: C_9  and  C_10
REMARK    2  A    between atoms: N_12  and  C_13
REMARK                            x       y       z     vdW  Elec       q    Type
REMARK                         _______ _______ _______ _____ _____    ______ ____
ROOT
ATOM      1  C   UNL     1      -1.162  -0.478   0.000  0.00  0.00    +0.000 C 
ATOM      2  O   UNL     1      -1.162  -1.303   0.000  0.00  0.00    +0.000 OA
ATOM      3  N   UNL     1      -0.448  -0.066   0.000  0.00  0.00    +0.000 NA
ENDROOT
BRANCH   1  12
ATOM      4  C   UNL     1      -2.591   1.997   0.000  0.00  0.00    +0.000 C 
ATOM      5  C   UNL     1      -2.591   1.172   0.000  0.00  0.00    +0.000 A 
ATOM      6  C   UNL     1      -1.877   0.759   0.000  0.00  0.00    +0.000 A 
ATOM      7  C   UNL     1      -3.306   0.759   0.000  0.00  0.00    +0.000 A 
ATOM      8  O   UNL     1      -4.020   1.172   0.000  0.00  0.00    +0.000 OA
ATOM      9  C   UNL     1      -3.306  -0.066   0.000  0.00  0.00    +0.000 A 
ATOM     10  C   UNL     1      -4.020  -0.478   0.000  0.00  0.00    +0.000 C 
ATOM     11  C   UNL     1      -2.591  -0.478   0.000  0.00  0.00    +0.000 A 
ATOM     12  C   UNL     1      -1.877  -0.066   0.000  0.00  0.00    +0.000 A 
ENDBRANCH   1  12
BRANCH   3  13
ATOM     13  C   UNL     1       0.267  -0.478   0.000  0.00  0.00    +0.000 A 
ATOM     14  C   UNL     1       0.981  -0.066   0.000  0.00  0.00    +0.000 A 
ATOM     15  C   UNL     1       1.696  -0.478   0.000  0.00  0.00    +0.000 A 
ATOM     16 BR   UNL     1       2.410  -0.066   0.000  0.00  0.00    +0.000 Br
ATOM     17  C   UNL     1       1.696  -1.303   0.000  0.00  0.00    +0.000 A 
ATOM     18  O   UNL     1       2.410  -1.716   0.000  0.00  0.00    +0.000 OA
ATOM     19  C   UNL     1       0.981  -1.716   0.000  0.00  0.00    +0.000 A 
ATOM     20 BR   UNL     1       0.981  -2.541   0.000  0.00  0.00    +0.000 Br
ATOM     21  C   UNL     1       0.267  -1.303   0.000  0.00  0.00    +0.000 A 
ENDBRANCH   3  13
TORSDOF 2
