REMARK  Name = DZE
REMARK  7 active torsions:
REMARK  status: ('A' for Active; 'I' for Inactive)
REMARK    1  A    between atoms: C_2  and  O_5
REMARK    2  A    between atoms: O_5  and  C_6
REMARK    3  A    between atoms: N_8  and  C_9
REMARK    4  A    between atoms: C_9  and  C_10
REMARK    5  A    between atoms: C_9  and  C_13
REMARK    6  A    between atoms: C_13  and  C_14
REMARK    7  A    between atoms: C_14  and  O_15
REMARK                            x       y       z     vdW  Elec       q    Type
REMARK                         _______ _______ _______ _____ _____    ______ ____
ROOT
ATOM      1  C   UNL     1       0.696  -0.223   0.000  0.00  0.00    +0.000 C 
ENDROOT
BRANCH   1   2
ATOM      2  C   UNL     1       0.696   0.602   0.000  0.00  0.00    +0.000 C 
ATOM      3  C   UNL     1      -0.019   1.015   0.000  0.00  0.00    +0.000 C 
ATOM      4  O   UNL     1       1.410   1.015   0.000  0.00  0.00    +0.000 OA
ENDBRANCH   1   2
BRANCH   1   7
ATOM      5  C   UNL     1      -0.733  -0.223   0.000  0.00  0.00    +0.000 C 
ATOM      6  O   UNL     1      -0.733   0.602   0.000  0.00  0.00    +0.000 OA
ATOM      7  N   UNL     1      -0.019  -0.635   0.000  0.00  0.00    +0.000 NA
BRANCH   5   8
ATOM      8  O   UNL     1      -1.448  -0.635   0.000  0.00  0.00    +0.000 OA
BRANCH   8  10
ATOM      9  C   UNL     1      -2.877   0.190   0.000  0.00  0.00    +0.000 C 
ATOM     10  C   UNL     1      -2.162  -0.223   0.000  0.00  0.00    +0.000 C 
ATOM     11  C   UNL     1      -2.575  -0.937   0.000  0.00  0.00    +0.000 C 
ATOM     12  C   UNL     1      -1.750   0.492   0.000  0.00  0.00    +0.000 C 
ENDBRANCH   8  10
ENDBRANCH   5   8
ENDBRANCH   1   7
BRANCH   1  13
ATOM     13  C   UNL     1       1.410  -0.635   0.000  0.00  0.00    +0.000 C 
BRANCH  13  14
ATOM     14  C   UNL     1       2.124  -0.223   0.000  0.00  0.00    +0.000 C 
ATOM     15  O   UNL     1       2.124   0.602   0.000  0.00  0.00    +0.000 OA
BRANCH  14  16
ATOM     16  O   UNL     1       2.839  -0.635   0.000  0.00  0.00    +0.000 OA
ATOM     17  C   UNL     1       3.553  -0.223   0.000  0.00  0.00    +0.000 C 
ENDBRANCH  14  16
ENDBRANCH  13  14
ENDBRANCH   1  13
TORSDOF 7
