REMARK  Name = DZG
REMARK  5 active torsions:
REMARK  status: ('A' for Active; 'I' for Inactive)
REMARK    1  A    between atoms: O_2  and  C_3
REMARK    2  A    between atoms: C_8  and  S_9
REMARK    3  A    between atoms: S_9  and  N_12
REMARK    4  A    between atoms: N_17  and  S_18
REMARK    5  A    between atoms: S_18  and  C_21
REMARK                            x       y       z     vdW  Elec       q    Type
REMARK                         _______ _______ _______ _____ _____    ______ ____
ROOT
ATOM      1  N   UNL     1      -1.094   0.080   0.000  0.00  0.00    +0.000 NA
ATOM      2  C   UNL     1      -0.380   0.492   0.000  0.00  0.00    +0.000 C 
ATOM      3  C   UNL     1       0.335   0.080   0.000  0.00  0.00    +0.000 C 
ATOM      4  C   UNL     1      -1.094  -0.745   0.000  0.00  0.00    +0.000 C 
ATOM      5  C   UNL     1      -0.380  -1.157   0.000  0.00  0.00    +0.000 C 
ATOM      6  N   UNL     1       0.335  -0.745   0.000  0.00  0.00    +0.000 NA
ENDROOT
BRANCH   1   7
ATOM      7  S   UNL     1      -1.808   0.492   0.000  0.00  0.00    +0.000 S 
ATOM      8  O   UNL     1      -1.396   1.207   0.000  0.00  0.00    +0.000 OA
ATOM      9  O   UNL     1      -2.221  -0.222   0.000  0.00  0.00    +0.000 OA
BRANCH   7  15
ATOM     10  C   UNL     1      -3.952   1.730   0.000  0.00  0.00    +0.000 A 
ATOM     11  C   UNL     1      -3.952   0.905   0.000  0.00  0.00    +0.000 A 
ATOM     12  C   UNL     1      -3.237   0.492   0.000  0.00  0.00    +0.000 A 
ATOM     13  C   UNL     1      -3.237   2.143   0.000  0.00  0.00    +0.000 A 
ATOM     14  C   UNL     1      -2.523   1.730   0.000  0.00  0.00    +0.000 A 
ATOM     15  C   UNL     1      -2.523   0.905   0.000  0.00  0.00    +0.000 A 
BRANCH  10  17
ATOM     16  C   UNL     1      -4.666   2.967   0.000  0.00  0.00    +0.000 C 
ATOM     17  O   UNL     1      -4.666   2.143   0.000  0.00  0.00    +0.000 OA
ENDBRANCH  10  17
ENDBRANCH   7  15
ENDBRANCH   1   7
BRANCH   6  18
ATOM     18  S   UNL     1       1.049  -1.157   0.000  0.00  0.00    +0.000 S 
ATOM     19  O   UNL     1       0.637  -1.872   0.000  0.00  0.00    +0.000 OA
ATOM     20  O   UNL     1       1.462  -0.443   0.000  0.00  0.00    +0.000 OA
BRANCH  18  21
ATOM     21  C   UNL     1       1.764  -1.570   0.000  0.00  0.00    +0.000 A 
ATOM     22  C   UNL     1       2.478  -1.157   0.000  0.00  0.00    +0.000 A 
ATOM     23  C   UNL     1       3.193  -1.570   0.000  0.00  0.00    +0.000 A 
ATOM     24  O   UNL     1       3.907  -1.157   0.000  0.00  0.00    +0.000 OA
ATOM     25  C   UNL     1       4.622  -1.570   0.000  0.00  0.00    +0.000 C 
ATOM     26  C   UNL     1       4.622  -2.395   0.000  0.00  0.00    +0.000 C 
ATOM     27  O   UNL     1       3.907  -2.808   0.000  0.00  0.00    +0.000 OA
ATOM     28  C   UNL     1       3.193  -2.395   0.000  0.00  0.00    +0.000 A 
ATOM     29  C   UNL     1       2.478  -2.808   0.000  0.00  0.00    +0.000 A 
ATOM     30  C   UNL     1       1.764  -2.395   0.000  0.00  0.00    +0.000 A 
ENDBRANCH  18  21
ENDBRANCH   6  18
TORSDOF 5
