REMARK  Name = DZO
REMARK  2 active torsions:
REMARK  status: ('A' for Active; 'I' for Inactive)
REMARK    1  A    between atoms: C_3  and  C_18
REMARK    2  A    between atoms: C_11  and  N_12
REMARK                            x       y       z     vdW  Elec       q    Type
REMARK                         _______ _______ _______ _____ _____    ______ ____
ROOT
ATOM      1  C   UNL     1      -1.681  -0.892   0.000  0.00  0.00    +0.000 A 
ATOM      2  C   UNL     1       1.017  -0.480   0.000  0.00  0.00    +0.000 A 
ATOM      3  C   UNL     1      -1.197  -0.225   0.000  0.00  0.00    +0.000 A 
ATOM      4  C   UNL     1      -0.412  -0.480   0.000  0.00  0.00    +0.000 A 
ATOM      5  N   UNL     1       1.732  -0.067   0.000  0.00  0.00    +0.000 NA
ATOM      6  C   UNL     1       1.017  -1.305   0.000  0.00  0.00    +0.000 A 
ATOM      7  C   UNL     1       0.302  -1.717   0.000  0.00  0.00    +0.000 A 
ATOM      8  N   UNL     1       0.302  -0.067   0.000  0.00  0.00    +0.000 NA
ATOM      9  N   UNL     1      -0.412  -1.305   0.000  0.00  0.00    +0.000 N 
ATOM     10  N   UNL     1      -1.197  -1.560   0.000  0.00  0.00    +0.000 NA
ENDROOT
BRANCH   5  17
ATOM     11  C   UNL     1       3.160  -0.067   0.000  0.00  0.00    +0.000 A 
ATOM     12  C   UNL     1       3.875  -0.480   0.000  0.00  0.00    +0.000 A 
ATOM     13 CL   UNL     1       4.589  -0.067   0.000  0.00  0.00    +0.000 Cl
ATOM     14  C   UNL     1       3.875  -1.305   0.000  0.00  0.00    +0.000 A 
ATOM     15  C   UNL     1       3.160  -1.717   0.000  0.00  0.00    +0.000 A 
ATOM     16  C   UNL     1       2.446  -1.305   0.000  0.00  0.00    +0.000 A 
ATOM     17  C   UNL     1       2.446  -0.480   0.000  0.00  0.00    +0.000 A 
ENDBRANCH   5  17
BRANCH   3  18
ATOM     18  C   UNL     1      -1.452   0.560   0.000  0.00  0.00    +0.000 A 
ATOM     19  C   UNL     1      -2.259   0.731   0.000  0.00  0.00    +0.000 A 
ATOM     20  C   UNL     1      -0.899   1.173   0.000  0.00  0.00    +0.000 A 
ATOM     21  C   UNL     1      -1.154   1.958   0.000  0.00  0.00    +0.000 A 
ATOM     22  C   UNL     1      -1.961   2.129   0.000  0.00  0.00    +0.000 A 
ATOM     23  C   UNL     1      -2.513   1.516   0.000  0.00  0.00    +0.000 A 
ATOM     24  N   UNL     1      -3.320   1.688   0.000  0.00  0.00    +0.000 NA
ENDBRANCH   3  18
TORSDOF 2
