REMARK  Name = E04
REMARK  1 active torsions:
REMARK  status: ('A' for Active; 'I' for Inactive)
REMARK    1  A    between atoms: C_22  and  C_23
REMARK                            x       y       z     vdW  Elec       q    Type
REMARK                         _______ _______ _______ _____ _____    ______ ____
ROOT
ATOM      1  O   UNL     1       3.873   0.512   0.000  0.00  0.00    +0.000 OA
ATOM      2  C   UNL     1       3.111   0.195   0.000  0.00  0.00    +0.000 C 
ATOM      3  C   UNL     1       3.005  -0.623   0.000  0.00  0.00    +0.000 C 
ATOM      4  C   UNL     1       3.829  -0.585   0.000  0.00  0.00    +0.000 C 
ATOM      5  C   UNL     1       3.185  -1.428   0.000  0.00  0.00    +0.000 C 
ATOM      6  C   UNL     1       2.244  -0.940   0.000  0.00  0.00    +0.000 C 
ATOM      7  C   UNL     1       1.588  -0.439   0.000  0.00  0.00    +0.000 C 
ATOM      8  C   UNL     1       1.694   0.379   0.000  0.00  0.00    +0.000 C 
ATOM      9  O   UNL     1       2.456   0.696   0.000  0.00  0.00    +0.000 OA
ATOM     10  C   UNL     1       0.904   0.143   0.000  0.00  0.00    +0.000 C 
ATOM     11  C   UNL     1       1.221  -0.618   0.000  0.00  0.00    +0.000 C 
ATOM     12  C   UNL     1       0.435   0.822   0.000  0.00  0.00    +0.000 C 
ATOM     13  C   UNL     1       0.936   1.478   0.000  0.00  0.00    +0.000 C 
ATOM     14  C   UNL     1       1.714   1.204   0.000  0.00  0.00    +0.000 C 
ATOM     15  C   UNL     1      -0.387   0.756   0.000  0.00  0.00    +0.000 C 
ATOM     16  C   UNL     1      -0.741   0.011   0.000  0.00  0.00    +0.000 C 
ATOM     17  C   UNL     1      -0.272  -0.668   0.000  0.00  0.00    +0.000 C 
ATOM     18  C   UNL     1       0.550  -0.602   0.000  0.00  0.00    +0.000 C 
ATOM     19  C   UNL     1      -1.563  -0.056   0.000  0.00  0.00    +0.000 A 
ATOM     20  C   UNL     1      -1.917  -0.801   0.000  0.00  0.00    +0.000 A 
ATOM     21  C   UNL     1      -2.739  -0.867   0.000  0.00  0.00    +0.000 A 
ATOM     22  C   UNL     1      -3.208  -0.188   0.000  0.00  0.00    +0.000 A 
ATOM     23  C   UNL     1      -2.854   0.557   0.000  0.00  0.00    +0.000 A 
ATOM     24  C   UNL     1      -2.032   0.623   0.000  0.00  0.00    +0.000 A 
ATOM     25  C   UNL     1      -1.678   1.369   0.000  0.00  0.00    +0.000 C 
ATOM     26  C   UNL     1      -0.856   1.435   0.000  0.00  0.00    +0.000 C 
ENDROOT
BRANCH  22  27
ATOM     27  C   UNL     1      -4.030  -0.255   0.000  0.00  0.00    +0.000 C 
ATOM     28  O   UNL     1      -4.384  -1.000   0.000  0.00  0.00    +0.000 OA
ATOM     29  N   UNL     1      -4.499   0.425   0.000  0.00  0.00    +0.000 NA
ENDBRANCH  22  27
TORSDOF 1
