REMARK  Name = E20
REMARK  6 active torsions:
REMARK  status: ('A' for Active; 'I' for Inactive)
REMARK    1  A    between atoms: C_1  and  O_25
REMARK    2  A    between atoms: C_2  and  O_27
REMARK    3  A    between atoms: C_8  and  C_10
REMARK    4  A    between atoms: C_10  and  C_11
REMARK    5  A    between atoms: N_14  and  C_17
REMARK    6  A    between atoms: C_17  and  C_18
REMARK                            x       y       z     vdW  Elec       q    Type
REMARK                         _______ _______ _______ _____ _____    ______ ____
ROOT
ATOM      1  C   UNL     1       3.138   1.530   0.000  0.00  0.00    +0.000 A 
ATOM      2  C   UNL     1       3.138   0.706   0.000  0.00  0.00    +0.000 A 
ATOM      3  C   UNL     1       2.423   0.293   0.000  0.00  0.00    +0.000 A 
ATOM      4  C   UNL     1       1.709   0.706   0.000  0.00  0.00    +0.000 A 
ATOM      5  C   UNL     1       1.709   1.530   0.000  0.00  0.00    +0.000 A 
ATOM      6  C   UNL     1       2.423   1.943   0.000  0.00  0.00    +0.000 A 
ATOM      7  C   UNL     1       0.924   1.785   0.000  0.00  0.00    +0.000 C 
ATOM      8  C   UNL     1       0.439   1.118   0.000  0.00  0.00    +0.000 C 
ATOM      9  C   UNL     1       0.924   0.451   0.000  0.00  0.00    +0.000 C 
ATOM     10  O   UNL     1       0.669   2.570   0.000  0.00  0.00    +0.000 OA
ENDROOT
BRANCH   2  11
ATOM     11  O   UNL     1       3.852   0.293   0.000  0.00  0.00    +0.000 OA
ATOM     12  C   UNL     1       3.852  -0.532   0.000  0.00  0.00    +0.000 C 
ENDBRANCH   2  11
BRANCH   1  13
ATOM     13  O   UNL     1       3.852   1.943   0.000  0.00  0.00    +0.000 OA
ATOM     14  C   UNL     1       3.852   2.768   0.000  0.00  0.00    +0.000 C 
ENDBRANCH   1  13
BRANCH   8  15
ATOM     15  C   UNL     1      -0.386   1.118   0.000  0.00  0.00    +0.000 C 
BRANCH  15  16
ATOM     16  C   UNL     1      -0.798   0.404   0.000  0.00  0.00    +0.000 C 
ATOM     17  C   UNL     1      -0.386  -0.311   0.000  0.00  0.00    +0.000 C 
ATOM     18  C   UNL     1      -0.798  -1.025   0.000  0.00  0.00    +0.000 C 
ATOM     19  N   UNL     1      -1.623  -1.025   0.000  0.00  0.00    +0.000 NA
ATOM     20  C   UNL     1      -2.036  -0.311   0.000  0.00  0.00    +0.000 C 
ATOM     21  C   UNL     1      -1.623   0.404   0.000  0.00  0.00    +0.000 C 
BRANCH  19  22
ATOM     22  C   UNL     1      -2.036  -1.740   0.000  0.00  0.00    +0.000 C 
BRANCH  22  23
ATOM     23  C   UNL     1      -2.861  -1.740   0.000  0.00  0.00    +0.000 A 
ATOM     24  C   UNL     1      -3.273  -2.454   0.000  0.00  0.00    +0.000 A 
ATOM     25  C   UNL     1      -4.098  -2.454   0.000  0.00  0.00    +0.000 A 
ATOM     26  C   UNL     1      -4.511  -1.740   0.000  0.00  0.00    +0.000 A 
ATOM     27  C   UNL     1      -4.098  -1.025   0.000  0.00  0.00    +0.000 A 
ATOM     28  C   UNL     1      -3.273  -1.025   0.000  0.00  0.00    +0.000 A 
ENDBRANCH  22  23
ENDBRANCH  19  22
ENDBRANCH  15  16
ENDBRANCH   8  15
TORSDOF 6
