REMARK  Name = E4H
REMARK  1 active torsions:
REMARK  status: ('A' for Active; 'I' for Inactive)
REMARK    1  A    between atoms: C_12  and  C_13
REMARK                            x       y       z     vdW  Elec       q    Type
REMARK                         _______ _______ _______ _____ _____    ______ ____
ROOT
ATOM      1  C   UNL     1       0.329  -0.092   0.000  0.00  0.00    +0.000 C 
ATOM      2  C   UNL     1       0.742   0.623   0.000  0.00  0.00    +0.000 C 
ATOM      3  C   UNL     1       1.567   0.623   0.000  0.00  0.00    +0.000 C 
ATOM      4  C   UNL     1       1.979  -0.092   0.000  0.00  0.00    +0.000 C 
ATOM      5  C   UNL     1       2.804  -0.092   0.000  0.00  0.00    +0.000 C 
ATOM      6  C   UNL     1       1.567  -0.806   0.000  0.00  0.00    +0.000 C 
ATOM      7  O   UNL     1       1.979  -1.521   0.000  0.00  0.00    +0.000 OA
ATOM      8  C   UNL     1       0.742  -0.806   0.000  0.00  0.00    +0.000 C 
ATOM      9  C   UNL     1       0.329  -1.521   0.000  0.00  0.00    +0.000 C 
ATOM     10  C   UNL     1      -0.496  -1.521   0.000  0.00  0.00    +0.000 C 
ATOM     11  C   UNL     1      -0.908  -2.235   0.000  0.00  0.00    +0.000 C 
ATOM     12  C   UNL     1      -0.908  -0.806   0.000  0.00  0.00    +0.000 C 
ATOM     13  O   UNL     1      -0.496  -0.092   0.000  0.00  0.00    +0.000 OA
ATOM     14  C   UNL     1      -0.908   0.623   0.000  0.00  0.00    +0.000 C 
ATOM     15  O   UNL     1      -1.733   0.623   0.000  0.00  0.00    +0.000 OA
ATOM     16  C   UNL     1      -0.496   1.337   0.000  0.00  0.00    +0.000 C 
ATOM     17  C   UNL     1      -0.908   2.051   0.000  0.00  0.00    +0.000 C 
ATOM     18  C   UNL     1       0.329   1.337   0.000  0.00  0.00    +0.000 C 
ATOM     19  O   UNL     1       0.742   2.051   0.000  0.00  0.00    +0.000 OA
ENDROOT
BRANCH  12  20
ATOM     20  C   UNL     1      -1.733  -0.806   0.000  0.00  0.00    +0.000 C 
ATOM     21  C   UNL     1      -2.146  -0.092   0.000  0.00  0.00    +0.000 C 
ENDBRANCH  12  20
TORSDOF 1
