REMARK  Name = E6C
REMARK  10 active torsions:
REMARK  status: ('A' for Active; 'I' for Inactive)
REMARK    1  A    between atoms: C_2  and  C_3
REMARK    2  A    between atoms: C_2  and  C_16
REMARK    3  A    between atoms: C_3  and  C_4
REMARK    4  A    between atoms: N_6  and  C_7
REMARK    5  A    between atoms: C_7  and  C_8
REMARK    6  A    between atoms: C_7  and  C_19
REMARK    7  A    between atoms: N_10  and  C_11
REMARK    8  A    between atoms: C_11  and  C_12
REMARK    9  A    between atoms: C_12  and  C_13
REMARK   10  A    between atoms: C_19  and  C_20
REMARK                            x       y       z     vdW  Elec       q    Type
REMARK                         _______ _______ _______ _____ _____    ______ ____
ROOT
ATOM      1  C   UNL     1       0.496  -0.092   0.000  0.00  0.00    +0.000 C 
ENDROOT
BRANCH   1   4
ATOM      2  C   UNL     1       1.925  -0.092   0.000  0.00  0.00    +0.000 C 
ATOM      3  O   UNL     1       1.925   0.733   0.000  0.00  0.00    +0.000 OA
ATOM      4  N   UNL     1       1.210  -0.505   0.000  0.00  0.00    +0.000 NA
BRANCH   2   6
ATOM      5  O   UNL     1       2.639  -1.330   0.000  0.00  0.00    +0.000 OA
ATOM      6  C   UNL     1       2.639  -0.505   0.000  0.00  0.00    +0.000 C 
BRANCH   6   7
ATOM      7  C   UNL     1       3.353  -0.092   0.000  0.00  0.00    +0.000 C 
BRANCH   7   8
ATOM      8  C   UNL     1       4.068  -0.505   0.000  0.00  0.00    +0.000 C 
ATOM      9  O   UNL     1       4.782  -0.092   0.000  0.00  0.00    +0.000 OA
ATOM     10  O   UNL     1       4.068  -1.330   0.000  0.00  0.00    +0.000 OA
ENDBRANCH   7   8
ENDBRANCH   6   7
ENDBRANCH   2   6
ENDBRANCH   1   4
BRANCH   1  11
ATOM     11  C   UNL     1      -0.219  -0.505   0.000  0.00  0.00    +0.000 C 
ATOM     12  O   UNL     1      -0.219  -1.330   0.000  0.00  0.00    +0.000 OA
ATOM     13  N   UNL     1      -0.933  -0.092   0.000  0.00  0.00    +0.000 NA
BRANCH  13  14
ATOM     14  C   UNL     1      -1.647  -0.505   0.000  0.00  0.00    +0.000 C 
BRANCH  14  15
ATOM     15  C   UNL     1      -2.362  -0.092   0.000  0.00  0.00    +0.000 C 
BRANCH  15  16
ATOM     16  C   UNL     1      -3.076  -0.505   0.000  0.00  0.00    +0.000 C 
ATOM     17  C   UNL     1      -3.791  -0.092   0.000  0.00  0.00    +0.000 C 
ATOM     18  C   UNL     1      -3.076  -1.330   0.000  0.00  0.00    +0.000 C 
ENDBRANCH  15  16
ENDBRANCH  14  15
ENDBRANCH  13  14
ENDBRANCH   1  11
BRANCH   1  19
ATOM     19  C   UNL     1       0.496   0.733   0.000  0.00  0.00    +0.000 C 
BRANCH  19  20
ATOM     20  C   UNL     1      -0.219   1.145   0.000  0.00  0.00    +0.000 C 
ATOM     21  C   UNL     1      -0.933   0.733   0.000  0.00  0.00    +0.000 C 
ATOM     22  C   UNL     1      -0.219   1.970   0.000  0.00  0.00    +0.000 C 
ENDBRANCH  19  20
ENDBRANCH   1  19
TORSDOF 10
