REMARK  Name = E89
REMARK  4 active torsions:
REMARK  status: ('A' for Active; 'I' for Inactive)
REMARK    1  A    between atoms: C_10  and  C_11
REMARK    2  A    between atoms: C_11  and  C_12
REMARK    3  A    between atoms: C_12  and  C_13
REMARK    4  A    between atoms: C_16  and  O_17
REMARK                            x       y       z     vdW  Elec       q    Type
REMARK                         _______ _______ _______ _____ _____    ______ ____
ROOT
ATOM      1  C   UNL     1      -0.599   2.602   0.000  0.00  0.00    +0.000 A 
ATOM      2  C   UNL     1       0.116   2.189   0.000  0.00  0.00    +0.000 A 
ATOM      3  C   UNL     1       0.830   2.602   0.000  0.00  0.00    +0.000 A 
ATOM      4  O   UNL     1       0.830   3.427   0.000  0.00  0.00    +0.000 OA
ATOM      5  N   UNL     1       1.545   2.189   0.000  0.00  0.00    +0.000 NA
ATOM      6  C   UNL     1       1.545   1.365   0.000  0.00  0.00    +0.000 A 
ATOM      7  N   UNL     1       2.259   0.952   0.000  0.00  0.00    +0.000 NA
ATOM      8  N   UNL     1       0.830   0.952   0.000  0.00  0.00    +0.000 NA
ATOM      9  C   UNL     1       0.116   1.365   0.000  0.00  0.00    +0.000 A 
ATOM     10  C   UNL     1      -0.599   0.952   0.000  0.00  0.00    +0.000 A 
ATOM     11  C   UNL     1      -1.313   1.365   0.000  0.00  0.00    +0.000 A 
ATOM     12  N   UNL     1      -2.098   1.110   0.000  0.00  0.00    +0.000 NA
ATOM     13  C   UNL     1      -2.583   1.777   0.000  0.00  0.00    +0.000 A 
ATOM     14  N   UNL     1      -2.098   2.445   0.000  0.00  0.00    +0.000 NA
ATOM     15  C   UNL     1      -1.313   2.189   0.000  0.00  0.00    +0.000 A 
ENDROOT
BRANCH  10  16
ATOM     16  C   UNL     1      -0.599   0.127   0.000  0.00  0.00    +0.000 C 
BRANCH  16  17
ATOM     17  C   UNL     1       0.116  -0.285   0.000  0.00  0.00    +0.000 C 
BRANCH  17  18
ATOM     18  C   UNL     1       0.116  -1.111   0.000  0.00  0.00    +0.000 A 
ATOM     19  C   UNL     1       0.830  -1.523   0.000  0.00  0.00    +0.000 A 
ATOM     20  C   UNL     1       0.830  -2.348   0.000  0.00  0.00    +0.000 A 
ATOM     21  C   UNL     1       0.116  -2.760   0.000  0.00  0.00    +0.000 A 
ATOM     22  C   UNL     1      -0.599  -2.348   0.000  0.00  0.00    +0.000 A 
ATOM     23  C   UNL     1      -0.599  -1.523   0.000  0.00  0.00    +0.000 A 
BRANCH  21  24
ATOM     24  O   UNL     1       0.116  -3.586   0.000  0.00  0.00    +0.000 OA
ATOM     25  C   UNL     1       0.830  -3.998   0.000  0.00  0.00    +0.000 C 
ENDBRANCH  21  24
ENDBRANCH  17  18
ENDBRANCH  16  17
ENDBRANCH  10  16
TORSDOF 4
