REMARK  Name = ebastine
REMARK  10 active torsions:
REMARK  status: ('A' for Active; 'I' for Inactive)
REMARK    1  A    between atoms: C_1  and  O_2
REMARK    2  A    between atoms: C_1  and  C_3
REMARK    3  A    between atoms: C_1  and  C_4
REMARK    4  A    between atoms: O_2  and  C_5
REMARK    5  A    between atoms: N_20  and  C_21
REMARK    6  A    between atoms: C_21  and  C_22
REMARK    7  A    between atoms: C_22  and  C_23
REMARK    8  A    between atoms: C_23  and  C_24
REMARK    9  A    between atoms: C_24  and  C_26
REMARK   10  A    between atoms: C_31  and  C_32
REMARK                            x       y       z     vdW  Elec       q    Type
REMARK                         _______ _______ _______ _____ _____    ______ ____
ROOT
ATOM      1  C   UNL     1      -2.501  -4.036   0.000  0.00  0.00    +0.000 C 
ATOM      2  C   UNL     1      -2.501  -3.212   0.000  0.00  0.00    +0.000 C 
ATOM      3  C   UNL     1      -1.785  -4.448   0.000  0.00  0.00    +0.000 C 
ATOM      4  C   UNL     1      -1.785  -2.798   0.000  0.00  0.00    +0.000 C 
ATOM      5  C   UNL     1      -1.073  -4.036   0.000  0.00  0.00    +0.000 C 
ATOM      6  N   UNL     1      -1.073  -3.212   0.000  0.00  0.00    +0.000 NA
ENDROOT
BRANCH   1   7
ATOM      7  O   UNL     1      -3.216  -4.448   0.000  0.00  0.00    +0.000 OA
BRANCH   7   8
ATOM      8  C   UNL     1      -3.216  -5.273   0.000  0.00  0.00    +0.000 C 
BRANCH   8   9
ATOM      9  C   UNL     1      -2.501  -5.686   0.000  0.00  0.00    +0.000 A 
ATOM     10  C   UNL     1      -2.501  -6.511   0.000  0.00  0.00    +0.000 A 
ATOM     11  C   UNL     1      -1.785  -5.273   0.000  0.00  0.00    +0.000 A 
ATOM     12  C   UNL     1      -1.785  -6.923   0.000  0.00  0.00    +0.000 A 
ATOM     13  C   UNL     1      -1.073  -5.686   0.000  0.00  0.00    +0.000 A 
ATOM     14  C   UNL     1      -1.073  -6.511   0.000  0.00  0.00    +0.000 A 
ENDBRANCH   8   9
BRANCH   8  15
ATOM     15  C   UNL     1      -3.930  -5.686   0.000  0.00  0.00    +0.000 A 
ATOM     16  C   UNL     1      -4.642  -5.273   0.000  0.00  0.00    +0.000 A 
ATOM     17  C   UNL     1      -3.930  -6.511   0.000  0.00  0.00    +0.000 A 
ATOM     18  C   UNL     1      -5.359  -5.686   0.000  0.00  0.00    +0.000 A 
ATOM     19  C   UNL     1      -4.642  -6.923   0.000  0.00  0.00    +0.000 A 
ATOM     20  C   UNL     1      -5.359  -6.511   0.000  0.00  0.00    +0.000 A 
ENDBRANCH   8  15
ENDBRANCH   7   8
ENDBRANCH   1   7
BRANCH   6  21
ATOM     21  C   UNL     1      -0.358  -2.798   0.000  0.00  0.00    +0.000 C 
BRANCH  21  22
ATOM     22  C   UNL     1       0.356  -3.212   0.000  0.00  0.00    +0.000 C 
BRANCH  22  23
ATOM     23  C   UNL     1       1.071  -2.798   0.000  0.00  0.00    +0.000 C 
BRANCH  23  24
ATOM     24  C   UNL     1       1.785  -3.212   0.000  0.00  0.00    +0.000 C 
ATOM     25  O   UNL     1       1.785  -4.036   0.000  0.00  0.00    +0.000 OA
BRANCH  24  26
ATOM     26  C   UNL     1       2.501  -2.798   0.000  0.00  0.00    +0.000 A 
ATOM     27  C   UNL     1       2.501  -1.973   0.000  0.00  0.00    +0.000 A 
ATOM     28  C   UNL     1       3.216  -3.212   0.000  0.00  0.00    +0.000 A 
ATOM     29  C   UNL     1       3.216  -1.562   0.000  0.00  0.00    +0.000 A 
ATOM     30  C   UNL     1       3.930  -2.798   0.000  0.00  0.00    +0.000 A 
ATOM     31  C   UNL     1       3.930  -1.973   0.000  0.00  0.00    +0.000 A 
BRANCH  31  32
ATOM     32  C   UNL     1       4.644  -1.562   0.000  0.00  0.00    +0.000 C 
ATOM     33  C   UNL     1       5.358  -1.975   0.000  0.00  0.00    +0.000 C 
ATOM     34  C   UNL     1       5.058  -0.848   0.000  0.00  0.00    +0.000 C 
ATOM     35  C   UNL     1       4.233  -0.847   0.000  0.00  0.00    +0.000 C 
ENDBRANCH  31  32
ENDBRANCH  24  26
ENDBRANCH  23  24
ENDBRANCH  22  23
ENDBRANCH  21  22
ENDBRANCH   6  21
TORSDOF 10
