REMARK  Name = EBP
REMARK  6 active torsions:
REMARK  status: ('A' for Active; 'I' for Inactive)
REMARK    1  A    between atoms: C_1  and  C_7
REMARK    2  A    between atoms: C_7  and  P_13
REMARK    3  A    between atoms: C_9  and  O_14
REMARK    4  A    between atoms: C_11  and  O_15
REMARK    5  A    between atoms: P_13  and  O_14
REMARK    6  A    between atoms: P_13  and  O_15
REMARK                            x       y       z     vdW  Elec       q    Type
REMARK                         _______ _______ _______ _____ _____    ______ ____
ROOT
ATOM      1  C   UNL     1       0.543  -0.206   0.000  0.00  0.00    +0.000 C 
ENDROOT
BRANCH   1   2
ATOM      2  C   UNL     1       0.329  -1.003   0.000  0.00  0.00    +0.000 A 
ATOM      3  C   UNL     1       0.913  -1.586   0.000  0.00  0.00    +0.000 A 
ATOM      4  C   UNL     1       0.699  -2.383   0.000  0.00  0.00    +0.000 A 
ATOM      5  C   UNL     1      -0.098  -2.596   0.000  0.00  0.00    +0.000 A 
ATOM      6  C   UNL     1      -0.681  -2.013   0.000  0.00  0.00    +0.000 A 
ATOM      7  C   UNL     1      -0.468  -1.216   0.000  0.00  0.00    +0.000 A 
ATOM      8  C   UNL     1      -0.311  -3.393   0.000  0.00  0.00    +0.000 C 
ENDBRANCH   1   2
BRANCH   1   9
ATOM      9  P   UNL     1      -0.041   0.378   0.000  0.00  0.00    +0.000 P 
ATOM     10  O   UNL     1      -0.624  -0.206   0.000  0.00  0.00    +0.000 OA
BRANCH   9  11
ATOM     11  O   UNL     1      -0.624   0.961   0.000  0.00  0.00    +0.000 OA
BRANCH  11  12
ATOM     12  C   UNL     1      -0.410   1.758   0.000  0.00  0.00    +0.000 C 
ATOM     13  C   UNL     1      -0.994   2.341   0.000  0.00  0.00    +0.000 C 
ENDBRANCH  11  12
ENDBRANCH   9  11
BRANCH   9  14
ATOM     14  O   UNL     1       0.543   0.961   0.000  0.00  0.00    +0.000 OA
BRANCH  14  15
ATOM     15  C   UNL     1       0.329   1.758   0.000  0.00  0.00    +0.000 C 
ATOM     16  C   UNL     1       0.913   2.341   0.000  0.00  0.00    +0.000 C 
ENDBRANCH  14  15
ENDBRANCH   9  14
ENDBRANCH   1   9
TORSDOF 6
