REMARK  Name = ECG
REMARK  2 active torsions:
REMARK  status: ('A' for Active; 'I' for Inactive)
REMARK    1  A    between atoms: C_9  and  C_10
REMARK    2  A    between atoms: C_10  and  O_11
REMARK                            x       y       z     vdW  Elec       q    Type
REMARK                         _______ _______ _______ _____ _____    ______ ____
ROOT
ATOM      1  C   UNL     1      -0.413  -0.072   0.000  0.00  0.00    +0.000 C 
ATOM      2  C   UNL     1      -0.093   0.637   0.000  0.00  0.00    +0.000 C 
ATOM      3  C   UNL     1       0.836   0.652   0.000  0.00  0.00    +0.000 C 
ATOM      4  C   UNL     1       0.974  -0.165   0.000  0.00  0.00    +0.000 C 
ATOM      5  O   UNL     1       1.386  -0.880   0.000  0.00  0.00    +0.000 OA
ATOM      6  C   UNL     1      -1.034  -0.449   0.000  0.00  0.00    +0.000 C 
ATOM      7  C   UNL     1      -0.514   0.264   0.000  0.00  0.00    +0.000 C 
ATOM      8  N   UNL     1      -0.653   1.077   0.000  0.00  0.00    +0.000 NA
ATOM      9  C   UNL     1       0.458   0.264   0.000  0.00  0.00    +0.000 C 
ATOM     10  C   UNL     1      -1.076   1.786   0.000  0.00  0.00    +0.000 C 
ENDROOT
BRANCH   9  11
ATOM     11  C   UNL     1       0.178  -0.512   0.000  0.00  0.00    +0.000 C 
ATOM     12  O   UNL     1       0.710  -1.143   0.000  0.00  0.00    +0.000 OA
BRANCH  11  13
ATOM     13  O   UNL     1      -0.634  -0.657   0.000  0.00  0.00    +0.000 OA
ATOM     14  C   UNL     1      -0.914  -1.433   0.000  0.00  0.00    +0.000 C 
ENDBRANCH  11  13
ENDBRANCH   9  11
TORSDOF 2
