REMARK  Name = EED
REMARK  2 active torsions:
REMARK  status: ('A' for Active; 'I' for Inactive)
REMARK    1  A    between atoms: C_20  and  C_21
REMARK    2  A    between atoms: C_21  and  O_22
REMARK                            x       y       z     vdW  Elec       q    Type
REMARK                         _______ _______ _______ _____ _____    ______ ____
ROOT
ATOM      1  C   UNL     1       0.403   0.123   0.000  0.00  0.00    +0.000 C 
ATOM      2  C   UNL     1       1.215   0.269   0.000  0.00  0.00    +0.000 A 
ATOM      3  C   UNL     1       1.746  -0.362   0.000  0.00  0.00    +0.000 A 
ATOM      4  C   UNL     1       2.559  -0.217   0.000  0.00  0.00    +0.000 A 
ATOM      5  C   UNL     1       2.839   0.559   0.000  0.00  0.00    +0.000 A 
ATOM      6  O   UNL     1       3.651   0.704   0.000  0.00  0.00    +0.000 OA
ATOM      7  C   UNL     1       2.307   1.190   0.000  0.00  0.00    +0.000 A 
ATOM      8  C   UNL     1       1.495   1.044   0.000  0.00  0.00    +0.000 A 
ATOM      9  C   UNL     1       0.963   1.675   0.000  0.00  0.00    +0.000 C 
ATOM     10  C   UNL     1       0.151   1.530   0.000  0.00  0.00    +0.000 C 
ATOM     11  C   UNL     1      -0.129   0.754   0.000  0.00  0.00    +0.000 C 
ATOM     12  C   UNL     1      -0.941   0.609   0.000  0.00  0.00    +0.000 C 
ATOM     13  C   UNL     1      -1.593   1.115   0.000  0.00  0.00    +0.000 C 
ATOM     14  C   UNL     1      -2.276   0.652   0.000  0.00  0.00    +0.000 C 
ATOM     15  C   UNL     1      -2.046  -0.140   0.000  0.00  0.00    +0.000 C 
ATOM     16  O   UNL     1      -2.553  -0.792   0.000  0.00  0.00    +0.000 OA
ATOM     17  C   UNL     1      -1.222  -0.167   0.000  0.00  0.00    +0.000 C 
ATOM     18  C   UNL     1      -1.582  -0.910   0.000  0.00  0.00    +0.000 C 
ATOM     19  C   UNL     1      -0.690  -0.798   0.000  0.00  0.00    +0.000 C 
ATOM     20  C   UNL     1       0.122  -0.653   0.000  0.00  0.00    +0.000 C 
ENDROOT
BRANCH  20  21
ATOM     21  C   UNL     1       0.654  -1.283   0.000  0.00  0.00    +0.000 C 
BRANCH  21  22
ATOM     22  O   UNL     1       1.466  -1.138   0.000  0.00  0.00    +0.000 OA
ATOM     23  C   UNL     1       1.998  -1.769   0.000  0.00  0.00    +0.000 C 
ENDBRANCH  21  22
ENDBRANCH  20  21
TORSDOF 2
