REMARK  Name = EES
REMARK  1 active torsions:
REMARK  status: ('A' for Active; 'I' for Inactive)
REMARK    1  A    between atoms: N_11  and  C_12
REMARK                            x       y       z     vdW  Elec       q    Type
REMARK                         _______ _______ _______ _____ _____    ______ ____
ROOT
ATOM      1 CL   UNL     1       0.065  -1.217   0.000  0.00  0.00    +0.000 Cl
ATOM      2  C   UNL     1       0.320  -0.432   0.000  0.00  0.00    +0.000 A 
ATOM      3  C   UNL     1       1.105  -0.177   0.000  0.00  0.00    +0.000 A 
ATOM      4  C   UNL     1       1.819  -0.590   0.000  0.00  0.00    +0.000 A 
ATOM      5  C   UNL     1       2.534  -0.177   0.000  0.00  0.00    +0.000 A 
ATOM      6  O   UNL     1       3.248  -0.590   0.000  0.00  0.00    +0.000 OA
ATOM      7  C   UNL     1       2.534   0.647   0.000  0.00  0.00    +0.000 A 
ATOM      8  C   UNL     1       1.819   1.060   0.000  0.00  0.00    +0.000 A 
ATOM      9  C   UNL     1       1.105   0.647   0.000  0.00  0.00    +0.000 A 
ATOM     10  N   UNL     1       0.320   0.902   0.000  0.00  0.00    +0.000 NA
ATOM     11  N   UNL     1      -0.165   0.235   0.000  0.00  0.00    +0.000 N 
ENDROOT
BRANCH  11  12
ATOM     12  C   UNL     1      -0.990   0.235   0.000  0.00  0.00    +0.000 A 
ATOM     13  C   UNL     1      -1.402   0.950   0.000  0.00  0.00    +0.000 A 
ATOM     14  C   UNL     1      -2.227   0.950   0.000  0.00  0.00    +0.000 A 
ATOM     15  C   UNL     1      -1.402  -0.479   0.000  0.00  0.00    +0.000 A 
ATOM     16  C   UNL     1      -2.227  -0.479   0.000  0.00  0.00    +0.000 A 
ATOM     17  C   UNL     1      -2.640   0.235   0.000  0.00  0.00    +0.000 A 
ATOM     18  O   UNL     1      -3.465   0.235   0.000  0.00  0.00    +0.000 OA
ENDBRANCH  11  12
TORSDOF 1
