REMARK  Name = EG3
REMARK  14 active torsions:
REMARK  status: ('A' for Active; 'I' for Inactive)
REMARK    1  A    between atoms: S_1  and  C_8
REMARK    2  A    between atoms: C_5  and  C_11
REMARK    3  A    between atoms: N_13  and  C_14
REMARK    4  A    between atoms: C_14  and  C_15
REMARK    5  A    between atoms: C_15  and  O_16
REMARK    6  A    between atoms: O_16  and  C_17
REMARK    7  A    between atoms: C_17  and  C_18
REMARK    8  A    between atoms: C_18  and  O_19
REMARK    9  A    between atoms: O_19  and  C_20
REMARK   10  A    between atoms: C_20  and  C_21
REMARK   11  A    between atoms: C_21  and  N_22
REMARK   12  A    between atoms: C_23  and  C_25
REMARK   13  A    between atoms: C_25  and  C_27
REMARK   14  A    between atoms: C_27  and  C_28
REMARK                            x       y       z     vdW  Elec       q    Type
REMARK                         _______ _______ _______ _____ _____    ______ ____
ROOT
ATOM      1  C   UNL     1      -0.700  -0.012   0.000  0.00  0.00    +0.000 C 
ENDROOT
BRANCH   1   2
ATOM      2  O   UNL     1      -1.414  -0.425   0.000  0.00  0.00    +0.000 OA
BRANCH   2   3
ATOM      3  C   UNL     1      -2.129  -0.012   0.000  0.00  0.00    +0.000 C 
BRANCH   3   4
ATOM      4  C   UNL     1      -2.843  -0.425   0.000  0.00  0.00    +0.000 C 
BRANCH   4   7
ATOM      5  C   UNL     1      -4.272  -0.425   0.000  0.00  0.00    +0.000 C 
ATOM      6  O   UNL     1      -4.272  -1.250   0.000  0.00  0.00    +0.000 OA
ATOM      7  N   UNL     1      -3.558  -0.012   0.000  0.00  0.00    +0.000 NA
BRANCH   5   8
ATOM      8  C   UNL     1      -4.987  -0.012   0.000  0.00  0.00    +0.000 A 
ATOM      9  C   UNL     1      -5.701  -0.425   0.000  0.00  0.00    +0.000 A 
ATOM     10  C   UNL     1      -6.416  -0.012   0.000  0.00  0.00    +0.000 A 
ATOM     11  C   UNL     1      -6.416   0.813   0.000  0.00  0.00    +0.000 A 
ATOM     12  C   UNL     1      -5.701   1.225   0.000  0.00  0.00    +0.000 A 
ATOM     13  C   UNL     1      -4.987   0.813   0.000  0.00  0.00    +0.000 A 
BRANCH  11  14
ATOM     14  S   UNL     1      -7.130   1.225   0.000  0.00  0.00    +0.000 S 
ATOM     15  O   UNL     1      -7.845   1.638   0.000  0.00  0.00    +0.000 OA
ATOM     16  O   UNL     1      -7.543   0.511   0.000  0.00  0.00    +0.000 OA
ATOM     17  N   UNL     1      -6.718   1.940   0.000  0.00  0.00    +0.000 NA
ENDBRANCH  11  14
ENDBRANCH   5   8
ENDBRANCH   4   7
ENDBRANCH   3   4
ENDBRANCH   2   3
ENDBRANCH   1   2
BRANCH   1  18
ATOM     18  C   UNL     1       0.015  -0.425   0.000  0.00  0.00    +0.000 C 
BRANCH  18  19
ATOM     19  O   UNL     1       0.729  -0.012   0.000  0.00  0.00    +0.000 OA
BRANCH  19  20
ATOM     20  C   UNL     1       1.444  -0.425   0.000  0.00  0.00    +0.000 C 
BRANCH  20  21
ATOM     21  C   UNL     1       2.158  -0.012   0.000  0.00  0.00    +0.000 C 
BRANCH  21  22
ATOM     22  N   UNL     1       2.872  -0.425   0.000  0.00  0.00    +0.000 NA
ATOM     23  C   UNL     1       3.587  -0.012   0.000  0.00  0.00    +0.000 C 
ATOM     24  O   UNL     1       3.587   0.813   0.000  0.00  0.00    +0.000 OA
BRANCH  23  25
ATOM     25  C   UNL     1       4.301  -0.425   0.000  0.00  0.00    +0.000 C 
ATOM     26  N   UNL     1       4.301  -1.250   0.000  0.00  0.00    +0.000 NA
BRANCH  25  27
ATOM     27  C   UNL     1       5.016  -0.012   0.000  0.00  0.00    +0.000 C 
BRANCH  27  28
ATOM     28  C   UNL     1       5.730  -0.425   0.000  0.00  0.00    +0.000 A 
ATOM     29  C   UNL     1       6.445  -0.012   0.000  0.00  0.00    +0.000 A 
ATOM     30  C   UNL     1       7.159  -0.425   0.000  0.00  0.00    +0.000 A 
ATOM     31  C   UNL     1       7.159  -1.250   0.000  0.00  0.00    +0.000 A 
ATOM     32  C   UNL     1       6.445  -1.662   0.000  0.00  0.00    +0.000 A 
ATOM     33  C   UNL     1       5.730  -1.250   0.000  0.00  0.00    +0.000 A 
ENDBRANCH  27  28
ENDBRANCH  25  27
ENDBRANCH  23  25
ENDBRANCH  21  22
ENDBRANCH  20  21
ENDBRANCH  19  20
ENDBRANCH  18  19
ENDBRANCH   1  18
TORSDOF 14
