REMARK  Name = EH9
REMARK  7 active torsions:
REMARK  status: ('A' for Active; 'I' for Inactive)
REMARK    1  A    between atoms: N_8  and  C_10
REMARK    2  A    between atoms: C_10  and  C_11
REMARK    3  A    between atoms: C_10  and  C_18
REMARK    4  A    between atoms: C_11  and  C_13
REMARK    5  A    between atoms: C_13  and  C_14
REMARK    6  A    between atoms: C_14  and  C_15
REMARK    7  A    between atoms: C_15  and  C_16
REMARK                            x       y       z     vdW  Elec       q    Type
REMARK                         _______ _______ _______ _____ _____    ______ ____
ROOT
ATOM      1  C   UNL     1       1.438   2.544   0.000  0.00  0.00    +0.000 A 
ATOM      2  C   UNL     1       1.454   1.719   0.000  0.00  0.00    +0.000 A 
ATOM      3  C   UNL     1       0.748   1.293   0.000  0.00  0.00    +0.000 A 
ATOM      4  C   UNL     1       0.010   2.516   0.000  0.00  0.00    +0.000 A 
ATOM      5  C   UNL     1       1.757   0.419   0.000  0.00  0.00    +0.000 A 
ATOM      6  N   UNL     1       0.026   1.691   0.000  0.00  0.00    +0.000 NA
ATOM      7  N   UNL     1       0.716   2.942   0.000  0.00  0.00    +0.000 NA
ATOM      8  N   UNL     1       0.935   0.489   0.000  0.00  0.00    +0.000 N 
ATOM      9  N   UNL     1       2.078   1.179   0.000  0.00  0.00    +0.000 NA
ATOM     10  N   UNL     1       2.145   2.970   0.000  0.00  0.00    +0.000 NA
ENDROOT
BRANCH   8  11
ATOM     11  C   UNL     1       0.395  -0.135   0.000  0.00  0.00    +0.000 C 
BRANCH  11  12
ATOM     12  C   UNL     1       0.665  -0.914   0.000  0.00  0.00    +0.000 C 
ATOM     13  O   UNL     1       1.475  -1.070   0.000  0.00  0.00    +0.000 OA
ATOM     14  C   UNL     1       0.125  -1.538   0.000  0.00  0.00    +0.000 C 
ENDBRANCH  11  12
BRANCH  11  15
ATOM     15  C   UNL     1      -0.415   0.021   0.000  0.00  0.00    +0.000 C 
BRANCH  15  16
ATOM     16  C   UNL     1      -0.955  -0.602   0.000  0.00  0.00    +0.000 C 
BRANCH  16  17
ATOM     17  C   UNL     1      -1.765  -0.446   0.000  0.00  0.00    +0.000 C 
BRANCH  17  18
ATOM     18  C   UNL     1      -2.305  -1.070   0.000  0.00  0.00    +0.000 C 
BRANCH  18  19
ATOM     19  C   UNL     1      -3.116  -0.914   0.000  0.00  0.00    +0.000 C 
ATOM     20  C   UNL     1      -3.656  -1.538   0.000  0.00  0.00    +0.000 C 
ENDBRANCH  18  19
ENDBRANCH  17  18
ENDBRANCH  16  17
ENDBRANCH  15  16
ENDBRANCH  11  15
ENDBRANCH   8  11
TORSDOF 7
