REMARK  Name = EHD
REMARK  1 active torsions:
REMARK  status: ('A' for Active; 'I' for Inactive)
REMARK    1  A    between atoms: C_10  and  C_12
REMARK                            x       y       z     vdW  Elec       q    Type
REMARK                         _______ _______ _______ _____ _____    ______ ____
ROOT
ATOM      1  O   UNL     1      -1.538  -1.885   0.000  0.00  0.00    +0.000 OA
ATOM      2  C   UNL     1      -1.283  -1.100   0.000  0.00  0.00    +0.000 A 
ATOM      3  C   UNL     1      -1.835  -0.487   0.000  0.00  0.00    +0.000 A 
ATOM      4  C   UNL     1      -2.642  -0.659   0.000  0.00  0.00    +0.000 C 
ATOM      5  O   UNL     1      -3.194  -0.046   0.000  0.00  0.00    +0.000 OA
ATOM      6  C   UNL     1      -2.939   0.739   0.000  0.00  0.00    +0.000 C 
ATOM      7  O   UNL     1      -3.491   1.352   0.000  0.00  0.00    +0.000 OA
ATOM      8  C   UNL     1      -1.580   0.297   0.000  0.00  0.00    +0.000 A 
ATOM      9  C   UNL     1      -0.773   0.469   0.000  0.00  0.00    +0.000 A 
ATOM     10  C   UNL     1      -2.132   0.910   0.000  0.00  0.00    +0.000 C 
ATOM     11  O   UNL     1      -2.276   1.723   0.000  0.00  0.00    +0.000 OA
ATOM     12  N   UNL     1      -0.476  -0.929   0.000  0.00  0.00    +0.000 N 
ATOM     13  C   UNL     1       0.191  -1.414   0.000  0.00  0.00    +0.000 C 
ATOM     14  C   UNL     1       0.859  -0.929   0.000  0.00  0.00    +0.000 A 
ATOM     15  C   UNL     1       1.666  -1.100   0.000  0.00  0.00    +0.000 A 
ATOM     16  C   UNL     1       2.218  -0.487   0.000  0.00  0.00    +0.000 A 
ATOM     17  C   UNL     1       1.963   0.297   0.000  0.00  0.00    +0.000 A 
ATOM     18  N   UNL     1       1.156   0.469   0.000  0.00  0.00    +0.000 NA
ATOM     19  C   UNL     1       0.604  -0.144   0.000  0.00  0.00    +0.000 A 
ATOM     20  C   UNL     1      -0.221  -0.144   0.000  0.00  0.00    +0.000 A 
ATOM     21  C   UNL     1       3.025  -0.659   0.000  0.00  0.00    +0.000 A 
ATOM     22  C   UNL     1       3.577  -0.046   0.000  0.00  0.00    +0.000 A 
ATOM     23  C   UNL     1       3.322   0.739   0.000  0.00  0.00    +0.000 A 
ATOM     24  C   UNL     1       2.515   0.910   0.000  0.00  0.00    +0.000 A 
ENDROOT
BRANCH  10  25
ATOM     25  C   UNL     1      -1.539   1.484   0.000  0.00  0.00    +0.000 C 
ATOM     26  C   UNL     1      -0.746   1.256   0.000  0.00  0.00    +0.000 C 
ENDBRANCH  10  25
TORSDOF 1
