REMARK  Name = EI1
REMARK  2 active torsions:
REMARK  status: ('A' for Active; 'I' for Inactive)
REMARK    1  A    between atoms: C_2  and  C_3
REMARK    2  A    between atoms: N_12  and  C_13
REMARK                            x       y       z     vdW  Elec       q    Type
REMARK                         _______ _______ _______ _____ _____    ______ ____
ROOT
ATOM      1  C   UNL     1       0.254  -0.376   0.000  0.00  0.00    +0.000 A 
ATOM      2  C   UNL     1       1.039  -0.121   0.000  0.00  0.00    +0.000 A 
ATOM      3  C   UNL     1       1.753  -0.534   0.000  0.00  0.00    +0.000 A 
ATOM      4  C   UNL     1       2.468  -0.121   0.000  0.00  0.00    +0.000 A 
ATOM      5  O   UNL     1       3.182  -0.534   0.000  0.00  0.00    +0.000 OA
ATOM      6  C   UNL     1       2.468   0.704   0.000  0.00  0.00    +0.000 A 
ATOM      7  C   UNL     1       1.753   1.116   0.000  0.00  0.00    +0.000 A 
ATOM      8  C   UNL     1       1.039   0.704   0.000  0.00  0.00    +0.000 A 
ATOM      9  N   UNL     1       0.254   0.959   0.000  0.00  0.00    +0.000 NA
ATOM     10  N   UNL     1      -0.231   0.291   0.000  0.00  0.00    +0.000 N 
ENDROOT
BRANCH  10  11
ATOM     11  C   UNL     1      -1.056   0.291   0.000  0.00  0.00    +0.000 A 
ATOM     12  C   UNL     1      -1.468  -0.423   0.000  0.00  0.00    +0.000 A 
ATOM     13  C   UNL     1      -2.293  -0.423   0.000  0.00  0.00    +0.000 A 
ATOM     14  C   UNL     1      -2.706   0.291   0.000  0.00  0.00    +0.000 A 
ATOM     15  O   UNL     1      -3.531   0.291   0.000  0.00  0.00    +0.000 OA
ATOM     16  C   UNL     1      -2.293   1.006   0.000  0.00  0.00    +0.000 A 
ATOM     17  C   UNL     1      -1.468   1.006   0.000  0.00  0.00    +0.000 A 
ENDBRANCH  10  11
BRANCH   1  19
ATOM     18  C   UNL     1       0.551  -1.774   0.000  0.00  0.00    +0.000 C 
ATOM     19  C   UNL     1      -0.001  -1.161   0.000  0.00  0.00    +0.000 C 
ENDBRANCH   1  19
TORSDOF 2
