REMARK  Name = ELI
REMARK  6 active torsions:
REMARK  status: ('A' for Active; 'I' for Inactive)
REMARK    1  A    between atoms: C_11  and  C_14
REMARK    2  A    between atoms: C_14  and  C_15
REMARK    3  A    between atoms: C_15  and  C_16
REMARK    4  A    between atoms: C_16  and  C_17
REMARK    5  A    between atoms: C_17  and  C_18
REMARK    6  A    between atoms: C_18  and  C_19
REMARK                            x       y       z     vdW  Elec       q    Type
REMARK                         _______ _______ _______ _____ _____    ______ ____
ROOT
ATOM      1  C   UNL     1      -2.117  -2.121   0.000  0.00  0.00    +0.000 A 
ATOM      2  C   UNL     1      -1.402  -1.709   0.000  0.00  0.00    +0.000 A 
ATOM      3  C   UNL     1      -1.402  -0.884   0.000  0.00  0.00    +0.000 A 
ATOM      4  C   UNL     1      -2.117  -0.471   0.000  0.00  0.00    +0.000 A 
ATOM      5  C   UNL     1      -2.831  -0.884   0.000  0.00  0.00    +0.000 A 
ATOM      6  C   UNL     1      -2.831  -1.709   0.000  0.00  0.00    +0.000 A 
ATOM      7  O   UNL     1       0.026  -0.884   0.000  0.00  0.00    +0.000 OA
ATOM      8  C   UNL     1      -0.688  -0.471   0.000  0.00  0.00    +0.000 C 
ATOM      9  C   UNL     1      -2.117   0.354   0.000  0.00  0.00    +0.000 C 
ATOM     10  C   UNL     1      -1.402   0.766   0.000  0.00  0.00    +0.000 C 
ATOM     11  C   UNL     1      -0.688   0.354   0.000  0.00  0.00    +0.000 C 
ATOM     12  O   UNL     1      -2.831   0.766   0.000  0.00  0.00    +0.000 OA
ATOM     13  C   UNL     1      -1.402   1.591   0.000  0.00  0.00    +0.000 C 
ENDROOT
BRANCH  11  14
ATOM     14  C   UNL     1       0.026   0.766   0.000  0.00  0.00    +0.000 C 
BRANCH  14  15
ATOM     15  C   UNL     1       0.741   0.354   0.000  0.00  0.00    +0.000 C 
BRANCH  15  16
ATOM     16  C   UNL     1       1.455   0.766   0.000  0.00  0.00    +0.000 C 
BRANCH  16  17
ATOM     17  C   UNL     1       2.170   0.354   0.000  0.00  0.00    +0.000 C 
BRANCH  17  18
ATOM     18  C   UNL     1       2.884   0.766   0.000  0.00  0.00    +0.000 C 
BRANCH  18  19
ATOM     19  C   UNL     1       3.599   0.354   0.000  0.00  0.00    +0.000 C 
ATOM     20  O   UNL     1       4.313   0.766   0.000  0.00  0.00    +0.000 OA
ATOM     21  O   UNL     1       3.599  -0.471   0.000  0.00  0.00    +0.000 OA
ENDBRANCH  18  19
ENDBRANCH  17  18
ENDBRANCH  16  17
ENDBRANCH  15  16
ENDBRANCH  14  15
ENDBRANCH  11  14
TORSDOF 6
