REMARK  Name = Ellagic acid
REMARK  0 active torsions:
REMARK  status: ('A' for Active; 'I' for Inactive)
REMARK                            x       y       z     vdW  Elec       q    Type
REMARK                         _______ _______ _______ _____ _____    ______ ____
ROOT
ATOM      1  O   UNL     1       6.268   0.412   0.000  0.00  0.00    +0.000 OA
ATOM      2  C   UNL     1       5.443   0.412   0.000  0.00  0.00    +0.000 A 
ATOM      3  C   UNL     1       5.031   1.127   0.000  0.00  0.00    +0.000 A 
ATOM      4  O   UNL     1       5.443   1.841   0.000  0.00  0.00    +0.000 OA
ATOM      5  C   UNL     1       4.206   1.127   0.000  0.00  0.00    +0.000 A 
ATOM      6  C   UNL     1       3.793   0.412   0.000  0.00  0.00    +0.000 A 
ATOM      7  C   UNL     1       4.206  -0.302   0.000  0.00  0.00    +0.000 A 
ATOM      8  C   UNL     1       5.031  -0.302   0.000  0.00  0.00    +0.000 A 
ATOM      9  C   UNL     1       3.793  -1.016   0.000  0.00  0.00    +0.000 A 
ATOM     10  O   UNL     1       4.206  -1.731   0.000  0.00  0.00    +0.000 OA
ATOM     11  O   UNL     1       2.968  -1.016   0.000  0.00  0.00    +0.000 OA
ATOM     12  C   UNL     1       2.556  -0.302   0.000  0.00  0.00    +0.000 A 
ATOM     13  C   UNL     1       2.968   0.412   0.000  0.00  0.00    +0.000 A 
ATOM     14  C   UNL     1       2.556   1.127   0.000  0.00  0.00    +0.000 A 
ATOM     15  C   UNL     1       1.731   1.127   0.000  0.00  0.00    +0.000 A 
ATOM     16  C   UNL     1       1.318   0.412   0.000  0.00  0.00    +0.000 A 
ATOM     17  O   UNL     1       0.493   0.412   0.000  0.00  0.00    +0.000 OA
ATOM     18  C   UNL     1       1.731  -0.302   0.000  0.00  0.00    +0.000 A 
ATOM     19  O   UNL     1       1.318  -1.016   0.000  0.00  0.00    +0.000 OA
ATOM     20  C   UNL     1       2.968   1.841   0.000  0.00  0.00    +0.000 A 
ATOM     21  O   UNL     1       2.556   2.556   0.000  0.00  0.00    +0.000 OA
ATOM     22  O   UNL     1       3.793   1.841   0.000  0.00  0.00    +0.000 OA
ENDROOT
TORSDOF 0
