REMARK  Name = EMD
REMARK  4 active torsions:
REMARK  status: ('A' for Active; 'I' for Inactive)
REMARK    1  A    between atoms: C_6  and  C_9
REMARK    2  A    between atoms: C_19  and  C_21
REMARK    3  A    between atoms: C_23  and  O_24
REMARK    4  A    between atoms: C_25  and  O_26
REMARK                            x       y       z     vdW  Elec       q    Type
REMARK                         _______ _______ _______ _____ _____    ______ ____
ROOT
ATOM      1  C   UNL     1      -1.982  -1.179   0.000  0.00  0.00    +0.000 A 
ATOM      2  C   UNL     1      -1.267  -1.591   0.000  0.00  0.00    +0.000 A 
ATOM      3  C   UNL     1      -0.553  -1.179   0.000  0.00  0.00    +0.000 A 
ATOM      4  C   UNL     1      -0.553  -0.354   0.000  0.00  0.00    +0.000 A 
ATOM      5  C   UNL     1      -1.267   0.059   0.000  0.00  0.00    +0.000 A 
ATOM      6  C   UNL     1      -1.982  -0.354   0.000  0.00  0.00    +0.000 A 
ATOM      7  N   UNL     1       0.162   0.059   0.000  0.00  0.00    +0.000 N 
ATOM      8  C   UNL     1       0.876  -0.354   0.000  0.00  0.00    +0.000 C 
ATOM      9  C   UNL     1       0.876  -1.179   0.000  0.00  0.00    +0.000 C 
ATOM     10  C   UNL     1       0.162  -1.591   0.000  0.00  0.00    +0.000 C 
ATOM     11  C   UNL     1       0.162   0.884   0.000  0.00  0.00    +0.000 C 
ATOM     12  O   UNL     1      -0.553   1.296   0.000  0.00  0.00    +0.000 OA
ENDROOT
BRANCH   1  18
ATOM     13  S   UNL     1      -3.410  -2.829   0.000  0.00  0.00    +0.000 S 
ATOM     14  C   UNL     1      -4.125  -2.416   0.000  0.00  0.00    +0.000 C 
ATOM     15  O   UNL     1      -4.839  -2.829   0.000  0.00  0.00    +0.000 OA
ATOM     16  N   UNL     1      -4.125  -1.591   0.000  0.00  0.00    +0.000 NA
ATOM     17  N   UNL     1      -3.410  -1.179   0.000  0.00  0.00    +0.000 NA
ATOM     18  C   UNL     1      -2.696  -1.591   0.000  0.00  0.00    +0.000 C 
ATOM     19  C   UNL     1      -2.696  -2.416   0.000  0.00  0.00    +0.000 C 
ATOM     20  C   UNL     1      -1.982  -2.829   0.000  0.00  0.00    +0.000 C 
ENDBRANCH   1  18
BRANCH  11  21
ATOM     21  C   UNL     1       0.876   1.296   0.000  0.00  0.00    +0.000 A 
ATOM     22  C   UNL     1       0.876   2.121   0.000  0.00  0.00    +0.000 A 
ATOM     23  C   UNL     1       1.591   2.534   0.000  0.00  0.00    +0.000 A 
ATOM     24  C   UNL     1       2.305   2.121   0.000  0.00  0.00    +0.000 A 
ATOM     25  C   UNL     1       2.305   1.296   0.000  0.00  0.00    +0.000 A 
ATOM     26  C   UNL     1       1.591   0.884   0.000  0.00  0.00    +0.000 A 
BRANCH  23  27
ATOM     27  O   UNL     1       1.591   3.359   0.000  0.00  0.00    +0.000 OA
ATOM     28  C   UNL     1       2.305   3.771   0.000  0.00  0.00    +0.000 C 
ENDBRANCH  23  27
BRANCH  24  29
ATOM     29  O   UNL     1       3.020   2.534   0.000  0.00  0.00    +0.000 OA
ATOM     30  C   UNL     1       3.020   3.359   0.000  0.00  0.00    +0.000 C 
ENDBRANCH  24  29
ENDBRANCH  11  21
TORSDOF 4
