REMARK  Name = EMT
REMARK  4 active torsions:
REMARK  status: ('A' for Active; 'I' for Inactive)
REMARK    1  A    between atoms: S_1  and  HG_2
REMARK    2  A    between atoms: S_1  and  C_5
REMARK    3  A    between atoms: HG_2  and  C_3
REMARK    4  A    between atoms: C_10  and  C_11
REMARK                            x       y       z     vdW  Elec       q    Type
REMARK                         _______ _______ _______ _____ _____    ______ ____
ROOT
ATOM      1  C   UNL     1       0.336  -0.808   0.000  0.00  0.00    +0.000 A 
ATOM      2  C   UNL     1       0.336  -1.633   0.000  0.00  0.00    +0.000 A 
ATOM      3  C   UNL     1      -0.379  -2.046   0.000  0.00  0.00    +0.000 A 
ATOM      4  C   UNL     1      -1.093  -1.633   0.000  0.00  0.00    +0.000 A 
ATOM      5  C   UNL     1      -1.093  -0.808   0.000  0.00  0.00    +0.000 A 
ATOM      6  C   UNL     1      -0.379  -0.396   0.000  0.00  0.00    +0.000 A 
ENDROOT
BRANCH   6   7
ATOM      7  C   UNL     1      -0.379   0.429   0.000  0.00  0.00    +0.000 C 
ATOM      8  O   UNL     1      -1.093   0.842   0.000  0.00  0.00    +0.000 OA
ATOM      9  O   UNL     1       0.336   0.842   0.000  0.00  0.00    +0.000 OA
ENDBRANCH   6   7
BRANCH   1  10
ATOM     10  S   UNL     1       1.050  -0.396   0.000  0.00  0.00    +0.000 S 
BRANCH  10  11
ATOM     11 HG   UNL     1       1.050   0.429   0.000  0.00  0.00    +0.000 Hg
BRANCH  11  12
ATOM     12  C   UNL     1       1.765   0.842   0.000  0.00  0.00    +0.000 C 
ATOM     13  C   UNL     1       1.765   1.667   0.000  0.00  0.00    +0.000 C 
ENDBRANCH  11  12
ENDBRANCH  10  11
ENDBRANCH   1  10
TORSDOF 4
