REMARK  Name = ENE
REMARK  1 active torsions:
REMARK  status: ('A' for Active; 'I' for Inactive)
REMARK    1  A    between atoms: C_28  and  C_29
REMARK                            x       y       z     vdW  Elec       q    Type
REMARK                         _______ _______ _______ _____ _____    ______ ____
ROOT
ATOM      1  O   UNL     1      -4.520   0.209   0.000  0.00  0.00    +0.000 OA
ATOM      2  C   UNL     1      -3.697   0.268   0.000  0.00  0.00    +0.000 C 
ATOM      3  C   UNL     1      -3.437   1.051   0.000  0.00  0.00    +0.000 C 
ATOM      4  C   UNL     1      -2.699   1.421   0.000  0.00  0.00    +0.000 C 
ATOM      5  C   UNL     1      -1.916   1.161   0.000  0.00  0.00    +0.000 C 
ATOM      6  C   UNL     1      -1.547   0.423   0.000  0.00  0.00    +0.000 C 
ATOM      7  O   UNL     1      -0.772   0.708   0.000  0.00  0.00    +0.000 OA
ATOM      8  C   UNL     1      -0.067   0.281   0.000  0.00  0.00    +0.000 C 
ATOM      9  C   UNL     1       0.589   0.781   0.000  0.00  0.00    +0.000 C 
ATOM     10  C   UNL     1       1.350   0.463   0.000  0.00  0.00    +0.000 C 
ATOM     11  O   UNL     1       2.006   0.964   0.000  0.00  0.00    +0.000 OA
ATOM     12  C   UNL     1       2.768   0.646   0.000  0.00  0.00    +0.000 C 
ATOM     13  C   UNL     1       3.342   1.238   0.000  0.00  0.00    +0.000 C 
ATOM     14  C   UNL     1       4.163   1.159   0.000  0.00  0.00    +0.000 C 
ATOM     15  C   UNL     1       4.613   0.467   0.000  0.00  0.00    +0.000 C 
ATOM     16  C   UNL     1       4.353  -0.316   0.000  0.00  0.00    +0.000 C 
ATOM     17  O   UNL     1       3.578  -0.600   0.000  0.00  0.00    +0.000 OA
ATOM     18  C   UNL     1       2.873  -0.173   0.000  0.00  0.00    +0.000 C 
ATOM     19  C   UNL     1       2.217  -0.673   0.000  0.00  0.00    +0.000 C 
ATOM     20  O   UNL     1       2.322  -1.491   0.000  0.00  0.00    +0.000 OA
ATOM     21  C   UNL     1       1.456  -0.355   0.000  0.00  0.00    +0.000 C 
ATOM     22  O   UNL     1       0.800  -0.856   0.000  0.00  0.00    +0.000 OA
ATOM     23  C   UNL     1       0.038  -0.538   0.000  0.00  0.00    +0.000 C 
ATOM     24  C   UNL     1      -0.535  -1.130   0.000  0.00  0.00    +0.000 C 
ATOM     25  C   UNL     1      -1.357  -1.051   0.000  0.00  0.00    +0.000 C 
ATOM     26  C   UNL     1      -1.807  -0.359   0.000  0.00  0.00    +0.000 C 
ATOM     27  O   UNL     1      -2.544  -0.729   0.000  0.00  0.00    +0.000 OA
ATOM     28  C   UNL     1      -3.327  -0.469   0.000  0.00  0.00    +0.000 C 
ENDROOT
BRANCH  28  29
ATOM     29  C   UNL     1      -3.867  -1.093   0.000  0.00  0.00    +0.000 C 
ATOM     30  O   UNL     1      -3.597  -1.872   0.000  0.00  0.00    +0.000 OA
ENDBRANCH  28  29
TORSDOF 1
