REMARK  Name = ENM
REMARK  5 active torsions:
REMARK  status: ('A' for Active; 'I' for Inactive)
REMARK    1  A    between atoms: C_8  and  C_9
REMARK    2  A    between atoms: C_9  and  O_10
REMARK    3  A    between atoms: O_10  and  C_11
REMARK    4  A    between atoms: C_11  and  C_12
REMARK    5  A    between atoms: C_12  and  C_13
REMARK                            x       y       z     vdW  Elec       q    Type
REMARK                         _______ _______ _______ _____ _____    ______ ____
ROOT
ATOM      1  C   UNL     1      -1.309   0.467   0.000  0.00  0.00    +0.000 C 
ATOM      2  C   UNL     1      -0.777  -0.164   0.000  0.00  0.00    +0.000 C 
ATOM      3  C   UNL     1       0.035  -0.019   0.000  0.00  0.00    +0.000 C 
ATOM      4  C   UNL     1       0.315   0.757   0.000  0.00  0.00    +0.000 C 
ATOM      5  C   UNL     1       1.127   0.902   0.000  0.00  0.00    +0.000 C 
ATOM      6  C   UNL     1       0.847   0.127   0.000  0.00  0.00    +0.000 C 
ATOM      7  C   UNL     1       1.659   0.272   0.000  0.00  0.00    +0.000 C 
ATOM      8  C   UNL     1       2.471   0.417   0.000  0.00  0.00    +0.000 C 
ATOM      9  C   UNL     1       2.751   1.193   0.000  0.00  0.00    +0.000 C 
ATOM     10  O   UNL     1       3.563   1.338   0.000  0.00  0.00    +0.000 OA
ATOM     11  C   UNL     1       2.220   1.824   0.000  0.00  0.00    +0.000 C 
ATOM     12  C   UNL     1       1.407   1.678   0.000  0.00  0.00    +0.000 C 
ATOM     13  C   UNL     1       0.876   2.309   0.000  0.00  0.00    +0.000 C 
ATOM     14  C   UNL     1       0.064   2.164   0.000  0.00  0.00    +0.000 C 
ATOM     15  C   UNL     1      -0.217   1.388   0.000  0.00  0.00    +0.000 C 
ATOM     16  C   UNL     1      -1.029   1.243   0.000  0.00  0.00    +0.000 C 
ATOM     17  C   UNL     1      -1.680   1.749   0.000  0.00  0.00    +0.000 C 
ATOM     18  C   UNL     1      -2.363   1.286   0.000  0.00  0.00    +0.000 C 
ATOM     19  C   UNL     1      -2.134   0.494   0.000  0.00  0.00    +0.000 C 
ATOM     20  O   UNL     1      -2.640  -0.158   0.000  0.00  0.00    +0.000 OA
ENDROOT
BRANCH   1  21
ATOM     21  C   UNL     1      -1.669  -0.276   0.000  0.00  0.00    +0.000 C 
BRANCH  21  22
ATOM     22  C   UNL     1      -1.206  -0.958   0.000  0.00  0.00    +0.000 C 
BRANCH  22  23
ATOM     23  O   UNL     1      -1.566  -1.701   0.000  0.00  0.00    +0.000 OA
BRANCH  23  24
ATOM     24  C   UNL     1      -1.103  -2.384   0.000  0.00  0.00    +0.000 C 
BRANCH  24  32
ATOM     25  C   UNL     1      -2.286  -3.186   0.000  0.00  0.00    +0.000 A 
ATOM     26  C   UNL     1      -2.646  -3.928   0.000  0.00  0.00    +0.000 A 
ATOM     27  F   UNL     1      -3.469  -3.987   0.000  0.00  0.00    +0.000 F 
ATOM     28  C   UNL     1      -2.183  -4.611   0.000  0.00  0.00    +0.000 A 
ATOM     29  C   UNL     1      -1.360  -4.551   0.000  0.00  0.00    +0.000 A 
ATOM     30  F   UNL     1      -0.897  -5.234   0.000  0.00  0.00    +0.000 F 
ATOM     31  C   UNL     1      -1.000  -3.809   0.000  0.00  0.00    +0.000 A 
ATOM     32  C   UNL     1      -1.463  -3.126   0.000  0.00  0.00    +0.000 A 
ENDBRANCH  24  32
ENDBRANCH  23  24
ENDBRANCH  22  23
ENDBRANCH  21  22
ENDBRANCH   1  21
TORSDOF 5
