REMARK  Name = EPJ
REMARK  1 active torsions:
REMARK  status: ('A' for Active; 'I' for Inactive)
REMARK    1  A    between atoms: C_1  and  C_8
REMARK                            x       y       z     vdW  Elec       q    Type
REMARK                         _______ _______ _______ _____ _____    ______ ____
ROOT
ATOM      1  C   UNL     1      -0.176   0.091   0.000  0.00  0.00    +0.000 C 
ATOM      2  C   UNL     1       0.189   0.751   0.000  0.00  0.00    +0.000 C 
ATOM      3  C   UNL     1       0.829   1.202   0.000  0.00  0.00    +0.000 C 
ATOM      4  C   UNL     1       1.625   0.736   0.000  0.00  0.00    +0.000 C 
ATOM      5  C   UNL     1       1.330   0.111   0.000  0.00  0.00    +0.000 C 
ATOM      6  C   UNL     1       0.599   0.481   0.000  0.00  0.00    +0.000 C 
ATOM      7  N   UNL     1       0.669   2.017   0.000  0.00  0.00    +0.000 NA
ENDROOT
BRANCH   1   8
ATOM      8  C   UNL     1      -0.771  -0.481   0.000  0.00  0.00    +0.000 A 
ATOM      9  C   UNL     1      -0.573  -1.282   0.000  0.00  0.00    +0.000 A 
ATOM     10  C   UNL     1      -1.167  -1.854   0.000  0.00  0.00    +0.000 A 
ATOM     11  C   UNL     1      -1.960  -1.625   0.000  0.00  0.00    +0.000 A 
ATOM     12 CL   UNL     1      -2.555  -2.197   0.000  0.00  0.00    +0.000 Cl
ATOM     13  N   UNL     1      -2.158  -0.824   0.000  0.00  0.00    +0.000 NA
ATOM     14  C   UNL     1      -1.563  -0.252   0.000  0.00  0.00    +0.000 A 
ENDBRANCH   1   8
TORSDOF 1
