REMARK  Name = EPL
REMARK  7 active torsions:
REMARK  status: ('A' for Active; 'I' for Inactive)
REMARK    1  A    between atoms: P_2  and  O_3
REMARK    2  A    between atoms: P_2  and  O_6
REMARK    3  A    between atoms: P_2  and  O_9
REMARK    4  A    between atoms: O_3  and  C_4
REMARK    5  A    between atoms: O_6  and  C_7
REMARK    6  A    between atoms: O_9  and  C_10
REMARK    7  A    between atoms: C_13  and  O_14
REMARK                            x       y       z     vdW  Elec       q    Type
REMARK                         _______ _______ _______ _____ _____    ______ ____
ROOT
ATOM      1  O   UNL     1       0.254  -0.120   0.000  0.00  0.00    +0.000 OA
ENDROOT
BRANCH   1   2
ATOM      2  C   UNL     1       0.468   0.676   0.000  0.00  0.00    +0.000 A 
ATOM      3  C   UNL     1       1.265   0.890   0.000  0.00  0.00    +0.000 A 
ATOM      4  C   UNL     1       1.478   1.687   0.000  0.00  0.00    +0.000 A 
ATOM      5  C   UNL     1       0.895   2.270   0.000  0.00  0.00    +0.000 A 
ATOM      6  C   UNL     1       0.098   2.057   0.000  0.00  0.00    +0.000 A 
ATOM      7  C   UNL     1      -0.116   1.260   0.000  0.00  0.00    +0.000 A 
BRANCH   5   8
ATOM      8  O   UNL     1       1.109   3.067   0.000  0.00  0.00    +0.000 OA
ATOM      9  C   UNL     1       0.525   3.650   0.000  0.00  0.00    +0.000 C 
ENDBRANCH   5   8
ENDBRANCH   1   2
BRANCH   1  11
ATOM     10  O   UNL     1      -0.756   0.463   0.000  0.00  0.00    +0.000 OA
ATOM     11  P   UNL     1      -0.542  -0.334   0.000  0.00  0.00    +0.000 P 
BRANCH  11  12
ATOM     12  O   UNL     1      -0.329  -1.131   0.000  0.00  0.00    +0.000 OA
BRANCH  12  13
ATOM     13  C   UNL     1       0.468  -1.345   0.000  0.00  0.00    +0.000 C 
ATOM     14  C   UNL     1       0.681  -2.141   0.000  0.00  0.00    +0.000 C 
ENDBRANCH  12  13
ENDBRANCH  11  12
BRANCH  11  15
ATOM     15  O   UNL     1      -1.339  -0.548   0.000  0.00  0.00    +0.000 OA
BRANCH  15  16
ATOM     16  C   UNL     1      -1.553  -1.345   0.000  0.00  0.00    +0.000 C 
ATOM     17  C   UNL     1      -2.350  -1.558   0.000  0.00  0.00    +0.000 C 
ENDBRANCH  15  16
ENDBRANCH  11  15
ENDBRANCH   1  11
TORSDOF 7
