REMARK  Name = EPN
REMARK  5 active torsions:
REMARK  status: ('A' for Active; 'I' for Inactive)
REMARK    1  A    between atoms: C_1  and  C_3
REMARK    2  A    between atoms: C_3  and  C_4
REMARK    3  A    between atoms: C_4  and  O_5
REMARK    4  A    between atoms: O_5  and  C_13
REMARK    5  A    between atoms: C_7  and  N_8
REMARK                            x       y       z     vdW  Elec       q    Type
REMARK                         _______ _______ _______ _____ _____    ______ ____
ROOT
ATOM      1  C   UNL     1       1.279   0.955   0.000  0.00  0.00    +0.000 A 
ATOM      2  C   UNL     1       1.993   0.543   0.000  0.00  0.00    +0.000 A 
ATOM      3  C   UNL     1       1.993  -0.282   0.000  0.00  0.00    +0.000 A 
ATOM      4  C   UNL     1       1.279  -0.695   0.000  0.00  0.00    +0.000 A 
ATOM      5  C   UNL     1       0.565  -0.282   0.000  0.00  0.00    +0.000 A 
ATOM      6  C   UNL     1       0.565   0.543   0.000  0.00  0.00    +0.000 A 
ENDROOT
BRANCH   2   7
ATOM      7  N   UNL     1       2.708   0.955   0.000  0.00  0.00    +0.000 N 
ATOM      8  O   UNL     1       2.708   1.780   0.000  0.00  0.00    +0.000 OA
ATOM      9  O   UNL     1       3.422   0.543   0.000  0.00  0.00    +0.000 OA
ENDBRANCH   2   7
BRANCH   5  10
ATOM     10  O   UNL     1      -0.150  -0.695   0.000  0.00  0.00    +0.000 OA
BRANCH  10  11
ATOM     11  C   UNL     1      -0.864  -0.282   0.000  0.00  0.00    +0.000 C 
BRANCH  11  12
ATOM     12  C   UNL     1      -1.579  -0.695   0.000  0.00  0.00    +0.000 C 
BRANCH  12  13
ATOM     13  C   UNL     1      -2.293  -0.282   0.000  0.00  0.00    +0.000 C 
ATOM     14  O   UNL     1      -3.008  -0.695   0.000  0.00  0.00    +0.000 OA
ENDBRANCH  12  13
ENDBRANCH  11  12
ENDBRANCH  10  11
ENDBRANCH   5  10
TORSDOF 5
