REMARK  Name = EQI
REMARK  0 active torsions:
REMARK  status: ('A' for Active; 'I' for Inactive)
REMARK                            x       y       z     vdW  Elec       q    Type
REMARK                         _______ _______ _______ _____ _____    ______ ____
ROOT
ATOM      1  C   UNL     1       2.718   0.318   0.000  0.00  0.00    +0.000 A 
ATOM      2  C   UNL     1       2.186   0.949   0.000  0.00  0.00    +0.000 A 
ATOM      3  C   UNL     1       1.374   0.804   0.000  0.00  0.00    +0.000 A 
ATOM      4  C   UNL     1       1.093   0.028   0.000  0.00  0.00    +0.000 A 
ATOM      5  C   UNL     1       1.625  -0.603   0.000  0.00  0.00    +0.000 A 
ATOM      6  C   UNL     1       2.437  -0.458   0.000  0.00  0.00    +0.000 A 
ATOM      7  C   UNL     1       0.842   1.434   0.000  0.00  0.00    +0.000 C 
ATOM      8  C   UNL     1       0.030   1.289   0.000  0.00  0.00    +0.000 C 
ATOM      9  C   UNL     1      -0.251   0.513   0.000  0.00  0.00    +0.000 C 
ATOM     10  C   UNL     1       0.281  -0.117   0.000  0.00  0.00    +0.000 C 
ATOM     11  C   UNL     1      -1.063   0.368   0.000  0.00  0.00    +0.000 C 
ATOM     12  C   UNL     1      -1.343  -0.408   0.000  0.00  0.00    +0.000 C 
ATOM     13  C   UNL     1      -0.811  -1.039   0.000  0.00  0.00    +0.000 C 
ATOM     14  C   UNL     1       0.001  -0.893   0.000  0.00  0.00    +0.000 C 
ATOM     15  C   UNL     1      -1.714   0.874   0.000  0.00  0.00    +0.000 C 
ATOM     16  C   UNL     1      -2.397   0.411   0.000  0.00  0.00    +0.000 C 
ATOM     17  C   UNL     1      -2.168  -0.381   0.000  0.00  0.00    +0.000 C 
ATOM     18  C   UNL     1      -1.703  -1.150   0.000  0.00  0.00    +0.000 C 
ATOM     19  O   UNL     1       3.530   0.463   0.000  0.00  0.00    +0.000 OA
ATOM     20  O   UNL     1      -2.674  -1.032   0.000  0.00  0.00    +0.000 OA
ENDROOT
TORSDOF 0
