REMARK  Name = ESI
REMARK  1 active torsions:
REMARK  status: ('A' for Active; 'I' for Inactive)
REMARK    1  A    between atoms: C_1  and  C_2
REMARK                            x       y       z     vdW  Elec       q    Type
REMARK                         _______ _______ _______ _____ _____    ______ ____
ROOT
ATOM      1  C   UNL     1       0.018   0.100   0.000  0.00  0.00    +0.000 A 
ATOM      2  S   UNL     1       0.503  -0.568   0.000  0.00  0.00    +0.000 S 
ATOM      3  C   UNL     1       1.288  -0.313   0.000  0.00  0.00    +0.000 A 
ATOM      4  C   UNL     1       1.288   0.512   0.000  0.00  0.00    +0.000 A 
ATOM      5  C   UNL     1       0.503   0.767   0.000  0.00  0.00    +0.000 A 
ATOM      6  C   UNL     1       2.002  -0.725   0.000  0.00  0.00    +0.000 A 
ATOM      7  C   UNL     1       2.716  -0.313   0.000  0.00  0.00    +0.000 A 
ATOM      8  C   UNL     1       2.716   0.512   0.000  0.00  0.00    +0.000 A 
ATOM      9  C   UNL     1       2.002   0.925   0.000  0.00  0.00    +0.000 A 
ATOM     10  I   UNL     1       2.002   1.750   0.000  0.00  0.00    +0.000 I 
ENDROOT
BRANCH   1  11
ATOM     11  C   UNL     1      -0.807   0.100   0.000  0.00  0.00    +0.000 C 
ATOM     12  N   UNL     1      -1.220   0.814   0.000  0.00  0.00    +0.000 NA
ATOM     13  N   UNL     1      -1.220  -0.615   0.000  0.00  0.00    +0.000 NA
ENDBRANCH   1  11
TORSDOF 1
