REMARK  Name = ESP
REMARK  1 active torsions:
REMARK  status: ('A' for Active; 'I' for Inactive)
REMARK    1  A    between atoms: C_1  and  C_2
REMARK                            x       y       z     vdW  Elec       q    Type
REMARK                         _______ _______ _______ _____ _____    ______ ____
ROOT
ATOM      1  C   UNL     1      -0.720  -0.368   0.000  0.00  0.00    +0.000 A 
ATOM      2  S   UNL     1      -0.235  -1.035   0.000  0.00  0.00    +0.000 S 
ATOM      3  C   UNL     1       0.549  -0.780   0.000  0.00  0.00    +0.000 A 
ATOM      4  C   UNL     1       0.549   0.045   0.000  0.00  0.00    +0.000 A 
ATOM      5  C   UNL     1      -0.235   0.300   0.000  0.00  0.00    +0.000 A 
ATOM      6  N   UNL     1       1.264  -1.193   0.000  0.00  0.00    +0.000 NA
ATOM      7  C   UNL     1       1.978  -0.780   0.000  0.00  0.00    +0.000 A 
ATOM      8  C   UNL     1       1.978   0.045   0.000  0.00  0.00    +0.000 A 
ATOM      9  C   UNL     1       1.264   0.457   0.000  0.00  0.00    +0.000 A 
ENDROOT
BRANCH   1  10
ATOM     10  C   UNL     1      -1.545  -0.368   0.000  0.00  0.00    +0.000 C 
ATOM     11  N   UNL     1      -1.958   0.347   0.000  0.00  0.00    +0.000 NA
ATOM     12  N   UNL     1      -1.958  -1.082   0.000  0.00  0.00    +0.000 NA
ENDBRANCH   1  10
TORSDOF 1
