REMARK  Name = ESX
REMARK  1 active torsions:
REMARK  status: ('A' for Active; 'I' for Inactive)
REMARK    1  A    between atoms: C_1  and  C_2
REMARK                            x       y       z     vdW  Elec       q    Type
REMARK                         _______ _______ _______ _____ _____    ______ ____
ROOT
ATOM      1  C   UNL     1      -0.705  -0.230   0.000  0.00  0.00    +0.000 A 
ATOM      2  S   UNL     1      -0.220  -0.897   0.000  0.00  0.00    +0.000 S 
ATOM      3  C   UNL     1       0.565  -0.642   0.000  0.00  0.00    +0.000 A 
ATOM      4  C   UNL     1       0.565   0.183   0.000  0.00  0.00    +0.000 A 
ATOM      5  C   UNL     1      -0.220   0.438   0.000  0.00  0.00    +0.000 A 
ATOM      6  C   UNL     1       1.279  -1.055   0.000  0.00  0.00    +0.000 A 
ATOM      7  C   UNL     1       1.994  -0.642   0.000  0.00  0.00    +0.000 A 
ATOM      8  C   UNL     1       1.994   0.183   0.000  0.00  0.00    +0.000 A 
ATOM      9  C   UNL     1       1.279   0.595   0.000  0.00  0.00    +0.000 A 
ENDROOT
BRANCH   1  10
ATOM     10  C   UNL     1      -1.530  -0.230   0.000  0.00  0.00    +0.000 C 
ATOM     11  N   UNL     1      -1.942   0.485   0.000  0.00  0.00    +0.000 NA
ATOM     12  N   UNL     1      -1.942  -0.944   0.000  0.00  0.00    +0.000 NA
ENDBRANCH   1  10
TORSDOF 1
