REMARK  Name = ET0
REMARK  4 active torsions:
REMARK  status: ('A' for Active; 'I' for Inactive)
REMARK    1  A    between atoms: C_3  and  C_10
REMARK    2  A    between atoms: C_5  and  C_10
REMARK    3  A    between atoms: C_5  and  C_11
REMARK    4  A    between atoms: C_7  and  O_15
REMARK                            x       y       z     vdW  Elec       q    Type
REMARK                         _______ _______ _______ _____ _____    ______ ____
ROOT
ATOM      1  N   UNL     1      -0.502  -1.571   0.000  0.00  0.00    +0.000 NA
ATOM      2  C   UNL     1       0.283  -1.316   0.000  0.00  0.00    +0.000 A 
ATOM      3  C   UNL     1       0.997  -0.079   0.000  0.00  0.00    +0.000 A 
ATOM      4  C   UNL     1       0.997  -1.729   0.000  0.00  0.00    +0.000 A 
ATOM      5  C   UNL     1       1.712  -0.491   0.000  0.00  0.00    +0.000 A 
ATOM      6  C   UNL     1      -0.502  -0.236   0.000  0.00  0.00    +0.000 A 
ATOM      7  C   UNL     1      -0.987  -0.904   0.000  0.00  0.00    +0.000 A 
ATOM      8  C   UNL     1       0.283  -0.491   0.000  0.00  0.00    +0.000 A 
ATOM      9  C   UNL     1       1.712  -1.316   0.000  0.00  0.00    +0.000 A 
ENDROOT
BRANCH   5  10
ATOM     10  O   UNL     1       2.426  -0.079   0.000  0.00  0.00    +0.000 OA
ATOM     11  C   UNL     1       2.426   0.746   0.000  0.00  0.00    +0.000 C 
ENDBRANCH   5  10
BRANCH   6  12
ATOM     12  C   UNL     1      -0.757   0.548   0.000  0.00  0.00    +0.000 C 
BRANCH  12  13
ATOM     13  C   UNL     1      -1.564   0.720   0.000  0.00  0.00    +0.000 C 
BRANCH  13  14
ATOM     14  C   UNL     1      -1.819   1.504   0.000  0.00  0.00    +0.000 C 
ATOM     15  O   UNL     1      -2.626   1.676   0.000  0.00  0.00    +0.000 OA
ATOM     16  O   UNL     1      -1.267   2.117   0.000  0.00  0.00    +0.000 OA
ENDBRANCH  13  14
ENDBRANCH  12  13
ENDBRANCH   6  12
TORSDOF 4
