REMARK  Name = ET1
REMARK  7 active torsions:
REMARK  status: ('A' for Active; 'I' for Inactive)
REMARK    1  A    between atoms: C_1  and  C_16
REMARK    2  A    between atoms: C_1  and  C_17
REMARK    3  A    between atoms: N_5  and  S_18
REMARK    4  A    between atoms: C_7  and  C_16
REMARK    5  A    between atoms: C_10  and  O_14
REMARK    6  A    between atoms: S_18  and  C_19
REMARK    7  A    between atoms: C_21  and  O_26
REMARK                            x       y       z     vdW  Elec       q    Type
REMARK                         _______ _______ _______ _____ _____    ______ ____
ROOT
ATOM      1  N   UNL     1      -0.054  -0.179   0.000  0.00  0.00    +0.000 N 
ATOM      2  C   UNL     1      -0.538  -0.847   0.000  0.00  0.00    +0.000 A 
ATOM      3  C   UNL     1      -0.054  -1.514   0.000  0.00  0.00    +0.000 A 
ATOM      4  C   UNL     1       0.731  -1.259   0.000  0.00  0.00    +0.000 A 
ATOM      5  C   UNL     1       0.731  -0.434   0.000  0.00  0.00    +0.000 A 
ATOM      6  C   UNL     1       2.160  -1.259   0.000  0.00  0.00    +0.000 A 
ATOM      7  C   UNL     1       2.160  -0.434   0.000  0.00  0.00    +0.000 A 
ATOM      8  C   UNL     1       1.446  -0.022   0.000  0.00  0.00    +0.000 A 
ATOM      9  C   UNL     1       1.446  -1.672   0.000  0.00  0.00    +0.000 A 
ENDROOT
BRANCH   1  10
ATOM     10  S   UNL     1      -0.308   0.605   0.000  0.00  0.00    +0.000 S 
ATOM     11  O   UNL     1       0.476   0.860   0.000  0.00  0.00    +0.000 OA
ATOM     12  O   UNL     1      -1.093   0.350   0.000  0.00  0.00    +0.000 OA
BRANCH  10  16
ATOM     13  C   UNL     1      -1.370   1.561   0.000  0.00  0.00    +0.000 A 
ATOM     14  C   UNL     1      -0.266   2.788   0.000  0.00  0.00    +0.000 A 
ATOM     15  C   UNL     1      -0.011   2.003   0.000  0.00  0.00    +0.000 A 
ATOM     16  C   UNL     1      -0.563   1.390   0.000  0.00  0.00    +0.000 A 
ATOM     17  C   UNL     1      -1.625   2.346   0.000  0.00  0.00    +0.000 A 
ATOM     18  C   UNL     1      -1.073   2.959   0.000  0.00  0.00    +0.000 A 
BRANCH  18  19
ATOM     19  O   UNL     1      -1.328   3.744   0.000  0.00  0.00    +0.000 OA
ATOM     20  C   UNL     1      -2.135   3.915   0.000  0.00  0.00    +0.000 C 
ENDBRANCH  18  19
ENDBRANCH  10  16
ENDBRANCH   1  10
BRANCH   6  21
ATOM     21  O   UNL     1       2.874  -1.672   0.000  0.00  0.00    +0.000 OA
ATOM     22  C   UNL     1       2.874  -2.497   0.000  0.00  0.00    +0.000 C 
ENDBRANCH   6  21
BRANCH   3  23
ATOM     23  C   UNL     1      -0.308  -2.299   0.000  0.00  0.00    +0.000 C 
BRANCH  23  24
ATOM     24  C   UNL     1      -1.115  -2.470   0.000  0.00  0.00    +0.000 C 
BRANCH  24  25
ATOM     25  C   UNL     1      -1.370  -3.255   0.000  0.00  0.00    +0.000 C 
ATOM     26  O   UNL     1      -2.177  -3.426   0.000  0.00  0.00    +0.000 OA
ATOM     27  O   UNL     1      -0.818  -3.868   0.000  0.00  0.00    +0.000 OA
ENDBRANCH  24  25
ENDBRANCH  23  24
ENDBRANCH   3  23
TORSDOF 7
