REMARK  Name = ETP
REMARK  6 active torsions:
REMARK  status: ('A' for Active; 'I' for Inactive)
REMARK    1  A    between atoms: B_1  and  C_4
REMARK    2  A    between atoms: C_6  and  N_7
REMARK    3  A    between atoms: N_7  and  S_11
REMARK    4  A    between atoms: S_11  and  C_18
REMARK    5  A    between atoms: C_16  and  S_19
REMARK    6  A    between atoms: S_19  and  C_22
REMARK                            x       y       z     vdW  Elec       q    Type
REMARK                         _______ _______ _______ _____ _____    ______ ____
ROOT
ATOM      1  S   UNL     1       0.905  -0.257   0.000  0.00  0.00    +0.000 S 
ATOM      2  C   UNL     1       0.650  -1.042   0.000  0.00  0.00    +0.000 A 
ATOM      3  C   UNL     1      -0.175  -1.042   0.000  0.00  0.00    +0.000 A 
ATOM      4  C   UNL     1      -0.430  -0.257   0.000  0.00  0.00    +0.000 A 
ATOM      5  C   UNL     1       0.237   0.228   0.000  0.00  0.00    +0.000 A 
ENDROOT
BRANCH   3   6
ATOM      6  S   UNL     1      -0.660  -1.709   0.000  0.00  0.00    +0.000 S 
ATOM      7  O   UNL     1      -1.327  -1.224   0.000  0.00  0.00    +0.000 OA
ATOM      8  O   UNL     1       0.007  -2.194   0.000  0.00  0.00    +0.000 OA
BRANCH   6   9
ATOM      9  C   UNL     1      -1.145  -2.377   0.000  0.00  0.00    +0.000 A 
ATOM     10  C   UNL     1      -0.809  -3.131   0.000  0.00  0.00    +0.000 A 
ATOM     11  C   UNL     1      -1.294  -3.798   0.000  0.00  0.00    +0.000 A 
ATOM     12  C   UNL     1      -2.115  -3.712   0.000  0.00  0.00    +0.000 A 
ATOM     13  C   UNL     1      -2.450  -2.958   0.000  0.00  0.00    +0.000 A 
ATOM     14  C   UNL     1      -1.965  -2.291   0.000  0.00  0.00    +0.000 A 
ENDBRANCH   6   9
ENDBRANCH   3   6
BRANCH   5  15
ATOM     15  S   UNL     1       0.237   1.053   0.000  0.00  0.00    +0.000 S 
ATOM     16  O   UNL     1      -0.588   1.053   0.000  0.00  0.00    +0.000 OA
ATOM     17  O   UNL     1       1.062   1.053   0.000  0.00  0.00    +0.000 OA
BRANCH  15  18
ATOM     18  N   UNL     1       0.237   1.878   0.000  0.00  0.00    +0.000 NA
BRANCH  18  21
ATOM     19  C   UNL     1       2.381   2.290   0.000  0.00  0.00    +0.000 A 
ATOM     20  C   UNL     1       1.666   1.878   0.000  0.00  0.00    +0.000 A 
ATOM     21  C   UNL     1       0.952   2.290   0.000  0.00  0.00    +0.000 A 
ATOM     22  C   UNL     1       0.952   3.115   0.000  0.00  0.00    +0.000 A 
ATOM     23  C   UNL     1       1.666   3.528   0.000  0.00  0.00    +0.000 A 
ATOM     24  C   UNL     1       2.381   3.115   0.000  0.00  0.00    +0.000 A 
BRANCH  19  25
ATOM     25  B   UNL     1       3.095   1.878   0.000  0.00  0.00    +0.000 B 
ATOM     26  O   UNL     1       3.810   2.290   0.000  0.00  0.00    +0.000 OA
ATOM     27  O   UNL     1       3.095   1.053   0.000  0.00  0.00    +0.000 OA
ENDBRANCH  19  25
ENDBRANCH  18  21
ENDBRANCH  15  18
ENDBRANCH   5  15
TORSDOF 6
