REMARK  Name = F10
REMARK  2 active torsions:
REMARK  status: ('A' for Active; 'I' for Inactive)
REMARK    1  A    between atoms: C_14  and  C_15
REMARK    2  A    between atoms: C_16  and  C_17
REMARK                            x       y       z     vdW  Elec       q    Type
REMARK                         _______ _______ _______ _____ _____    ______ ____
ROOT
ATOM      1  C   UNL     1      -0.857  -0.222   0.000  0.00  0.00    +0.000 A 
ATOM      2  C   UNL     1      -0.857   1.207   0.000  0.00  0.00    +0.000 A 
ATOM      3  C   UNL     1      -1.682   1.207   0.000  0.00  0.00    +0.000 A 
ATOM      4  C   UNL     1      -0.445   0.493   0.000  0.00  0.00    +0.000 A 
ATOM      5  C   UNL     1      -1.682  -0.222   0.000  0.00  0.00    +0.000 A 
ATOM      6  N   UNL     1      -2.095   0.493   0.000  0.00  0.00    +0.000 NA
ENDROOT
BRANCH   4  15
ATOM      7  N   UNL     1       3.079   0.080   0.000  0.00  0.00    +0.000 NA
ATOM      8  O   UNL     1       2.364  -1.157   0.000  0.00  0.00    +0.000 OA
ATOM      9  C   UNL     1       0.865  -0.175   0.000  0.00  0.00    +0.000 A 
ATOM     10  C   UNL     1       3.079   0.905   0.000  0.00  0.00    +0.000 C 
ATOM     11  C   UNL     1       2.364   1.318   0.000  0.00  0.00    +0.000 C 
ATOM     12  C   UNL     1       1.650   0.080   0.000  0.00  0.00    +0.000 A 
ATOM     13  C   UNL     1       2.364  -0.332   0.000  0.00  0.00    +0.000 C 
ATOM     14  C   UNL     1       1.650   0.905   0.000  0.00  0.00    +0.000 A 
ATOM     15  C   UNL     1       0.380   0.493   0.000  0.00  0.00    +0.000 A 
ATOM     16  N   UNL     1       0.865   1.160   0.000  0.00  0.00    +0.000 NA
ENDBRANCH   4  15
BRANCH   5  19
ATOM     17  C   UNL     1      -1.682  -1.651   0.000  0.00  0.00    +0.000 A 
ATOM     18  C   UNL     1      -2.095  -2.365   0.000  0.00  0.00    +0.000 A 
ATOM     19  C   UNL     1      -2.095  -0.936   0.000  0.00  0.00    +0.000 A 
ATOM     20  C   UNL     1      -2.920  -0.936   0.000  0.00  0.00    +0.000 A 
ATOM     21  C   UNL     1      -3.332  -1.651   0.000  0.00  0.00    +0.000 A 
ATOM     22  C   UNL     1      -2.920  -2.365   0.000  0.00  0.00    +0.000 A 
ATOM     23  F   UNL     1      -3.332  -0.222   0.000  0.00  0.00    +0.000 F 
ENDBRANCH   5  19
TORSDOF 2
