REMARK  Name = F13
REMARK  3 active torsions:
REMARK  status: ('A' for Active; 'I' for Inactive)
REMARK    1  A    between atoms: C_7  and  C_8
REMARK    2  A    between atoms: N_10  and  C_11
REMARK    3  A    between atoms: C_15  and  C_17
REMARK                            x       y       z     vdW  Elec       q    Type
REMARK                         _______ _______ _______ _____ _____    ______ ____
ROOT
ATOM      1  C   UNL     1       0.455  -0.490   0.000  0.00  0.00    +0.000 A 
ATOM      2  C   UNL     1       1.170  -0.077   0.000  0.00  0.00    +0.000 A 
ATOM      3  C   UNL     1       1.884  -0.490   0.000  0.00  0.00    +0.000 A 
ATOM      4  C   UNL     1       1.884  -1.315   0.000  0.00  0.00    +0.000 A 
ATOM      5  C   UNL     1       1.170  -1.727   0.000  0.00  0.00    +0.000 A 
ATOM      6  C   UNL     1       0.455  -1.315   0.000  0.00  0.00    +0.000 A 
ENDROOT
BRANCH   5   7
ATOM      7  C   UNL     1       1.170  -2.552   0.000  0.00  0.00    +0.000 A 
ATOM      8  N   UNL     1       1.837  -3.037   0.000  0.00  0.00    +0.000 NA
ATOM      9  N   UNL     1       1.582  -3.822   0.000  0.00  0.00    +0.000 NA
ATOM     10  N   UNL     1       0.757  -3.822   0.000  0.00  0.00    +0.000 NA
ATOM     11  N   UNL     1       0.502  -3.037   0.000  0.00  0.00    +0.000 NA
ENDBRANCH   5   7
BRANCH   1  14
ATOM     12  C   UNL     1      -0.259   0.748   0.000  0.00  0.00    +0.000 C 
ATOM     13  O   UNL     1       0.455   1.160   0.000  0.00  0.00    +0.000 OA
ATOM     14  N   UNL     1      -0.259  -0.077   0.000  0.00  0.00    +0.000 NA
BRANCH  12  21
ATOM     15  F   UNL     1      -1.688   3.223   0.000  0.00  0.00    +0.000 F 
ATOM     16  C   UNL     1      -1.688   2.398   0.000  0.00  0.00    +0.000 A 
ATOM     17  C   UNL     1      -0.974   1.985   0.000  0.00  0.00    +0.000 A 
ATOM     18  C   UNL     1      -2.402   1.985   0.000  0.00  0.00    +0.000 A 
ATOM     19  C   UNL     1      -2.402   1.160   0.000  0.00  0.00    +0.000 A 
ATOM     20  C   UNL     1      -1.688   0.748   0.000  0.00  0.00    +0.000 A 
ATOM     21  C   UNL     1      -0.974   1.160   0.000  0.00  0.00    +0.000 A 
ENDBRANCH  12  21
ENDBRANCH   1  14
TORSDOF 3
