REMARK  Name = F19
REMARK  6 active torsions:
REMARK  status: ('A' for Active; 'I' for Inactive)
REMARK    1  A    between atoms: C_3  and  S_11
REMARK    2  A    between atoms: S_11  and  N_17
REMARK    3  A    between atoms: C_14  and  O_15
REMARK    4  A    between atoms: C_14  and  C_16
REMARK    5  A    between atoms: O_15  and  P_20
REMARK    6  A    between atoms: C_16  and  N_17
REMARK                            x       y       z     vdW  Elec       q    Type
REMARK                         _______ _______ _______ _____ _____    ______ ____
ROOT
ATOM      1  S   UNL     1      -0.356   0.369   0.000  0.00  0.00    +0.000 S 
ATOM      2  O   UNL     1       0.057  -0.346   0.000  0.00  0.00    +0.000 OA
ATOM      3  O   UNL     1      -0.768   1.083   0.000  0.00  0.00    +0.000 OA
ENDROOT
BRANCH   1   6
ATOM      4  C   UNL     1      -1.785  -1.281   0.000  0.00  0.00    +0.000 A 
ATOM      5  C   UNL     1      -1.071  -0.869   0.000  0.00  0.00    +0.000 A 
ATOM      6  C   UNL     1      -1.071  -0.044   0.000  0.00  0.00    +0.000 A 
ATOM      7  C   UNL     1      -1.785   0.369   0.000  0.00  0.00    +0.000 A 
ATOM      8  C   UNL     1      -2.499  -0.044   0.000  0.00  0.00    +0.000 A 
ATOM      9  C   UNL     1      -2.499  -0.869   0.000  0.00  0.00    +0.000 A 
ATOM     10  C   UNL     1      -3.214  -1.281   0.000  0.00  0.00    +0.000 A 
ATOM     11  C   UNL     1      -3.929  -0.869   0.000  0.00  0.00    +0.000 A 
ATOM     12  C   UNL     1      -3.929  -0.044   0.000  0.00  0.00    +0.000 A 
ATOM     13  C   UNL     1      -3.214   0.369   0.000  0.00  0.00    +0.000 A 
ENDBRANCH   1   6
BRANCH   1  14
ATOM     14  N   UNL     1       0.359   0.781   0.000  0.00  0.00    +0.000 NA
BRANCH  14  15
ATOM     15  C   UNL     1       1.073   0.369   0.000  0.00  0.00    +0.000 C 
BRANCH  15  16
ATOM     16  C   UNL     1       1.788   0.781   0.000  0.00  0.00    +0.000 C 
BRANCH  16  17
ATOM     17  O   UNL     1       2.502   0.369   0.000  0.00  0.00    +0.000 OA
BRANCH  17  20
ATOM     18  O   UNL     1       3.931   1.194   0.000  0.00  0.00    +0.000 OA
ATOM     19  O   UNL     1       3.629   0.067   0.000  0.00  0.00    +0.000 OA
ATOM     20  P   UNL     1       3.217   0.781   0.000  0.00  0.00    +0.000 P 
ATOM     21  O   UNL     1       2.804   1.496   0.000  0.00  0.00    +0.000 OA
ENDBRANCH  17  20
ENDBRANCH  16  17
ENDBRANCH  15  16
ENDBRANCH  14  15
ENDBRANCH   1  14
TORSDOF 6
