REMARK  Name = F1G
REMARK  4 active torsions:
REMARK  status: ('A' for Active; 'I' for Inactive)
REMARK    1  A    between atoms: C_2  and  C_5
REMARK    2  A    between atoms: C_13  and  C_14
REMARK    3  A    between atoms: N_16  and  C_17
REMARK    4  A    between atoms: C_17  and  C_18
REMARK                            x       y       z     vdW  Elec       q    Type
REMARK                         _______ _______ _______ _____ _____    ______ ____
ROOT
ATOM      1  C   UNL     1      -1.787  -0.939   0.000  0.00  0.00    +0.000 A 
ATOM      2  C   UNL     1      -1.235  -0.326   0.000  0.00  0.00    +0.000 A 
ATOM      3  C   UNL     1      -1.648   0.389   0.000  0.00  0.00    +0.000 A 
ATOM      4  N   UNL     1      -2.455   0.217   0.000  0.00  0.00    +0.000 N 
ATOM      5  C   UNL     1      -3.068   0.769   0.000  0.00  0.00    +0.000 C 
ATOM      6  N   UNL     1      -2.541  -0.604   0.000  0.00  0.00    +0.000 NA
ATOM      7  S   UNL     1      -1.096   1.002   0.000  0.00  0.00    +0.000 S 
ATOM      8  C   UNL     1      -0.428  -0.154   0.000  0.00  0.00    +0.000 A 
ATOM      9  C   UNL     1      -0.342   0.666   0.000  0.00  0.00    +0.000 A 
ENDROOT
BRANCH   1  11
ATOM     10  F   UNL     1      -1.444  -2.553   0.000  0.00  0.00    +0.000 F 
ATOM     11  C   UNL     1      -1.616  -1.746   0.000  0.00  0.00    +0.000 C 
ATOM     12  F   UNL     1      -0.809  -1.575   0.000  0.00  0.00    +0.000 F 
ATOM     13  F   UNL     1      -2.423  -1.917   0.000  0.00  0.00    +0.000 F 
ENDBRANCH   1  11
BRANCH   9  14
ATOM     14  C   UNL     1       0.372   1.079   0.000  0.00  0.00    +0.000 C 
ATOM     15  O   UNL     1       0.372   1.904   0.000  0.00  0.00    +0.000 OA
ATOM     16  N   UNL     1       1.087   0.666   0.000  0.00  0.00    +0.000 NA
BRANCH  16  17
ATOM     17  C   UNL     1       1.801   1.079   0.000  0.00  0.00    +0.000 C 
BRANCH  17  18
ATOM     18  C   UNL     1       2.516   0.666   0.000  0.00  0.00    +0.000 C 
ATOM     19  S   UNL     1       3.230   1.079   0.000  0.00  0.00    +0.000 S 
ENDBRANCH  17  18
ENDBRANCH  16  17
ENDBRANCH   9  14
TORSDOF 4
