REMARK  Name = F1H
REMARK  6 active torsions:
REMARK  status: ('A' for Active; 'I' for Inactive)
REMARK    1  A    between atoms: C_4  and  C_7
REMARK    2  A    between atoms: C_7  and  N_18
REMARK    3  A    between atoms: C_10  and  C_12
REMARK    4  A    between atoms: C_11  and  C_12
REMARK    5  A    between atoms: C_11  and  C_13
REMARK    6  A    between atoms: C_14  and  N_17
REMARK                            x       y       z     vdW  Elec       q    Type
REMARK                         _______ _______ _______ _____ _____    ______ ____
ROOT
ATOM      1  C   UNL     1       0.807  -0.148   0.000  0.00  0.00    +0.000 C 
ATOM      2  C   UNL     1       0.093  -0.560   0.000  0.00  0.00    +0.000 C 
ATOM      3  C   UNL     1       0.093   1.090   0.000  0.00  0.00    +0.000 C 
ATOM      4  C   UNL     1      -0.622   0.677   0.000  0.00  0.00    +0.000 C 
ATOM      5  C   UNL     1      -0.622  -0.148   0.000  0.00  0.00    +0.000 C 
ATOM      6  N   UNL     1       0.807   0.677   0.000  0.00  0.00    +0.000 NA
ENDROOT
BRANCH   5   9
ATOM      7  C   UNL     1      -2.051  -0.148   0.000  0.00  0.00    +0.000 C 
ATOM      8  O   UNL     1      -2.051   0.677   0.000  0.00  0.00    +0.000 OA
ATOM      9  N   UNL     1      -1.336  -0.560   0.000  0.00  0.00    +0.000 NA
BRANCH   7  10
ATOM     10  C   UNL     1      -2.765  -0.560   0.000  0.00  0.00    +0.000 C 
BRANCH  10  11
ATOM     11  C   UNL     1      -3.480  -0.148   0.000  0.00  0.00    +0.000 C 
BRANCH  11  12
ATOM     12  C   UNL     1      -4.194  -0.560   0.000  0.00  0.00    +0.000 C 
ATOM     13  S   UNL     1      -4.909  -0.148   0.000  0.00  0.00    +0.000 S 
ENDBRANCH  11  12
ENDBRANCH  10  11
ENDBRANCH   7  10
ENDBRANCH   5   9
BRANCH   6  14
ATOM     14  C   UNL     1       1.522   1.090   0.000  0.00  0.00    +0.000 C 
BRANCH  14  18
ATOM     15  C   UNL     1       2.950   1.090   0.000  0.00  0.00    +0.000 A 
ATOM     16  C   UNL     1       3.665   0.677   0.000  0.00  0.00    +0.000 A 
ATOM     17  C   UNL     1       2.236  -0.148   0.000  0.00  0.00    +0.000 A 
ATOM     18  C   UNL     1       2.236   0.677   0.000  0.00  0.00    +0.000 A 
ATOM     19  C   UNL     1       3.665  -0.148   0.000  0.00  0.00    +0.000 A 
ATOM     20  C   UNL     1       2.950  -0.560   0.000  0.00  0.00    +0.000 A 
ENDBRANCH  14  18
ENDBRANCH   6  14
TORSDOF 6
