REMARK  Name = F1I
REMARK  8 active torsions:
REMARK  status: ('A' for Active; 'I' for Inactive)
REMARK    1  A    between atoms: O_3  and  C_6
REMARK    2  A    between atoms: C_4  and  O_22
REMARK    3  A    between atoms: C_7  and  C_10
REMARK    4  A    between atoms: C_10  and  N_21
REMARK    5  A    between atoms: C_13  and  C_15
REMARK    6  A    between atoms: C_14  and  C_15
REMARK    7  A    between atoms: C_14  and  C_16
REMARK    8  A    between atoms: C_17  and  N_20
REMARK                            x       y       z     vdW  Elec       q    Type
REMARK                         _______ _______ _______ _____ _____    ______ ____
ROOT
ATOM      1  C   UNL     1      -0.270  -1.015   0.000  0.00  0.00    +0.000 C 
ATOM      2  C   UNL     1      -0.984  -0.603   0.000  0.00  0.00    +0.000 C 
ATOM      3  C   UNL     1       0.445   0.222   0.000  0.00  0.00    +0.000 C 
ATOM      4  C   UNL     1      -0.270   0.635   0.000  0.00  0.00    +0.000 C 
ATOM      5  C   UNL     1      -0.984   0.222   0.000  0.00  0.00    +0.000 C 
ATOM      6  N   UNL     1       0.445  -0.603   0.000  0.00  0.00    +0.000 NA
ENDROOT
BRANCH   5   9
ATOM      7  C   UNL     1      -2.413   0.222   0.000  0.00  0.00    +0.000 C 
ATOM      8  O   UNL     1      -2.413  -0.603   0.000  0.00  0.00    +0.000 OA
ATOM      9  N   UNL     1      -1.699   0.635   0.000  0.00  0.00    +0.000 NA
BRANCH   7  10
ATOM     10  C   UNL     1      -3.127   0.635   0.000  0.00  0.00    +0.000 C 
BRANCH  10  11
ATOM     11  C   UNL     1      -3.842   0.222   0.000  0.00  0.00    +0.000 C 
BRANCH  11  12
ATOM     12  C   UNL     1      -4.556   0.635   0.000  0.00  0.00    +0.000 C 
ATOM     13  S   UNL     1      -5.271   0.222   0.000  0.00  0.00    +0.000 S 
ENDBRANCH  11  12
ENDBRANCH  10  11
ENDBRANCH   7  10
ENDBRANCH   5   9
BRANCH   6  14
ATOM     14  C   UNL     1       1.159  -1.015   0.000  0.00  0.00    +0.000 C 
BRANCH  14  18
ATOM     15  C   UNL     1       1.874   0.222   0.000  0.00  0.00    +0.000 A 
ATOM     16  C   UNL     1       2.588   0.635   0.000  0.00  0.00    +0.000 A 
ATOM     17  C   UNL     1       2.588  -1.015   0.000  0.00  0.00    +0.000 A 
ATOM     18  C   UNL     1       1.874  -0.603   0.000  0.00  0.00    +0.000 A 
ATOM     19  C   UNL     1       3.303   0.222   0.000  0.00  0.00    +0.000 A 
ATOM     20  C   UNL     1       3.303  -0.603   0.000  0.00  0.00    +0.000 A 
BRANCH  15  22
ATOM     21  C   UNL     1       1.159   1.460   0.000  0.00  0.00    +0.000 C 
ATOM     22  O   UNL     1       1.159   0.635   0.000  0.00  0.00    +0.000 OA
ENDBRANCH  15  22
BRANCH  17  24
ATOM     23  C   UNL     1       3.303  -2.253   0.000  0.00  0.00    +0.000 C 
ATOM     24  O   UNL     1       2.588  -1.840   0.000  0.00  0.00    +0.000 OA
ENDBRANCH  17  24
ENDBRANCH  14  18
ENDBRANCH   6  14
TORSDOF 8
