REMARK  Name = F1J
REMARK  5 active torsions:
REMARK  status: ('A' for Active; 'I' for Inactive)
REMARK    1  A    between atoms: C_1  and  C_10
REMARK    2  A    between atoms: C_7  and  C_8
REMARK    3  A    between atoms: C_8  and  N_19
REMARK    4  A    between atoms: N_14  and  C_15
REMARK    5  A    between atoms: C_15  and  C_16
REMARK                            x       y       z     vdW  Elec       q    Type
REMARK                         _______ _______ _______ _____ _____    ______ ____
ROOT
ATOM      1  C   UNL     1       0.017   0.634   0.000  0.00  0.00    +0.000 C 
ATOM      2  C   UNL     1       0.732   0.221   0.000  0.00  0.00    +0.000 C 
ATOM      3  C   UNL     1      -0.697  -0.604   0.000  0.00  0.00    +0.000 C 
ATOM      4  C   UNL     1       0.017  -1.016   0.000  0.00  0.00    +0.000 C 
ATOM      5  N   UNL     1       0.732  -0.604   0.000  0.00  0.00    +0.000 NA
ATOM      6  N   UNL     1      -0.697   0.221   0.000  0.00  0.00    +0.000 NA
ENDROOT
BRANCH   2   7
ATOM      7  C   UNL     1       1.446   0.634   0.000  0.00  0.00    +0.000 C 
ATOM      8  O   UNL     1       1.446   1.459   0.000  0.00  0.00    +0.000 OA
ATOM      9  N   UNL     1       2.161   0.221   0.000  0.00  0.00    +0.000 NA
BRANCH   9  10
ATOM     10  C   UNL     1       2.875   0.634   0.000  0.00  0.00    +0.000 C 
BRANCH  10  11
ATOM     11  C   UNL     1       3.590   0.221   0.000  0.00  0.00    +0.000 C 
ATOM     12  S   UNL     1       4.304   0.634   0.000  0.00  0.00    +0.000 S 
ENDBRANCH  10  11
ENDBRANCH   9  10
ENDBRANCH   2   7
BRANCH   6  13
ATOM     13  C   UNL     1      -1.412   0.634   0.000  0.00  0.00    +0.000 C 
BRANCH  13  19
ATOM     14  C   UNL     1      -3.555   0.221   0.000  0.00  0.00    +0.000 A 
ATOM     15  C   UNL     1      -2.841   0.634   0.000  0.00  0.00    +0.000 A 
ATOM     16  C   UNL     1      -3.555  -0.604   0.000  0.00  0.00    +0.000 A 
ATOM     17  C   UNL     1      -2.841  -1.016   0.000  0.00  0.00    +0.000 A 
ATOM     18  C   UNL     1      -2.126  -0.604   0.000  0.00  0.00    +0.000 A 
ATOM     19  C   UNL     1      -2.126   0.221   0.000  0.00  0.00    +0.000 A 
ATOM     20  F   UNL     1      -4.269  -1.016   0.000  0.00  0.00    +0.000 F 
ENDBRANCH  13  19
ENDBRANCH   6  13
TORSDOF 5
