REMARK  Name = F1K
REMARK  6 active torsions:
REMARK  status: ('A' for Active; 'I' for Inactive)
REMARK    1  A    between atoms: C_5  and  C_6
REMARK    2  A    between atoms: C_6  and  C_7
REMARK    3  A    between atoms: C_7  and  N_20
REMARK    4  A    between atoms: C_8  and  C_10
REMARK    5  A    between atoms: C_15  and  C_16
REMARK    6  A    between atoms: C_16  and  N_17
REMARK                            x       y       z     vdW  Elec       q    Type
REMARK                         _______ _______ _______ _____ _____    ______ ____
ROOT
ATOM      1  C   UNL     1       0.097   0.000   0.000  0.00  0.00    +0.000 C 
ATOM      2  C   UNL     1       0.097   0.825   0.000  0.00  0.00    +0.000 C 
ATOM      3  C   UNL     1       1.526   0.000   0.000  0.00  0.00    +0.000 C 
ATOM      4  C   UNL     1       1.526   0.825   0.000  0.00  0.00    +0.000 C 
ATOM      5  N   UNL     1       0.811  -0.412   0.000  0.00  0.00    +0.000 NA
ATOM      6  N   UNL     1       0.811   1.238   0.000  0.00  0.00    +0.000 NA
ENDROOT
BRANCH   2   7
ATOM      7  C   UNL     1      -0.618   1.238   0.000  0.00  0.00    +0.000 C 
ATOM      8  O   UNL     1      -0.618   2.063   0.000  0.00  0.00    +0.000 OA
ATOM      9  N   UNL     1      -1.332   0.825   0.000  0.00  0.00    +0.000 NA
BRANCH   9  10
ATOM     10  C   UNL     1      -2.047   1.238   0.000  0.00  0.00    +0.000 C 
BRANCH  10  11
ATOM     11  C   UNL     1      -2.761   0.825   0.000  0.00  0.00    +0.000 C 
BRANCH  11  12
ATOM     12  C   UNL     1      -3.476   1.238   0.000  0.00  0.00    +0.000 C 
ATOM     13  S   UNL     1      -4.190   0.825   0.000  0.00  0.00    +0.000 S 
ENDBRANCH  11  12
ENDBRANCH  10  11
ENDBRANCH   9  10
ENDBRANCH   2   7
BRANCH   5  14
ATOM     14  C   UNL     1       0.811  -1.237   0.000  0.00  0.00    +0.000 C 
BRANCH  14  21
ATOM     15  C   UNL     1       2.240  -1.237   0.000  0.00  0.00    +0.000 A 
ATOM     16  C   UNL     1       2.955  -1.650   0.000  0.00  0.00    +0.000 A 
ATOM     17  C   UNL     1       2.955  -2.475   0.000  0.00  0.00    +0.000 A 
ATOM     18  C   UNL     1       1.526  -2.475   0.000  0.00  0.00    +0.000 A 
ATOM     19  F   UNL     1       3.669  -2.887   0.000  0.00  0.00    +0.000 F 
ATOM     20  C   UNL     1       2.240  -2.887   0.000  0.00  0.00    +0.000 A 
ATOM     21  C   UNL     1       1.526  -1.650   0.000  0.00  0.00    +0.000 A 
ENDBRANCH  14  21
ENDBRANCH   5  14
TORSDOF 6
