REMARK  Name = F1L
REMARK  8 active torsions:
REMARK  status: ('A' for Active; 'I' for Inactive)
REMARK    1  A    between atoms: C_3  and  O_6
REMARK    2  A    between atoms: C_4  and  O_19
REMARK    3  A    between atoms: C_8  and  C_9
REMARK    4  A    between atoms: C_9  and  C_10
REMARK    5  A    between atoms: C_10  and  C_11
REMARK    6  A    between atoms: C_14  and  N_23
REMARK    7  A    between atoms: C_20  and  C_21
REMARK    8  A    between atoms: C_21  and  N_22
REMARK                            x       y       z     vdW  Elec       q    Type
REMARK                         _______ _______ _______ _____ _____    ______ ____
ROOT
ATOM      1  C   UNL     1       0.298  -1.710   0.000  0.00  0.00    +0.000 C 
ATOM      2  C   UNL     1      -0.416  -1.297   0.000  0.00  0.00    +0.000 C 
ATOM      3  C   UNL     1      -0.416  -0.472   0.000  0.00  0.00    +0.000 C 
ATOM      4  C   UNL     1       1.013  -0.472   0.000  0.00  0.00    +0.000 C 
ATOM      5  C   UNL     1       0.298  -0.059   0.000  0.00  0.00    +0.000 C 
ATOM      6  N   UNL     1       1.013  -1.297   0.000  0.00  0.00    +0.000 NA
ENDROOT
BRANCH   3   8
ATOM      7  C   UNL     1      -1.845  -0.472   0.000  0.00  0.00    +0.000 C 
ATOM      8  N   UNL     1      -1.131  -0.059   0.000  0.00  0.00    +0.000 NA
ATOM      9  O   UNL     1      -1.845  -1.297   0.000  0.00  0.00    +0.000 OA
BRANCH   7  10
ATOM     10  C   UNL     1      -2.560  -0.059   0.000  0.00  0.00    +0.000 C 
BRANCH  10  11
ATOM     11  C   UNL     1      -3.274  -0.472   0.000  0.00  0.00    +0.000 C 
BRANCH  11  12
ATOM     12  C   UNL     1      -3.989  -0.059   0.000  0.00  0.00    +0.000 C 
ATOM     13  S   UNL     1      -4.703  -0.472   0.000  0.00  0.00    +0.000 S 
ENDBRANCH  11  12
ENDBRANCH  10  11
ENDBRANCH   7  10
ENDBRANCH   3   8
BRANCH   6  14
ATOM     14  C   UNL     1       1.727  -1.710   0.000  0.00  0.00    +0.000 C 
BRANCH  14  21
ATOM     15  C   UNL     1       2.442  -0.472   0.000  0.00  0.00    +0.000 A 
ATOM     16  C   UNL     1       3.156  -0.059   0.000  0.00  0.00    +0.000 A 
ATOM     17  C   UNL     1       3.870  -0.472   0.000  0.00  0.00    +0.000 A 
ATOM     18  C   UNL     1       3.156  -1.710   0.000  0.00  0.00    +0.000 A 
ATOM     19 BR   UNL     1       4.585  -1.710   0.000  0.00  0.00    +0.000 Br
ATOM     20  C   UNL     1       3.870  -1.297   0.000  0.00  0.00    +0.000 A 
ATOM     21  C   UNL     1       2.442  -1.297   0.000  0.00  0.00    +0.000 A 
BRANCH  16  23
ATOM     22  C   UNL     1       3.870   1.178   0.000  0.00  0.00    +0.000 C 
ATOM     23  O   UNL     1       3.156   0.765   0.000  0.00  0.00    +0.000 OA
ENDBRANCH  16  23
BRANCH  15  25
ATOM     24  C   UNL     1       1.727   0.765   0.000  0.00  0.00    +0.000 C 
ATOM     25  O   UNL     1       1.727  -0.059   0.000  0.00  0.00    +0.000 OA
ENDBRANCH  15  25
ENDBRANCH  14  21
ENDBRANCH   6  14
TORSDOF 8
