REMARK  Name = F21
REMARK  3 active torsions:
REMARK  status: ('A' for Active; 'I' for Inactive)
REMARK    1  A    between atoms: N_6  and  S_7
REMARK    2  A    between atoms: S_7  and  C_10
REMARK    3  A    between atoms: C_15  and  C_16
REMARK                            x       y       z     vdW  Elec       q    Type
REMARK                         _______ _______ _______ _____ _____    ______ ____
ROOT
ATOM      1  C   UNL     1      -0.557  -0.102   0.000  0.00  0.00    +0.000 A 
ATOM      2  C   UNL     1       0.157   0.310   0.000  0.00  0.00    +0.000 A 
ATOM      3  C   UNL     1       0.872  -0.102   0.000  0.00  0.00    +0.000 A 
ATOM      4  C   UNL     1       1.586   0.310   0.000  0.00  0.00    +0.000 C 
ATOM      5  N   UNL     1       2.301  -0.102   0.000  0.00  0.00    +0.000 NA
ATOM      6  C   UNL     1       2.301  -0.927   0.000  0.00  0.00    +0.000 C 
ATOM      7  C   UNL     1       1.586  -1.340   0.000  0.00  0.00    +0.000 C 
ATOM      8  C   UNL     1       0.872  -0.927   0.000  0.00  0.00    +0.000 A 
ATOM      9  C   UNL     1       0.157  -1.340   0.000  0.00  0.00    +0.000 A 
ATOM     10  C   UNL     1      -0.557  -0.927   0.000  0.00  0.00    +0.000 A 
ENDROOT
BRANCH   1  11
ATOM     11  S   UNL     1      -1.272   0.310   0.000  0.00  0.00    +0.000 S 
ATOM     12  O   UNL     1      -1.684  -0.404   0.000  0.00  0.00    +0.000 OA
ATOM     13  O   UNL     1      -0.859   1.025   0.000  0.00  0.00    +0.000 OA
BRANCH  11  19
ATOM     14  C   UNL     1      -2.700   0.310   0.000  0.00  0.00    +0.000 C 
ATOM     15  C   UNL     1      -3.415   0.723   0.000  0.00  0.00    +0.000 C 
ATOM     16  S   UNL     1      -3.415   1.548   0.000  0.00  0.00    +0.000 S 
ATOM     17  C   UNL     1      -2.700   1.960   0.000  0.00  0.00    +0.000 C 
ATOM     18  C   UNL     1      -1.986   1.548   0.000  0.00  0.00    +0.000 C 
ATOM     19  N   UNL     1      -1.986   0.723   0.000  0.00  0.00    +0.000 NA
ENDBRANCH  11  19
ENDBRANCH   1  11
BRANCH   6  20
ATOM     20  C   UNL     1       3.015  -1.340   0.000  0.00  0.00    +0.000 C 
ATOM     21  F   UNL     1       3.730  -0.927   0.000  0.00  0.00    +0.000 F 
ENDBRANCH   6  20
TORSDOF 3
