REMARK  Name = F25
REMARK  5 active torsions:
REMARK  status: ('A' for Active; 'I' for Inactive)
REMARK    1  A    between atoms: N_3  and  C_4
REMARK    2  A    between atoms: C_4  and  C_5
REMARK    3  A    between atoms: C_12  and  C_30
REMARK    4  A    between atoms: C_19  and  C_20
REMARK    5  A    between atoms: C_23  and  C_26
REMARK                            x       y       z     vdW  Elec       q    Type
REMARK                         _______ _______ _______ _____ _____    ______ ____
ROOT
ATOM      1  O   UNL     1      -1.029   0.017   0.000  0.00  0.00    +0.000 OA
ATOM      2  C   UNL     1      -0.544  -0.650   0.000  0.00  0.00    +0.000 C 
ATOM      3  N   UNL     1      -0.799  -1.435   0.000  0.00  0.00    +0.000 N 
ATOM      4  C   UNL     1      -0.131  -1.920   0.000  0.00  0.00    +0.000 C 
ATOM      5  C   UNL     1       0.536  -1.435   0.000  0.00  0.00    +0.000 C 
ATOM      6  C   UNL     1       1.361  -1.435   0.000  0.00  0.00    +0.000 C 
ATOM      7  N   UNL     1       1.616  -0.650   0.000  0.00  0.00    +0.000 NA
ATOM      8  C   UNL     1       2.441  -0.650   0.000  0.00  0.00    +0.000 C 
ATOM      9  C   UNL     1       2.696  -1.435   0.000  0.00  0.00    +0.000 C 
ATOM     10  C   UNL     1       2.029  -1.920   0.000  0.00  0.00    +0.000 C 
ATOM     11  C   UNL     1       0.949  -0.165   0.000  0.00  0.00    +0.000 C 
ATOM     12  C   UNL     1       0.281  -0.650   0.000  0.00  0.00    +0.000 C 
ENDROOT
BRANCH  11  13
ATOM     13  C   UNL     1       0.949   0.660   0.000  0.00  0.00    +0.000 A 
ATOM     14  C   UNL     1       0.234   1.072   0.000  0.00  0.00    +0.000 A 
ATOM     15  C   UNL     1       0.234   1.897   0.000  0.00  0.00    +0.000 A 
ATOM     16  C   UNL     1       0.949   2.310   0.000  0.00  0.00    +0.000 A 
ATOM     17  C   UNL     1       1.663   1.897   0.000  0.00  0.00    +0.000 A 
ATOM     18  C   UNL     1       1.663   1.072   0.000  0.00  0.00    +0.000 A 
BRANCH  16  19
ATOM     19  C   UNL     1       0.949   3.135   0.000  0.00  0.00    +0.000 C 
ATOM     20  N   UNL     1       0.234   3.547   0.000  0.00  0.00    +0.000 NA
ATOM     21  N   UNL     1       1.663   3.547   0.000  0.00  0.00    +0.000 NA
ENDBRANCH  16  19
ENDBRANCH  11  13
BRANCH   4  22
ATOM     22  C   UNL     1      -0.131  -2.745   0.000  0.00  0.00    +0.000 C 
ATOM     23  F   UNL     1       0.583  -3.157   0.000  0.00  0.00    +0.000 F 
ATOM     24  F   UNL     1      -0.846  -3.157   0.000  0.00  0.00    +0.000 F 
ENDBRANCH   4  22
BRANCH   3  25
ATOM     25  C   UNL     1      -1.583  -1.690   0.000  0.00  0.00    +0.000 C 
BRANCH  25  26
ATOM     26  C   UNL     1      -2.196  -1.138   0.000  0.00  0.00    +0.000 A 
ATOM     27  C   UNL     1      -2.981  -1.393   0.000  0.00  0.00    +0.000 A 
ATOM     28  C   UNL     1      -3.594  -0.841   0.000  0.00  0.00    +0.000 A 
ATOM     29  C   UNL     1      -3.422  -0.034   0.000  0.00  0.00    +0.000 A 
ATOM     30  F   UNL     1      -4.036   0.518   0.000  0.00  0.00    +0.000 F 
ATOM     31  C   UNL     1      -2.638   0.221   0.000  0.00  0.00    +0.000 A 
ATOM     32  C   UNL     1      -2.025  -0.331   0.000  0.00  0.00    +0.000 A 
ENDBRANCH  25  26
ENDBRANCH   3  25
TORSDOF 5
