REMARK  Name = F3F
REMARK  6 active torsions:
REMARK  status: ('A' for Active; 'I' for Inactive)
REMARK    1  A    between atoms: C_6  and  C_7
REMARK    2  A    between atoms: C_8  and  C_9
REMARK    3  A    between atoms: C_13  and  C_14
REMARK    4  A    between atoms: C_14  and  S_16
REMARK    5  A    between atoms: S_16  and  C_17
REMARK    6  A    between atoms: C_19  and  C_20
REMARK                            x       y       z     vdW  Elec       q    Type
REMARK                         _______ _______ _______ _____ _____    ______ ____
ROOT
ATOM      1  C   UNL     1      -0.171   0.115   0.000  0.00  0.00    +0.000 A 
ATOM      2  O   UNL     1       0.496  -0.370   0.000  0.00  0.00    +0.000 OA
ATOM      3  C   UNL     1      -0.839  -0.370   0.000  0.00  0.00    +0.000 A 
ATOM      4  C   UNL     1      -0.584  -1.155   0.000  0.00  0.00    +0.000 A 
ATOM      5  C   UNL     1       0.241  -1.155   0.000  0.00  0.00    +0.000 A 
ENDROOT
BRANCH   1   7
ATOM      6  C   UNL     1      -0.171   1.765   0.000  0.00  0.00    +0.000 C 
ATOM      7  C   UNL     1      -0.171   0.940   0.000  0.00  0.00    +0.000 C 
BRANCH   6  13
ATOM      8  C   UNL     1      -0.886   3.002   0.000  0.00  0.00    +0.000 A 
ATOM      9  C   UNL     1      -0.886   3.827   0.000  0.00  0.00    +0.000 A 
ATOM     10  C   UNL     1      -0.171   4.240   0.000  0.00  0.00    +0.000 A 
ATOM     11  C   UNL     1       0.543   3.827   0.000  0.00  0.00    +0.000 A 
ATOM     12  C   UNL     1       0.543   3.002   0.000  0.00  0.00    +0.000 A 
ATOM     13  C   UNL     1      -0.171   2.590   0.000  0.00  0.00    +0.000 A 
ENDBRANCH   6  13
ENDBRANCH   1   7
BRANCH   5  14
ATOM     14  C   UNL     1       0.726  -1.822   0.000  0.00  0.00    +0.000 C 
ATOM     15  O   UNL     1       0.391  -2.576   0.000  0.00  0.00    +0.000 OA
BRANCH  14  16
ATOM     16  S   UNL     1       1.546  -1.736   0.000  0.00  0.00    +0.000 S 
BRANCH  16  17
ATOM     17  C   UNL     1       2.031  -2.404   0.000  0.00  0.00    +0.000 A 
ATOM     18  N   UNL     1       2.856  -2.404   0.000  0.00  0.00    +0.000 NA
ATOM     19  C   UNL     1       3.111  -3.188   0.000  0.00  0.00    +0.000 A 
ATOM     20  N   UNL     1       2.444  -3.673   0.000  0.00  0.00    +0.000 NA
ATOM     21  N   UNL     1       1.776  -3.188   0.000  0.00  0.00    +0.000 NA
BRANCH  19  22
ATOM     22  C   UNL     1       3.896  -3.443   0.000  0.00  0.00    +0.000 C 
ATOM     23  F   UNL     1       4.681  -3.698   0.000  0.00  0.00    +0.000 F 
ATOM     24  F   UNL     1       3.641  -4.228   0.000  0.00  0.00    +0.000 F 
ATOM     25  F   UNL     1       4.151  -2.659   0.000  0.00  0.00    +0.000 F 
ENDBRANCH  19  22
ENDBRANCH  16  17
ENDBRANCH  14  16
ENDBRANCH   5  14
TORSDOF 6
