REMARK  Name = F6B
REMARK  4 active torsions:
REMARK  status: ('A' for Active; 'I' for Inactive)
REMARK    1  A    between atoms: C_3  and  S_11
REMARK    2  A    between atoms: C_6  and  C_7
REMARK    3  A    between atoms: N_9  and  C_10
REMARK    4  A    between atoms: C_10  and  C_15
REMARK                            x       y       z     vdW  Elec       q    Type
REMARK                         _______ _______ _______ _____ _____    ______ ____
ROOT
ATOM      1  C   UNL     1      -0.641  -0.586   0.000  0.00  0.00    +0.000 C 
ATOM      2  O   UNL     1      -1.356  -0.999   0.000  0.00  0.00    +0.000 OA
ATOM      3  N   UNL     1      -0.641   0.239   0.000  0.00  0.00    +0.000 NA
ENDROOT
BRANCH   1   9
ATOM      4  C   UNL     1       0.788  -0.586   0.000  0.00  0.00    +0.000 A 
ATOM      5  C   UNL     1       1.502  -0.999   0.000  0.00  0.00    +0.000 A 
ATOM      6  C   UNL     1       1.502  -1.824   0.000  0.00  0.00    +0.000 A 
ATOM      7  C   UNL     1       0.788  -2.236   0.000  0.00  0.00    +0.000 A 
ATOM      8  C   UNL     1       0.073  -1.824   0.000  0.00  0.00    +0.000 A 
ATOM      9  C   UNL     1       0.073  -0.999   0.000  0.00  0.00    +0.000 A 
BRANCH   6  10
ATOM     10  S   UNL     1       2.216  -2.236   0.000  0.00  0.00    +0.000 S 
ATOM     11  N   UNL     1       2.931  -2.649   0.000  0.00  0.00    +0.000 NA
ATOM     12  O   UNL     1       2.629  -1.522   0.000  0.00  0.00    +0.000 OA
ATOM     13  O   UNL     1       1.804  -2.951   0.000  0.00  0.00    +0.000 OA
ENDBRANCH   6  10
ENDBRANCH   1   9
BRANCH   3  14
ATOM     14  C   UNL     1      -1.356   0.651   0.000  0.00  0.00    +0.000 C 
BRANCH  14  15
ATOM     15  C   UNL     1      -1.356   1.476   0.000  0.00  0.00    +0.000 A 
ATOM     16  C   UNL     1      -2.070   1.889   0.000  0.00  0.00    +0.000 A 
ATOM     17  C   UNL     1      -2.070   2.714   0.000  0.00  0.00    +0.000 A 
ATOM     18  C   UNL     1      -1.356   3.126   0.000  0.00  0.00    +0.000 A 
ATOM     19  C   UNL     1      -0.641   2.714   0.000  0.00  0.00    +0.000 A 
ATOM     20  C   UNL     1      -0.641   1.889   0.000  0.00  0.00    +0.000 A 
ATOM     21  F   UNL     1      -2.785   1.476   0.000  0.00  0.00    +0.000 F 
ATOM     22  F   UNL     1       0.073   1.476   0.000  0.00  0.00    +0.000 F 
ENDBRANCH  14  15
ENDBRANCH   3  14
TORSDOF 4
