REMARK  Name = F6F
REMARK  7 active torsions:
REMARK  status: ('A' for Active; 'I' for Inactive)
REMARK    1  A    between atoms: C_1  and  O_7
REMARK    2  A    between atoms: C_4  and  C_12
REMARK    3  A    between atoms: O_7  and  C_8
REMARK    4  A    between atoms: N_13  and  C_15
REMARK    5  A    between atoms: C_15  and  C_16
REMARK    6  A    between atoms: C_16  and  O_17
REMARK    7  A    between atoms: O_17  and  P_18
REMARK                            x       y       z     vdW  Elec       q    Type
REMARK                         _______ _______ _______ _____ _____    ______ ____
ROOT
ATOM      1  C   UNL     1      -2.183   0.409   0.000  0.00  0.00    +0.000 A 
ATOM      2  C   UNL     1      -1.469   0.821   0.000  0.00  0.00    +0.000 A 
ATOM      3  C   UNL     1      -0.754   0.409   0.000  0.00  0.00    +0.000 A 
ATOM      4  C   UNL     1      -0.754  -0.416   0.000  0.00  0.00    +0.000 A 
ATOM      5  C   UNL     1      -1.469  -0.829   0.000  0.00  0.00    +0.000 A 
ATOM      6  C   UNL     1      -2.183  -0.416   0.000  0.00  0.00    +0.000 A 
ENDROOT
BRANCH   4   7
ATOM      7  C   UNL     1      -0.040  -0.829   0.000  0.00  0.00    +0.000 C 
ATOM      8  N   UNL     1       0.675  -0.416   0.000  0.00  0.00    +0.000 NA
ATOM      9  O   UNL     1      -0.040  -1.654   0.000  0.00  0.00    +0.000 OA
BRANCH   8  10
ATOM     10  C   UNL     1       1.389  -0.829   0.000  0.00  0.00    +0.000 C 
BRANCH  10  11
ATOM     11  C   UNL     1       2.104  -0.416   0.000  0.00  0.00    +0.000 C 
BRANCH  11  12
ATOM     12  O   UNL     1       2.818  -0.829   0.000  0.00  0.00    +0.000 OA
BRANCH  12  13
ATOM     13  P   UNL     1       3.533  -0.416   0.000  0.00  0.00    +0.000 P 
ATOM     14  O   UNL     1       4.247  -0.004   0.000  0.00  0.00    +0.000 OA
ATOM     15  O   UNL     1       3.945  -1.131   0.000  0.00  0.00    +0.000 OA
ATOM     16  O   UNL     1       3.120   0.298   0.000  0.00  0.00    +0.000 OA
ENDBRANCH  12  13
ENDBRANCH  11  12
ENDBRANCH  10  11
ENDBRANCH   8  10
ENDBRANCH   4   7
BRANCH   1  17
ATOM     17  O   UNL     1      -2.898   0.821   0.000  0.00  0.00    +0.000 OA
BRANCH  17  18
ATOM     18  C   UNL     1      -3.612   0.409   0.000  0.00  0.00    +0.000 C 
ATOM     19  F   UNL     1      -4.327  -0.004   0.000  0.00  0.00    +0.000 F 
ATOM     20  F   UNL     1      -3.200  -0.305   0.000  0.00  0.00    +0.000 F 
ATOM     21  F   UNL     1      -4.024   1.123   0.000  0.00  0.00    +0.000 F 
ENDBRANCH  17  18
ENDBRANCH   1  17
TORSDOF 7
