REMARK  Name = F77
REMARK  5 active torsions:
REMARK  status: ('A' for Active; 'I' for Inactive)
REMARK    1  A    between atoms: C_2  and  C_3
REMARK    2  A    between atoms: C_6  and  N_13
REMARK    3  A    between atoms: C_7  and  C_10
REMARK    4  A    between atoms: N_13  and  S_14
REMARK    5  A    between atoms: S_14  and  C_17
REMARK                            x       y       z     vdW  Elec       q    Type
REMARK                         _______ _______ _______ _____ _____    ______ ____
ROOT
ATOM      1  C   UNL     1       2.096   0.341   0.000  0.00  0.00    +0.000 A 
ATOM      2  C   UNL     1       2.811  -0.071   0.000  0.00  0.00    +0.000 A 
ATOM      3  C   UNL     1       2.811  -0.896   0.000  0.00  0.00    +0.000 A 
ATOM      4  C   UNL     1       2.096  -1.309   0.000  0.00  0.00    +0.000 A 
ATOM      5  C   UNL     1       1.382  -0.896   0.000  0.00  0.00    +0.000 A 
ATOM      6  C   UNL     1       1.382  -0.071   0.000  0.00  0.00    +0.000 A 
ATOM      7  C   UNL     1       0.667   0.341   0.000  0.00  0.00    +0.000 C 
ENDROOT
BRANCH   5   8
ATOM      8  C   UNL     1       0.667  -1.309   0.000  0.00  0.00    +0.000 C 
ATOM      9  O   UNL     1      -0.047  -0.896   0.000  0.00  0.00    +0.000 OA
ATOM     10  O   UNL     1       0.667  -2.134   0.000  0.00  0.00    +0.000 OA
ENDBRANCH   5   8
BRANCH   1  12
ATOM     11  C   UNL     1       1.382   1.579   0.000  0.00  0.00    +0.000 C 
ATOM     12  C   UNL     1       2.096   1.166   0.000  0.00  0.00    +0.000 C 
ENDBRANCH   1  12
BRANCH   4  13
ATOM     13  N   UNL     1       2.096  -2.134   0.000  0.00  0.00    +0.000 NA
BRANCH  13  14
ATOM     14  S   UNL     1       1.382  -2.546   0.000  0.00  0.00    +0.000 S 
ATOM     15  O   UNL     1       0.969  -1.832   0.000  0.00  0.00    +0.000 OA
ATOM     16  O   UNL     1       1.794  -3.261   0.000  0.00  0.00    +0.000 OA
BRANCH  14  17
ATOM     17  C   UNL     1       0.667  -2.959   0.000  0.00  0.00    +0.000 A 
ATOM     18  C   UNL     1       0.667  -3.784   0.000  0.00  0.00    +0.000 A 
ATOM     19  C   UNL     1      -0.047  -4.196   0.000  0.00  0.00    +0.000 A 
ATOM     20  C   UNL     1      -0.762  -3.784   0.000  0.00  0.00    +0.000 A 
ATOM     21  C   UNL     1      -0.762  -2.959   0.000  0.00  0.00    +0.000 A 
ATOM     22  C   UNL     1      -0.047  -2.546   0.000  0.00  0.00    +0.000 A 
ATOM     23  F   UNL     1      -1.476  -4.196   0.000  0.00  0.00    +0.000 F 
ENDBRANCH  14  17
ENDBRANCH  13  14
ENDBRANCH   4  13
TORSDOF 5
