REMARK  Name = F83
REMARK  4 active torsions:
REMARK  status: ('A' for Active; 'I' for Inactive)
REMARK    1  A    between atoms: C_2  and  CA_3
REMARK    2  A    between atoms: C_8  and  S_13
REMARK    3  A    between atoms: S_13  and  N_16
REMARK    4  A    between atoms: N_16  and  C_17
REMARK                            x       y       z     vdW  Elec       q    Type
REMARK                         _______ _______ _______ _____ _____    ______ ____
ROOT
ATOM      1  CA  UNL     1      -2.063  -0.404   0.000  0.00  0.00    +0.000 C 
ATOM      2  N   UNL     1      -2.063   0.421   0.000  0.00  0.00    +0.000 NA
ATOM      3  C   UNL     1      -1.348   0.833   0.000  0.00  0.00    +0.000 C 
ATOM      4  C   UNL     1      -0.634   0.421   0.000  0.00  0.00    +0.000 A 
ATOM      5  C   UNL     1       0.081   0.833   0.000  0.00  0.00    +0.000 A 
ATOM      6  C   UNL     1       0.795   0.421   0.000  0.00  0.00    +0.000 A 
ATOM      7  C   UNL     1       0.795  -0.404   0.000  0.00  0.00    +0.000 A 
ATOM      8  C   UNL     1       0.081  -0.817   0.000  0.00  0.00    +0.000 A 
ATOM      9  C   UNL     1      -0.634  -0.404   0.000  0.00  0.00    +0.000 A 
ATOM     10  C   UNL     1      -1.348  -0.817   0.000  0.00  0.00    +0.000 C 
ENDROOT
BRANCH   6  11
ATOM     11  S   UNL     1       1.510   0.833   0.000  0.00  0.00    +0.000 S 
ATOM     12  O   UNL     1       1.922   0.119   0.000  0.00  0.00    +0.000 OA
ATOM     13  O   UNL     1       1.097   1.548   0.000  0.00  0.00    +0.000 OA
BRANCH  11  14
ATOM     14  N   UNL     1       2.224   1.246   0.000  0.00  0.00    +0.000 NA
BRANCH  14  15
ATOM     15  C   UNL     1       2.939   0.833   0.000  0.00  0.00    +0.000 A 
ATOM     16  C   UNL     1       3.653   1.246   0.000  0.00  0.00    +0.000 A 
ATOM     17  C   UNL     1       4.368   0.833   0.000  0.00  0.00    +0.000 A 
ATOM     18  C   UNL     1       4.368   0.008   0.000  0.00  0.00    +0.000 A 
ATOM     19  C   UNL     1       3.653  -0.404   0.000  0.00  0.00    +0.000 A 
ATOM     20  C   UNL     1       2.939   0.008   0.000  0.00  0.00    +0.000 A 
ATOM     21 CL   UNL     1       5.082  -0.404   0.000  0.00  0.00    +0.000 Cl
ENDBRANCH  14  15
ENDBRANCH  11  14
ENDBRANCH   6  11
BRANCH   1  23
ATOM     22  O   UNL     1      -2.777  -1.642   0.000  0.00  0.00    +0.000 OA
ATOM     23  C   UNL     1      -2.777  -0.817   0.000  0.00  0.00    +0.000 C 
ENDBRANCH   1  23
TORSDOF 4
