REMARK  Name = F9F
REMARK  8 active torsions:
REMARK  status: ('A' for Active; 'I' for Inactive)
REMARK    1  A    between atoms: C_1  and  O_7
REMARK    2  A    between atoms: C_4  and  S_12
REMARK    3  A    between atoms: O_7  and  C_8
REMARK    4  A    between atoms: S_12  and  N_13
REMARK    5  A    between atoms: N_13  and  C_14
REMARK    6  A    between atoms: C_14  and  C_15
REMARK    7  A    between atoms: C_15  and  O_16
REMARK    8  A    between atoms: O_16  and  P_17
REMARK                            x       y       z     vdW  Elec       q    Type
REMARK                         _______ _______ _______ _____ _____    ______ ____
ROOT
ATOM      1  C   UNL     1      -2.291  -0.860   0.000  0.00  0.00    +0.000 A 
ATOM      2  C   UNL     1      -2.291  -0.035   0.000  0.00  0.00    +0.000 A 
ATOM      3  C   UNL     1      -1.577   0.378   0.000  0.00  0.00    +0.000 A 
ATOM      4  C   UNL     1      -0.863  -0.035   0.000  0.00  0.00    +0.000 A 
ATOM      5  C   UNL     1      -0.863  -0.860   0.000  0.00  0.00    +0.000 A 
ATOM      6  C   UNL     1      -1.577  -1.272   0.000  0.00  0.00    +0.000 A 
ENDROOT
BRANCH   4   7
ATOM      7  S   UNL     1      -0.148   0.378   0.000  0.00  0.00    +0.000 S 
ATOM      8  O   UNL     1       0.265  -0.337   0.000  0.00  0.00    +0.000 OA
ATOM      9  O   UNL     1      -0.560   1.092   0.000  0.00  0.00    +0.000 OA
BRANCH   7  10
ATOM     10  N   UNL     1       0.566   0.790   0.000  0.00  0.00    +0.000 NA
BRANCH  10  11
ATOM     11  C   UNL     1       1.281   0.378   0.000  0.00  0.00    +0.000 C 
BRANCH  11  12
ATOM     12  C   UNL     1       1.995   0.790   0.000  0.00  0.00    +0.000 C 
BRANCH  12  13
ATOM     13  O   UNL     1       2.710   0.378   0.000  0.00  0.00    +0.000 OA
BRANCH  13  14
ATOM     14  P   UNL     1       3.424   0.790   0.000  0.00  0.00    +0.000 P 
ATOM     15  O   UNL     1       4.139   1.203   0.000  0.00  0.00    +0.000 OA
ATOM     16  O   UNL     1       3.837   0.076   0.000  0.00  0.00    +0.000 OA
ATOM     17  O   UNL     1       3.012   1.505   0.000  0.00  0.00    +0.000 OA
ENDBRANCH  13  14
ENDBRANCH  12  13
ENDBRANCH  11  12
ENDBRANCH  10  11
ENDBRANCH   7  10
ENDBRANCH   4   7
BRANCH   1  18
ATOM     18  O   UNL     1      -3.006  -1.272   0.000  0.00  0.00    +0.000 OA
BRANCH  18  19
ATOM     19  C   UNL     1      -3.006  -2.097   0.000  0.00  0.00    +0.000 C 
ATOM     20  F   UNL     1      -3.006  -2.922   0.000  0.00  0.00    +0.000 F 
ATOM     21  F   UNL     1      -2.181  -2.097   0.000  0.00  0.00    +0.000 F 
ATOM     22  F   UNL     1      -3.831  -2.097   0.000  0.00  0.00    +0.000 F 
ENDBRANCH  18  19
ENDBRANCH   1  18
TORSDOF 8
