REMARK  Name = FAF
REMARK  8 active torsions:
REMARK  status: ('A' for Active; 'I' for Inactive)
REMARK    1  A    between atoms: N_4  and  CA_5
REMARK    2  A    between atoms: CA_5  and  CB_6
REMARK    3  A    between atoms: CA_5  and  C_10
REMARK    4  A    between atoms: CB_6  and  CG_7
REMARK    5  A    between atoms: N_12  and  CA_13
REMARK    6  A    between atoms: CA_13  and  CB_14
REMARK    7  A    between atoms: CA_13  and  C_21
REMARK    8  A    between atoms: CB_14  and  CG_15
REMARK                            x       y       z     vdW  Elec       q    Type
REMARK                         _______ _______ _______ _____ _____    ______ ____
ROOT
ATOM      1  C   LEU A   1       0.164  -1.107   0.000  0.00  0.00    +0.000 C 
ATOM      2  O   LEU A   1       0.878  -1.520   0.000  0.00  0.00    +0.000 OA
ATOM      3  N   PHE A   2       0.164  -0.282   0.000  0.00  0.00    +0.000 NA
ENDROOT
BRANCH   3   4
ATOM      4  CA  PHE A   2       0.878   0.130   0.000  0.00  0.00    +0.000 C 
BRANCH   4   5
ATOM      5  C   PHE A   2       1.593  -0.282   0.000  0.00  0.00    +0.000 C 
ATOM      6  O   PHE A   2       1.593  -1.107   0.000  0.00  0.00    +0.000 OA
ENDBRANCH   4   5
BRANCH   4   7
ATOM      7  CB  PHE A   2       0.878   0.955   0.000  0.00  0.00    +0.000 C 
BRANCH   7   8
ATOM      8  CG  PHE A   2       1.593   1.367   0.000  0.00  0.00    +0.000 A 
ATOM      9  CD1 PHE A   2       1.593   2.192   0.000  0.00  0.00    +0.000 A 
ATOM     10  CD2 PHE A   2       2.307   0.955   0.000  0.00  0.00    +0.000 A 
ATOM     11  CE1 PHE A   2       2.307   2.605   0.000  0.00  0.00    +0.000 A 
ATOM     12  CE2 PHE A   2       3.022   1.367   0.000  0.00  0.00    +0.000 A 
ATOM     13  CZ  PHE A   2       3.022   2.192   0.000  0.00  0.00    +0.000 A 
ENDBRANCH   7   8
ENDBRANCH   4   7
ENDBRANCH   3   4
BRANCH   1  14
ATOM     14  CA  LEU A   1      -0.550  -1.520   0.000  0.00  0.00    +0.000 C 
BRANCH  14  18
ATOM     15  C   UNK A   0      -1.265  -2.757   0.000  0.00  0.00    +0.000 C 
ATOM     16  O   UNK A   0      -1.265  -3.583   0.000  0.00  0.00    +0.000 OA
ATOM     17  C   UNK A   0      -1.979  -2.345   0.000  0.00  0.00    +0.000 C 
ATOM     18  N   LEU A   1      -0.550  -2.345   0.000  0.00  0.00    +0.000 NA
ENDBRANCH  14  18
BRANCH  14  19
ATOM     19  CB  LEU A   1      -1.265  -1.107   0.000  0.00  0.00    +0.000 C 
BRANCH  19  20
ATOM     20  CG  LEU A   1      -1.265  -0.282   0.000  0.00  0.00    +0.000 C 
ATOM     21  CD1 LEU A   1      -1.979   0.130   0.000  0.00  0.00    +0.000 C 
ATOM     22  CD2 LEU A   1      -0.550   0.130   0.000  0.00  0.00    +0.000 C 
ENDBRANCH  19  20
ENDBRANCH  14  19
ENDBRANCH   1  14
TORSDOF 8
