REMARK  Name = FBC
REMARK  2 active torsions:
REMARK  status: ('A' for Active; 'I' for Inactive)
REMARK    1  A    between atoms: C_8  and  C_9
REMARK    2  A    between atoms: C_14  and  C_15
REMARK                            x       y       z     vdW  Elec       q    Type
REMARK                         _______ _______ _______ _____ _____    ______ ____
ROOT
ATOM      1  C   UNL     1       0.121  -0.036   0.000  0.00  0.00    +0.000 A 
ATOM      2  C   UNL     1       0.121  -0.861   0.000  0.00  0.00    +0.000 A 
ATOM      3  C   UNL     1      -0.594  -1.274   0.000  0.00  0.00    +0.000 A 
ATOM      4  C   UNL     1      -0.594   0.376   0.000  0.00  0.00    +0.000 A 
ATOM      5  C   UNL     1      -1.308  -0.036   0.000  0.00  0.00    +0.000 A 
ATOM      6  C   UNL     1      -1.308  -0.861   0.000  0.00  0.00    +0.000 A 
ENDROOT
BRANCH   1  14
ATOM      7  F   UNL     1       1.550   2.439   0.000  0.00  0.00    +0.000 F 
ATOM      8  C   UNL     1       1.550   1.614   0.000  0.00  0.00    +0.000 A 
ATOM      9  C   UNL     1       2.264   1.201   0.000  0.00  0.00    +0.000 A 
ATOM     10  C   UNL     1       2.264   0.376   0.000  0.00  0.00    +0.000 A 
ATOM     11  F   UNL     1       2.978  -0.036   0.000  0.00  0.00    +0.000 F 
ATOM     12  C   UNL     1       1.550  -0.036   0.000  0.00  0.00    +0.000 A 
ATOM     13  C   UNL     1       0.835   1.201   0.000  0.00  0.00    +0.000 A 
ATOM     14  C   UNL     1       0.835   0.376   0.000  0.00  0.00    +0.000 A 
ENDBRANCH   1  14
BRANCH   6  15
ATOM     15  C   UNL     1      -2.023  -1.274   0.000  0.00  0.00    +0.000 C 
ATOM     16  O   UNL     1      -2.023  -2.099   0.000  0.00  0.00    +0.000 OA
ATOM     17  O   UNL     1      -2.737  -0.861   0.000  0.00  0.00    +0.000 OA
ENDBRANCH   6  15
TORSDOF 2
