REMARK  Name = FBQ
REMARK  6 active torsions:
REMARK  status: ('A' for Active; 'I' for Inactive)
REMARK    1  A    between atoms: C_5  and  C_12
REMARK    2  A    between atoms: C_12  and  S_13
REMARK    3  A    between atoms: S_13  and  C_14
REMARK    4  A    between atoms: C_14  and  C_15
REMARK    5  A    between atoms: C_17  and  C_21
REMARK    6  A    between atoms: C_21  and  C_22
REMARK                            x       y       z     vdW  Elec       q    Type
REMARK                         _______ _______ _______ _____ _____    ______ ____
ROOT
ATOM      1  S   UNL     1       0.102  -0.358   0.000  0.00  0.00    +0.000 S 
ENDROOT
BRANCH   1   2
ATOM      2  C   UNL     1       0.102  -1.183   0.000  0.00  0.00    +0.000 C 
BRANCH   2   7
ATOM      3  N   UNL     1       1.531  -2.833   0.000  0.00  0.00    +0.000 NA
ATOM      4  C   UNL     1       2.245  -2.420   0.000  0.00  0.00    +0.000 A 
ATOM      5  C   UNL     1       2.245  -1.595   0.000  0.00  0.00    +0.000 A 
ATOM      6  C   UNL     1       1.531  -1.183   0.000  0.00  0.00    +0.000 A 
ATOM      7  C   UNL     1       0.817  -1.595   0.000  0.00  0.00    +0.000 A 
ATOM      8  C   UNL     1       0.817  -2.420   0.000  0.00  0.00    +0.000 A 
ATOM      9  C   UNL     1       2.960  -1.183   0.000  0.00  0.00    +0.000 A 
ATOM     10  C   UNL     1       3.674  -1.595   0.000  0.00  0.00    +0.000 A 
ATOM     11  C   UNL     1       3.674  -2.420   0.000  0.00  0.00    +0.000 A 
ATOM     12  C   UNL     1       2.960  -2.833   0.000  0.00  0.00    +0.000 A 
ATOM     13  N   UNL     1       1.531  -0.358   0.000  0.00  0.00    +0.000 NA
ATOM     14  F   UNL     1       2.960  -0.358   0.000  0.00  0.00    +0.000 F 
ATOM     15  C   UNL     1       0.102  -2.833   0.000  0.00  0.00    +0.000 C 
ENDBRANCH   2   7
ENDBRANCH   1   2
BRANCH   1  16
ATOM     16  C   UNL     1      -0.612   0.055   0.000  0.00  0.00    +0.000 C 
BRANCH  16  17
ATOM     17  C   UNL     1      -0.612   0.880   0.000  0.00  0.00    +0.000 A 
ATOM     18  C   UNL     1      -1.327   1.292   0.000  0.00  0.00    +0.000 A 
ATOM     19  C   UNL     1      -1.327   2.117   0.000  0.00  0.00    +0.000 A 
ATOM     20  C   UNL     1      -0.612   2.530   0.000  0.00  0.00    +0.000 A 
ATOM     21  C   UNL     1       0.102   2.117   0.000  0.00  0.00    +0.000 A 
ATOM     22  C   UNL     1       0.102   1.292   0.000  0.00  0.00    +0.000 A 
BRANCH  19  23
ATOM     23  C   UNL     1      -2.041   2.530   0.000  0.00  0.00    +0.000 C 
ATOM     24  O   UNL     1      -1.629   3.244   0.000  0.00  0.00    +0.000 OA
ATOM     25  O   UNL     1      -2.454   1.815   0.000  0.00  0.00    +0.000 OA
BRANCH  23  26
ATOM     26  C   UNL     1      -2.756   2.942   0.000  0.00  0.00    +0.000 C 
ATOM     27  F   UNL     1      -3.470   3.355   0.000  0.00  0.00    +0.000 F 
ATOM     28  F   UNL     1      -2.343   3.657   0.000  0.00  0.00    +0.000 F 
ATOM     29  F   UNL     1      -3.168   2.228   0.000  0.00  0.00    +0.000 F 
ENDBRANCH  23  26
ENDBRANCH  19  23
ENDBRANCH  16  17
ENDBRANCH   1  16
TORSDOF 6
