REMARK  Name = FBR
REMARK  3 active torsions:
REMARK  status: ('A' for Active; 'I' for Inactive)
REMARK    1  A    between atoms: C_1  and  C_17
REMARK    2  A    between atoms: C_17  and  C_18
REMARK    3  A    between atoms: C_18  and  C_19
REMARK                            x       y       z     vdW  Elec       q    Type
REMARK                         _______ _______ _______ _____ _____    ______ ____
ROOT
ATOM      1  C   UNL     1       3.141  -0.943   0.000  0.00  0.00    +0.000 C 
ATOM      2  C   UNL     1       3.948  -0.771   0.000  0.00  0.00    +0.000 C 
ATOM      3  C   UNL     1       4.500  -1.385   0.000  0.00  0.00    +0.000 C 
ATOM      4  C   UNL     1       4.245  -2.169   0.000  0.00  0.00    +0.000 C 
ATOM      5  O   UNL     1       4.797  -2.782   0.000  0.00  0.00    +0.000 OA
ATOM      6  C   UNL     1       3.438  -2.341   0.000  0.00  0.00    +0.000 C 
ATOM      7 BR   UNL     1       3.183  -3.125   0.000  0.00  0.00    +0.000 Br
ATOM      8  C   UNL     1       2.886  -1.728   0.000  0.00  0.00    +0.000 C 
ATOM      9  C   UNL     1       2.061  -1.728   0.000  0.00  0.00    +0.000 A 
ATOM     10  C   UNL     1       1.509  -2.341   0.000  0.00  0.00    +0.000 A 
ATOM     11  C   UNL     1       0.702  -2.169   0.000  0.00  0.00    +0.000 A 
ATOM     12  C   UNL     1       0.447  -1.385   0.000  0.00  0.00    +0.000 A 
ATOM     13  O   UNL     1      -0.360  -1.213   0.000  0.00  0.00    +0.000 OA
ATOM     14  C   UNL     1       0.999  -0.771   0.000  0.00  0.00    +0.000 A 
ATOM     15  C   UNL     1       1.806  -0.943   0.000  0.00  0.00    +0.000 A 
ATOM     16  C   UNL     1       2.474  -0.458   0.000  0.00  0.00    +0.000 C 
ENDROOT
BRANCH   1  17
ATOM     17  C   UNL     1       3.313  -0.136   0.000  0.00  0.00    +0.000 C 
BRANCH  17  18
ATOM     18  C   UNL     1       2.700   0.416   0.000  0.00  0.00    +0.000 C 
BRANCH  18  19
ATOM     19  C   UNL     1       2.871   1.223   0.000  0.00  0.00    +0.000 C 
ATOM     20  C   UNL     1       2.258   1.775   0.000  0.00  0.00    +0.000 C 
ENDBRANCH  18  19
ENDBRANCH  17  18
ENDBRANCH   1  17
TORSDOF 3
