REMARK  Name = FC1
REMARK  5 active torsions:
REMARK  status: ('A' for Active; 'I' for Inactive)
REMARK    1  A    between atoms: O_1  and  C_7
REMARK    2  A    between atoms: O_1  and  C_14
REMARK    3  A    between atoms: N_13  and  C_18
REMARK    4  A    between atoms: C_14  and  C_17
REMARK    5  A    between atoms: C_17  and  C_18
REMARK                            x       y       z     vdW  Elec       q    Type
REMARK                         _______ _______ _______ _____ _____    ______ ____
ROOT
ATOM      1  S   UNL     1      -2.363   1.102   0.000  0.00  0.00    +0.000 S 
ATOM      2  C   UNL     1      -3.077  -0.136   0.000  0.00  0.00    +0.000 A 
ATOM      3  C   UNL     1      -2.363  -1.373   0.000  0.00  0.00    +0.000 A 
ATOM      4  C   UNL     1      -0.934   1.102   0.000  0.00  0.00    +0.000 A 
ATOM      5  C   UNL     1      -1.649  -0.136   0.000  0.00  0.00    +0.000 A 
ATOM      6  C   UNL     1      -0.934   0.277   0.000  0.00  0.00    +0.000 A 
ATOM      7  C   UNL     1      -2.363   0.277   0.000  0.00  0.00    +0.000 A 
ATOM      8  C   UNL     1      -1.649  -0.961   0.000  0.00  0.00    +0.000 A 
ATOM      9  C   UNL     1      -1.649   1.514   0.000  0.00  0.00    +0.000 A 
ATOM     10  C   UNL     1      -3.077  -0.961   0.000  0.00  0.00    +0.000 A 
ATOM     11  O   UNL     1      -1.649   2.339   0.000  0.00  0.00    +0.000 OA
ENDROOT
BRANCH   6  12
ATOM     12  O   UNL     1      -0.220  -0.136   0.000  0.00  0.00    +0.000 OA
BRANCH  12  13
ATOM     13  C   UNL     1       0.495   0.277   0.000  0.00  0.00    +0.000 C 
BRANCH  13  14
ATOM     14  C   UNL     1       1.209  -0.136   0.000  0.00  0.00    +0.000 C 
BRANCH  14  15
ATOM     15  C   UNL     1       1.924   0.277   0.000  0.00  0.00    +0.000 C 
BRANCH  15  18
ATOM     16  C   UNL     1       3.353   0.277   0.000  0.00  0.00    +0.000 C 
ATOM     17  C   UNL     1       2.638  -0.961   0.000  0.00  0.00    +0.000 C 
ATOM     18  N   UNL     1       2.638  -0.136   0.000  0.00  0.00    +0.000 NA
ENDBRANCH  15  18
ENDBRANCH  14  15
ENDBRANCH  13  14
ENDBRANCH  12  13
ENDBRANCH   6  12
TORSDOF 5
