REMARK  Name = FC3
REMARK  3 active torsions:
REMARK  status: ('A' for Active; 'I' for Inactive)
REMARK    1  A    between atoms: C_2  and  C_3
REMARK    2  A    between atoms: C_7  and  C_9
REMARK    3  A    between atoms: C_10  and  C_15
REMARK                            x       y       z     vdW  Elec       q    Type
REMARK                         _______ _______ _______ _____ _____    ______ ____
ROOT
ATOM      1  C   UNL     1       0.005   0.303   0.000  0.00  0.00    +0.000 A 
ATOM      2  C   UNL     1      -0.709   0.716   0.000  0.00  0.00    +0.000 A 
ATOM      3  C   UNL     1      -0.709   1.541   0.000  0.00  0.00    +0.000 A 
ATOM      4  C   UNL     1       0.005   1.953   0.000  0.00  0.00    +0.000 A 
ATOM      5  C   UNL     1       0.720   1.541   0.000  0.00  0.00    +0.000 A 
ATOM      6  C   UNL     1       0.720   0.716   0.000  0.00  0.00    +0.000 A 
ENDROOT
BRANCH   1  11
ATOM      7  O   UNL     1       0.673  -1.007   0.000  0.00  0.00    +0.000 OA
ATOM      8  C   UNL     1       0.418  -1.791   0.000  0.00  0.00    +0.000 A 
ATOM      9  C   UNL     1      -0.407  -1.791   0.000  0.00  0.00    +0.000 A 
ATOM     10  C   UNL     1      -0.662  -1.007   0.000  0.00  0.00    +0.000 A 
ATOM     11  C   UNL     1       0.005  -0.522   0.000  0.00  0.00    +0.000 A 
BRANCH   8  12
ATOM     12  C   UNL     1       0.903  -2.459   0.000  0.00  0.00    +0.000 C 
ATOM     13  O   UNL     1       0.567  -3.213   0.000  0.00  0.00    +0.000 OA
ATOM     14  O   UNL     1       1.723  -2.373   0.000  0.00  0.00    +0.000 OA
ENDBRANCH   8  12
ENDBRANCH   1  11
BRANCH   2  15
ATOM     15  C   UNL     1      -1.424   0.303   0.000  0.00  0.00    +0.000 C 
ATOM     16  F   UNL     1      -2.138  -0.109   0.000  0.00  0.00    +0.000 F 
ATOM     17  F   UNL     1      -1.836   1.018   0.000  0.00  0.00    +0.000 F 
ATOM     18  F   UNL     1      -1.011  -0.411   0.000  0.00  0.00    +0.000 F 
ENDBRANCH   2  15
TORSDOF 3
