REMARK  Name = FCD
REMARK  2 active torsions:
REMARK  status: ('A' for Active; 'I' for Inactive)
REMARK    1  A    between atoms: C_2  and  C_3
REMARK    2  A    between atoms: C_7  and  C_9
REMARK                            x       y       z     vdW  Elec       q    Type
REMARK                         _______ _______ _______ _____ _____    ______ ____
ROOT
ATOM      1  O   UNL     1       2.641  -1.640   0.000  0.00  0.00    +0.000 OA
ATOM      2  C   UNL     1       2.386  -2.424   0.000  0.00  0.00    +0.000 A 
ATOM      3  C   UNL     1       1.562  -2.424   0.000  0.00  0.00    +0.000 A 
ATOM      4  C   UNL     1       1.306  -1.640   0.000  0.00  0.00    +0.000 A 
ATOM      5  C   UNL     1       1.974  -1.155   0.000  0.00  0.00    +0.000 A 
ENDROOT
BRANCH   5   6
ATOM      6  C   UNL     1       1.974  -0.330   0.000  0.00  0.00    +0.000 A 
ATOM      7  C   UNL     1       1.260   0.083   0.000  0.00  0.00    +0.000 A 
ATOM      8  C   UNL     1       1.260   0.908   0.000  0.00  0.00    +0.000 A 
ATOM      9  C   UNL     1       1.974   1.320   0.000  0.00  0.00    +0.000 A 
ATOM     10  C   UNL     1       2.688   0.908   0.000  0.00  0.00    +0.000 A 
ATOM     11  C   UNL     1       2.688   0.083   0.000  0.00  0.00    +0.000 A 
ATOM     12 CL   UNL     1       3.403  -0.330   0.000  0.00  0.00    +0.000 Cl
ENDBRANCH   5   6
BRANCH   2  13
ATOM     13  C   UNL     1       2.871  -3.092   0.000  0.00  0.00    +0.000 C 
ATOM     14  O   UNL     1       2.536  -3.845   0.000  0.00  0.00    +0.000 OA
ATOM     15  O   UNL     1       3.692  -3.005   0.000  0.00  0.00    +0.000 OA
ENDBRANCH   2  13
TORSDOF 2
