REMARK  Name = FCF
REMARK  8 active torsions:
REMARK  status: ('A' for Active; 'I' for Inactive)
REMARK    1  A    between atoms: C_2  and  C_4
REMARK    2  A    between atoms: C_8  and  C_10
REMARK    3  A    between atoms: N_11  and  O_12
REMARK    4  A    between atoms: O_12  and  C_13
REMARK    5  A    between atoms: C_13  and  C_14
REMARK    6  A    between atoms: C_14  and  O_15
REMARK    7  A    between atoms: O_15  and  N_16
REMARK    8  A    between atoms: C_17  and  C_18
REMARK                            x       y       z     vdW  Elec       q    Type
REMARK                         _______ _______ _______ _____ _____    ______ ____
ROOT
ATOM      1  C   UNL     1      -0.532  -0.424   0.000  0.00  0.00    +0.000 C 
ENDROOT
BRANCH   1   2
ATOM      2  O   UNL     1      -1.246  -0.836   0.000  0.00  0.00    +0.000 OA
BRANCH   2   4
ATOM      3  C   UNL     1      -1.961   0.401   0.000  0.00  0.00    +0.000 C 
ATOM      4  N   UNL     1      -1.961  -0.424   0.000  0.00  0.00    +0.000 NA
BRANCH   3   9
ATOM      5  C   UNL     1      -3.390   2.051   0.000  0.00  0.00    +0.000 A 
ATOM      6  C   UNL     1      -4.104   1.639   0.000  0.00  0.00    +0.000 A 
ATOM      7  C   UNL     1      -4.104   0.814   0.000  0.00  0.00    +0.000 A 
ATOM      8  C   UNL     1      -2.675   1.639   0.000  0.00  0.00    +0.000 A 
ATOM      9  C   UNL     1      -2.675   0.814   0.000  0.00  0.00    +0.000 A 
ATOM     10  C   UNL     1      -3.390   0.401   0.000  0.00  0.00    +0.000 A 
BRANCH   5  12
ATOM     11  O   UNL     1      -4.104   3.289   0.000  0.00  0.00    +0.000 OA
ATOM     12  C   UNL     1      -3.390   2.876   0.000  0.00  0.00    +0.000 C 
ATOM     13  O   UNL     1      -2.675   3.289   0.000  0.00  0.00    +0.000 OA
ENDBRANCH   5  12
ENDBRANCH   3   9
ENDBRANCH   2   4
ENDBRANCH   1   2
BRANCH   1  14
ATOM     14  C   UNL     1       0.182  -0.836   0.000  0.00  0.00    +0.000 C 
BRANCH  14  15
ATOM     15  O   UNL     1       0.897  -0.424   0.000  0.00  0.00    +0.000 OA
BRANCH  15  16
ATOM     16  N   UNL     1       1.611  -0.836   0.000  0.00  0.00    +0.000 NA
ATOM     17  C   UNL     1       2.326  -0.424   0.000  0.00  0.00    +0.000 C 
BRANCH  17  18
ATOM     18  C   UNL     1       3.040  -0.836   0.000  0.00  0.00    +0.000 A 
ATOM     19  N   UNL     1       3.040  -1.661   0.000  0.00  0.00    +0.000 NA
ATOM     20  C   UNL     1       3.755  -0.424   0.000  0.00  0.00    +0.000 A 
ATOM     21  C   UNL     1       4.469  -0.836   0.000  0.00  0.00    +0.000 A 
ATOM     22  O   UNL     1       5.184  -0.424   0.000  0.00  0.00    +0.000 OA
ATOM     23  N   UNL     1       4.469  -1.661   0.000  0.00  0.00    +0.000 NA
ATOM     24  C   UNL     1       3.755  -2.074   0.000  0.00  0.00    +0.000 A 
ATOM     25  O   UNL     1       3.755  -2.899   0.000  0.00  0.00    +0.000 OA
ENDBRANCH  17  18
ENDBRANCH  15  16
ENDBRANCH  14  15
ENDBRANCH   1  14
TORSDOF 8
