REMARK  Name = FDI
REMARK  6 active torsions:
REMARK  status: ('A' for Active; 'I' for Inactive)
REMARK    1  A    between atoms: C_2  and  N_18
REMARK    2  A    between atoms: C_3  and  N_10
REMARK    3  A    between atoms: C_5  and  C_7
REMARK    4  A    between atoms: C_11  and  C_12
REMARK    5  A    between atoms: C_12  and  C_14
REMARK    6  A    between atoms: C_12  and  C_16
REMARK                            x       y       z     vdW  Elec       q    Type
REMARK                         _______ _______ _______ _____ _____    ______ ____
ROOT
ATOM      1  C   UNL     1      -1.428   1.662   0.000  0.00  0.00    +0.000 A 
ATOM      2  C   UNL     1      -0.714   1.250   0.000  0.00  0.00    +0.000 A 
ATOM      3  C   UNL     1      -0.714   0.425   0.000  0.00  0.00    +0.000 A 
ATOM      4  C   UNL     1      -1.428   0.012   0.000  0.00  0.00    +0.000 A 
ATOM      5  C   UNL     1      -2.143   0.425   0.000  0.00  0.00    +0.000 A 
ATOM      6  C   UNL     1      -2.143   1.250   0.000  0.00  0.00    +0.000 A 
ENDROOT
BRANCH   2   7
ATOM      7  N   UNL     1       0.001   1.662   0.000  0.00  0.00    +0.000 NA
ATOM      8  C   UNL     1       0.001   2.487   0.000  0.00  0.00    +0.000 C 
ATOM      9  C   UNL     1      -0.714   2.900   0.000  0.00  0.00    +0.000 C 
ATOM     10  O   UNL     1       0.715   2.900   0.000  0.00  0.00    +0.000 OA
ENDBRANCH   2   7
BRANCH   3  11
ATOM     11  N   UNL     1       0.001   0.012   0.000  0.00  0.00    +0.000 NA
ATOM     12  C   UNL     1       0.001  -0.813   0.000  0.00  0.00    +0.000 C 
ATOM     13  O   UNL     1      -0.714  -1.225   0.000  0.00  0.00    +0.000 OA
BRANCH  12  14
ATOM     14  C   UNL     1       0.715  -1.225   0.000  0.00  0.00    +0.000 C 
BRANCH  14  15
ATOM     15  C   UNL     1       0.715  -2.050   0.000  0.00  0.00    +0.000 C 
ATOM     16  C   UNL     1       1.430  -2.463   0.000  0.00  0.00    +0.000 C 
ENDBRANCH  14  15
BRANCH  14  17
ATOM     17  C   UNL     1       1.430  -0.813   0.000  0.00  0.00    +0.000 C 
ATOM     18  C   UNL     1       2.144  -1.225   0.000  0.00  0.00    +0.000 C 
ENDBRANCH  14  17
ENDBRANCH  12  14
ENDBRANCH   3  11
BRANCH   5  19
ATOM     19  C   UNL     1      -2.857   0.012   0.000  0.00  0.00    +0.000 C 
ATOM     20  O   UNL     1      -3.572   0.425   0.000  0.00  0.00    +0.000 OA
ATOM     21  O   UNL     1      -2.857  -0.813   0.000  0.00  0.00    +0.000 OA
ENDBRANCH   5  19
TORSDOF 6
