REMARK  Name = FDN
REMARK  3 active torsions:
REMARK  status: ('A' for Active; 'I' for Inactive)
REMARK    1  A    between atoms: C_8  and  C_9
REMARK    2  A    between atoms: N_14  and  N_17
REMARK    3  A    between atoms: N_17  and  C_18
REMARK                            x       y       z     vdW  Elec       q    Type
REMARK                         _______ _______ _______ _____ _____    ______ ____
ROOT
ATOM      1  C   UNL     1       0.854   0.328   0.000  0.00  0.00    +0.000 C 
ATOM      2  C   UNL     1       0.302   0.941   0.000  0.00  0.00    +0.000 C 
ATOM      3  O   UNL     1       1.522  -0.157   0.000  0.00  0.00    +0.000 OA
ATOM      4  C   UNL     1       1.267  -0.942   0.000  0.00  0.00    +0.000 C 
ATOM      5  O   UNL     1       1.752  -1.609   0.000  0.00  0.00    +0.000 OA
ATOM      6  N   UNL     1       0.442  -0.942   0.000  0.00  0.00    +0.000 N 
ATOM      7  C   UNL     1       0.187  -0.157   0.000  0.00  0.00    +0.000 C 
ATOM      8  O   UNL     1      -0.598   0.098   0.000  0.00  0.00    +0.000 OA
ENDROOT
BRANCH   1  16
ATOM      9  F   UNL     1       0.344   1.897   0.000  0.00  0.00    +0.000 F 
ATOM     10  C   UNL     1       1.151   1.726   0.000  0.00  0.00    +0.000 A 
ATOM     11  C   UNL     1       1.703   2.339   0.000  0.00  0.00    +0.000 A 
ATOM     12  C   UNL     1       2.510   2.167   0.000  0.00  0.00    +0.000 A 
ATOM     13  F   UNL     1       3.062   2.780   0.000  0.00  0.00    +0.000 F 
ATOM     14  C   UNL     1       2.765   1.383   0.000  0.00  0.00    +0.000 A 
ATOM     15  C   UNL     1       2.213   0.769   0.000  0.00  0.00    +0.000 A 
ATOM     16  C   UNL     1       1.406   0.941   0.000  0.00  0.00    +0.000 A 
ENDBRANCH   1  16
BRANCH   6  17
ATOM     17  N   UNL     1      -0.043  -1.609   0.000  0.00  0.00    +0.000 NA
BRANCH  17  18
ATOM     18  C   UNL     1      -0.864  -1.523   0.000  0.00  0.00    +0.000 A 
ATOM     19  C   UNL     1      -1.349  -2.190   0.000  0.00  0.00    +0.000 A 
ATOM     20  C   UNL     1      -2.169  -2.104   0.000  0.00  0.00    +0.000 A 
ATOM     21  C   UNL     1      -2.505  -1.350   0.000  0.00  0.00    +0.000 A 
ATOM     22  C   UNL     1      -2.020  -0.683   0.000  0.00  0.00    +0.000 A 
ATOM     23  C   UNL     1      -1.199  -0.769   0.000  0.00  0.00    +0.000 A 
ENDBRANCH  17  18
ENDBRANCH   6  17
TORSDOF 3
