REMARK  Name = FE1
REMARK  6 active torsions:
REMARK  status: ('A' for Active; 'I' for Inactive)
REMARK    1  A    between atoms: C_2  and  C_13
REMARK    2  A    between atoms: C_8  and  C_9
REMARK    3  A    between atoms: C_9  and  O_11
REMARK    4  A    between atoms: C_16  and  N_19
REMARK    5  A    between atoms: N_19  and  C_21
REMARK    6  A    between atoms: C_21  and  C_22
REMARK                            x       y       z     vdW  Elec       q    Type
REMARK                         _______ _______ _______ _____ _____    ______ ____
ROOT
ATOM      1  C   UNL     1      -1.232  -0.957   0.000  0.00  0.00    +0.000 A 
ATOM      2  C   UNL     1      -1.232  -0.132   0.000  0.00  0.00    +0.000 A 
ATOM      3  C   UNL     1      -0.518   0.281   0.000  0.00  0.00    +0.000 A 
ATOM      4  C   UNL     1       0.196  -0.132   0.000  0.00  0.00    +0.000 A 
ATOM      5  C   UNL     1       0.196  -0.957   0.000  0.00  0.00    +0.000 A 
ATOM      6  C   UNL     1      -0.518  -1.369   0.000  0.00  0.00    +0.000 A 
ENDROOT
BRANCH   1   8
ATOM      7  O   UNL     1      -1.947  -2.194   0.000  0.00  0.00    +0.000 OA
ATOM      8  C   UNL     1      -1.947  -1.369   0.000  0.00  0.00    +0.000 C 
ATOM      9  N   UNL     1      -2.662  -0.957   0.000  0.00  0.00    +0.000 N 
ATOM     10  C   UNL     1      -3.376  -1.369   0.000  0.00  0.00    +0.000 C 
ATOM     11  C   UNL     1      -4.090  -0.957   0.000  0.00  0.00    +0.000 C 
ATOM     12  C   UNL     1      -2.662  -0.132   0.000  0.00  0.00    +0.000 C 
ATOM     13  C   UNL     1      -3.376   0.281   0.000  0.00  0.00    +0.000 C 
ATOM     14  C   UNL     1      -4.090  -0.132   0.000  0.00  0.00    +0.000 C 
BRANCH  14  15
ATOM     15  C   UNL     1      -4.805   0.281   0.000  0.00  0.00    +0.000 C 
ATOM     16  O   UNL     1      -5.519  -0.132   0.000  0.00  0.00    +0.000 OA
BRANCH  15  17
ATOM     17  O   UNL     1      -4.805   1.106   0.000  0.00  0.00    +0.000 OA
ATOM     18  C   UNL     1      -5.519   1.518   0.000  0.00  0.00    +0.000 C 
ENDBRANCH  15  17
ENDBRANCH  14  15
ENDBRANCH   1   8
BRANCH   4  19
ATOM     19  N   UNL     1       0.911   0.281   0.000  0.00  0.00    +0.000 N 
ATOM     20  C   UNL     1       0.911   1.106   0.000  0.00  0.00    +0.000 C 
BRANCH  19  21
ATOM     21  C   UNL     1       1.625  -0.132   0.000  0.00  0.00    +0.000 C 
BRANCH  21  22
ATOM     22  C   UNL     1       2.340   0.281   0.000  0.00  0.00    +0.000 A 
ATOM     23  N   UNL     1       3.054  -0.132   0.000  0.00  0.00    +0.000 NA
ATOM     24  C   UNL     1       3.769   0.281   0.000  0.00  0.00    +0.000 A 
ATOM     25  C   UNL     1       3.769   1.106   0.000  0.00  0.00    +0.000 A 
ATOM     26  N   UNL     1       3.054   1.518   0.000  0.00  0.00    +0.000 NA
ATOM     27  C   UNL     1       2.340   1.106   0.000  0.00  0.00    +0.000 A 
ATOM     28  C   UNL     1       4.483  -0.132   0.000  0.00  0.00    +0.000 A 
ATOM     29  N   UNL     1       4.483  -0.957   0.000  0.00  0.00    +0.000 NA
ATOM     30  N   UNL     1       5.198   0.281   0.000  0.00  0.00    +0.000 NA
ATOM     31  C   UNL     1       5.198   1.106   0.000  0.00  0.00    +0.000 A 
ATOM     32  N   UNL     1       4.483   1.518   0.000  0.00  0.00    +0.000 NA
ATOM     33  N   UNL     1       5.912   1.518   0.000  0.00  0.00    +0.000 NA
ENDBRANCH  21  22
ENDBRANCH  19  21
ENDBRANCH   4  19
TORSDOF 6
