REMARK  Name = FEP
REMARK  9 active torsions:
REMARK  status: ('A' for Active; 'I' for Inactive)
REMARK    1  A    between atoms: C_1  and  C_2
REMARK    2  A    between atoms: C_1  and  C_6
REMARK    3  A    between atoms: C_2  and  C_3
REMARK    4  A    between atoms: C_3  and  C_4
REMARK    5  A    between atoms: C_4  and  C_13
REMARK    6  A    between atoms: C_5  and  C_9
REMARK    7  A    between atoms: C_5  and  P_21
REMARK    8  A    between atoms: C_12  and  C_16
REMARK    9  A    between atoms: C_12  and  P_27
REMARK                            x       y       z     vdW  Elec       q    Type
REMARK                         _______ _______ _______ _____ _____    ______ ____
ROOT
ATOM      1  C   UNL     1      -0.356   0.207   0.000  0.00  0.00    +0.000 C 
ENDROOT
BRANCH   1   2
ATOM      2  C   UNL     1       0.358  -0.205   0.000  0.00  0.00    +0.000 C 
BRANCH   2   3
ATOM      3  C   UNL     1       1.073   0.207   0.000  0.00  0.00    +0.000 C 
BRANCH   3   4
ATOM      4  C   UNL     1       1.787  -0.205   0.000  0.00  0.00    +0.000 A 
ATOM      5  C   UNL     1       2.502   0.207   0.000  0.00  0.00    +0.000 A 
ATOM      6  C   UNL     1       3.216  -0.205   0.000  0.00  0.00    +0.000 A 
ATOM      7  C   UNL     1       3.216  -1.030   0.000  0.00  0.00    +0.000 A 
ATOM      8  C   UNL     1       2.502  -1.443   0.000  0.00  0.00    +0.000 A 
ATOM      9  C   UNL     1       1.787  -1.030   0.000  0.00  0.00    +0.000 A 
BRANCH   7  10
ATOM     10  C   UNL     1       3.931  -1.443   0.000  0.00  0.00    +0.000 C 
ATOM     11  F   UNL     1       3.518  -2.157   0.000  0.00  0.00    +0.000 F 
ATOM     12  F   UNL     1       4.343  -0.729   0.000  0.00  0.00    +0.000 F 
BRANCH  10  13
ATOM     13  P   UNL     1       4.645  -1.855   0.000  0.00  0.00    +0.000 P 
ATOM     14  O   UNL     1       5.360  -2.268   0.000  0.00  0.00    +0.000 OA
ATOM     15  O   UNL     1       4.233  -2.570   0.000  0.00  0.00    +0.000 OA
ATOM     16  O   UNL     1       5.058  -1.141   0.000  0.00  0.00    +0.000 OA
ENDBRANCH  10  13
ENDBRANCH   7  10
ENDBRANCH   3   4
ENDBRANCH   2   3
ENDBRANCH   1   2
BRANCH   1  17
ATOM     17  C   UNL     1      -1.071  -0.205   0.000  0.00  0.00    +0.000 C 
BRANCH  17  18
ATOM     18  C   UNL     1      -1.785   0.207   0.000  0.00  0.00    +0.000 A 
ATOM     19  C   UNL     1      -2.499  -0.205   0.000  0.00  0.00    +0.000 A 
ATOM     20  C   UNL     1      -3.214   0.207   0.000  0.00  0.00    +0.000 A 
ATOM     21  C   UNL     1      -3.214   1.032   0.000  0.00  0.00    +0.000 A 
ATOM     22  C   UNL     1      -2.499   1.444   0.000  0.00  0.00    +0.000 A 
ATOM     23  C   UNL     1      -1.785   1.032   0.000  0.00  0.00    +0.000 A 
BRANCH  21  24
ATOM     24  C   UNL     1      -3.929   1.444   0.000  0.00  0.00    +0.000 C 
ATOM     25  F   UNL     1      -4.341   0.730   0.000  0.00  0.00    +0.000 F 
ATOM     26  F   UNL     1      -3.516   2.159   0.000  0.00  0.00    +0.000 F 
BRANCH  24  27
ATOM     27  P   UNL     1      -4.643   1.857   0.000  0.00  0.00    +0.000 P 
ATOM     28  O   UNL     1      -5.357   2.269   0.000  0.00  0.00    +0.000 OA
ATOM     29  O   UNL     1      -5.055   1.143   0.000  0.00  0.00    +0.000 OA
ATOM     30  O   UNL     1      -4.230   2.571   0.000  0.00  0.00    +0.000 OA
ENDBRANCH  24  27
ENDBRANCH  21  24
ENDBRANCH  17  18
ENDBRANCH   1  17
TORSDOF 9
