REMARK  Name = FHM
REMARK  7 active torsions:
REMARK  status: ('A' for Active; 'I' for Inactive)
REMARK    1  A    between atoms: C_7  and  O_8
REMARK    2  A    between atoms: O_8  and  C_9
REMARK    3  A    between atoms: C_9  and  C_10
REMARK    4  A    between atoms: C_10  and  C_13
REMARK    5  A    between atoms: N_15  and  C_16
REMARK    6  A    between atoms: C_20  and  N_21
REMARK    7  A    between atoms: C_24  and  C_25
REMARK                            x       y       z     vdW  Elec       q    Type
REMARK                         _______ _______ _______ _____ _____    ______ ____
ROOT
ATOM      1  C   UNL     1       0.778   0.195   0.000  0.00  0.00    +0.000 C 
ATOM      2  O   UNL     1       0.778   1.020   0.000  0.00  0.00    +0.000 OA
ATOM      3  N   UNL     1       1.492  -0.218   0.000  0.00  0.00    +0.000 NA
ENDROOT
BRANCH   3   4
ATOM      4  C   UNL     1       2.207   0.195   0.000  0.00  0.00    +0.000 A 
ATOM      5  C   UNL     1       2.207   1.020   0.000  0.00  0.00    +0.000 A 
ATOM      6  C   UNL     1       2.921  -0.218   0.000  0.00  0.00    +0.000 A 
ATOM      7  C   UNL     1       3.636   0.195   0.000  0.00  0.00    +0.000 A 
ATOM      8  C   UNL     1       3.636   1.020   0.000  0.00  0.00    +0.000 A 
ATOM      9  C   UNL     1       2.921   1.432   0.000  0.00  0.00    +0.000 A 
BRANCH   9  10
ATOM     10  C   UNL     1       2.921   2.257   0.000  0.00  0.00    +0.000 C 
ATOM     11  F   UNL     1       2.921   3.082   0.000  0.00  0.00    +0.000 F 
ATOM     12  F   UNL     1       3.746   2.257   0.000  0.00  0.00    +0.000 F 
ATOM     13  F   UNL     1       2.096   2.257   0.000  0.00  0.00    +0.000 F 
ENDBRANCH   9  10
BRANCH   8  14
ATOM     14  N   UNL     1       4.350   1.432   0.000  0.00  0.00    +0.000 N 
ATOM     15  O   UNL     1       4.350   2.257   0.000  0.00  0.00    +0.000 OA
ATOM     16  O   UNL     1       5.065   1.020   0.000  0.00  0.00    +0.000 OA
ENDBRANCH   8  14
ENDBRANCH   3   4
BRANCH   1  17
ATOM     17  C   UNL     1       0.063  -0.218   0.000  0.00  0.00    +0.000 C 
ATOM     18  O   UNL     1       0.476  -0.932   0.000  0.00  0.00    +0.000 OA
ATOM     19  C   UNL     1      -0.349   0.497   0.000  0.00  0.00    +0.000 C 
BRANCH  17  20
ATOM     20  C   UNL     1      -0.651  -0.630   0.000  0.00  0.00    +0.000 C 
BRANCH  20  21
ATOM     21  O   UNL     1      -1.365  -0.218   0.000  0.00  0.00    +0.000 OA
BRANCH  21  28
ATOM     22  C   UNL     1      -2.080  -1.455   0.000  0.00  0.00    +0.000 A 
ATOM     23  C   UNL     1      -2.794  -1.868   0.000  0.00  0.00    +0.000 A 
ATOM     24  C   UNL     1      -3.509  -1.455   0.000  0.00  0.00    +0.000 A 
ATOM     25  F   UNL     1      -4.223  -1.868   0.000  0.00  0.00    +0.000 F 
ATOM     26  C   UNL     1      -3.509  -0.630   0.000  0.00  0.00    +0.000 A 
ATOM     27  C   UNL     1      -2.794  -0.218   0.000  0.00  0.00    +0.000 A 
ATOM     28  C   UNL     1      -2.080  -0.630   0.000  0.00  0.00    +0.000 A 
ENDBRANCH  21  28
ENDBRANCH  20  21
ENDBRANCH  17  20
ENDBRANCH   1  17
TORSDOF 7
