REMARK  Name = FIH
REMARK  5 active torsions:
REMARK  status: ('A' for Active; 'I' for Inactive)
REMARK    1  A    between atoms: C_5  and  C_10
REMARK    2  A    between atoms: C_7  and  C_13
REMARK    3  A    between atoms: C_8  and  N_16
REMARK    4  A    between atoms: N_16  and  S_17
REMARK    5  A    between atoms: S_17  and  C_19
REMARK                            x       y       z     vdW  Elec       q    Type
REMARK                         _______ _______ _______ _____ _____    ______ ____
ROOT
ATOM      1  C   UNL     1      -1.042   1.844   0.000  0.00  0.00    +0.000 A 
ATOM      2  C   UNL     1      -0.375   1.359   0.000  0.00  0.00    +0.000 A 
ATOM      3  C   UNL     1      -0.630   0.574   0.000  0.00  0.00    +0.000 A 
ATOM      4  C   UNL     1      -1.455   0.574   0.000  0.00  0.00    +0.000 A 
ATOM      5  S   UNL     1      -1.710   1.359   0.000  0.00  0.00    +0.000 S 
ENDROOT
BRANCH   4  10
ATOM      6  C   UNL     1      -2.089  -1.514   0.000  0.00  0.00    +0.000 A 
ATOM      7  C   UNL     1      -2.910  -1.428   0.000  0.00  0.00    +0.000 A 
ATOM      8  C   UNL     1      -3.245  -0.674   0.000  0.00  0.00    +0.000 A 
ATOM      9  C   UNL     1      -2.760  -0.007   0.000  0.00  0.00    +0.000 A 
ATOM     10  C   UNL     1      -1.940  -0.093   0.000  0.00  0.00    +0.000 A 
ATOM     11  C   UNL     1      -1.604  -0.847   0.000  0.00  0.00    +0.000 A 
ATOM     12  F   UNL     1      -3.395  -2.095   0.000  0.00  0.00    +0.000 F 
ENDBRANCH   4  10
BRANCH   1  13
ATOM     13  C   UNL     1      -1.042   2.669   0.000  0.00  0.00    +0.000 C 
ATOM     14  O   UNL     1      -1.757   3.081   0.000  0.00  0.00    +0.000 OA
ATOM     15  O   UNL     1      -0.328   3.081   0.000  0.00  0.00    +0.000 OA
ENDBRANCH   1  13
BRANCH   2  16
ATOM     16  N   UNL     1       0.410   1.614   0.000  0.00  0.00    +0.000 NA
BRANCH  16  17
ATOM     17  S   UNL     1       1.023   1.062   0.000  0.00  0.00    +0.000 S 
ATOM     18  O   UNL     1       0.471   0.449   0.000  0.00  0.00    +0.000 OA
ATOM     19  O   UNL     1       1.575   1.675   0.000  0.00  0.00    +0.000 OA
BRANCH  17  21
ATOM     20  C   UNL     1       1.464  -0.297   0.000  0.00  0.00    +0.000 A 
ATOM     21  C   UNL     1       1.636   0.510   0.000  0.00  0.00    +0.000 A 
ATOM     22  C   UNL     1       2.420   0.765   0.000  0.00  0.00    +0.000 A 
ATOM     23  C   UNL     1       3.034   0.213   0.000  0.00  0.00    +0.000 A 
ATOM     24  C   UNL     1       2.862  -0.594   0.000  0.00  0.00    +0.000 A 
ATOM     25  C   UNL     1       2.077  -0.849   0.000  0.00  0.00    +0.000 A 
ATOM     26  C   UNL     1       3.475  -1.146   0.000  0.00  0.00    +0.000 C 
ENDBRANCH  17  21
ENDBRANCH  16  17
ENDBRANCH   2  16
TORSDOF 5
