REMARK  Name = FII
REMARK  11 active torsions:
REMARK  status: ('A' for Active; 'I' for Inactive)
REMARK    1  A    between atoms: C_4  and  C_5
REMARK    2  A    between atoms: C_5  and  C_6
REMARK    3  A    between atoms: C_6  and  C_7
REMARK    4  A    between atoms: C_9  and  C_10
REMARK    5  A    between atoms: C_10  and  C_11
REMARK    6  A    between atoms: C_11  and  C_12
REMARK    7  A    between atoms: C_14  and  C_15
REMARK    8  A    between atoms: C_15  and  O_16
REMARK    9  A    between atoms: O_16  and  N_17
REMARK   10  A    between atoms: C_18  and  C_20
REMARK   11  A    between atoms: C_20  and  P_21
REMARK                            x       y       z     vdW  Elec       q    Type
REMARK                         _______ _______ _______ _____ _____    ______ ____
ROOT
ATOM      1  C   UNL     1       0.151  -1.491   0.000  0.00  0.00    +0.000 C 
ATOM      2  C   UNL     1       0.866  -1.079   0.000  0.00  0.00    +0.000 C 
ATOM      3  C   UNL     1       0.151  -2.316   0.000  0.00  0.00    +0.000 C 
ENDROOT
BRANCH   1   4
ATOM      4  C   UNL     1      -0.563  -1.079   0.000  0.00  0.00    +0.000 C 
BRANCH   4   5
ATOM      5  C   UNL     1      -0.563  -0.254   0.000  0.00  0.00    +0.000 C 
BRANCH   5   8
ATOM      6  C   UNL     1      -1.278   0.984   0.000  0.00  0.00    +0.000 C 
ATOM      7  C   UNL     1      -0.563   1.396   0.000  0.00  0.00    +0.000 C 
ATOM      8  C   UNL     1      -1.278   0.159   0.000  0.00  0.00    +0.000 C 
BRANCH   6   9
ATOM      9  C   UNL     1      -1.992   1.396   0.000  0.00  0.00    +0.000 C 
BRANCH   9  10
ATOM     10  C   UNL     1      -1.992   2.221   0.000  0.00  0.00    +0.000 C 
BRANCH  10  14
ATOM     11  C   UNL     1      -3.421   3.871   0.000  0.00  0.00    +0.000 C 
ATOM     12  C   UNL     1      -2.707   3.459   0.000  0.00  0.00    +0.000 C 
ATOM     13  C   UNL     1      -1.992   3.871   0.000  0.00  0.00    +0.000 C 
ATOM     14  C   UNL     1      -2.707   2.634   0.000  0.00  0.00    +0.000 C 
ENDBRANCH  10  14
ENDBRANCH   9  10
ENDBRANCH   6   9
ENDBRANCH   5   8
ENDBRANCH   4   5
ENDBRANCH   1   4
BRANCH   3  15
ATOM     15  C   UNL     1       0.866  -2.729   0.000  0.00  0.00    +0.000 C 
BRANCH  15  16
ATOM     16  O   UNL     1       1.580  -2.316   0.000  0.00  0.00    +0.000 OA
BRANCH  16  17
ATOM     17  N   UNL     1       2.295  -2.729   0.000  0.00  0.00    +0.000 NA
ATOM     18  C   UNL     1       3.009  -2.316   0.000  0.00  0.00    +0.000 C 
ATOM     19  O   UNL     1       3.009  -1.491   0.000  0.00  0.00    +0.000 OA
BRANCH  18  20
ATOM     20  C   UNL     1       3.724  -2.729   0.000  0.00  0.00    +0.000 C 
BRANCH  20  21
ATOM     21  P   UNL     1       4.438  -2.316   0.000  0.00  0.00    +0.000 P 
ATOM     22  O   UNL     1       5.152  -1.904   0.000  0.00  0.00    +0.000 OA
ATOM     23  O   UNL     1       4.851  -3.031   0.000  0.00  0.00    +0.000 OA
ATOM     24  O   UNL     1       4.026  -1.602   0.000  0.00  0.00    +0.000 OA
ENDBRANCH  20  21
ENDBRANCH  18  20
ENDBRANCH  16  17
ENDBRANCH  15  16
ENDBRANCH   3  15
TORSDOF 11
