REMARK  Name = FIL
REMARK  6 active torsions:
REMARK  status: ('A' for Active; 'I' for Inactive)
REMARK    1  A    between atoms: C_2  and  O_4
REMARK    2  A    between atoms: O_4  and  N_5
REMARK    3  A    between atoms: C_6  and  C_8
REMARK    4  A    between atoms: C_11  and  O_12
REMARK    5  A    between atoms: C_14  and  O_16
REMARK    6  A    between atoms: O_16  and  C_17
REMARK                            x       y       z     vdW  Elec       q    Type
REMARK                         _______ _______ _______ _____ _____    ______ ____
ROOT
ATOM      1  C   UNL     1      -0.785   0.609   0.000  0.00  0.00    +0.000 A 
ATOM      2  C   UNL     1      -0.785   1.434   0.000  0.00  0.00    +0.000 A 
ATOM      3  C   UNL     1      -0.070   1.847   0.000  0.00  0.00    +0.000 A 
ATOM      4  C   UNL     1       0.644   1.434   0.000  0.00  0.00    +0.000 A 
ATOM      5  C   UNL     1       0.644   0.609   0.000  0.00  0.00    +0.000 A 
ATOM      6  C   UNL     1      -0.070   0.197   0.000  0.00  0.00    +0.000 A 
ENDROOT
BRANCH   1   8
ATOM      7  N   UNL     1      -2.214   0.609   0.000  0.00  0.00    +0.000 NA
ATOM      8  C   UNL     1      -1.499   0.197   0.000  0.00  0.00    +0.000 C 
ATOM      9  C   UNL     1      -1.499  -0.628   0.000  0.00  0.00    +0.000 C 
BRANCH   7  10
ATOM     10  O   UNL     1      -2.928   0.197   0.000  0.00  0.00    +0.000 OA
BRANCH  10  12
ATOM     11  O   UNL     1      -4.357   0.197   0.000  0.00  0.00    +0.000 OA
ATOM     12  C   UNL     1      -3.643   0.609   0.000  0.00  0.00    +0.000 C 
ATOM     13  N   UNL     1      -3.643   1.434   0.000  0.00  0.00    +0.000 NA
ENDBRANCH  10  12
ENDBRANCH   7  10
ENDBRANCH   1   8
BRANCH   4  14
ATOM     14  O   UNL     1       1.359   1.847   0.000  0.00  0.00    +0.000 OA
ATOM     15  C   UNL     1       2.073   1.434   0.000  0.00  0.00    +0.000 C 
ENDBRANCH   4  14
BRANCH   5  16
ATOM     16  O   UNL     1       1.359   0.197   0.000  0.00  0.00    +0.000 OA
BRANCH  16  17
ATOM     17  C   UNL     1       1.359  -0.628   0.000  0.00  0.00    +0.000 C 
ATOM     18  C   UNL     1       2.026  -1.113   0.000  0.00  0.00    +0.000 C 
ATOM     19  C   UNL     1       1.771  -1.898   0.000  0.00  0.00    +0.000 C 
ATOM     20  C   UNL     1       0.946  -1.898   0.000  0.00  0.00    +0.000 C 
ATOM     21  C   UNL     1       0.691  -1.113   0.000  0.00  0.00    +0.000 C 
ENDBRANCH  16  17
ENDBRANCH   5  16
TORSDOF 6
