REMARK  Name = FIP
REMARK  5 active torsions:
REMARK  status: ('A' for Active; 'I' for Inactive)
REMARK    1  A    between atoms: C_1  and  C_11
REMARK    2  A    between atoms: C_11  and  C_12
REMARK    3  A    between atoms: C_12  and  C_13
REMARK    4  A    between atoms: C_13  and  O_18
REMARK    5  A    between atoms: P_14  and  O_18
REMARK                            x       y       z     vdW  Elec       q    Type
REMARK                         _______ _______ _______ _____ _____    ______ ____
ROOT
ATOM      1  C   UNL     1      -0.782  -0.258   0.000  0.00  0.00    +0.000 A 
ATOM      2  C   UNL     1      -1.536   0.077   0.000  0.00  0.00    +0.000 A 
ATOM      3  C   UNL     1      -2.088  -0.536   0.000  0.00  0.00    +0.000 A 
ATOM      4  C   UNL     1      -1.791   0.862   0.000  0.00  0.00    +0.000 A 
ATOM      5  C   UNL     1      -0.869  -1.079   0.000  0.00  0.00    +0.000 A 
ATOM      6  N   UNL     1      -1.676  -1.250   0.000  0.00  0.00    +0.000 NA
ATOM      7  C   UNL     1      -2.895  -0.364   0.000  0.00  0.00    +0.000 A 
ATOM      8  C   UNL     1      -2.598   1.033   0.000  0.00  0.00    +0.000 A 
ATOM      9  C   UNL     1      -3.150   0.420   0.000  0.00  0.00    +0.000 A 
ATOM     10  F   UNL     1      -2.853   1.818   0.000  0.00  0.00    +0.000 F 
ENDROOT
BRANCH   1  11
ATOM     11  C   UNL     1      -0.068   0.154   0.000  0.00  0.00    +0.000 C 
BRANCH  11  12
ATOM     12  C   UNL     1       0.646  -0.258   0.000  0.00  0.00    +0.000 C 
BRANCH  12  13
ATOM     13  C   UNL     1       1.361   0.154   0.000  0.00  0.00    +0.000 C 
BRANCH  13  14
ATOM     14  O   UNL     1       2.075  -0.258   0.000  0.00  0.00    +0.000 OA
BRANCH  14  15
ATOM     15  P   UNL     1       2.790   0.154   0.000  0.00  0.00    +0.000 P 
ATOM     16  O   UNL     1       3.504   0.567   0.000  0.00  0.00    +0.000 OA
ATOM     17  O   UNL     1       3.202  -0.560   0.000  0.00  0.00    +0.000 OA
ATOM     18  O   UNL     1       2.377   0.869   0.000  0.00  0.00    +0.000 OA
ENDBRANCH  14  15
ENDBRANCH  13  14
ENDBRANCH  12  13
ENDBRANCH  11  12
ENDBRANCH   1  11
TORSDOF 5
