REMARK  Name = FL8
REMARK  1 active torsions:
REMARK  status: ('A' for Active; 'I' for Inactive)
REMARK    1  A    between atoms: C_4  and  C_13
REMARK                            x       y       z     vdW  Elec       q    Type
REMARK                         _______ _______ _______ _____ _____    ______ ____
ROOT
ATOM      1  O   UNL     1       0.437  -0.529   0.000  0.00  0.00    +0.000 OA
ATOM      2  C   UNL     1      -0.277  -0.117   0.000  0.00  0.00    +0.000 A 
ATOM      3  C   UNL     1      -0.277   0.708   0.000  0.00  0.00    +0.000 A 
ATOM      4  C   UNL     1       0.437   1.121   0.000  0.00  0.00    +0.000 A 
ATOM      5  C   UNL     1       1.152   0.708   0.000  0.00  0.00    +0.000 A 
ATOM      6  C   UNL     1       1.866   1.121   0.000  0.00  0.00    +0.000 A 
ATOM      7  C   UNL     1       2.581   0.708   0.000  0.00  0.00    +0.000 A 
ATOM      8  C   UNL     1       2.581  -0.117   0.000  0.00  0.00    +0.000 A 
ATOM      9  C   UNL     1       1.866  -0.529   0.000  0.00  0.00    +0.000 A 
ATOM     10  C   UNL     1       1.152  -0.117   0.000  0.00  0.00    +0.000 A 
ATOM     11  C   UNL     1      -0.992   1.121   0.000  0.00  0.00    +0.000 C 
ATOM     12  O   UNL     1       0.437   1.946   0.000  0.00  0.00    +0.000 OA
ATOM     13  O   UNL     1       3.295   1.121   0.000  0.00  0.00    +0.000 OA
ENDROOT
BRANCH   2  16
ATOM     14 BR   UNL     1      -1.706  -2.592   0.000  0.00  0.00    +0.000 Br
ATOM     15 BR   UNL     1      -3.135  -0.117   0.000  0.00  0.00    +0.000 Br
ATOM     16  C   UNL     1      -0.992  -0.529   0.000  0.00  0.00    +0.000 A 
ATOM     17  C   UNL     1      -0.992  -1.355   0.000  0.00  0.00    +0.000 A 
ATOM     18  C   UNL     1      -1.706  -1.767   0.000  0.00  0.00    +0.000 A 
ATOM     19  C   UNL     1      -2.421  -1.355   0.000  0.00  0.00    +0.000 A 
ATOM     20  C   UNL     1      -2.421  -0.529   0.000  0.00  0.00    +0.000 A 
ATOM     21  C   UNL     1      -1.706  -0.117   0.000  0.00  0.00    +0.000 A 
ATOM     22  O   UNL     1      -3.135  -1.767   0.000  0.00  0.00    +0.000 OA
ENDBRANCH   2  16
TORSDOF 1
