REMARK  Name = FL9
REMARK  1 active torsions:
REMARK  status: ('A' for Active; 'I' for Inactive)
REMARK    1  A    between atoms: C_9  and  C_10
REMARK                            x       y       z     vdW  Elec       q    Type
REMARK                         _______ _______ _______ _____ _____    ______ ____
ROOT
ATOM      1  C   UNL     1      -0.348   0.591   0.000  0.00  0.00    +0.000 C 
ATOM      2  C   UNL     1       0.136   1.259   0.000  0.00  0.00    +0.000 C 
ATOM      3  C   UNL     1       0.921   1.004   0.000  0.00  0.00    +0.000 A 
ATOM      4  C   UNL     1       1.635   1.416   0.000  0.00  0.00    +0.000 A 
ATOM      5  C   UNL     1       2.350   1.004   0.000  0.00  0.00    +0.000 A 
ATOM      6  C   UNL     1       2.350   0.179   0.000  0.00  0.00    +0.000 A 
ATOM      7  C   UNL     1       1.635  -0.234   0.000  0.00  0.00    +0.000 A 
ATOM      8  C   UNL     1       0.921   0.179   0.000  0.00  0.00    +0.000 A 
ATOM      9  C   UNL     1      -1.173   0.591   0.000  0.00  0.00    +0.000 C 
ATOM     10  O   UNL     1       0.136  -0.076   0.000  0.00  0.00    +0.000 OA
ATOM     11  O   UNL     1      -0.118   2.043   0.000  0.00  0.00    +0.000 OA
ATOM     12  O   UNL     1       1.635   2.241   0.000  0.00  0.00    +0.000 OA
ATOM     13  O   UNL     1       3.064  -0.234   0.000  0.00  0.00    +0.000 OA
ENDROOT
BRANCH   9  14
ATOM     14  C   UNL     1      -1.586  -0.123   0.000  0.00  0.00    +0.000 A 
ATOM     15  C   UNL     1      -1.173  -0.838   0.000  0.00  0.00    +0.000 A 
ATOM     16  C   UNL     1      -1.586  -1.552   0.000  0.00  0.00    +0.000 A 
ATOM     17  C   UNL     1      -2.411  -1.552   0.000  0.00  0.00    +0.000 A 
ATOM     18  C   UNL     1      -2.824  -0.838   0.000  0.00  0.00    +0.000 A 
ATOM     19  C   UNL     1      -2.411  -0.123   0.000  0.00  0.00    +0.000 A 
ATOM     20 BR   UNL     1      -1.173  -2.267   0.000  0.00  0.00    +0.000 Br
ATOM     21 BR   UNL     1      -3.648  -0.838   0.000  0.00  0.00    +0.000 Br
ATOM     22  O   UNL     1      -0.348  -0.838   0.000  0.00  0.00    +0.000 OA
ATOM     23  O   UNL     1      -2.824  -2.267   0.000  0.00  0.00    +0.000 OA
ENDBRANCH   9  14
TORSDOF 1
