REMARK  Name = FLF
REMARK  4 active torsions:
REMARK  status: ('A' for Active; 'I' for Inactive)
REMARK    1  A    between atoms: C_1  and  C_9
REMARK    2  A    between atoms: C_8  and  N_10
REMARK    3  A    between atoms: N_10  and  C_11
REMARK    4  A    between atoms: C_13  and  C_17
REMARK                            x       y       z     vdW  Elec       q    Type
REMARK                         _______ _______ _______ _____ _____    ______ ____
ROOT
ATOM      1  N   UNL     1      -0.328   0.422   0.000  0.00  0.00    +0.000 NA
ENDROOT
BRANCH   1   7
ATOM      2  C   UNL     1      -1.756   0.422   0.000  0.00  0.00    +0.000 A 
ATOM      3  C   UNL     1      -2.471   0.010   0.000  0.00  0.00    +0.000 A 
ATOM      4  C   UNL     1      -2.471  -0.815   0.000  0.00  0.00    +0.000 A 
ATOM      5  C   UNL     1      -1.756  -1.228   0.000  0.00  0.00    +0.000 A 
ATOM      6  C   UNL     1      -1.042  -0.815   0.000  0.00  0.00    +0.000 A 
ATOM      7  C   UNL     1      -1.042   0.010   0.000  0.00  0.00    +0.000 A 
BRANCH   2  10
ATOM      8  O   UNL     1      -1.042   1.660   0.000  0.00  0.00    +0.000 OA
ATOM      9  O   UNL     1      -2.471   1.660   0.000  0.00  0.00    +0.000 OA
ATOM     10  C   UNL     1      -1.756   1.247   0.000  0.00  0.00    +0.000 C 
ENDBRANCH   2  10
ENDBRANCH   1   7
BRANCH   1  11
ATOM     11  C   UNL     1       0.387   0.010   0.000  0.00  0.00    +0.000 A 
ATOM     12  C   UNL     1       1.101   0.422   0.000  0.00  0.00    +0.000 A 
ATOM     13  C   UNL     1       1.816   0.010   0.000  0.00  0.00    +0.000 A 
ATOM     14  C   UNL     1       1.816  -0.815   0.000  0.00  0.00    +0.000 A 
ATOM     15  C   UNL     1       1.101  -1.228   0.000  0.00  0.00    +0.000 A 
ATOM     16  C   UNL     1       0.387  -0.815   0.000  0.00  0.00    +0.000 A 
BRANCH  13  17
ATOM     17  C   UNL     1       2.530   0.422   0.000  0.00  0.00    +0.000 C 
ATOM     18  F   UNL     1       3.245   0.835   0.000  0.00  0.00    +0.000 F 
ATOM     19  F   UNL     1       2.943  -0.292   0.000  0.00  0.00    +0.000 F 
ATOM     20  F   UNL     1       2.118   1.137   0.000  0.00  0.00    +0.000 F 
ENDBRANCH  13  17
ENDBRANCH   1  11
TORSDOF 4
