REMARK  Name = FLX
REMARK  9 active torsions:
REMARK  status: ('A' for Active; 'I' for Inactive)
REMARK    1  A    between atoms: N_1  and  C_9
REMARK    2  A    between atoms: C_2  and  C_4
REMARK    3  A    between atoms: C_9  and  C_10
REMARK    4  A    between atoms: C_9  and  C_14
REMARK    5  A    between atoms: C_10  and  C_11
REMARK    6  A    between atoms: N_16  and  C_17
REMARK    7  A    between atoms: C_17  and  C_18
REMARK    8  A    between atoms: C_17  and  P_28
REMARK    9  A    between atoms: C_18  and  C_19
REMARK                            x       y       z     vdW  Elec       q    Type
REMARK                         _______ _______ _______ _____ _____    ______ ____
ROOT
ATOM      1  C   UNL     1       0.101   0.911   0.000  0.00  0.00    +0.000 C 
ATOM      2  O   UNL     1       0.816   1.323   0.000  0.00  0.00    +0.000 OA
ATOM      3  N   UNL     1       0.101   0.086   0.000  0.00  0.00    +0.000 NA
ENDROOT
BRANCH   3   4
ATOM      4  C   UNL     1       0.816  -0.327   0.000  0.00  0.00    +0.000 C 
BRANCH   4   5
ATOM      5  P   UNL     1       1.530   0.086   0.000  0.00  0.00    +0.000 P 
ATOM      6  O   UNL     1       1.942  -0.629   0.000  0.00  0.00    +0.000 OA
ATOM      7  O   UNL     1       1.117   0.800   0.000  0.00  0.00    +0.000 OA
ATOM      8  O   UNL     1       2.244   0.498   0.000  0.00  0.00    +0.000 OA
ENDBRANCH   4   5
BRANCH   4   9
ATOM      9  C   UNL     1       0.816  -1.152   0.000  0.00  0.00    +0.000 C 
BRANCH   9  10
ATOM     10  C   UNL     1       1.530  -1.564   0.000  0.00  0.00    +0.000 A 
ATOM     11  C   UNL     1       1.616  -2.385   0.000  0.00  0.00    +0.000 A 
ATOM     12  C   UNL     1       2.423  -2.556   0.000  0.00  0.00    +0.000 A 
ATOM     13  C   UNL     1       1.064  -2.998   0.000  0.00  0.00    +0.000 A 
ATOM     14  C   UNL     1       2.284  -1.229   0.000  0.00  0.00    +0.000 A 
ATOM     15  N   UNL     1       2.836  -1.842   0.000  0.00  0.00    +0.000 NA
ATOM     16  C   UNL     1       2.678  -3.341   0.000  0.00  0.00    +0.000 A 
ATOM     17  C   UNL     1       1.319  -3.782   0.000  0.00  0.00    +0.000 A 
ATOM     18  C   UNL     1       2.126  -3.954   0.000  0.00  0.00    +0.000 A 
ENDBRANCH   9  10
ENDBRANCH   4   9
ENDBRANCH   3   4
BRANCH   1  19
ATOM     19  C   UNL     1      -0.613   1.323   0.000  0.00  0.00    +0.000 C 
BRANCH  19  20
ATOM     20  N   UNL     1      -0.613   2.148   0.000  0.00  0.00    +0.000 NA
ATOM     21  C   UNL     1      -1.328   2.561   0.000  0.00  0.00    +0.000 C 
ATOM     22  O   UNL     1      -2.042   2.148   0.000  0.00  0.00    +0.000 OA
BRANCH  21  23
ATOM     23  C   UNL     1      -1.328   3.386   0.000  0.00  0.00    +0.000 A 
ATOM     24  O   UNL     1      -1.995   3.871   0.000  0.00  0.00    +0.000 OA
ATOM     25  C   UNL     1      -0.660   3.871   0.000  0.00  0.00    +0.000 A 
ATOM     26  C   UNL     1      -0.915   4.655   0.000  0.00  0.00    +0.000 A 
ATOM     27  C   UNL     1      -1.740   4.655   0.000  0.00  0.00    +0.000 A 
ENDBRANCH  21  23
ENDBRANCH  19  20
BRANCH  19  28
ATOM     28  C   UNL     1      -1.328   0.911   0.000  0.00  0.00    +0.000 C 
BRANCH  28  29
ATOM     29  C   UNL     1      -1.328   0.086   0.000  0.00  0.00    +0.000 C 
ATOM     30  C   UNL     1      -2.042  -0.327   0.000  0.00  0.00    +0.000 C 
ATOM     31  C   UNL     1      -0.613  -0.327   0.000  0.00  0.00    +0.000 C 
ENDBRANCH  28  29
ENDBRANCH  19  28
ENDBRANCH   1  19
TORSDOF 9
