REMARK  Name = FMD
REMARK  6 active torsions:
REMARK  status: ('A' for Active; 'I' for Inactive)
REMARK    1  A    between atoms: C_3  and  C_4
REMARK    2  A    between atoms: C_5  and  C_6
REMARK    3  A    between atoms: C_6  and  C_8
REMARK    4  A    between atoms: C_8  and  C_10
REMARK    5  A    between atoms: C_21  and  C_22
REMARK    6  A    between atoms: C_23  and  O_24
REMARK                            x       y       z     vdW  Elec       q    Type
REMARK                         _______ _______ _______ _____ _____    ______ ____
ROOT
ATOM      1  F   UNL     1       2.438   1.386   0.000  0.00  0.00    +0.000 F 
ATOM      2  C   UNL     1       1.724   1.798   0.000  0.00  0.00    +0.000 A 
ATOM      3  C   UNL     1       1.009   1.386   0.000  0.00  0.00    +0.000 A 
ATOM      4  C   UNL     1       0.295   1.798   0.000  0.00  0.00    +0.000 A 
ATOM      5  C   UNL     1       0.295   2.623   0.000  0.00  0.00    +0.000 A 
ATOM      6  N   UNL     1      -0.490   2.878   0.000  0.00  0.00    +0.000 NA
ATOM      7  C   UNL     1      -0.975   2.211   0.000  0.00  0.00    +0.000 C 
ATOM      8  O   UNL     1      -1.800   2.211   0.000  0.00  0.00    +0.000 OA
ATOM      9  C   UNL     1       1.009   3.036   0.000  0.00  0.00    +0.000 A 
ATOM     10  C   UNL     1       1.724   2.623   0.000  0.00  0.00    +0.000 A 
ATOM     11  C   UNL     1      -0.490   1.543   0.000  0.00  0.00    +0.000 C 
ATOM     12  C   UNL     1      -0.745   0.759   0.000  0.00  0.00    +0.000 C 
ENDROOT
BRANCH  12  13
ATOM     13  C   UNL     1      -1.552   0.587   0.000  0.00  0.00    +0.000 A 
ATOM     14  C   UNL     1      -1.887  -0.167   0.000  0.00  0.00    +0.000 A 
ATOM     15  C   UNL     1      -2.708  -0.080   0.000  0.00  0.00    +0.000 A 
ATOM     16  C   UNL     1      -2.879   0.727   0.000  0.00  0.00    +0.000 A 
ATOM     17  N   UNL     1      -2.165   1.139   0.000  0.00  0.00    +0.000 NA
BRANCH  14  18
ATOM     18  O   UNL     1      -1.475  -0.881   0.000  0.00  0.00    +0.000 OA
ATOM     19  C   UNL     1      -0.650  -0.881   0.000  0.00  0.00    +0.000 C 
ENDBRANCH  14  18
ENDBRANCH  12  13
BRANCH   3  20
ATOM     20  C   UNL     1       1.009   0.561   0.000  0.00  0.00    +0.000 C 
ATOM     21  C   UNL     1       1.009  -0.264   0.000  0.00  0.00    +0.000 C 
BRANCH  21  22
ATOM     22  C   UNL     1       1.009  -1.089   0.000  0.00  0.00    +0.000 C 
ATOM     23  O   UNL     1       0.295  -1.502   0.000  0.00  0.00    +0.000 OA
BRANCH  22  24
ATOM     24  C   UNL     1       1.724  -1.502   0.000  0.00  0.00    +0.000 C 
ATOM     25  N   UNL     1       2.438  -1.089   0.000  0.00  0.00    +0.000 NA
BRANCH  24  26
ATOM     26  C   UNL     1       1.724  -2.327   0.000  0.00  0.00    +0.000 C 
ATOM     27  O   UNL     1       2.438  -2.739   0.000  0.00  0.00    +0.000 OA
ATOM     28  C   UNL     1       1.009  -2.739   0.000  0.00  0.00    +0.000 C 
ENDBRANCH  24  26
ENDBRANCH  22  24
ENDBRANCH  21  22
ENDBRANCH   3  20
TORSDOF 6
