REMARK  Name = FNP
REMARK  4 active torsions:
REMARK  status: ('A' for Active; 'I' for Inactive)
REMARK    1  A    between atoms: C_1  and  C_8
REMARK    2  A    between atoms: C_1  and  P_15
REMARK    3  A    between atoms: C_2  and  C_12
REMARK    4  A    between atoms: C_12  and  P_21
REMARK                            x       y       z     vdW  Elec       q    Type
REMARK                         _______ _______ _______ _____ _____    ______ ____
ROOT
ATOM      1  C   UNL     1      -1.238   0.163   0.000  0.00  0.00    +0.000 A 
ATOM      2  C   UNL     1      -1.238   0.988   0.000  0.00  0.00    +0.000 A 
ATOM      3  C   UNL     1      -0.523   1.400   0.000  0.00  0.00    +0.000 A 
ATOM      4  C   UNL     1       0.191   0.988   0.000  0.00  0.00    +0.000 A 
ATOM      5  C   UNL     1       0.906   1.400   0.000  0.00  0.00    +0.000 A 
ATOM      6  C   UNL     1       1.620   0.988   0.000  0.00  0.00    +0.000 A 
ATOM      7  C   UNL     1       1.620   0.163   0.000  0.00  0.00    +0.000 A 
ATOM      8  C   UNL     1       0.906  -0.250   0.000  0.00  0.00    +0.000 A 
ATOM      9  C   UNL     1       0.191   0.163   0.000  0.00  0.00    +0.000 A 
ATOM     10  C   UNL     1      -0.523  -0.250   0.000  0.00  0.00    +0.000 A 
ENDROOT
BRANCH   7  11
ATOM     11  C   UNL     1       2.334  -0.250   0.000  0.00  0.00    +0.000 C 
ATOM     12  F   UNL     1       2.747   0.465   0.000  0.00  0.00    +0.000 F 
ATOM     13  F   UNL     1       1.922  -0.964   0.000  0.00  0.00    +0.000 F 
BRANCH  11  14
ATOM     14  P   UNL     1       3.049  -0.662   0.000  0.00  0.00    +0.000 P 
ATOM     15  O   UNL     1       3.763  -1.075   0.000  0.00  0.00    +0.000 OA
ATOM     16  O   UNL     1       3.462   0.052   0.000  0.00  0.00    +0.000 OA
ATOM     17  O   UNL     1       2.636  -1.377   0.000  0.00  0.00    +0.000 OA
ENDBRANCH  11  14
ENDBRANCH   7  11
BRANCH   1  18
ATOM     18  C   UNL     1      -1.952  -0.250   0.000  0.00  0.00    +0.000 C 
ATOM     19  F   UNL     1      -2.365   0.465   0.000  0.00  0.00    +0.000 F 
ATOM     20  F   UNL     1      -1.540  -0.964   0.000  0.00  0.00    +0.000 F 
BRANCH  18  21
ATOM     21  P   UNL     1      -2.667  -0.662   0.000  0.00  0.00    +0.000 P 
ATOM     22  O   UNL     1      -3.381  -1.075   0.000  0.00  0.00    +0.000 OA
ATOM     23  O   UNL     1      -3.079   0.052   0.000  0.00  0.00    +0.000 OA
ATOM     24  O   UNL     1      -2.254  -1.377   0.000  0.00  0.00    +0.000 OA
ENDBRANCH  18  21
ENDBRANCH   1  18
TORSDOF 4
