REMARK  Name = FOK
REMARK  3 active torsions:
REMARK  status: ('A' for Active; 'I' for Inactive)
REMARK    1  A    between atoms: C_9  and  O_10
REMARK    2  A    between atoms: O_10  and  C_27
REMARK    3  A    between atoms: C_19  and  C_20
REMARK                            x       y       z     vdW  Elec       q    Type
REMARK                         _______ _______ _______ _____ _____    ______ ____
ROOT
ATOM      1  C   UNL     1      -0.919  -1.303   0.000  0.00  0.00    +0.000 C 
ATOM      2  O   UNL     1      -0.506  -2.017   0.000  0.00  0.00    +0.000 OA
ATOM      3  C   UNL     1      -1.744  -1.303   0.000  0.00  0.00    +0.000 C 
ATOM      4  C   UNL     1      -2.156  -0.588   0.000  0.00  0.00    +0.000 C 
ATOM      5  C   UNL     1      -1.744   0.126   0.000  0.00  0.00    +0.000 C 
ATOM      6  C   UNL     1      -0.919   0.126   0.000  0.00  0.00    +0.000 C 
ATOM      7  C   UNL     1      -0.506   0.841   0.000  0.00  0.00    +0.000 C 
ATOM      8  O   UNL     1      -0.919   1.555   0.000  0.00  0.00    +0.000 OA
ATOM      9  C   UNL     1       0.319   0.841   0.000  0.00  0.00    +0.000 C 
ATOM     10  C   UNL     1       0.731   0.126   0.000  0.00  0.00    +0.000 C 
ATOM     11  O   UNL     1       1.556   0.126   0.000  0.00  0.00    +0.000 OA
ATOM     12  C   UNL     1       0.319  -0.588   0.000  0.00  0.00    +0.000 C 
ATOM     13  O   UNL     1      -0.094  -1.303   0.000  0.00  0.00    +0.000 OA
ATOM     14  C   UNL     1      -0.506  -0.588   0.000  0.00  0.00    +0.000 C 
ATOM     15  C   UNL     1       0.731  -1.303   0.000  0.00  0.00    +0.000 C 
ATOM     16  O   UNL     1       0.319  -2.017   0.000  0.00  0.00    +0.000 OA
ATOM     17  C   UNL     1       1.556  -1.303   0.000  0.00  0.00    +0.000 C 
ATOM     18  C   UNL     1       1.969  -0.588   0.000  0.00  0.00    +0.000 C 
ATOM     19  C   UNL     1       2.697  -0.201   0.000  0.00  0.00    +0.000 C 
ATOM     20  C   UNL     1       1.144   0.841   0.000  0.00  0.00    +0.000 C 
ATOM     21  C   UNL     1      -2.443   0.563   0.000  0.00  0.00    +0.000 C 
ATOM     22  C   UNL     1      -1.773   0.951   0.000  0.00  0.00    +0.000 C 
ATOM     23  C   UNL     1      -0.593  -1.409   0.000  0.00  0.00    +0.000 C 
ENDROOT
BRANCH  18  24
ATOM     24  C   UNL     1       2.697  -0.976   0.000  0.00  0.00    +0.000 C 
ATOM     25  C   UNL     1       2.726  -1.800   0.000  0.00  0.00    +0.000 C 
ENDBRANCH  18  24
BRANCH   9  26
ATOM     26  O   UNL     1       0.731   1.555   0.000  0.00  0.00    +0.000 OA
BRANCH  26  27
ATOM     27  C   UNL     1       0.319   2.269   0.000  0.00  0.00    +0.000 C 
ATOM     28  O   UNL     1      -0.506   2.269   0.000  0.00  0.00    +0.000 OA
ATOM     29  C   UNL     1       0.731   2.984   0.000  0.00  0.00    +0.000 C 
ENDBRANCH  26  27
ENDBRANCH   9  26
TORSDOF 3
