REMARK  Name = FOS
REMARK  5 active torsions:
REMARK  status: ('A' for Active; 'I' for Inactive)
REMARK    1  A    between atoms: C_1  and  C_7
REMARK    2  A    between atoms: C_7  and  O_8
REMARK    3  A    between atoms: O_8  and  C_9
REMARK    4  A    between atoms: N_11  and  C_12
REMARK    5  A    between atoms: C_12  and  P_13
REMARK                            x       y       z     vdW  Elec       q    Type
REMARK                         _______ _______ _______ _____ _____    ______ ____
ROOT
ATOM      1  O   UNL     1      -0.084   0.059   0.000  0.00  0.00    +0.000 OA
ENDROOT
BRANCH   1   2
ATOM      2  C   UNL     1       0.631  -0.354   0.000  0.00  0.00    +0.000 C 
ATOM      3  O   UNL     1       0.631  -1.179   0.000  0.00  0.00    +0.000 OA
ATOM      4  N   UNL     1       1.345   0.059   0.000  0.00  0.00    +0.000 NA
BRANCH   4   5
ATOM      5  C   UNL     1       2.060  -0.354   0.000  0.00  0.00    +0.000 C 
BRANCH   5   6
ATOM      6  P   UNL     1       2.774   0.059   0.000  0.00  0.00    +0.000 P 
ATOM      7  O   UNL     1       3.489   0.471   0.000  0.00  0.00    +0.000 OA
ATOM      8  O   UNL     1       3.187  -0.656   0.000  0.00  0.00    +0.000 OA
ATOM      9  O   UNL     1       2.362   0.773   0.000  0.00  0.00    +0.000 OA
ENDBRANCH   5   6
ENDBRANCH   4   5
ENDBRANCH   1   2
BRANCH   1  10
ATOM     10  C   UNL     1      -0.798  -0.354   0.000  0.00  0.00    +0.000 C 
BRANCH  10  11
ATOM     11  C   UNL     1      -1.512   0.059   0.000  0.00  0.00    +0.000 A 
ATOM     12  C   UNL     1      -2.227  -0.354   0.000  0.00  0.00    +0.000 A 
ATOM     13  C   UNL     1      -2.941   0.059   0.000  0.00  0.00    +0.000 A 
ATOM     14  C   UNL     1      -2.941   0.884   0.000  0.00  0.00    +0.000 A 
ATOM     15  C   UNL     1      -2.227   1.296   0.000  0.00  0.00    +0.000 A 
ATOM     16  C   UNL     1      -1.512   0.884   0.000  0.00  0.00    +0.000 A 
ENDBRANCH  10  11
ENDBRANCH   1  10
TORSDOF 5
