REMARK  Name = FPB
REMARK  7 active torsions:
REMARK  status: ('A' for Active; 'I' for Inactive)
REMARK    1  A    between atoms: C_2  and  C_3
REMARK    2  A    between atoms: C_3  and  C_4
REMARK    3  A    between atoms: C_4  and  C_6
REMARK    4  A    between atoms: C_6  and  C_7
REMARK    5  A    between atoms: C_15  and  C_19
REMARK    6  A    between atoms: C_19  and  N_20
REMARK    7  A    between atoms: C_21  and  C_23
REMARK                            x       y       z     vdW  Elec       q    Type
REMARK                         _______ _______ _______ _____ _____    ______ ____
ROOT
ATOM      1  O   UNL     1       0.543  -0.363   0.000  0.00  0.00    +0.000 OA
ATOM      2  C   UNL     1       0.543   0.462   0.000  0.00  0.00    +0.000 C 
ATOM      3  N   UNL     1      -0.171   0.875   0.000  0.00  0.00    +0.000 N 
ATOM      4  C   UNL     1      -0.925   0.539   0.000  0.00  0.00    +0.000 C 
ATOM      5  C   UNL     1      -1.477   1.152   0.000  0.00  0.00    +0.000 C 
ATOM      6  C   UNL     1      -1.064   1.867   0.000  0.00  0.00    +0.000 C 
ATOM      7  C   UNL     1      -0.257   1.695   0.000  0.00  0.00    +0.000 C 
ENDROOT
BRANCH   2   8
ATOM      8  C   UNL     1       1.258   0.875   0.000  0.00  0.00    +0.000 C 
BRANCH   8   9
ATOM      9  C   UNL     1       1.972   0.462   0.000  0.00  0.00    +0.000 C 
ATOM     10  N   UNL     1       1.972  -0.363   0.000  0.00  0.00    +0.000 NA
BRANCH   9  11
ATOM     11  C   UNL     1       2.687   0.875   0.000  0.00  0.00    +0.000 C 
BRANCH  11  12
ATOM     12  C   UNL     1       3.401   0.462   0.000  0.00  0.00    +0.000 A 
ATOM     13  C   UNL     1       4.116   0.875   0.000  0.00  0.00    +0.000 A 
ATOM     14  F   UNL     1       4.116   1.700   0.000  0.00  0.00    +0.000 F 
ATOM     15  C   UNL     1       4.830   0.462   0.000  0.00  0.00    +0.000 A 
ATOM     16  C   UNL     1       4.830  -0.363   0.000  0.00  0.00    +0.000 A 
ATOM     17  C   UNL     1       4.116  -0.775   0.000  0.00  0.00    +0.000 A 
ATOM     18  C   UNL     1       3.401  -0.363   0.000  0.00  0.00    +0.000 A 
ENDBRANCH  11  12
ENDBRANCH   9  11
ENDBRANCH   8   9
ENDBRANCH   2   8
BRANCH   4  19
ATOM     19  C   UNL     1      -1.096  -0.268   0.000  0.00  0.00    +0.000 C 
BRANCH  19  20
ATOM     20  N   UNL     1      -1.881  -0.523   0.000  0.00  0.00    +0.000 NA
ATOM     21  C   UNL     1      -2.052  -1.330   0.000  0.00  0.00    +0.000 C 
ATOM     22  O   UNL     1      -1.439  -1.882   0.000  0.00  0.00    +0.000 OA
BRANCH  21  23
ATOM     23  C   UNL     1      -2.837  -1.585   0.000  0.00  0.00    +0.000 A 
ATOM     24  C   UNL     1      -3.009  -2.392   0.000  0.00  0.00    +0.000 A 
ATOM     25  C   UNL     1      -3.793  -2.647   0.000  0.00  0.00    +0.000 A 
ATOM     26  C   UNL     1      -4.406  -2.095   0.000  0.00  0.00    +0.000 A 
ATOM     27  C   UNL     1      -4.235  -1.288   0.000  0.00  0.00    +0.000 A 
ATOM     28  C   UNL     1      -3.450  -1.033   0.000  0.00  0.00    +0.000 A 
ENDBRANCH  21  23
ENDBRANCH  19  20
ENDBRANCH   4  19
TORSDOF 7
