REMARK  Name = FPH
REMARK  2 active torsions:
REMARK  status: ('A' for Active; 'I' for Inactive)
REMARK    1  A    between atoms: C_9  and  C_10
REMARK    2  A    between atoms: C_17  and  C_18
REMARK                            x       y       z     vdW  Elec       q    Type
REMARK                         _______ _______ _______ _____ _____    ______ ____
ROOT
ATOM      1  O   UNL     1       0.128   2.052   0.000  0.00  0.00    +0.000 OA
ATOM      2  N   UNL     1       0.383   1.268   0.000  0.00  0.00    +0.000 N 
ATOM      3  C   UNL     1       1.168   1.012   0.000  0.00  0.00    +0.000 A 
ATOM      4  C   UNL     1       1.882   1.425   0.000  0.00  0.00    +0.000 A 
ATOM      5  C   UNL     1       2.597   1.012   0.000  0.00  0.00    +0.000 A 
ATOM      6  C   UNL     1       2.597   0.188   0.000  0.00  0.00    +0.000 A 
ATOM      7  N   UNL     1       1.882  -0.225   0.000  0.00  0.00    +0.000 NA
ATOM      8  C   UNL     1       1.168   0.188   0.000  0.00  0.00    +0.000 A 
ATOM      9  C   UNL     1       0.383  -0.067   0.000  0.00  0.00    +0.000 A 
ATOM     10  C   UNL     1      -0.102   0.600   0.000  0.00  0.00    +0.000 A 
ENDROOT
BRANCH   9  11
ATOM     11  C   UNL     1       0.128  -0.852   0.000  0.00  0.00    +0.000 A 
ATOM     12  C   UNL     1       0.680  -1.465   0.000  0.00  0.00    +0.000 A 
ATOM     13  C   UNL     1       0.425  -2.250   0.000  0.00  0.00    +0.000 A 
ATOM     14  C   UNL     1      -0.382  -2.421   0.000  0.00  0.00    +0.000 A 
ATOM     15  F   UNL     1      -0.637  -3.206   0.000  0.00  0.00    +0.000 F 
ATOM     16  C   UNL     1      -0.934  -1.808   0.000  0.00  0.00    +0.000 A 
ATOM     17  C   UNL     1      -0.679  -1.024   0.000  0.00  0.00    +0.000 A 
ENDBRANCH   9  11
BRANCH  10  18
ATOM     18  C   UNL     1      -0.927   0.600   0.000  0.00  0.00    +0.000 A 
ATOM     19  C   UNL     1      -1.339  -0.114   0.000  0.00  0.00    +0.000 A 
ATOM     20  C   UNL     1      -2.164  -0.114   0.000  0.00  0.00    +0.000 A 
ATOM     21  N   UNL     1      -2.577   0.600   0.000  0.00  0.00    +0.000 NA
ATOM     22  C   UNL     1      -2.164   1.315   0.000  0.00  0.00    +0.000 A 
ATOM     23  C   UNL     1      -1.339   1.315   0.000  0.00  0.00    +0.000 A 
ENDBRANCH  10  18
TORSDOF 2
