REMARK  Name = FPT
REMARK  8 active torsions:
REMARK  status: ('A' for Active; 'I' for Inactive)
REMARK    1  A    between atoms: C_4  and  C_7
REMARK    2  A    between atoms: N_9  and  C_10
REMARK    3  A    between atoms: C_10  and  N_12
REMARK    4  A    between atoms: N_12  and  C_13
REMARK    5  A    between atoms: C_13  and  C_14
REMARK    6  A    between atoms: C_14  and  C_15
REMARK    7  A    between atoms: C_19  and  O_21
REMARK    8  A    between atoms: O_21  and  C_22
REMARK                            x       y       z     vdW  Elec       q    Type
REMARK                         _______ _______ _______ _____ _____    ______ ____
ROOT
ATOM      1  N   UNL     1      -0.806  -0.354   0.000  0.00  0.00    +0.000 NA
ENDROOT
BRANCH   1   2
ATOM      2  C   UNL     1      -1.520   0.058   0.000  0.00  0.00    +0.000 C 
ATOM      3  S   UNL     1      -1.520   0.883   0.000  0.00  0.00    +0.000 S 
BRANCH   2  10
ATOM      4  C   UNL     1      -2.949   0.058   0.000  0.00  0.00    +0.000 A 
ATOM      5  N   UNL     1      -3.663  -0.354   0.000  0.00  0.00    +0.000 NA
ATOM      6  C   UNL     1      -4.378   0.058   0.000  0.00  0.00    +0.000 A 
ATOM      7  C   UNL     1      -4.378   0.883   0.000  0.00  0.00    +0.000 A 
ATOM      8  C   UNL     1      -3.663   1.296   0.000  0.00  0.00    +0.000 A 
ATOM      9  C   UNL     1      -2.949   0.883   0.000  0.00  0.00    +0.000 A 
ATOM     10  N   UNL     1      -2.235  -0.354   0.000  0.00  0.00    +0.000 NA
BRANCH   7  11
ATOM     11  C   UNL     1      -5.093   1.296   0.000  0.00  0.00    +0.000 C 
ATOM     12  N   UNL     1      -5.807   1.708   0.000  0.00  0.00    +0.000 NA
ENDBRANCH   7  11
ENDBRANCH   2  10
ENDBRANCH   1   2
BRANCH   1  13
ATOM     13  C   UNL     1      -0.091   0.058   0.000  0.00  0.00    +0.000 C 
BRANCH  13  14
ATOM     14  C   UNL     1       0.623  -0.354   0.000  0.00  0.00    +0.000 C 
BRANCH  14  15
ATOM     15  C   UNL     1       1.338   0.058   0.000  0.00  0.00    +0.000 A 
ATOM     16  N   UNL     1       1.338   0.883   0.000  0.00  0.00    +0.000 NA
ATOM     17  C   UNL     1       2.052   1.296   0.000  0.00  0.00    +0.000 A 
ATOM     18  C   UNL     1       2.767   0.883   0.000  0.00  0.00    +0.000 A 
ATOM     19  C   UNL     1       2.767   0.058   0.000  0.00  0.00    +0.000 A 
ATOM     20  C   UNL     1       2.052  -0.354   0.000  0.00  0.00    +0.000 A 
ATOM     21  F   UNL     1       2.052  -1.179   0.000  0.00  0.00    +0.000 F 
BRANCH  19  22
ATOM     22  O   UNL     1       3.481  -0.354   0.000  0.00  0.00    +0.000 OA
BRANCH  22  23
ATOM     23  C   UNL     1       3.481  -1.179   0.000  0.00  0.00    +0.000 C 
ATOM     24  C   UNL     1       4.196  -1.592   0.000  0.00  0.00    +0.000 C 
ENDBRANCH  22  23
ENDBRANCH  19  22
ENDBRANCH  14  15
ENDBRANCH  13  14
ENDBRANCH   1  13
TORSDOF 8
