REMARK  Name = FQP
REMARK  6 active torsions:
REMARK  status: ('A' for Active; 'I' for Inactive)
REMARK    1  A    between atoms: C_2  and  C_3
REMARK    2  A    between atoms: C_7  and  C_9
REMARK    3  A    between atoms: C_9  and  O_12
REMARK    4  A    between atoms: P_11  and  O_12
REMARK    5  A    between atoms: P_11  and  O_14
REMARK    6  A    between atoms: O_14  and  P_15
REMARK                            x       y       z     vdW  Elec       q    Type
REMARK                         _______ _______ _______ _____ _____    ______ ____
ROOT
ATOM      1  N   UNL     1      -1.326  -1.273   0.000  0.00  0.00    +0.000 NA
ATOM      2  C   UNL     1      -2.041  -0.860   0.000  0.00  0.00    +0.000 A 
ATOM      3  N   UNL     1      -2.041  -0.035   0.000  0.00  0.00    +0.000 NA
ATOM      4  C   UNL     1      -1.326   0.377   0.000  0.00  0.00    +0.000 A 
ATOM      5  N   UNL     1      -1.326   1.202   0.000  0.00  0.00    +0.000 NA
ATOM      6  C   UNL     1      -0.612  -0.035   0.000  0.00  0.00    +0.000 A 
ATOM      7  C   UNL     1      -0.612  -0.860   0.000  0.00  0.00    +0.000 A 
ENDROOT
BRANCH   2   8
ATOM      8  C   UNL     1      -2.755  -1.273   0.000  0.00  0.00    +0.000 C 
ATOM      9  F   UNL     1      -3.470  -1.685   0.000  0.00  0.00    +0.000 F 
ATOM     10  F   UNL     1      -3.167  -0.558   0.000  0.00  0.00    +0.000 F 
ATOM     11  F   UNL     1      -2.342  -1.987   0.000  0.00  0.00    +0.000 F 
ENDBRANCH   2   8
BRANCH   6  12
ATOM     12  C   UNL     1       0.103   0.377   0.000  0.00  0.00    +0.000 C 
BRANCH  12  13
ATOM     13  O   UNL     1       0.817  -0.035   0.000  0.00  0.00    +0.000 OA
BRANCH  13  15
ATOM     14  O   UNL     1       1.119   1.092   0.000  0.00  0.00    +0.000 OA
ATOM     15  P   UNL     1       1.532   0.377   0.000  0.00  0.00    +0.000 P 
ATOM     16  O   UNL     1       1.944  -0.337   0.000  0.00  0.00    +0.000 OA
BRANCH  15  17
ATOM     17  O   UNL     1       2.246   0.790   0.000  0.00  0.00    +0.000 OA
BRANCH  17  18
ATOM     18  P   UNL     1       2.961   0.377   0.000  0.00  0.00    +0.000 P 
ATOM     19  O   UNL     1       3.675  -0.035   0.000  0.00  0.00    +0.000 OA
ATOM     20  O   UNL     1       3.373   1.092   0.000  0.00  0.00    +0.000 OA
ATOM     21  O   UNL     1       2.548  -0.337   0.000  0.00  0.00    +0.000 OA
ENDBRANCH  17  18
ENDBRANCH  15  17
ENDBRANCH  13  15
ENDBRANCH  12  13
ENDBRANCH   6  12
TORSDOF 6
