REMARK  Name = FR0
REMARK  4 active torsions:
REMARK  status: ('A' for Active; 'I' for Inactive)
REMARK    1  A    between atoms: N_10  and  C_11
REMARK    2  A    between atoms: C_11  and  C_12
REMARK    3  A    between atoms: C_14  and  C_17
REMARK    4  A    between atoms: C_19  and  N_22
REMARK                            x       y       z     vdW  Elec       q    Type
REMARK                         _______ _______ _______ _____ _____    ______ ____
ROOT
ATOM      1  C   UNL     1      -0.318   0.360   0.000  0.00  0.00    +0.000 A 
ATOM      2  S   UNL     1      -0.803  -0.307   0.000  0.00  0.00    +0.000 S 
ATOM      3  C   UNL     1      -1.588  -0.053   0.000  0.00  0.00    +0.000 A 
ATOM      4  C   UNL     1      -1.588   0.772   0.000  0.00  0.00    +0.000 A 
ATOM      5  C   UNL     1      -0.803   1.027   0.000  0.00  0.00    +0.000 A 
ENDROOT
BRANCH   3   6
ATOM      6  C   UNL     1      -2.255  -0.537   0.000  0.00  0.00    +0.000 A 
ATOM      7  N   UNL     1      -2.255  -1.363   0.000  0.00  0.00    +0.000 NA
ATOM      8  C   UNL     1      -3.040  -1.617   0.000  0.00  0.00    +0.000 A 
ATOM      9  S   UNL     1      -3.525  -0.950   0.000  0.00  0.00    +0.000 S 
ATOM     10  C   UNL     1      -3.040  -0.283   0.000  0.00  0.00    +0.000 A 
BRANCH   8  11
ATOM     11  N   UNL     1      -3.295  -2.402   0.000  0.00  0.00    +0.000 NA
ATOM     12  C   UNL     1      -4.102  -2.574   0.000  0.00  0.00    +0.000 C 
ATOM     13  N   UNL     1      -4.357  -3.358   0.000  0.00  0.00    +0.000 NA
ATOM     14  N   UNL     1      -4.654  -1.960   0.000  0.00  0.00    +0.000 NA
ENDBRANCH   8  11
ENDBRANCH   3   6
BRANCH   1  15
ATOM     15  C   UNL     1       0.507   0.360   0.000  0.00  0.00    +0.000 C 
BRANCH  15  25
ATOM     16  N   UNL     1       2.229   0.407   0.000  0.00  0.00    +0.000 NA
ATOM     17  C   UNL     1       3.014   0.662   0.000  0.00  0.00    +0.000 A 
ATOM     18  C   UNL     1       3.014   1.487   0.000  0.00  0.00    +0.000 A 
ATOM     19  N   UNL     1       2.229   1.742   0.000  0.00  0.00    +0.000 NA
ATOM     20  C   UNL     1       1.744   1.074   0.000  0.00  0.00    +0.000 A 
ATOM     21  C   UNL     1       3.728   0.249   0.000  0.00  0.00    +0.000 A 
ATOM     22  C   UNL     1       4.443   0.662   0.000  0.00  0.00    +0.000 A 
ATOM     23  C   UNL     1       4.443   1.487   0.000  0.00  0.00    +0.000 A 
ATOM     24  C   UNL     1       3.728   1.899   0.000  0.00  0.00    +0.000 A 
ATOM     25  N   UNL     1       0.919   1.074   0.000  0.00  0.00    +0.000 NA
ENDBRANCH  15  25
ENDBRANCH   1  15
TORSDOF 4
