REMARK  Name = FR2
REMARK  6 active torsions:
REMARK  status: ('A' for Active; 'I' for Inactive)
REMARK    1  A    between atoms: N_2  and  C_9
REMARK    2  A    between atoms: C_5  and  C_6
REMARK    3  A    between atoms: C_9  and  C_10
REMARK    4  A    between atoms: C_9  and  C_12
REMARK    5  A    between atoms: C_12  and  C_13
REMARK    6  A    between atoms: C_13  and  C_14
REMARK                            x       y       z     vdW  Elec       q    Type
REMARK                         _______ _______ _______ _____ _____    ______ ____
ROOT
ATOM      1  C   UNL     1      -0.362   0.348   0.000  0.00  0.00    +0.000 C 
ENDROOT
BRANCH   1   3
ATOM      2  C   UNL     1      -1.830   0.271   0.000  0.00  0.00    +0.000 A 
ATOM      3  N   UNL     1      -1.076  -0.065   0.000  0.00  0.00    +0.000 N 
ATOM      4  C   UNL     1      -1.162  -0.885   0.000  0.00  0.00    +0.000 A 
ATOM      5  N   UNL     1      -1.969  -1.057   0.000  0.00  0.00    +0.000 NA
ATOM      6  C   UNL     1      -2.382  -0.342   0.000  0.00  0.00    +0.000 A 
BRANCH   6   7
ATOM      7  C   UNL     1      -3.202  -0.256   0.000  0.00  0.00    +0.000 C 
ATOM      8  O   UNL     1      -3.687  -0.923   0.000  0.00  0.00    +0.000 OA
ATOM      9  N   UNL     1      -3.538   0.498   0.000  0.00  0.00    +0.000 NA
ENDBRANCH   6   7
ENDBRANCH   1   3
BRANCH   1  10
ATOM     10  C   UNL     1      -0.362   1.173   0.000  0.00  0.00    +0.000 C 
ATOM     11  O   UNL     1       0.353   1.585   0.000  0.00  0.00    +0.000 OA
ENDBRANCH   1  10
BRANCH   1  12
ATOM     12  C   UNL     1       0.353  -0.065   0.000  0.00  0.00    +0.000 C 
BRANCH  12  13
ATOM     13  C   UNL     1       1.067   0.348   0.000  0.00  0.00    +0.000 C 
BRANCH  13  14
ATOM     14  C   UNL     1       1.782  -0.065   0.000  0.00  0.00    +0.000 A 
ATOM     15  C   UNL     1       2.496   0.348   0.000  0.00  0.00    +0.000 A 
ATOM     16  C   UNL     1       3.211  -0.065   0.000  0.00  0.00    +0.000 A 
ATOM     17  C   UNL     1       3.211  -0.890   0.000  0.00  0.00    +0.000 A 
ATOM     18  C   UNL     1       2.496  -1.302   0.000  0.00  0.00    +0.000 A 
ATOM     19  C   UNL     1       1.782  -0.890   0.000  0.00  0.00    +0.000 A 
ENDBRANCH  13  14
ENDBRANCH  12  13
ENDBRANCH   1  12
TORSDOF 6
