REMARK  Name = FR3
REMARK  6 active torsions:
REMARK  status: ('A' for Active; 'I' for Inactive)
REMARK    1  A    between atoms: N_2  and  C_9
REMARK    2  A    between atoms: C_5  and  C_6
REMARK    3  A    between atoms: C_9  and  C_10
REMARK    4  A    between atoms: C_9  and  C_12
REMARK    5  A    between atoms: C_12  and  C_13
REMARK    6  A    between atoms: C_13  and  C_14
REMARK                            x       y       z     vdW  Elec       q    Type
REMARK                         _______ _______ _______ _____ _____    ______ ____
ROOT
ATOM      1  C   UNL     1      -0.178  -0.229   0.000  0.00  0.00    +0.000 C 
ENDROOT
BRANCH   1   2
ATOM      2  C   UNL     1      -0.893   0.183   0.000  0.00  0.00    +0.000 C 
BRANCH   2   4
ATOM      3  C   UNL     1      -2.361   0.106   0.000  0.00  0.00    +0.000 A 
ATOM      4  N   UNL     1      -1.607  -0.229   0.000  0.00  0.00    +0.000 N 
ATOM      5  C   UNL     1      -1.694  -1.050   0.000  0.00  0.00    +0.000 A 
ATOM      6  N   UNL     1      -2.501  -1.221   0.000  0.00  0.00    +0.000 NA
ATOM      7  C   UNL     1      -2.913  -0.507   0.000  0.00  0.00    +0.000 A 
BRANCH   7   8
ATOM      8  C   UNL     1      -3.734  -0.420   0.000  0.00  0.00    +0.000 C 
ATOM      9  O   UNL     1      -4.218  -1.088   0.000  0.00  0.00    +0.000 OA
ATOM     10  N   UNL     1      -4.069   0.333   0.000  0.00  0.00    +0.000 NA
ENDBRANCH   7   8
ENDBRANCH   2   4
BRANCH   2  11
ATOM     11  C   UNL     1      -0.893   1.008   0.000  0.00  0.00    +0.000 C 
ATOM     12  O   UNL     1      -0.178   1.421   0.000  0.00  0.00    +0.000 OA
ENDBRANCH   2  11
ENDBRANCH   1   2
BRANCH   1  13
ATOM     13  C   UNL     1       0.536   0.183   0.000  0.00  0.00    +0.000 C 
BRANCH  13  14
ATOM     14  C   UNL     1       1.250  -0.229   0.000  0.00  0.00    +0.000 A 
ATOM     15  C   UNL     1       1.250  -1.054   0.000  0.00  0.00    +0.000 A 
ATOM     16  C   UNL     1       1.965  -1.467   0.000  0.00  0.00    +0.000 A 
ATOM     17  C   UNL     1       2.679  -1.054   0.000  0.00  0.00    +0.000 A 
ATOM     18  C   UNL     1       2.679  -0.229   0.000  0.00  0.00    +0.000 A 
ATOM     19  C   UNL     1       1.965   0.183   0.000  0.00  0.00    +0.000 A 
ATOM     20  C   UNL     1       3.394   0.183   0.000  0.00  0.00    +0.000 A 
ATOM     21  C   UNL     1       1.965   1.008   0.000  0.00  0.00    +0.000 A 
ATOM     22  C   UNL     1       3.394   1.008   0.000  0.00  0.00    +0.000 A 
ATOM     23  C   UNL     1       2.679   1.421   0.000  0.00  0.00    +0.000 A 
ENDBRANCH  13  14
ENDBRANCH   1  13
TORSDOF 6
