REMARK  Name = FR4
REMARK  10 active torsions:
REMARK  status: ('A' for Active; 'I' for Inactive)
REMARK    1  A    between atoms: N_2  and  C_9
REMARK    2  A    between atoms: C_5  and  C_6
REMARK    3  A    between atoms: C_9  and  C_10
REMARK    4  A    between atoms: C_9  and  C_12
REMARK    5  A    between atoms: C_12  and  C_13
REMARK    6  A    between atoms: C_13  and  N_14
REMARK    7  A    between atoms: C_21  and  N_23
REMARK    8  A    between atoms: C_24  and  C_26
REMARK    9  A    between atoms: C_26  and  C_27
REMARK   10  A    between atoms: C_27  and  C_29
REMARK                            x       y       z     vdW  Elec       q    Type
REMARK                         _______ _______ _______ _____ _____    ______ ____
ROOT
ATOM      1  N   UNL     1      -0.918  -1.456   0.000  0.00  0.00    +0.000 N 
ATOM      2  C   UNL     1      -1.403  -2.124   0.000  0.00  0.00    +0.000 A 
ATOM      3  C   UNL     1      -0.918  -2.791   0.000  0.00  0.00    +0.000 A 
ATOM      4  C   UNL     1      -0.133  -2.536   0.000  0.00  0.00    +0.000 A 
ATOM      5  C   UNL     1      -0.133  -1.711   0.000  0.00  0.00    +0.000 A 
ATOM      6  C   UNL     1       0.581  -2.949   0.000  0.00  0.00    +0.000 A 
ATOM      7  C   UNL     1       1.296  -2.536   0.000  0.00  0.00    +0.000 A 
ATOM      8  C   UNL     1       1.296  -1.711   0.000  0.00  0.00    +0.000 A 
ATOM      9  C   UNL     1       0.581  -1.299   0.000  0.00  0.00    +0.000 A 
ENDROOT
BRANCH   8  10
ATOM     10  N   UNL     1       2.010  -1.299   0.000  0.00  0.00    +0.000 NA
ATOM     11  C   UNL     1       2.010  -0.474   0.000  0.00  0.00    +0.000 C 
ATOM     12  O   UNL     1       1.296  -0.061   0.000  0.00  0.00    +0.000 OA
BRANCH  11  13
ATOM     13  C   UNL     1       2.725  -0.061   0.000  0.00  0.00    +0.000 C 
BRANCH  13  14
ATOM     14  C   UNL     1       2.725   0.764   0.000  0.00  0.00    +0.000 C 
BRANCH  14  16
ATOM     15  C   UNL     1       4.154   0.764   0.000  0.00  0.00    +0.000 A 
ATOM     16  C   UNL     1       3.439   1.176   0.000  0.00  0.00    +0.000 A 
ATOM     17  C   UNL     1       3.439   2.001   0.000  0.00  0.00    +0.000 A 
ATOM     18  C   UNL     1       4.154   2.414   0.000  0.00  0.00    +0.000 A 
ATOM     19  C   UNL     1       4.868   2.001   0.000  0.00  0.00    +0.000 A 
ATOM     20  C   UNL     1       4.868   1.176   0.000  0.00  0.00    +0.000 A 
ENDBRANCH  14  16
ENDBRANCH  13  14
ENDBRANCH  11  13
ENDBRANCH   8  10
BRANCH   1  21
ATOM     21  C   UNL     1      -1.173  -0.672   0.000  0.00  0.00    +0.000 C 
BRANCH  21  22
ATOM     22  C   UNL     1      -1.980  -0.500   0.000  0.00  0.00    +0.000 C 
BRANCH  22  23
ATOM     23  C   UNL     1      -2.235   0.284   0.000  0.00  0.00    +0.000 C 
BRANCH  23  25
ATOM     24  C   UNL     1      -3.377   1.210   0.000  0.00  0.00    +0.000 A 
ATOM     25  N   UNL     1      -3.042   0.456   0.000  0.00  0.00    +0.000 N 
ATOM     26  C   UNL     1      -3.655  -0.096   0.000  0.00  0.00    +0.000 A 
ATOM     27  N   UNL     1      -4.369   0.316   0.000  0.00  0.00    +0.000 NA
ATOM     28  C   UNL     1      -4.198   1.123   0.000  0.00  0.00    +0.000 A 
BRANCH  28  29
ATOM     29  C   UNL     1      -4.750   1.736   0.000  0.00  0.00    +0.000 C 
ATOM     30  O   UNL     1      -5.557   1.565   0.000  0.00  0.00    +0.000 OA
ATOM     31  N   UNL     1      -4.495   2.521   0.000  0.00  0.00    +0.000 NA
ENDBRANCH  28  29
ENDBRANCH  23  25
BRANCH  23  32
ATOM     32  C   UNL     1      -1.683   0.897   0.000  0.00  0.00    +0.000 C 
ATOM     33  O   UNL     1      -0.876   0.726   0.000  0.00  0.00    +0.000 OA
ENDBRANCH  23  32
ENDBRANCH  22  23
ENDBRANCH  21  22
ENDBRANCH   1  21
TORSDOF 10
