REMARK  Name = FR7
REMARK  6 active torsions:
REMARK  status: ('A' for Active; 'I' for Inactive)
REMARK    1  A    between atoms: N_2  and  C_9
REMARK    2  A    between atoms: C_5  and  C_6
REMARK    3  A    between atoms: C_9  and  C_10
REMARK    4  A    between atoms: C_9  and  C_12
REMARK    5  A    between atoms: C_12  and  C_13
REMARK    6  A    between atoms: C_13  and  C_14
REMARK                            x       y       z     vdW  Elec       q    Type
REMARK                         _______ _______ _______ _____ _____    ______ ____
ROOT
ATOM      1  C   UNL     1       0.049   0.248   0.000  0.00  0.00    +0.000 C 
ENDROOT
BRANCH   1   3
ATOM      2  C   UNL     1      -1.419   0.171   0.000  0.00  0.00    +0.000 A 
ATOM      3  N   UNL     1      -0.665  -0.165   0.000  0.00  0.00    +0.000 N 
ATOM      4  C   UNL     1      -0.752  -0.985   0.000  0.00  0.00    +0.000 A 
ATOM      5  N   UNL     1      -1.559  -1.157   0.000  0.00  0.00    +0.000 NA
ATOM      6  C   UNL     1      -1.971  -0.442   0.000  0.00  0.00    +0.000 A 
BRANCH   6   7
ATOM      7  C   UNL     1      -2.792  -0.356   0.000  0.00  0.00    +0.000 C 
ATOM      8  O   UNL     1      -3.276  -1.024   0.000  0.00  0.00    +0.000 OA
ATOM      9  N   UNL     1      -3.127   0.398   0.000  0.00  0.00    +0.000 NA
ENDBRANCH   6   7
ENDBRANCH   1   3
BRANCH   1  10
ATOM     10  C   UNL     1       0.049   1.073   0.000  0.00  0.00    +0.000 C 
ATOM     11  O   UNL     1      -0.665   1.485   0.000  0.00  0.00    +0.000 OA
ATOM     12  C   UNL     1       0.764   1.485   0.000  0.00  0.00    +0.000 C 
ENDBRANCH   1  10
BRANCH   1  13
ATOM     13  C   UNL     1       0.764  -0.165   0.000  0.00  0.00    +0.000 C 
BRANCH  13  14
ATOM     14  C   UNL     1       1.478   0.248   0.000  0.00  0.00    +0.000 C 
BRANCH  14  15
ATOM     15  C   UNL     1       2.192  -0.165   0.000  0.00  0.00    +0.000 A 
ATOM     16  C   UNL     1       2.907   0.248   0.000  0.00  0.00    +0.000 A 
ATOM     17  C   UNL     1       3.622  -0.165   0.000  0.00  0.00    +0.000 A 
ATOM     18  C   UNL     1       3.622  -0.990   0.000  0.00  0.00    +0.000 A 
ATOM     19  C   UNL     1       2.907  -1.402   0.000  0.00  0.00    +0.000 A 
ATOM     20  C   UNL     1       2.192  -0.990   0.000  0.00  0.00    +0.000 A 
ATOM     21 CL   UNL     1       2.907  -2.227   0.000  0.00  0.00    +0.000 Cl
ATOM     22 CL   UNL     1       1.478  -1.402   0.000  0.00  0.00    +0.000 Cl
ENDBRANCH  14  15
ENDBRANCH  13  14
ENDBRANCH   1  13
TORSDOF 6
