REMARK  Name = FR9
REMARK  9 active torsions:
REMARK  status: ('A' for Active; 'I' for Inactive)
REMARK    1  A    between atoms: N_2  and  C_9
REMARK    2  A    between atoms: C_5  and  C_6
REMARK    3  A    between atoms: C_9  and  C_10
REMARK    4  A    between atoms: C_9  and  C_12
REMARK    5  A    between atoms: C_12  and  C_13
REMARK    6  A    between atoms: C_13  and  N_14
REMARK    7  A    between atoms: C_21  and  N_23
REMARK    8  A    between atoms: N_26  and  C_27
REMARK    9  A    between atoms: C_27  and  C_29
REMARK                            x       y       z     vdW  Elec       q    Type
REMARK                         _______ _______ _______ _____ _____    ______ ____
ROOT
ATOM      1  N   UNL     1      -0.886  -1.441   0.000  0.00  0.00    +0.000 N 
ATOM      2  C   UNL     1      -1.371  -2.108   0.000  0.00  0.00    +0.000 A 
ATOM      3  C   UNL     1      -0.886  -2.776   0.000  0.00  0.00    +0.000 A 
ATOM      4  C   UNL     1      -0.102  -2.521   0.000  0.00  0.00    +0.000 A 
ATOM      5  C   UNL     1      -0.102  -1.696   0.000  0.00  0.00    +0.000 A 
ATOM      6  C   UNL     1       0.613  -2.933   0.000  0.00  0.00    +0.000 A 
ATOM      7  C   UNL     1       1.327  -2.521   0.000  0.00  0.00    +0.000 A 
ATOM      8  C   UNL     1       1.327  -1.696   0.000  0.00  0.00    +0.000 A 
ATOM      9  C   UNL     1       0.613  -1.283   0.000  0.00  0.00    +0.000 A 
ENDROOT
BRANCH   8  10
ATOM     10  N   UNL     1       2.042  -1.283   0.000  0.00  0.00    +0.000 NA
ATOM     11  C   UNL     1       2.042  -0.458   0.000  0.00  0.00    +0.000 C 
ATOM     12  O   UNL     1       1.327  -0.046   0.000  0.00  0.00    +0.000 OA
ATOM     13  N   UNL     1       2.756  -0.046   0.000  0.00  0.00    +0.000 NA
BRANCH  13  14
ATOM     14  C   UNL     1       2.756   0.779   0.000  0.00  0.00    +0.000 C 
BRANCH  14  16
ATOM     15  C   UNL     1       4.185   0.779   0.000  0.00  0.00    +0.000 A 
ATOM     16  C   UNL     1       3.471   1.192   0.000  0.00  0.00    +0.000 A 
ATOM     17  C   UNL     1       3.471   2.017   0.000  0.00  0.00    +0.000 A 
ATOM     18  C   UNL     1       4.185   2.429   0.000  0.00  0.00    +0.000 A 
ATOM     19  C   UNL     1       4.900   2.017   0.000  0.00  0.00    +0.000 A 
ATOM     20  C   UNL     1       4.900   1.192   0.000  0.00  0.00    +0.000 A 
ENDBRANCH  14  16
ENDBRANCH  13  14
ENDBRANCH   8  10
BRANCH   1  21
ATOM     21  C   UNL     1      -1.141  -0.656   0.000  0.00  0.00    +0.000 C 
BRANCH  21  22
ATOM     22  C   UNL     1      -1.948  -0.485   0.000  0.00  0.00    +0.000 C 
BRANCH  22  23
ATOM     23  C   UNL     1      -2.203   0.300   0.000  0.00  0.00    +0.000 C 
BRANCH  23  25
ATOM     24  C   UNL     1      -3.346   1.225   0.000  0.00  0.00    +0.000 A 
ATOM     25  N   UNL     1      -3.010   0.471   0.000  0.00  0.00    +0.000 N 
ATOM     26  C   UNL     1      -3.623  -0.081   0.000  0.00  0.00    +0.000 A 
ATOM     27  N   UNL     1      -4.338   0.332   0.000  0.00  0.00    +0.000 NA
ATOM     28  C   UNL     1      -4.166   1.139   0.000  0.00  0.00    +0.000 A 
BRANCH  28  29
ATOM     29  C   UNL     1      -4.718   1.752   0.000  0.00  0.00    +0.000 C 
ATOM     30  O   UNL     1      -5.525   1.580   0.000  0.00  0.00    +0.000 OA
ATOM     31  N   UNL     1      -4.463   2.537   0.000  0.00  0.00    +0.000 NA
ENDBRANCH  28  29
ENDBRANCH  23  25
BRANCH  23  32
ATOM     32  C   UNL     1      -1.651   0.913   0.000  0.00  0.00    +0.000 C 
ATOM     33  O   UNL     1      -0.844   0.741   0.000  0.00  0.00    +0.000 OA
ENDBRANCH  23  32
ENDBRANCH  22  23
ENDBRANCH  21  22
ENDBRANCH   1  21
TORSDOF 9
