REMARK  Name = FRA
REMARK  6 active torsions:
REMARK  status: ('A' for Active; 'I' for Inactive)
REMARK    1  A    between atoms: N_4  and  C_5
REMARK    2  A    between atoms: C_8  and  N_11
REMARK    3  A    between atoms: C_23  and  N_24
REMARK    4  A    between atoms: C_25  and  O_27
REMARK    5  A    between atoms: O_27  and  C_28
REMARK    6  A    between atoms: C_28  and  C_29
REMARK                            x       y       z     vdW  Elec       q    Type
REMARK                         _______ _______ _______ _____ _____    ______ ____
ROOT
ATOM      1  N   UNL     1       0.034   0.112   0.000  0.00  0.00    +0.000 N 
ATOM      2  C   UNL     1      -0.310  -0.638   0.000  0.00  0.00    +0.000 C 
ATOM      3  C   UNL     1      -1.047  -0.460   0.000  0.00  0.00    +0.000 C 
ATOM      4  C   UNL     1      -1.292   0.267   0.000  0.00  0.00    +0.000 C 
ATOM      5  C   UNL     1      -0.572   0.671   0.000  0.00  0.00    +0.000 C 
ATOM      6  O   UNL     1       0.266  -1.295   0.000  0.00  0.00    +0.000 OA
ATOM      7  O   UNL     1      -0.476   1.542   0.000  0.00  0.00    +0.000 OA
ATOM      8  C   UNL     1      -1.713  -0.030   0.000  0.00  0.00    +0.000 C 
ATOM      9  C   UNL     1      -2.718  -0.554   0.000  0.00  0.00    +0.000 C 
ATOM     10  C   UNL     1      -2.825   0.201   0.000  0.00  0.00    +0.000 C 
ATOM     11  C   UNL     1      -1.983   1.449   0.000  0.00  0.00    +0.000 C 
ATOM     12  C   UNL     1      -1.739   0.844   0.000  0.00  0.00    +0.000 C 
ATOM     13  C   UNL     1      -2.021   0.553   0.000  0.00  0.00    +0.000 C 
ENDROOT
BRANCH   1  17
ATOM     14  C   UNL     1       2.461   0.597   0.000  0.00  0.00    +0.000 A 
ATOM     15  C   UNL     1       2.197  -0.185   0.000  0.00  0.00    +0.000 A 
ATOM     16  C   UNL     1       1.388  -0.346   0.000  0.00  0.00    +0.000 A 
ATOM     17  C   UNL     1       0.843   0.273   0.000  0.00  0.00    +0.000 A 
ATOM     18  C   UNL     1       1.107   1.055   0.000  0.00  0.00    +0.000 A 
ATOM     19  C   UNL     1       1.917   1.217   0.000  0.00  0.00    +0.000 A 
BRANCH  14  23
ATOM     20  C   UNL     1       4.343   1.702   0.000  0.00  0.00    +0.000 C 
ATOM     21  C   UNL     1       3.534   1.540   0.000  0.00  0.00    +0.000 C 
ATOM     22  O   UNL     1       2.990   2.160   0.000  0.00  0.00    +0.000 OA
ATOM     23  N   UNL     1       3.270   0.759   0.000  0.00  0.00    +0.000 NA
ENDBRANCH  14  23
ENDBRANCH   1  17
BRANCH  13  24
ATOM     24  N   UNL     1      -2.133  -0.386   0.000  0.00  0.00    +0.000 NA
ATOM     25  C   UNL     1      -2.011  -1.283   0.000  0.00  0.00    +0.000 C 
ATOM     26  O   UNL     1      -1.510  -0.627   0.000  0.00  0.00    +0.000 OA
BRANCH  25  27
ATOM     27  O   UNL     1      -1.678  -2.082   0.000  0.00  0.00    +0.000 OA
BRANCH  27  28
ATOM     28  C   UNL     1      -0.923  -2.535   0.000  0.00  0.00    +0.000 C 
BRANCH  28  29
ATOM     29  C   UNL     1      -0.405  -3.186   0.000  0.00  0.00    +0.000 C 
ATOM     30  O   UNL     1       0.410  -3.063   0.000  0.00  0.00    +0.000 OA
ATOM     31  O   UNL     1      -0.708  -3.953   0.000  0.00  0.00    +0.000 OA
ENDBRANCH  28  29
ENDBRANCH  27  28
ENDBRANCH  25  27
ENDBRANCH  13  24
TORSDOF 6
