REMARK  Name = FRC
REMARK  7 active torsions:
REMARK  status: ('A' for Active; 'I' for Inactive)
REMARK    1  A    between atoms: N_2  and  C_9
REMARK    2  A    between atoms: C_5  and  C_6
REMARK    3  A    between atoms: C_9  and  C_10
REMARK    4  A    between atoms: C_9  and  C_12
REMARK    5  A    between atoms: C_12  and  C_13
REMARK    6  A    between atoms: C_13  and  O_15
REMARK    7  A    between atoms: O_15  and  C_24
REMARK                            x       y       z     vdW  Elec       q    Type
REMARK                         _______ _______ _______ _____ _____    ______ ____
ROOT
ATOM      1  C   UNL     1      -0.130   0.695   0.000  0.00  0.00    +0.000 C 
ENDROOT
BRANCH   1   2
ATOM      2  C   UNL     1      -0.955   0.695   0.000  0.00  0.00    +0.000 C 
BRANCH   2   4
ATOM      3  C   UNL     1      -1.032   2.163   0.000  0.00  0.00    +0.000 A 
ATOM      4  N   UNL     1      -1.367   1.409   0.000  0.00  0.00    +0.000 N 
ATOM      5  C   UNL     1      -2.188   1.496   0.000  0.00  0.00    +0.000 A 
ATOM      6  N   UNL     1      -2.359   2.303   0.000  0.00  0.00    +0.000 NA
ATOM      7  C   UNL     1      -1.645   2.715   0.000  0.00  0.00    +0.000 A 
BRANCH   7   8
ATOM      8  C   UNL     1      -1.559   3.536   0.000  0.00  0.00    +0.000 C 
ATOM      9  O   UNL     1      -2.226   4.021   0.000  0.00  0.00    +0.000 OA
ATOM     10  N   UNL     1      -0.805   3.871   0.000  0.00  0.00    +0.000 NA
ENDBRANCH   7   8
ENDBRANCH   2   4
BRANCH   2  11
ATOM     11  C   UNL     1      -1.367  -0.019   0.000  0.00  0.00    +0.000 C 
ATOM     12  O   UNL     1      -0.955  -0.734   0.000  0.00  0.00    +0.000 OA
ATOM     13  C   UNL     1      -2.192  -0.019   0.000  0.00  0.00    +0.000 C 
ENDBRANCH   2  11
ENDBRANCH   1   2
BRANCH   1  14
ATOM     14  C   UNL     1       0.283  -0.019   0.000  0.00  0.00    +0.000 C 
BRANCH  14  15
ATOM     15  O   UNL     1       1.108  -0.019   0.000  0.00  0.00    +0.000 OA
BRANCH  15  24
ATOM     16  C   UNL     1       2.345  -3.592   0.000  0.00  0.00    +0.000 A 
ATOM     17  C   UNL     1       2.758  -2.877   0.000  0.00  0.00    +0.000 A 
ATOM     18  C   UNL     1       2.345  -2.163   0.000  0.00  0.00    +0.000 A 
ATOM     19  C   UNL     1       1.520  -2.163   0.000  0.00  0.00    +0.000 A 
ATOM     20  C   UNL     1       1.108  -2.877   0.000  0.00  0.00    +0.000 A 
ATOM     21  C   UNL     1       1.520  -3.592   0.000  0.00  0.00    +0.000 A 
ATOM     22  C   UNL     1       2.758  -1.448   0.000  0.00  0.00    +0.000 A 
ATOM     23  C   UNL     1       2.345  -0.734   0.000  0.00  0.00    +0.000 A 
ATOM     24  C   UNL     1       1.520  -0.734   0.000  0.00  0.00    +0.000 A 
ATOM     25  C   UNL     1       1.108  -1.448   0.000  0.00  0.00    +0.000 A 
ENDBRANCH  15  24
ENDBRANCH  14  15
ENDBRANCH   1  14
TORSDOF 7
