REMARK  Name = FRL
REMARK  7 active torsions:
REMARK  status: ('A' for Active; 'I' for Inactive)
REMARK    1  A    between atoms: C_3  and  C_8
REMARK    2  A    between atoms: C_16  and  C_17
REMARK    3  A    between atoms: C_17  and  C_18
REMARK    4  A    between atoms: C_18  and  C_19
REMARK    5  A    between atoms: C_19  and  C_20
REMARK    6  A    between atoms: C_19  and  N_22
REMARK    7  A    between atoms: C_26  and  C_28
REMARK                            x       y       z     vdW  Elec       q    Type
REMARK                         _______ _______ _______ _____ _____    ______ ____
ROOT
ATOM      1  C   UNL     1      -0.298  -1.870   0.000  0.00  0.00    +0.000 A 
ATOM      2  N   UNL     1       0.186  -2.538   0.000  0.00  0.00    +0.000 NA
ATOM      3  C   UNL     1       0.971  -2.283   0.000  0.00  0.00    +0.000 A 
ATOM      4  C   UNL     1       0.971  -1.458   0.000  0.00  0.00    +0.000 A 
ATOM      5  O   UNL     1       0.186  -1.203   0.000  0.00  0.00    +0.000 OA
ATOM      6  C   UNL     1       1.685  -2.695   0.000  0.00  0.00    +0.000 A 
ATOM      7  C   UNL     1       2.400  -2.283   0.000  0.00  0.00    +0.000 A 
ATOM      8  C   UNL     1       2.400  -1.458   0.000  0.00  0.00    +0.000 A 
ATOM      9  C   UNL     1       1.685  -1.045   0.000  0.00  0.00    +0.000 A 
ENDROOT
BRANCH   1  12
ATOM     10  C   UNL     1      -2.361  -1.156   0.000  0.00  0.00    +0.000 A 
ATOM     11  C   UNL     1      -1.536  -1.156   0.000  0.00  0.00    +0.000 A 
ATOM     12  C   UNL     1      -1.123  -1.870   0.000  0.00  0.00    +0.000 A 
ATOM     13  C   UNL     1      -1.536  -2.585   0.000  0.00  0.00    +0.000 A 
ATOM     14  C   UNL     1      -2.361  -2.585   0.000  0.00  0.00    +0.000 A 
ATOM     15  C   UNL     1      -2.773  -1.870   0.000  0.00  0.00    +0.000 A 
ATOM     16 CL   UNL     1      -3.599  -1.870   0.000  0.00  0.00    +0.000 Cl
ENDBRANCH   1  12
BRANCH   9  17
ATOM     17  C   UNL     1       1.685  -0.220   0.000  0.00  0.00    +0.000 C 
BRANCH  17  18
ATOM     18  C   UNL     1       0.971   0.192   0.000  0.00  0.00    +0.000 C 
BRANCH  18  19
ATOM     19  C   UNL     1       0.971   1.017   0.000  0.00  0.00    +0.000 C 
BRANCH  19  20
ATOM     20  N   UNL     1       0.257   1.430   0.000  0.00  0.00    +0.000 N 
ATOM     21  C   UNL     1      -0.497   1.094   0.000  0.00  0.00    +0.000 A 
ATOM     22  N   UNL     1      -1.049   1.707   0.000  0.00  0.00    +0.000 NA
ATOM     23  C   UNL     1      -0.637   2.422   0.000  0.00  0.00    +0.000 A 
ATOM     24  C   UNL     1       0.170   2.250   0.000  0.00  0.00    +0.000 A 
BRANCH  23  25
ATOM     25  C   UNL     1      -0.972   3.175   0.000  0.00  0.00    +0.000 C 
ATOM     26  O   UNL     1      -1.793   3.262   0.000  0.00  0.00    +0.000 OA
ATOM     27  N   UNL     1      -0.487   3.843   0.000  0.00  0.00    +0.000 NA
ENDBRANCH  23  25
ENDBRANCH  19  20
BRANCH  19  28
ATOM     28  C   UNL     1       1.685   1.430   0.000  0.00  0.00    +0.000 C 
ATOM     29  O   UNL     1       1.685   2.255   0.000  0.00  0.00    +0.000 OA
ATOM     30  C   UNL     1       2.400   1.017   0.000  0.00  0.00    +0.000 C 
ENDBRANCH  19  28
ENDBRANCH  18  19
ENDBRANCH  17  18
ENDBRANCH   9  17
TORSDOF 7
