REMARK  Name = FRM
REMARK  5 active torsions:
REMARK  status: ('A' for Active; 'I' for Inactive)
REMARK    1  A    between atoms: C_8  and  C_12
REMARK    2  A    between atoms: C_12  and  C_13
REMARK    3  A    between atoms: C_13  and  C_14
REMARK    4  A    between atoms: C_14  and  N_15
REMARK    5  A    between atoms: C_18  and  C_21
REMARK                            x       y       z     vdW  Elec       q    Type
REMARK                         _______ _______ _______ _____ _____    ______ ____
ROOT
ATOM      1  C   UNL     1       0.442   0.908   0.000  0.00  0.00    +0.000 C 
ENDROOT
BRANCH   1   2
ATOM      2  C   UNL     1       0.442   1.733   0.000  0.00  0.00    +0.000 C 
BRANCH   2  10
ATOM      3  C   UNL     1      -3.130   2.146   0.000  0.00  0.00    +0.000 A 
ATOM      4  C   UNL     1      -2.416   1.733   0.000  0.00  0.00    +0.000 A 
ATOM      5  C   UNL     1      -1.701   2.146   0.000  0.00  0.00    +0.000 A 
ATOM      6  C   UNL     1      -1.701   2.970   0.000  0.00  0.00    +0.000 A 
ATOM      7  C   UNL     1      -2.416   3.383   0.000  0.00  0.00    +0.000 A 
ATOM      8  C   UNL     1      -3.130   2.970   0.000  0.00  0.00    +0.000 A 
ATOM      9  N   UNL     1      -0.987   1.733   0.000  0.00  0.00    +0.000 NA
ATOM     10  C   UNL     1      -0.272   2.146   0.000  0.00  0.00    +0.000 A 
ATOM     11  N   UNL     1      -0.272   2.970   0.000  0.00  0.00    +0.000 NA
ATOM     12  C   UNL     1      -0.987   3.383   0.000  0.00  0.00    +0.000 A 
ATOM     13  O   UNL     1      -0.987   4.208   0.000  0.00  0.00    +0.000 OA
ATOM     14  C   UNL     1      -2.416   0.908   0.000  0.00  0.00    +0.000 C 
ENDBRANCH   2  10
ENDBRANCH   1   2
BRANCH   1  15
ATOM     15  C   UNL     1       1.157   0.495   0.000  0.00  0.00    +0.000 C 
BRANCH  15  16
ATOM     16  N   UNL     1       1.157  -0.330   0.000  0.00  0.00    +0.000 NA
ATOM     17  C   UNL     1       1.871  -0.742   0.000  0.00  0.00    +0.000 C 
ATOM     18  C   UNL     1       1.871  -1.567   0.000  0.00  0.00    +0.000 C 
ATOM     19  C   UNL     1       1.157  -1.980   0.000  0.00  0.00    +0.000 C 
ATOM     20  C   UNL     1       0.442  -1.567   0.000  0.00  0.00    +0.000 C 
ATOM     21  C   UNL     1       0.442  -0.742   0.000  0.00  0.00    +0.000 C 
BRANCH  19  22
ATOM     22  C   UNL     1       1.157  -2.804   0.000  0.00  0.00    +0.000 A 
ATOM     23  C   UNL     1       1.871  -3.217   0.000  0.00  0.00    +0.000 A 
ATOM     24  C   UNL     1       1.871  -4.042   0.000  0.00  0.00    +0.000 A 
ATOM     25  C   UNL     1       1.157  -4.455   0.000  0.00  0.00    +0.000 A 
ATOM     26  C   UNL     1       0.442  -4.042   0.000  0.00  0.00    +0.000 A 
ATOM     27  C   UNL     1       0.442  -3.217   0.000  0.00  0.00    +0.000 A 
ATOM     28  F   UNL     1       1.157  -5.279   0.000  0.00  0.00    +0.000 F 
ENDBRANCH  19  22
ENDBRANCH  15  16
ENDBRANCH   1  15
TORSDOF 5
