REMARK  Name = FRQ
REMARK  6 active torsions:
REMARK  status: ('A' for Active; 'I' for Inactive)
REMARK    1  A    between atoms: N_7  and  C_13
REMARK    2  A    between atoms: C_13  and  C_14
REMARK    3  A    between atoms: C_14  and  C_15
REMARK    4  A    between atoms: C_15  and  C_16
REMARK    5  A    between atoms: C_16  and  N_17
REMARK    6  A    between atoms: C_20  and  C_23
REMARK                            x       y       z     vdW  Elec       q    Type
REMARK                         _______ _______ _______ _____ _____    ______ ____
ROOT
ATOM      1  C   UNL     1       0.149   1.253   0.000  0.00  0.00    +0.000 C 
ENDROOT
BRANCH   1   2
ATOM      2  C   UNL     1      -0.566   1.665   0.000  0.00  0.00    +0.000 C 
BRANCH   2   9
ATOM      3  C   UNL     1      -2.709   2.903   0.000  0.00  0.00    +0.000 A 
ATOM      4  C   UNL     1      -1.994   2.490   0.000  0.00  0.00    +0.000 A 
ATOM      5  C   UNL     1      -1.280   2.903   0.000  0.00  0.00    +0.000 A 
ATOM      6  C   UNL     1      -1.280   3.728   0.000  0.00  0.00    +0.000 A 
ATOM      7  C   UNL     1      -1.994   4.140   0.000  0.00  0.00    +0.000 A 
ATOM      8  C   UNL     1      -2.709   3.728   0.000  0.00  0.00    +0.000 A 
ATOM      9  N   UNL     1      -0.566   2.490   0.000  0.00  0.00    +0.000 N 
ATOM     10  C   UNL     1       0.149   2.903   0.000  0.00  0.00    +0.000 A 
ATOM     11  N   UNL     1       0.149   3.728   0.000  0.00  0.00    +0.000 NA
ATOM     12  C   UNL     1      -0.566   4.140   0.000  0.00  0.00    +0.000 A 
ATOM     13  O   UNL     1      -0.566   4.965   0.000  0.00  0.00    +0.000 OA
ATOM     14  O   UNL     1       0.863   2.490   0.000  0.00  0.00    +0.000 OA
ATOM     15  F   UNL     1      -1.994   4.965   0.000  0.00  0.00    +0.000 F 
ENDBRANCH   2   9
ENDBRANCH   1   2
BRANCH   1  16
ATOM     16  C   UNL     1       0.149   0.428   0.000  0.00  0.00    +0.000 C 
BRANCH  16  17
ATOM     17  C   UNL     1       0.863   0.015   0.000  0.00  0.00    +0.000 C 
BRANCH  17  18
ATOM     18  N   UNL     1       0.863  -0.810   0.000  0.00  0.00    +0.000 NA
ATOM     19  C   UNL     1       1.578  -1.222   0.000  0.00  0.00    +0.000 C 
ATOM     20  C   UNL     1       1.578  -2.047   0.000  0.00  0.00    +0.000 C 
ATOM     21  C   UNL     1       0.863  -2.460   0.000  0.00  0.00    +0.000 C 
ATOM     22  C   UNL     1       0.149  -2.047   0.000  0.00  0.00    +0.000 C 
ATOM     23  C   UNL     1       0.149  -1.222   0.000  0.00  0.00    +0.000 C 
BRANCH  21  24
ATOM     24  C   UNL     1       0.863  -3.285   0.000  0.00  0.00    +0.000 A 
ATOM     25  C   UNL     1       1.578  -3.697   0.000  0.00  0.00    +0.000 A 
ATOM     26  C   UNL     1       1.578  -4.522   0.000  0.00  0.00    +0.000 A 
ATOM     27  C   UNL     1       0.863  -4.935   0.000  0.00  0.00    +0.000 A 
ATOM     28  C   UNL     1       0.149  -4.522   0.000  0.00  0.00    +0.000 A 
ATOM     29  C   UNL     1       0.149  -3.697   0.000  0.00  0.00    +0.000 A 
ENDBRANCH  21  24
ENDBRANCH  17  18
ENDBRANCH  16  17
ENDBRANCH   1  16
TORSDOF 6
