REMARK  Name = FRT
REMARK  8 active torsions:
REMARK  status: ('A' for Active; 'I' for Inactive)
REMARK    1  A    between atoms: C_1  and  C_20
REMARK    2  A    between atoms: N_7  and  C_8
REMARK    3  A    between atoms: C_11  and  S_14
REMARK    4  A    between atoms: S_14  and  N_15
REMARK    5  A    between atoms: N_15  and  C_16
REMARK    6  A    between atoms: C_16  and  C_17
REMARK    7  A    between atoms: C_17  and  O_18
REMARK    8  A    between atoms: N_21  and  C_25
REMARK                            x       y       z     vdW  Elec       q    Type
REMARK                         _______ _______ _______ _____ _____    ______ ____
ROOT
ATOM      1  C   UNL     1      -1.506  -0.201   0.000  0.00  0.00    +0.000 A 
ATOM      2  N   UNL     1      -1.506   0.624   0.000  0.00  0.00    +0.000 NA
ATOM      3  C   UNL     1      -0.792   1.037   0.000  0.00  0.00    +0.000 A 
ATOM      4  N   UNL     1      -0.077   0.624   0.000  0.00  0.00    +0.000 NA
ATOM      5  C   UNL     1      -0.077  -0.201   0.000  0.00  0.00    +0.000 A 
ATOM      6  C   UNL     1      -0.792  -0.613   0.000  0.00  0.00    +0.000 A 
ATOM      7  N   UNL     1      -0.792   1.862   0.000  0.00  0.00    +0.000 NA
ENDROOT
BRANCH   7   8
ATOM      8  C   UNL     1      -0.077   2.274   0.000  0.00  0.00    +0.000 A 
ATOM      9  C   UNL     1      -0.077   3.099   0.000  0.00  0.00    +0.000 A 
ATOM     10  C   UNL     1       0.637   3.512   0.000  0.00  0.00    +0.000 A 
ATOM     11  C   UNL     1       1.352   3.099   0.000  0.00  0.00    +0.000 A 
ATOM     12  C   UNL     1       1.352   2.274   0.000  0.00  0.00    +0.000 A 
ATOM     13  C   UNL     1       0.637   1.862   0.000  0.00  0.00    +0.000 A 
BRANCH  11  14
ATOM     14  S   UNL     1       2.066   3.512   0.000  0.00  0.00    +0.000 S 
ATOM     15  O   UNL     1       1.654   4.226   0.000  0.00  0.00    +0.000 OA
ATOM     16  O   UNL     1       2.479   2.797   0.000  0.00  0.00    +0.000 OA
BRANCH  14  17
ATOM     17  N   UNL     1       2.781   3.924   0.000  0.00  0.00    +0.000 NA
BRANCH  17  18
ATOM     18  C   UNL     1       3.495   3.512   0.000  0.00  0.00    +0.000 C 
BRANCH  18  19
ATOM     19  C   UNL     1       4.210   3.924   0.000  0.00  0.00    +0.000 C 
BRANCH  19  20
ATOM     20  O   UNL     1       4.924   3.512   0.000  0.00  0.00    +0.000 OA
ATOM     21  C   UNL     1       5.639   3.924   0.000  0.00  0.00    +0.000 C 
ENDBRANCH  19  20
ENDBRANCH  18  19
ENDBRANCH  17  18
ENDBRANCH  14  17
ENDBRANCH  11  14
ENDBRANCH   7   8
BRANCH   1  22
ATOM     22  C   UNL     1      -2.221  -0.613   0.000  0.00  0.00    +0.000 A 
ATOM     23  N   UNL     1      -2.307  -1.434   0.000  0.00  0.00    +0.000 N 
ATOM     24  C   UNL     1      -3.114  -1.605   0.000  0.00  0.00    +0.000 A 
ATOM     25  N   UNL     1      -3.526  -0.891   0.000  0.00  0.00    +0.000 NA
ATOM     26  C   UNL     1      -2.974  -0.278   0.000  0.00  0.00    +0.000 A 
ATOM     27  C   UNL     1      -3.450  -2.359   0.000  0.00  0.00    +0.000 C 
BRANCH  23  28
ATOM     28  C   UNL     1      -1.694  -1.986   0.000  0.00  0.00    +0.000 C 
ATOM     29  C   UNL     1      -1.865  -2.793   0.000  0.00  0.00    +0.000 C 
ATOM     30  C   UNL     1      -0.909  -1.731   0.000  0.00  0.00    +0.000 C 
ENDBRANCH  23  28
ENDBRANCH   1  22
TORSDOF 8
