REMARK  Name = FRV
REMARK  5 active torsions:
REMARK  status: ('A' for Active; 'I' for Inactive)
REMARK    1  A    between atoms: N_2  and  C_3
REMARK    2  A    between atoms: C_8  and  C_9
REMARK    3  A    between atoms: C_12  and  N_24
REMARK    4  A    between atoms: C_18  and  S_20
REMARK    5  A    between atoms: S_20  and  N_22
REMARK                            x       y       z     vdW  Elec       q    Type
REMARK                         _______ _______ _______ _____ _____    ______ ____
ROOT
ATOM      1  C   UNL     1      -0.468  14.916   0.000  0.00  0.00    +0.000 A 
ATOM      2  C   UNL     1      -0.639  15.723   0.000  0.00  0.00    +0.000 A 
ATOM      3  C   UNL     1       0.317  14.661   0.000  0.00  0.00    +0.000 A 
ATOM      4  C   UNL     1       0.758  16.020   0.000  0.00  0.00    +0.000 A 
ATOM      5  N   UNL     1      -0.026  16.275   0.000  0.00  0.00    +0.000 NA
ATOM      6  N   UNL     1       1.371  16.572   0.000  0.00  0.00    +0.000 NA
ATOM      7  N   UNL     1       0.930  15.213   0.000  0.00  0.00    +0.000 NA
ENDROOT
BRANCH   6   9
ATOM      8  C   UNL     1       2.328  15.510   0.000  0.00  0.00    +0.000 A 
ATOM      9  C   UNL     1       2.156  16.317   0.000  0.00  0.00    +0.000 A 
ATOM     10  C   UNL     1       2.769  16.869   0.000  0.00  0.00    +0.000 A 
ATOM     11  C   UNL     1       3.554  16.614   0.000  0.00  0.00    +0.000 A 
ATOM     12  C   UNL     1       3.725  15.807   0.000  0.00  0.00    +0.000 A 
ATOM     13  C   UNL     1       3.112  15.255   0.000  0.00  0.00    +0.000 A 
BRANCH  12  15
ATOM     14  O   UNL     1       4.765  16.337   0.000  0.00  0.00    +0.000 OA
ATOM     15  S   UNL     1       4.510  15.553   0.000  0.00  0.00    +0.000 S 
ATOM     16  O   UNL     1       4.255  14.768   0.000  0.00  0.00    +0.000 OA
BRANCH  15  18
ATOM     17  C   UNL     1       5.908  15.850   0.000  0.00  0.00    +0.000 C 
ATOM     18  N   UNL     1       5.295  15.297   0.000  0.00  0.00    +0.000 NA
ENDBRANCH  15  18
ENDBRANCH  12  15
ENDBRANCH   6   9
BRANCH   2  22
ATOM     19  N   UNL     1      -2.091  15.493   0.000  0.00  0.00    +0.000 N 
ATOM     20  C   UNL     1      -2.759  15.978   0.000  0.00  0.00    +0.000 A 
ATOM     21  C   UNL     1      -3.544  15.723   0.000  0.00  0.00    +0.000 C 
ATOM     22  C   UNL     1      -1.424  15.978   0.000  0.00  0.00    +0.000 A 
ATOM     23  C   UNL     1      -1.679  16.763   0.000  0.00  0.00    +0.000 A 
ATOM     24  N   UNL     1      -2.504  16.763   0.000  0.00  0.00    +0.000 NA
BRANCH  19  25
ATOM     25  C   UNL     1      -2.091  14.668   0.000  0.00  0.00    +0.000 C 
ATOM     26  C   UNL     1      -1.679  13.954   0.000  0.00  0.00    +0.000 C 
ATOM     27  C   UNL     1      -2.504  13.954   0.000  0.00  0.00    +0.000 C 
ENDBRANCH  19  25
ENDBRANCH   2  22
TORSDOF 5
