REMARK  Name = FRX
REMARK  6 active torsions:
REMARK  status: ('A' for Active; 'I' for Inactive)
REMARK    1  A    between atoms: C_2  and  C_7
REMARK    2  A    between atoms: N_3  and  C_4
REMARK    3  A    between atoms: C_4  and  C_5
REMARK    4  A    between atoms: C_7  and  N_8
REMARK    5  A    between atoms: C_18  and  N_19
REMARK    6  A    between atoms: C_20  and  C_22
REMARK                            x       y       z     vdW  Elec       q    Type
REMARK                         _______ _______ _______ _____ _____    ______ ____
ROOT
ATOM      1  N   UNL     1       0.268  -2.873   0.000  0.00  0.00    +0.000 N 
ATOM      2  C   UNL     1      -0.446  -3.285   0.000  0.00  0.00    +0.000 C 
ATOM      3  O   UNL     1      -0.446  -4.110   0.000  0.00  0.00    +0.000 OA
ATOM      4  C   UNL     1       0.268  -2.048   0.000  0.00  0.00    +0.000 A 
ATOM      5  C   UNL     1       0.983  -1.635   0.000  0.00  0.00    +0.000 A 
ATOM      6  C   UNL     1       0.983  -0.810   0.000  0.00  0.00    +0.000 A 
ATOM      7  C   UNL     1       0.268  -0.398   0.000  0.00  0.00    +0.000 A 
ATOM      8  C   UNL     1      -0.446  -1.635   0.000  0.00  0.00    +0.000 A 
ATOM      9  C   UNL     1      -0.446  -0.810   0.000  0.00  0.00    +0.000 A 
ATOM     10  C   UNL     1      -1.161  -2.048   0.000  0.00  0.00    +0.000 C 
ATOM     11  C   UNL     1      -1.161  -2.873   0.000  0.00  0.00    +0.000 C 
ENDROOT
BRANCH  11  12
ATOM     12  N   UNL     1      -1.875  -3.285   0.000  0.00  0.00    +0.000 NA
ATOM     13  C   UNL     1      -1.875  -4.110   0.000  0.00  0.00    +0.000 C 
ATOM     14  O   UNL     1      -1.161  -4.523   0.000  0.00  0.00    +0.000 OA
BRANCH  13  15
ATOM     15  C   UNL     1      -2.590  -4.523   0.000  0.00  0.00    +0.000 A 
ATOM     16  N   UNL     1      -3.343  -4.187   0.000  0.00  0.00    +0.000 NA
ATOM     17  C   UNL     1      -3.895  -4.800   0.000  0.00  0.00    +0.000 A 
ATOM     18  C   UNL     1      -3.483  -5.515   0.000  0.00  0.00    +0.000 A 
ATOM     19  C   UNL     1      -2.676  -5.343   0.000  0.00  0.00    +0.000 A 
ATOM     20  C   UNL     1      -4.035  -6.128   0.000  0.00  0.00    +0.000 A 
ATOM     21  S   UNL     1      -4.702  -4.972   0.000  0.00  0.00    +0.000 S 
ATOM     22  C   UNL     1      -4.788  -5.792   0.000  0.00  0.00    +0.000 A 
ATOM     23 CL   UNL     1      -5.503  -6.205   0.000  0.00  0.00    +0.000 Cl
ENDBRANCH  13  15
ENDBRANCH  11  12
BRANCH   1  24
ATOM     24  C   UNL     1       0.983  -3.285   0.000  0.00  0.00    +0.000 C 
BRANCH  24  26
ATOM     25  O   UNL     1       1.697  -2.048   0.000  0.00  0.00    +0.000 OA
ATOM     26  C   UNL     1       1.697  -2.873   0.000  0.00  0.00    +0.000 C 
ATOM     27  N   UNL     1       2.412  -3.285   0.000  0.00  0.00    +0.000 NA
BRANCH  27  28
ATOM     28  C   UNL     1       3.126  -2.873   0.000  0.00  0.00    +0.000 C 
BRANCH  28  29
ATOM     29  C   UNL     1       3.841  -3.285   0.000  0.00  0.00    +0.000 C 
ATOM     30  O   UNL     1       4.555  -2.873   0.000  0.00  0.00    +0.000 OA
ENDBRANCH  28  29
ENDBRANCH  27  28
ENDBRANCH  24  26
ENDBRANCH   1  24
TORSDOF 6
