REMARK  Name = FRY
REMARK  4 active torsions:
REMARK  status: ('A' for Active; 'I' for Inactive)
REMARK    1  A    between atoms: C_2  and  C_7
REMARK    2  A    between atoms: C_8  and  N_23
REMARK    3  A    between atoms: C_14  and  C_16
REMARK    4  A    between atoms: C_14  and  N_18
REMARK                            x       y       z     vdW  Elec       q    Type
REMARK                         _______ _______ _______ _____ _____    ______ ____
ROOT
ATOM      1  C   UNL     1      -0.206  -3.570   0.000  0.00  0.00    +0.000 C 
ATOM      2  C   UNL     1       1.223  -4.395   0.000  0.00  0.00    +0.000 A 
ATOM      3  C   UNL     1       0.508  -3.158   0.000  0.00  0.00    +0.000 C 
ATOM      4  C   UNL     1       1.223  -3.570   0.000  0.00  0.00    +0.000 A 
ATOM      5  C   UNL     1      -0.206  -4.395   0.000  0.00  0.00    +0.000 C 
ATOM      6  O   UNL     1      -0.920  -4.808   0.000  0.00  0.00    +0.000 OA
ATOM      7  N   UNL     1       0.508  -4.808   0.000  0.00  0.00    +0.000 N 
ATOM      8  C   UNL     1       1.937  -4.808   0.000  0.00  0.00    +0.000 A 
ATOM      9  C   UNL     1       2.652  -4.395   0.000  0.00  0.00    +0.000 A 
ATOM     10  C   UNL     1       2.652  -3.570   0.000  0.00  0.00    +0.000 A 
ATOM     11  C   UNL     1       1.937  -3.158   0.000  0.00  0.00    +0.000 A 
ENDROOT
BRANCH   1  13
ATOM     12  C   UNL     1      -0.920  -2.333   0.000  0.00  0.00    +0.000 C 
ATOM     13  N   UNL     1      -0.920  -3.158   0.000  0.00  0.00    +0.000 NA
ATOM     14  O   UNL     1      -0.206  -1.920   0.000  0.00  0.00    +0.000 OA
BRANCH  12  16
ATOM     15  C   UNL     1      -3.834  -0.651   0.000  0.00  0.00    +0.000 C 
ATOM     16  C   UNL     1      -1.635  -1.920   0.000  0.00  0.00    +0.000 C 
ATOM     17  C   UNL     1      -1.721  -1.100   0.000  0.00  0.00    +0.000 C 
ATOM     18  C   UNL     1      -3.080  -0.315   0.000  0.00  0.00    +0.000 C 
ATOM     19  C   UNL     1      -2.528  -0.928   0.000  0.00  0.00    +0.000 C 
ATOM     20  C   UNL     1      -2.941  -1.643   0.000  0.00  0.00    +0.000 C 
ATOM     21  N   UNL     1      -2.389  -2.256   0.000  0.00  0.00    +0.000 NA
ATOM     22  S   UNL     1      -3.748  -1.471   0.000  0.00  0.00    +0.000 S 
ATOM     23 CL   UNL     1      -4.548  -0.238   0.000  0.00  0.00    +0.000 Cl
ENDBRANCH  12  16
ENDBRANCH   1  13
BRANCH   7  24
ATOM     24  C   UNL     1       0.508  -5.633   0.000  0.00  0.00    +0.000 C 
BRANCH  24  26
ATOM     25  O   UNL     1       1.223  -6.870   0.000  0.00  0.00    +0.000 OA
ATOM     26  C   UNL     1       1.223  -6.045   0.000  0.00  0.00    +0.000 C 
ATOM     27  N   UNL     1       1.937  -5.633   0.000  0.00  0.00    +0.000 NA
ENDBRANCH  24  26
ENDBRANCH   7  24
TORSDOF 4
