REMARK  Name = FSB
REMARK  4 active torsions:
REMARK  status: ('A' for Active; 'I' for Inactive)
REMARK    1  A    between atoms: C_3  and  S_11
REMARK    2  A    between atoms: C_6  and  C_7
REMARK    3  A    between atoms: N_9  and  C_10
REMARK    4  A    between atoms: C_10  and  C_15
REMARK                            x       y       z     vdW  Elec       q    Type
REMARK                         _______ _______ _______ _____ _____    ______ ____
ROOT
ATOM      1  C   UNL     1      -0.696  -0.660   0.000  0.00  0.00    +0.000 C 
ATOM      2  O   UNL     1      -1.411  -1.072   0.000  0.00  0.00    +0.000 OA
ATOM      3  N   UNL     1      -0.696   0.165   0.000  0.00  0.00    +0.000 NA
ENDROOT
BRANCH   1   9
ATOM      4  C   UNL     1       0.733  -0.660   0.000  0.00  0.00    +0.000 A 
ATOM      5  C   UNL     1       1.447  -1.072   0.000  0.00  0.00    +0.000 A 
ATOM      6  C   UNL     1       1.447  -1.897   0.000  0.00  0.00    +0.000 A 
ATOM      7  C   UNL     1       0.733  -2.310   0.000  0.00  0.00    +0.000 A 
ATOM      8  C   UNL     1       0.018  -1.897   0.000  0.00  0.00    +0.000 A 
ATOM      9  C   UNL     1       0.018  -1.072   0.000  0.00  0.00    +0.000 A 
BRANCH   6  10
ATOM     10  S   UNL     1       2.162  -2.310   0.000  0.00  0.00    +0.000 S 
ATOM     11  N   UNL     1       2.876  -2.722   0.000  0.00  0.00    +0.000 NA
ATOM     12  O   UNL     1       2.574  -1.595   0.000  0.00  0.00    +0.000 OA
ATOM     13  O   UNL     1       1.749  -3.024   0.000  0.00  0.00    +0.000 OA
ENDBRANCH   6  10
ENDBRANCH   1   9
BRANCH   3  14
ATOM     14  C   UNL     1      -1.411   0.578   0.000  0.00  0.00    +0.000 C 
BRANCH  14  15
ATOM     15  C   UNL     1      -1.411   1.403   0.000  0.00  0.00    +0.000 A 
ATOM     16  C   UNL     1      -2.125   1.815   0.000  0.00  0.00    +0.000 A 
ATOM     17  C   UNL     1      -2.125   2.640   0.000  0.00  0.00    +0.000 A 
ATOM     18  C   UNL     1      -1.411   3.053   0.000  0.00  0.00    +0.000 A 
ATOM     19  C   UNL     1      -0.696   2.640   0.000  0.00  0.00    +0.000 A 
ATOM     20  C   UNL     1      -0.696   1.815   0.000  0.00  0.00    +0.000 A 
ATOM     21  F   UNL     1       0.018   1.403   0.000  0.00  0.00    +0.000 F 
ENDBRANCH  14  15
ENDBRANCH   3  14
TORSDOF 4
