REMARK  Name = FSE
REMARK  1 active torsions:
REMARK  status: ('A' for Active; 'I' for Inactive)
REMARK    1  A    between atoms: C_9  and  C_10
REMARK                            x       y       z     vdW  Elec       q    Type
REMARK                         _______ _______ _______ _____ _____    ______ ____
ROOT
ATOM      1  C   UNL     1      -2.695  -0.866   0.000  0.00  0.00    +0.000 A 
ATOM      2  C   UNL     1      -1.980  -1.279   0.000  0.00  0.00    +0.000 A 
ATOM      3  C   UNL     1      -1.266  -0.866   0.000  0.00  0.00    +0.000 A 
ATOM      4  C   UNL     1      -1.266  -0.041   0.000  0.00  0.00    +0.000 A 
ATOM      5  C   UNL     1      -1.980   0.371   0.000  0.00  0.00    +0.000 A 
ATOM      6  C   UNL     1      -2.695  -0.041   0.000  0.00  0.00    +0.000 A 
ATOM      7  C   UNL     1      -0.551  -1.279   0.000  0.00  0.00    +0.000 A 
ATOM      8  C   UNL     1       0.163  -0.866   0.000  0.00  0.00    +0.000 A 
ATOM      9  C   UNL     1       0.163  -0.041   0.000  0.00  0.00    +0.000 A 
ATOM     10  O   UNL     1      -0.551   0.371   0.000  0.00  0.00    +0.000 OA
ATOM     11  O   UNL     1      -0.551  -2.104   0.000  0.00  0.00    +0.000 OA
ATOM     12  O   UNL     1       0.877  -1.279   0.000  0.00  0.00    +0.000 OA
ATOM     13  O   UNL     1      -3.409   0.371   0.000  0.00  0.00    +0.000 OA
ENDROOT
BRANCH   9  14
ATOM     14  C   UNL     1       0.877   0.371   0.000  0.00  0.00    +0.000 A 
ATOM     15  C   UNL     1       0.877   1.196   0.000  0.00  0.00    +0.000 A 
ATOM     16  C   UNL     1       1.592   1.609   0.000  0.00  0.00    +0.000 A 
ATOM     17  C   UNL     1       2.306   1.196   0.000  0.00  0.00    +0.000 A 
ATOM     18  C   UNL     1       2.306   0.371   0.000  0.00  0.00    +0.000 A 
ATOM     19  C   UNL     1       1.592  -0.041   0.000  0.00  0.00    +0.000 A 
ATOM     20  O   UNL     1       3.021  -0.041   0.000  0.00  0.00    +0.000 OA
ATOM     21  O   UNL     1       3.021   1.609   0.000  0.00  0.00    +0.000 OA
ENDBRANCH   9  14
TORSDOF 1
