REMARK  Name = FSN
REMARK  4 active torsions:
REMARK  status: ('A' for Active; 'I' for Inactive)
REMARK    1  A    between atoms: N_3  and  C_4
REMARK    2  A    between atoms: C_4  and  C_5
REMARK    3  A    between atoms: C_20  and  C_21
REMARK    4  A    between atoms: C_24  and  C_27
REMARK                            x       y       z     vdW  Elec       q    Type
REMARK                         _______ _______ _______ _____ _____    ______ ____
ROOT
ATOM      1  O   UNL     1      -1.614   0.474   0.000  0.00  0.00    +0.000 OA
ATOM      2  C   UNL     1      -1.129  -0.193   0.000  0.00  0.00    +0.000 C 
ATOM      3  N   UNL     1      -1.384  -0.978   0.000  0.00  0.00    +0.000 N 
ATOM      4  C   UNL     1      -0.717  -1.462   0.000  0.00  0.00    +0.000 C 
ATOM      5  O   UNL     1      -0.717  -2.287   0.000  0.00  0.00    +0.000 OA
ATOM      6  C   UNL     1      -0.049  -0.978   0.000  0.00  0.00    +0.000 C 
ATOM      7  C   UNL     1       0.776  -0.978   0.000  0.00  0.00    +0.000 C 
ATOM      8  N   UNL     1       1.031  -0.193   0.000  0.00  0.00    +0.000 NA
ATOM      9  C   UNL     1       1.856  -0.193   0.000  0.00  0.00    +0.000 C 
ATOM     10  C   UNL     1       2.111  -0.978   0.000  0.00  0.00    +0.000 C 
ATOM     11  C   UNL     1       1.443  -1.462   0.000  0.00  0.00    +0.000 C 
ATOM     12  C   UNL     1       0.363   0.292   0.000  0.00  0.00    +0.000 C 
ATOM     13  C   UNL     1      -0.304  -0.193   0.000  0.00  0.00    +0.000 C 
ENDROOT
BRANCH  12  14
ATOM     14  C   UNL     1       0.363   1.117   0.000  0.00  0.00    +0.000 A 
ATOM     15  C   UNL     1      -0.351   1.530   0.000  0.00  0.00    +0.000 A 
ATOM     16  C   UNL     1      -0.351   2.354   0.000  0.00  0.00    +0.000 A 
ATOM     17  C   UNL     1       0.363   2.767   0.000  0.00  0.00    +0.000 A 
ATOM     18  C   UNL     1       1.078   2.354   0.000  0.00  0.00    +0.000 A 
ATOM     19  C   UNL     1       1.078   1.530   0.000  0.00  0.00    +0.000 A 
BRANCH  17  20
ATOM     20  C   UNL     1       0.363   3.592   0.000  0.00  0.00    +0.000 C 
ATOM     21  N   UNL     1      -0.351   4.005   0.000  0.00  0.00    +0.000 NA
ATOM     22  N   UNL     1       1.078   4.005   0.000  0.00  0.00    +0.000 NA
ENDBRANCH  17  20
ENDBRANCH  12  14
BRANCH   3  23
ATOM     23  C   UNL     1      -2.169  -1.232   0.000  0.00  0.00    +0.000 C 
BRANCH  23  24
ATOM     24  C   UNL     1      -2.340  -2.039   0.000  0.00  0.00    +0.000 A 
ATOM     25  C   UNL     1      -1.727  -2.591   0.000  0.00  0.00    +0.000 A 
ATOM     26  C   UNL     1      -1.899  -3.398   0.000  0.00  0.00    +0.000 A 
ATOM     27  C   UNL     1      -2.683  -3.653   0.000  0.00  0.00    +0.000 A 
ATOM     28  F   UNL     1      -2.855  -4.460   0.000  0.00  0.00    +0.000 F 
ATOM     29  C   UNL     1      -3.296  -3.101   0.000  0.00  0.00    +0.000 A 
ATOM     30  C   UNL     1      -3.125  -2.294   0.000  0.00  0.00    +0.000 A 
ENDBRANCH  23  24
ENDBRANCH   3  23
TORSDOF 4
