REMARK  Name = FSP
REMARK  12 active torsions:
REMARK  status: ('A' for Active; 'I' for Inactive)
REMARK    1  A    between atoms: C_2  and  C_3
REMARK    2  A    between atoms: C_3  and  C_4
REMARK    3  A    between atoms: C_4  and  C_5
REMARK    4  A    between atoms: C_5  and  N_6
REMARK    5  A    between atoms: C_5  and  C_31
REMARK    6  A    between atoms: C_7  and  O_9
REMARK    7  A    between atoms: O_9  and  C_10
REMARK    8  A    between atoms: C_10  and  C_11
REMARK    9  A    between atoms: C_11  and  C_12
REMARK   10  A    between atoms: C_12  and  C_13
REMARK   11  A    between atoms: C_23  and  C_31
REMARK   12  A    between atoms: N_25  and  C_26
REMARK                            x       y       z     vdW  Elec       q    Type
REMARK                         _______ _______ _______ _____ _____    ______ ____
ROOT
ATOM      1  N   UNL     1       0.597   0.221   0.000  0.00  0.00    +0.000 NA
ATOM      2  C   UNL     1      -0.118  -0.192   0.000  0.00  0.00    +0.000 C 
ATOM      3  O   UNL     1      -0.118  -1.017   0.000  0.00  0.00    +0.000 OA
ENDROOT
BRANCH   1   4
ATOM      4  C   UNL     1       1.311  -0.192   0.000  0.00  0.00    +0.000 C 
BRANCH   4   5
ATOM      5  C   UNL     1       2.026   0.221   0.000  0.00  0.00    +0.000 C 
ATOM      6  O   UNL     1       2.026   1.046   0.000  0.00  0.00    +0.000 OA
BRANCH   5   7
ATOM      7  C   UNL     1       2.740  -0.192   0.000  0.00  0.00    +0.000 C 
ATOM      8  O   UNL     1       2.740  -1.017   0.000  0.00  0.00    +0.000 OA
ATOM      9  N   UNL     1       3.455   0.221   0.000  0.00  0.00    +0.000 NA
BRANCH   9  10
ATOM     10  C   UNL     1       4.169  -0.192   0.000  0.00  0.00    +0.000 A 
ATOM     11  C   UNL     1       4.923   0.143   0.000  0.00  0.00    +0.000 A 
ATOM     12  C   UNL     1       5.475  -0.469   0.000  0.00  0.00    +0.000 A 
ATOM     13  N   UNL     1       5.062  -1.184   0.000  0.00  0.00    +0.000 NA
ATOM     14  N   UNL     1       4.255  -1.012   0.000  0.00  0.00    +0.000 NA
ENDBRANCH   9  10
ENDBRANCH   5   7
ENDBRANCH   4   5
BRANCH   4  15
ATOM     15  C   UNL     1       1.311  -1.017   0.000  0.00  0.00    +0.000 C 
BRANCH  15  16
ATOM     16  C   UNL     1       2.026  -1.429   0.000  0.00  0.00    +0.000 C 
BRANCH  16  18
ATOM     17  C   UNL     1       2.740  -2.667   0.000  0.00  0.00    +0.000 C 
ATOM     18  C   UNL     1       2.026  -2.255   0.000  0.00  0.00    +0.000 C 
ENDBRANCH  16  18
ENDBRANCH  15  16
ENDBRANCH   4  15
ENDBRANCH   1   4
BRANCH   2  19
ATOM     19  O   UNL     1      -0.832   0.221   0.000  0.00  0.00    +0.000 OA
BRANCH  19  20
ATOM     20  C   UNL     1      -1.547  -0.192   0.000  0.00  0.00    +0.000 C 
BRANCH  20  21
ATOM     21  C   UNL     1      -2.261   0.221   0.000  0.00  0.00    +0.000 C 
ATOM     22  C   UNL     1      -2.674  -0.494   0.000  0.00  0.00    +0.000 C 
ATOM     23  C   UNL     1      -3.388  -0.082   0.000  0.00  0.00    +0.000 C 
ATOM     24  C   UNL     1      -2.976   0.633   0.000  0.00  0.00    +0.000 C 
BRANCH  21  25
ATOM     25  C   UNL     1      -1.849   0.935   0.000  0.00  0.00    +0.000 C 
BRANCH  25  26
ATOM     26  C   UNL     1      -2.261   1.649   0.000  0.00  0.00    +0.000 A 
ATOM     27  C   UNL     1      -3.086   1.649   0.000  0.00  0.00    +0.000 A 
ATOM     28  C   UNL     1      -3.499   2.364   0.000  0.00  0.00    +0.000 A 
ATOM     29  C   UNL     1      -3.086   3.078   0.000  0.00  0.00    +0.000 A 
ATOM     30  F   UNL     1      -3.499   3.793   0.000  0.00  0.00    +0.000 F 
ATOM     31  C   UNL     1      -2.261   3.078   0.000  0.00  0.00    +0.000 A 
ATOM     32  C   UNL     1      -1.849   2.364   0.000  0.00  0.00    +0.000 A 
ENDBRANCH  25  26
ENDBRANCH  21  25
ENDBRANCH  20  21
ENDBRANCH  19  20
ENDBRANCH   2  19
TORSDOF 12
