REMARK  Name = FTA
REMARK  6 active torsions:
REMARK  status: ('A' for Active; 'I' for Inactive)
REMARK    1  A    between atoms: N_1  and  C_2
REMARK    2  A    between atoms: N_1  and  C_8
REMARK    3  A    between atoms: C_13  and  N_14
REMARK    4  A    between atoms: N_14  and  C_15
REMARK    5  A    between atoms: C_16  and  C_17
REMARK    6  A    between atoms: C_16  and  C_19
REMARK                            x       y       z     vdW  Elec       q    Type
REMARK                         _______ _______ _______ _____ _____    ______ ____
ROOT
ATOM      1  C   UNL     1       1.561   0.122   0.000  0.00  0.00    +0.000 A 
ATOM      2  C   UNL     1       1.561  -0.703   0.000  0.00  0.00    +0.000 A 
ATOM      3  C   UNL     1       0.847  -1.115   0.000  0.00  0.00    +0.000 A 
ATOM      4  C   UNL     1       0.847   0.535   0.000  0.00  0.00    +0.000 A 
ATOM      5  C   UNL     1       0.132   0.122   0.000  0.00  0.00    +0.000 A 
ATOM      6  C   UNL     1       0.132  -0.703   0.000  0.00  0.00    +0.000 A 
ENDROOT
BRANCH   1   7
ATOM      7  N   UNL     1       2.276   0.535   0.000  0.00  0.00    +0.000 NA
BRANCH   7   8
ATOM      8  C   UNL     1       2.276   1.360   0.000  0.00  0.00    +0.000 A 
ATOM      9  C   UNL     1       1.561   1.772   0.000  0.00  0.00    +0.000 A 
ATOM     10  C   UNL     1       1.561   2.597   0.000  0.00  0.00    +0.000 A 
ATOM     11  C   UNL     1       2.276   3.010   0.000  0.00  0.00    +0.000 A 
ATOM     12  C   UNL     1       2.990   2.597   0.000  0.00  0.00    +0.000 A 
ATOM     13  C   UNL     1       2.990   1.772   0.000  0.00  0.00    +0.000 A 
ENDBRANCH   7   8
ENDBRANCH   1   7
BRANCH   6  14
ATOM     14  N   UNL     1      -0.582  -1.115   0.000  0.00  0.00    +0.000 NA
BRANCH  14  15
ATOM     15  C   UNL     1      -1.297  -0.703   0.000  0.00  0.00    +0.000 C 
ATOM     16  C   UNL     1      -2.011  -1.115   0.000  0.00  0.00    +0.000 C 
BRANCH  16  17
ATOM     17  C   UNL     1      -2.011  -1.940   0.000  0.00  0.00    +0.000 A 
ATOM     18  N   UNL     1      -1.344  -2.425   0.000  0.00  0.00    +0.000 NA
ATOM     19  N   UNL     1      -1.599  -3.210   0.000  0.00  0.00    +0.000 NA
ATOM     20  N   UNL     1      -2.424  -3.210   0.000  0.00  0.00    +0.000 NA
ATOM     21  N   UNL     1      -2.679  -2.425   0.000  0.00  0.00    +0.000 NA
ENDBRANCH  16  17
BRANCH  16  22
ATOM     22  C   UNL     1      -2.726  -0.703   0.000  0.00  0.00    +0.000 C 
ATOM     23  N   UNL     1      -3.440  -0.290   0.000  0.00  0.00    +0.000 NA
ENDBRANCH  16  22
ENDBRANCH  14  15
ENDBRANCH   6  14
TORSDOF 6
