REMARK  Name = FTB
REMARK  8 active torsions:
REMARK  status: ('A' for Active; 'I' for Inactive)
REMARK    1  A    between atoms: N_4  and  C_5
REMARK    2  A    between atoms: C_10  and  C_11
REMARK    3  A    between atoms: C_11  and  C_12
REMARK    4  A    between atoms: N_15  and  C_16
REMARK    5  A    between atoms: C_16  and  C_17
REMARK    6  A    between atoms: C_17  and  C_18
REMARK    7  A    between atoms: N_24  and  C_27
REMARK    8  A    between atoms: C_27  and  C_28
REMARK                            x       y       z     vdW  Elec       q    Type
REMARK                         _______ _______ _______ _____ _____    ______ ____
ROOT
ATOM      1  C   UNL     1      -0.798  -0.660   0.000  0.00  0.00    +0.000 A 
ATOM      2  N   UNL     1      -0.313   0.007   0.000  0.00  0.00    +0.000 NA
ATOM      3  C   UNL     1       0.471  -0.248   0.000  0.00  0.00    +0.000 A 
ATOM      4  N   UNL     1       1.186   0.165   0.000  0.00  0.00    +0.000 N 
ATOM      5  C   UNL     1       0.471  -1.073   0.000  0.00  0.00    +0.000 A 
ATOM      6  N   UNL     1      -0.313  -1.328   0.000  0.00  0.00    +0.000 NA
ATOM      7  C   UNL     1       1.186  -1.485   0.000  0.00  0.00    +0.000 A 
ATOM      8  O   UNL     1       1.186  -2.310   0.000  0.00  0.00    +0.000 OA
ATOM      9  N   UNL     1       1.900  -1.073   0.000  0.00  0.00    +0.000 N 
ATOM     10  C   UNL     1       1.900  -0.248   0.000  0.00  0.00    +0.000 A 
ATOM     11  O   UNL     1       2.615   0.165   0.000  0.00  0.00    +0.000 OA
ENDROOT
BRANCH   1  12
ATOM     12  C   UNL     1      -1.623  -0.660   0.000  0.00  0.00    +0.000 C 
BRANCH  12  18
ATOM     13  C   UNL     1      -2.861   1.483   0.000  0.00  0.00    +0.000 A 
ATOM     14  C   UNL     1      -2.036   1.483   0.000  0.00  0.00    +0.000 A 
ATOM     15  C   UNL     1      -1.623   0.768   0.000  0.00  0.00    +0.000 A 
ATOM     16  C   UNL     1      -3.273   0.768   0.000  0.00  0.00    +0.000 A 
ATOM     17  C   UNL     1      -2.861   0.054   0.000  0.00  0.00    +0.000 A 
ATOM     18  C   UNL     1      -2.036   0.054   0.000  0.00  0.00    +0.000 A 
BRANCH  13  22
ATOM     19  O   UNL     1      -4.511   2.912   0.000  0.00  0.00    +0.000 OA
ATOM     20  C   UNL     1      -4.098   2.197   0.000  0.00  0.00    +0.000 C 
ATOM     21  C   UNL     1      -4.511   1.483   0.000  0.00  0.00    +0.000 C 
ATOM     22  N   UNL     1      -3.273   2.197   0.000  0.00  0.00    +0.000 NA
ENDBRANCH  13  22
ENDBRANCH  12  18
ENDBRANCH   1  12
BRANCH   9  23
ATOM     23  C   UNL     1       2.615  -1.485   0.000  0.00  0.00    +0.000 C 
BRANCH  23  24
ATOM     24  C   UNL     1       2.615  -2.310   0.000  0.00  0.00    +0.000 A 
ATOM     25  C   UNL     1       1.900  -2.723   0.000  0.00  0.00    +0.000 A 
ATOM     26  C   UNL     1       1.900  -3.548   0.000  0.00  0.00    +0.000 A 
ATOM     27  C   UNL     1       2.615  -3.960   0.000  0.00  0.00    +0.000 A 
ATOM     28  C   UNL     1       3.329  -3.548   0.000  0.00  0.00    +0.000 A 
ATOM     29  C   UNL     1       3.329  -2.723   0.000  0.00  0.00    +0.000 A 
ATOM     30  F   UNL     1       4.044  -2.310   0.000  0.00  0.00    +0.000 F 
ENDBRANCH  23  24
ENDBRANCH   9  23
BRANCH   4  31
ATOM     31  C   UNL     1       1.186   0.990   0.000  0.00  0.00    +0.000 C 
BRANCH  31  32
ATOM     32  C   UNL     1       1.900   1.402   0.000  0.00  0.00    +0.000 C 
BRANCH  32  33
ATOM     33  C   UNL     1       1.900   2.227   0.000  0.00  0.00    +0.000 C 
ATOM     34  C   UNL     1       2.615   2.640   0.000  0.00  0.00    +0.000 C 
ENDBRANCH  32  33
ENDBRANCH  31  32
ENDBRANCH   4  31
TORSDOF 8
