REMARK  Name = FTC
REMARK  7 active torsions:
REMARK  status: ('A' for Active; 'I' for Inactive)
REMARK    1  A    between atoms: N_8  and  C_9
REMARK    2  A    between atoms: C_9  and  N_11
REMARK    3  A    between atoms: N_11  and  C_12
REMARK    4  A    between atoms: C_12  and  C_13
REMARK    5  A    between atoms: C_13  and  C_14
REMARK    6  A    between atoms: C_18  and  O_20
REMARK    7  A    between atoms: O_20  and  C_21
REMARK                            x       y       z     vdW  Elec       q    Type
REMARK                         _______ _______ _______ _____ _____    ______ ____
ROOT
ATOM      1  C   UNL     1      -0.273   0.093   0.000  0.00  0.00    +0.000 C 
ENDROOT
BRANCH   1   2
ATOM      2  N   UNL     1      -0.987  -0.320   0.000  0.00  0.00    +0.000 NA
BRANCH   2   3
ATOM      3  C   UNL     1      -1.702   0.093   0.000  0.00  0.00    +0.000 C 
ATOM      4  S   UNL     1      -1.702   0.918   0.000  0.00  0.00    +0.000 S 
BRANCH   3  12
ATOM      5  C   UNL     1      -3.131   0.093   0.000  0.00  0.00    +0.000 A 
ATOM      6  N   UNL     1      -3.845  -0.320   0.000  0.00  0.00    +0.000 NA
ATOM      7  C   UNL     1      -4.560   0.093   0.000  0.00  0.00    +0.000 A 
ATOM      8  C   UNL     1      -4.560   0.918   0.000  0.00  0.00    +0.000 A 
ATOM      9  C   UNL     1      -3.845   1.330   0.000  0.00  0.00    +0.000 A 
ATOM     10  C   UNL     1      -3.131   0.918   0.000  0.00  0.00    +0.000 A 
ATOM     11 CL   UNL     1      -5.274   1.330   0.000  0.00  0.00    +0.000 Cl
ATOM     12  N   UNL     1      -2.416  -0.320   0.000  0.00  0.00    +0.000 NA
ENDBRANCH   3  12
ENDBRANCH   2   3
ENDBRANCH   1   2
BRANCH   1  13
ATOM     13  C   UNL     1       0.442  -0.320   0.000  0.00  0.00    +0.000 C 
BRANCH  13  14
ATOM     14  C   UNL     1       1.156   0.093   0.000  0.00  0.00    +0.000 A 
ATOM     15  N   UNL     1       1.156   0.918   0.000  0.00  0.00    +0.000 NA
ATOM     16  C   UNL     1       1.871   1.330   0.000  0.00  0.00    +0.000 A 
ATOM     17  C   UNL     1       2.585   0.918   0.000  0.00  0.00    +0.000 A 
ATOM     18  C   UNL     1       2.585   0.093   0.000  0.00  0.00    +0.000 A 
ATOM     19  C   UNL     1       1.871  -0.320   0.000  0.00  0.00    +0.000 A 
ATOM     20  F   UNL     1       1.871  -1.145   0.000  0.00  0.00    +0.000 F 
BRANCH  18  21
ATOM     21  O   UNL     1       3.300  -0.320   0.000  0.00  0.00    +0.000 OA
BRANCH  21  22
ATOM     22  C   UNL     1       3.300  -1.145   0.000  0.00  0.00    +0.000 C 
ATOM     23  C   UNL     1       4.014  -1.557   0.000  0.00  0.00    +0.000 C 
ENDBRANCH  21  22
ENDBRANCH  18  21
ENDBRANCH  13  14
ENDBRANCH   1  13
TORSDOF 7
