REMARK  Name = FTS
REMARK  6 active torsions:
REMARK  status: ('A' for Active; 'I' for Inactive)
REMARK    1  A    between atoms: C_5  and  C_6
REMARK    2  A    between atoms: C_12  and  S_13
REMARK    3  A    between atoms: S_13  and  N_16
REMARK    4  A    between atoms: N_16  and  C_17
REMARK    5  A    between atoms: C_17  and  C_18
REMARK    6  A    between atoms: C_18  and  C_19
REMARK                            x       y       z     vdW  Elec       q    Type
REMARK                         _______ _______ _______ _____ _____    ______ ____
ROOT
ATOM      1  C   UNL     1      -0.805  -0.531   0.000  0.00  0.00    +0.000 A 
ATOM      2  C   UNL     1      -1.519  -0.118   0.000  0.00  0.00    +0.000 A 
ATOM      3  C   UNL     1      -2.234  -0.531   0.000  0.00  0.00    +0.000 C 
ATOM      4  N   UNL     1      -2.948  -0.118   0.000  0.00  0.00    +0.000 NA
ATOM      5  C   UNL     1      -2.948   0.707   0.000  0.00  0.00    +0.000 C 
ATOM      6  C   UNL     1      -2.234   1.119   0.000  0.00  0.00    +0.000 C 
ATOM      7  C   UNL     1      -1.519   0.707   0.000  0.00  0.00    +0.000 A 
ATOM      8  C   UNL     1      -0.805   1.119   0.000  0.00  0.00    +0.000 A 
ATOM      9  C   UNL     1      -0.090   0.707   0.000  0.00  0.00    +0.000 A 
ATOM     10  C   UNL     1      -0.090  -0.118   0.000  0.00  0.00    +0.000 A 
ENDROOT
BRANCH  10  11
ATOM     11  S   UNL     1       0.624  -0.531   0.000  0.00  0.00    +0.000 S 
ATOM     12  O   UNL     1       0.212  -1.245   0.000  0.00  0.00    +0.000 OA
ATOM     13  O   UNL     1       1.037   0.184   0.000  0.00  0.00    +0.000 OA
BRANCH  11  14
ATOM     14  N   UNL     1       1.339  -0.943   0.000  0.00  0.00    +0.000 NA
BRANCH  14  15
ATOM     15  C   UNL     1       2.053  -0.531   0.000  0.00  0.00    +0.000 C 
BRANCH  15  16
ATOM     16  C   UNL     1       2.768  -0.943   0.000  0.00  0.00    +0.000 C 
BRANCH  16  17
ATOM     17  C   UNL     1       3.482  -0.531   0.000  0.00  0.00    +0.000 C 
ATOM     18  F   UNL     1       4.197  -0.118   0.000  0.00  0.00    +0.000 F 
ATOM     19  F   UNL     1       3.894  -1.245   0.000  0.00  0.00    +0.000 F 
ATOM     20  F   UNL     1       3.070   0.184   0.000  0.00  0.00    +0.000 F 
ENDBRANCH  16  17
ENDBRANCH  15  16
ENDBRANCH  14  15
ENDBRANCH  11  14
ENDBRANCH  10  11
BRANCH   5  21
ATOM     21  C   UNL     1      -3.663   1.119   0.000  0.00  0.00    +0.000 C 
ATOM     22  F   UNL     1      -3.663   1.944   0.000  0.00  0.00    +0.000 F 
ENDBRANCH   5  21
TORSDOF 6
