REMARK  Name = FXA
REMARK  5 active torsions:
REMARK  status: ('A' for Active; 'I' for Inactive)
REMARK    1  A    between atoms: C_3  and  S_19
REMARK    2  A    between atoms: C_4  and  C_5
REMARK    3  A    between atoms: C_8  and  N_10
REMARK    4  A    between atoms: C_16  and  N_21
REMARK    5  A    between atoms: S_19  and  N_20
REMARK                            x       y       z     vdW  Elec       q    Type
REMARK                         _______ _______ _______ _____ _____    ______ ____
ROOT
ATOM      1  C   UNL     1      -0.221   3.320   0.000  0.00  0.00    +0.000 A 
ATOM      2  C   UNL     1       0.493   2.908   0.000  0.00  0.00    +0.000 A 
ATOM      3  C   UNL     1       0.493   2.083   0.000  0.00  0.00    +0.000 A 
ATOM      4  C   UNL     1      -0.221   1.670   0.000  0.00  0.00    +0.000 A 
ATOM      5  C   UNL     1      -0.936   2.083   0.000  0.00  0.00    +0.000 A 
ATOM      6  C   UNL     1      -0.936   2.908   0.000  0.00  0.00    +0.000 A 
ENDROOT
BRANCH   4   8
ATOM      7  C   UNL     1      -0.936   0.432   0.000  0.00  0.00    +0.000 C 
ATOM      8  N   UNL     1      -0.221   0.845   0.000  0.00  0.00    +0.000 NA
ATOM      9  O   UNL     1      -1.650   0.845   0.000  0.00  0.00    +0.000 OA
BRANCH   7  10
ATOM     10  C   UNL     1      -0.936  -0.393   0.000  0.00  0.00    +0.000 A 
ATOM     11  C   UNL     1      -0.221  -0.805   0.000  0.00  0.00    +0.000 A 
ATOM     12  C   UNL     1      -0.221  -1.630   0.000  0.00  0.00    +0.000 A 
ATOM     13  C   UNL     1      -0.936  -2.042   0.000  0.00  0.00    +0.000 A 
ATOM     14  C   UNL     1      -1.650  -1.630   0.000  0.00  0.00    +0.000 A 
ATOM     15  C   UNL     1      -1.650  -0.805   0.000  0.00  0.00    +0.000 A 
BRANCH  13  16
ATOM     16  N   UNL     1      -0.936  -2.868   0.000  0.00  0.00    +0.000 N 
ATOM     17  C   UNL     1      -0.221  -3.280   0.000  0.00  0.00    +0.000 A 
ATOM     18  C   UNL     1      -0.221  -4.105   0.000  0.00  0.00    +0.000 A 
ATOM     19  C   UNL     1      -1.650  -3.280   0.000  0.00  0.00    +0.000 A 
ATOM     20  C   UNL     1      -1.650  -4.105   0.000  0.00  0.00    +0.000 A 
ATOM     21  O   UNL     1       0.493  -2.868   0.000  0.00  0.00    +0.000 OA
ATOM     22  C   UNL     1      -0.936  -4.518   0.000  0.00  0.00    +0.000 A 
ENDBRANCH  13  16
ENDBRANCH   7  10
ENDBRANCH   4   8
BRANCH   3  23
ATOM     23  S   UNL     1       1.208   1.670   0.000  0.00  0.00    +0.000 S 
ATOM     24  O   UNL     1       0.795   0.956   0.000  0.00  0.00    +0.000 OA
ATOM     25  O   UNL     1       1.620   2.385   0.000  0.00  0.00    +0.000 OA
BRANCH  23  27
ATOM     26  C   UNL     1       4.066   1.670   0.000  0.00  0.00    +0.000 A 
ATOM     27  N   UNL     1       1.922   1.258   0.000  0.00  0.00    +0.000 NA
ATOM     28  C   UNL     1       2.637   1.670   0.000  0.00  0.00    +0.000 A 
ATOM     29  C   UNL     1       3.351   1.258   0.000  0.00  0.00    +0.000 A 
ATOM     30  C   UNL     1       4.066   2.495   0.000  0.00  0.00    +0.000 A 
ATOM     31  C   UNL     1       3.351   2.908   0.000  0.00  0.00    +0.000 A 
ATOM     32  N   UNL     1       2.637   2.495   0.000  0.00  0.00    +0.000 NA
ATOM     33 CL   UNL     1       4.780   2.908   0.000  0.00  0.00    +0.000 Cl
ENDBRANCH  23  27
ENDBRANCH   3  23
TORSDOF 5
