REMARK  Name = FXG
REMARK  12 active torsions:
REMARK  status: ('A' for Active; 'I' for Inactive)
REMARK    1  A    between atoms: C_2  and  C_3
REMARK    2  A    between atoms: C_3  and  C_4
REMARK    3  A    between atoms: C_4  and  C_5
REMARK    4  A    between atoms: C_5  and  C_6
REMARK    5  A    between atoms: C_6  and  C_7
REMARK    6  A    between atoms: C_7  and  N_8
REMARK    7  A    between atoms: N_8  and  C_9
REMARK    8  A    between atoms: N_18  and  C_19
REMARK    9  A    between atoms: C_23  and  C_25
REMARK   10  A    between atoms: N_27  and  C_28
REMARK   11  A    between atoms: C_28  and  C_29
REMARK   12  A    between atoms: C_29  and  C_30
REMARK                            x       y       z     vdW  Elec       q    Type
REMARK                         _______ _______ _______ _____ _____    ______ ____
ROOT
ATOM      1  O   UNL     1      -0.388  -1.818   0.000  0.00  0.00    +0.000 OA
ATOM      2  C   UNL     1      -0.388  -0.993   0.000  0.00  0.00    +0.000 C 
ATOM      3  N   UNL     1       0.327  -0.581   0.000  0.00  0.00    +0.000 NA
ENDROOT
BRANCH   3   4
ATOM      4  C   UNL     1       1.041  -0.993   0.000  0.00  0.00    +0.000 A 
ATOM      5  C   UNL     1       1.041  -1.818   0.000  0.00  0.00    +0.000 A 
ATOM      6  C   UNL     1       1.756  -2.231   0.000  0.00  0.00    +0.000 A 
ATOM      7  C   UNL     1       2.470  -1.818   0.000  0.00  0.00    +0.000 A 
ATOM      8  C   UNL     1       2.470  -0.993   0.000  0.00  0.00    +0.000 A 
ATOM      9  C   UNL     1       1.756  -0.581   0.000  0.00  0.00    +0.000 A 
BRANCH   8  10
ATOM     10  C   UNL     1       3.185  -0.581   0.000  0.00  0.00    +0.000 C 
ATOM     11  O   UNL     1       3.899  -0.993   0.000  0.00  0.00    +0.000 OA
ATOM     12  N   UNL     1       3.185   0.244   0.000  0.00  0.00    +0.000 NA
BRANCH  12  13
ATOM     13  C   UNL     1       3.899   0.657   0.000  0.00  0.00    +0.000 C 
BRANCH  13  14
ATOM     14  C   UNL     1       3.899   1.482   0.000  0.00  0.00    +0.000 C 
BRANCH  14  15
ATOM     15  C   UNL     1       4.614   1.894   0.000  0.00  0.00    +0.000 C 
ATOM     16  C   UNL     1       4.614   2.719   0.000  0.00  0.00    +0.000 C 
ENDBRANCH  14  15
ENDBRANCH  13  14
ENDBRANCH  12  13
ENDBRANCH   8  10
ENDBRANCH   3   4
BRANCH   2  17
ATOM     17  C   UNL     1      -1.102  -0.581   0.000  0.00  0.00    +0.000 C 
BRANCH  17  18
ATOM     18  C   UNL     1      -1.817  -0.993   0.000  0.00  0.00    +0.000 C 
BRANCH  18  19
ATOM     19  C   UNL     1      -2.531  -0.581   0.000  0.00  0.00    +0.000 C 
BRANCH  19  20
ATOM     20  C   UNL     1      -3.245  -0.993   0.000  0.00  0.00    +0.000 C 
BRANCH  20  21
ATOM     21  C   UNL     1      -3.960  -0.581   0.000  0.00  0.00    +0.000 C 
BRANCH  21  22
ATOM     22  N   UNL     1      -4.674  -0.993   0.000  0.00  0.00    +0.000 NA
BRANCH  22  23
ATOM     23  C   UNL     1      -5.389  -0.581   0.000  0.00  0.00    +0.000 A 
ATOM     24  C   UNL     1      -5.389   0.244   0.000  0.00  0.00    +0.000 A 
ATOM     25  C   UNL     1      -6.103   0.657   0.000  0.00  0.00    +0.000 A 
ATOM     26  N   UNL     1      -5.932   1.464   0.000  0.00  0.00    +0.000 NA
ATOM     27  C   UNL     1      -5.111   1.550   0.000  0.00  0.00    +0.000 A 
ATOM     28  N   UNL     1      -4.776   0.796   0.000  0.00  0.00    +0.000 NA
ATOM     29  N   UNL     1      -6.818   0.244   0.000  0.00  0.00    +0.000 NA
ATOM     30  C   UNL     1      -6.818  -0.581   0.000  0.00  0.00    +0.000 A 
ATOM     31  N   UNL     1      -6.103  -0.993   0.000  0.00  0.00    +0.000 NA
ENDBRANCH  22  23
ENDBRANCH  21  22
ENDBRANCH  20  21
ENDBRANCH  19  20
ENDBRANCH  18  19
ENDBRANCH  17  18
ENDBRANCH   2  17
TORSDOF 12
