REMARK  Name = FXN
REMARK  3 active torsions:
REMARK  status: ('A' for Active; 'I' for Inactive)
REMARK    1  A    between atoms: C_10  and  C_11
REMARK    2  A    between atoms: N_13  and  C_14
REMARK    3  A    between atoms: C_14  and  C_15
REMARK                            x       y       z     vdW  Elec       q    Type
REMARK                         _______ _______ _______ _____ _____    ______ ____
ROOT
ATOM      1  F   UNL     1      -3.486  -0.655   0.000  0.00  0.00    +0.000 F 
ATOM      2  C   UNL     1      -2.660  -0.655   0.000  0.00  0.00    +0.000 A 
ATOM      3  C   UNL     1      -2.248   0.059   0.000  0.00  0.00    +0.000 A 
ATOM      4  C   UNL     1      -2.248  -1.370   0.000  0.00  0.00    +0.000 A 
ATOM      5  C   UNL     1      -1.423  -1.370   0.000  0.00  0.00    +0.000 A 
ATOM      6  C   UNL     1      -1.010  -0.655   0.000  0.00  0.00    +0.000 A 
ATOM      7  N   UNL     1      -0.204  -0.484   0.000  0.00  0.00    +0.000 NA
ATOM      8  C   UNL     1      -1.423   0.059   0.000  0.00  0.00    +0.000 A 
ATOM      9  C   UNL     1      -0.871   0.672   0.000  0.00  0.00    +0.000 A 
ATOM     10  C   UNL     1      -0.117   0.337   0.000  0.00  0.00    +0.000 A 
ENDROOT
BRANCH  10  11
ATOM     11  C   UNL     1       0.597   0.749   0.000  0.00  0.00    +0.000 C 
ATOM     12  O   UNL     1       0.597   1.574   0.000  0.00  0.00    +0.000 OA
ATOM     13  N   UNL     1       1.312   0.337   0.000  0.00  0.00    +0.000 NA
BRANCH  13  14
ATOM     14  C   UNL     1       2.026   0.749   0.000  0.00  0.00    +0.000 C 
BRANCH  14  15
ATOM     15  C   UNL     1       2.741   0.337   0.000  0.00  0.00    +0.000 C 
ATOM     16  S   UNL     1       3.455   0.749   0.000  0.00  0.00    +0.000 S 
ENDBRANCH  14  15
ENDBRANCH  13  14
ENDBRANCH  10  11
TORSDOF 3
