REMARK  Name = FYX
REMARK  3 active torsions:
REMARK  status: ('A' for Active; 'I' for Inactive)
REMARK    1  A    between atoms: C_6  and  C_7
REMARK    2  A    between atoms: C_11  and  C_12
REMARK    3  A    between atoms: C_17  and  C_18
REMARK                            x       y       z     vdW  Elec       q    Type
REMARK                         _______ _______ _______ _____ _____    ______ ____
ROOT
ATOM      1  C   UNL     1      -0.667   0.575   0.000  0.00  0.00    +0.000 A 
ATOM      2  N   UNL     1       0.001   0.090   0.000  0.00  0.00    +0.000 NA
ATOM      3  N   UNL     1      -1.334   0.090   0.000  0.00  0.00    +0.000 NA
ATOM      4  N   UNL     1      -1.079  -0.694   0.000  0.00  0.00    +0.000 NA
ATOM      5  C   UNL     1      -0.254  -0.694   0.000  0.00  0.00    +0.000 A 
ENDROOT
BRANCH   1  11
ATOM      6  C   UNL     1      -1.381   1.813   0.000  0.00  0.00    +0.000 A 
ATOM      7  C   UNL     1      -1.381   2.638   0.000  0.00  0.00    +0.000 A 
ATOM      8  N   UNL     1      -0.667   3.050   0.000  0.00  0.00    +0.000 NA
ATOM      9  C   UNL     1       0.048   2.638   0.000  0.00  0.00    +0.000 A 
ATOM     10  C   UNL     1       0.048   1.813   0.000  0.00  0.00    +0.000 A 
ATOM     11  C   UNL     1      -0.667   1.400   0.000  0.00  0.00    +0.000 A 
ENDBRANCH   1  11
BRANCH   5  12
ATOM     12  C   UNL     1       0.231  -1.362   0.000  0.00  0.00    +0.000 A 
ATOM     13  C   UNL     1       1.051  -1.276   0.000  0.00  0.00    +0.000 A 
ATOM     14  C   UNL     1      -0.105  -2.115   0.000  0.00  0.00    +0.000 A 
ATOM     15  C   UNL     1       0.380  -2.783   0.000  0.00  0.00    +0.000 A 
ATOM     16  N   UNL     1       1.200  -2.697   0.000  0.00  0.00    +0.000 NA
ATOM     17  C   UNL     1       1.536  -1.943   0.000  0.00  0.00    +0.000 A 
BRANCH  17  18
ATOM     18  C   UNL     1       2.357  -1.857   0.000  0.00  0.00    +0.000 C 
ATOM     19  N   UNL     1       3.177  -1.770   0.000  0.00  0.00    +0.000 NA
ENDBRANCH  17  18
ENDBRANCH   5  12
TORSDOF 3
