REMARK  Name = G12
REMARK  0 active torsions:
REMARK  status: ('A' for Active; 'I' for Inactive)
REMARK                            x       y       z     vdW  Elec       q    Type
REMARK                         _______ _______ _______ _____ _____    ______ ____
ROOT
ATOM      1 BR   UNL     1      -2.117   1.198   0.000  0.00  0.00    +0.000 Br
ATOM      2  C   UNL     1      -1.403   0.785   0.000  0.00  0.00    +0.000 A 
ATOM      3  C   UNL     1      -1.403  -0.040   0.000  0.00  0.00    +0.000 A 
ATOM      4  O   UNL     1      -2.117  -0.452   0.000  0.00  0.00    +0.000 OA
ATOM      5  O   UNL     1      -0.688  -0.452   0.000  0.00  0.00    +0.000 OA
ATOM      6  C   UNL     1      -0.688   1.198   0.000  0.00  0.00    +0.000 A 
ATOM      7  C   UNL     1      -0.688   2.023   0.000  0.00  0.00    +0.000 C 
ATOM      8  C   UNL     1       0.026   0.785   0.000  0.00  0.00    +0.000 A 
ATOM      9  C   UNL     1       0.026  -0.040   0.000  0.00  0.00    +0.000 A 
ATOM     10  C   UNL     1       0.741  -0.452   0.000  0.00  0.00    +0.000 A 
ATOM     11 BR   UNL     1       0.741  -1.277   0.000  0.00  0.00    +0.000 Br
ATOM     12  C   UNL     1       0.741   1.198   0.000  0.00  0.00    +0.000 A 
ATOM     13  C   UNL     1       1.455   0.785   0.000  0.00  0.00    +0.000 A 
ATOM     14  C   UNL     1       1.455  -0.040   0.000  0.00  0.00    +0.000 A 
ATOM     15  O   UNL     1       2.170  -0.452   0.000  0.00  0.00    +0.000 OA
ENDROOT
TORSDOF 0
