REMARK  Name = G15
REMARK  6 active torsions:
REMARK  status: ('A' for Active; 'I' for Inactive)
REMARK    1  A    between atoms: C_2  and  C_9
REMARK    2  A    between atoms: C_9  and  N_11
REMARK    3  A    between atoms: C_16  and  N_17
REMARK    4  A    between atoms: N_17  and  S_18
REMARK    5  A    between atoms: S_18  and  C_21
REMARK    6  A    between atoms: C_25  and  C_26
REMARK                            x       y       z     vdW  Elec       q    Type
REMARK                         _______ _______ _______ _____ _____    ______ ____
ROOT
ATOM      1  N   UNL     1       0.049  -3.167   0.000  0.00  0.00    +0.000 N 
ATOM      2  C   UNL     1      -0.776  -3.167   0.000  0.00  0.00    +0.000 C 
ATOM      3  C   UNL     1      -1.031  -2.383   0.000  0.00  0.00    +0.000 C 
ATOM      4  C   UNL     1       0.304  -2.383   0.000  0.00  0.00    +0.000 C 
ATOM      5  O   UNL     1       1.088  -2.128   0.000  0.00  0.00    +0.000 OA
ATOM      6  C   UNL     1      -0.364  -1.898   0.000  0.00  0.00    +0.000 C 
ENDROOT
BRANCH   1   7
ATOM      7  C   UNL     1       0.534  -3.835   0.000  0.00  0.00    +0.000 C 
ATOM      8  C   UNL     1       1.354  -3.749   0.000  0.00  0.00    +0.000 C 
BRANCH   7  10
ATOM      9  O   UNL     1      -0.622  -4.675   0.000  0.00  0.00    +0.000 OA
ATOM     10  C   UNL     1       0.198  -4.589   0.000  0.00  0.00    +0.000 C 
ATOM     11  N   UNL     1       0.683  -5.256   0.000  0.00  0.00    +0.000 N 
ATOM     12  C   UNL     1       1.504  -5.170   0.000  0.00  0.00    +0.000 C 
ATOM     13  C   UNL     1       1.988  -5.837   0.000  0.00  0.00    +0.000 C 
ATOM     14  O   UNL     1       1.653  -6.591   0.000  0.00  0.00    +0.000 OA
ATOM     15  C   UNL     1       0.832  -6.677   0.000  0.00  0.00    +0.000 C 
ATOM     16  C   UNL     1       0.347  -6.010   0.000  0.00  0.00    +0.000 C 
ENDBRANCH   7  10
ENDBRANCH   1   7
BRANCH   6  17
ATOM     17  N   UNL     1      -0.364  -1.073   0.000  0.00  0.00    +0.000 NA
BRANCH  17  18
ATOM     18  S   UNL     1      -1.078  -0.660   0.000  0.00  0.00    +0.000 S 
ATOM     19  O   UNL     1      -1.491  -1.375   0.000  0.00  0.00    +0.000 OA
ATOM     20  O   UNL     1      -0.666   0.054   0.000  0.00  0.00    +0.000 OA
BRANCH  18  21
ATOM     21  C   UNL     1      -1.793  -0.248   0.000  0.00  0.00    +0.000 A 
ATOM     22  N   UNL     1      -2.546  -0.584   0.000  0.00  0.00    +0.000 NA
ATOM     23  N   UNL     1      -3.098   0.030   0.000  0.00  0.00    +0.000 NA
ATOM     24  N   UNL     1      -1.879   0.573   0.000  0.00  0.00    +0.000 NA
ATOM     25  C   UNL     1      -2.686   0.744   0.000  0.00  0.00    +0.000 A 
BRANCH  25  26
ATOM     26  C   UNL     1      -3.022   1.498   0.000  0.00  0.00    +0.000 A 
ATOM     27  C   UNL     1      -3.828   1.669   0.000  0.00  0.00    +0.000 A 
ATOM     28  C   UNL     1      -3.915   2.490   0.000  0.00  0.00    +0.000 A 
ATOM     29  C   UNL     1      -3.161   2.825   0.000  0.00  0.00    +0.000 A 
ATOM     30  S   UNL     1      -2.609   2.212   0.000  0.00  0.00    +0.000 S 
ATOM     31 CL   UNL     1      -2.990   3.632   0.000  0.00  0.00    +0.000 Cl
ENDBRANCH  25  26
ENDBRANCH  18  21
ENDBRANCH  17  18
ENDBRANCH   6  17
TORSDOF 6
