REMARK  Name = G1L
REMARK  4 active torsions:
REMARK  status: ('A' for Active; 'I' for Inactive)
REMARK    1  A    between atoms: C_2  and  C_5
REMARK    2  A    between atoms: C_10  and  N_11
REMARK    3  A    between atoms: C_12  and  C_14
REMARK    4  A    between atoms: C_14  and  C_17
REMARK                            x       y       z     vdW  Elec       q    Type
REMARK                         _______ _______ _______ _____ _____    ______ ____
ROOT
ATOM      1  C   UNL     1       0.058  -0.293   0.000  0.00  0.00    +0.000 A 
ATOM      2  C   UNL     1       0.471  -1.008   0.000  0.00  0.00    +0.000 A 
ATOM      3  C   UNL     1       1.296  -1.008   0.000  0.00  0.00    +0.000 A 
ATOM      4  C   UNL     1       0.471   0.421   0.000  0.00  0.00    +0.000 A 
ATOM      5  C   UNL     1       1.296   0.421   0.000  0.00  0.00    +0.000 A 
ATOM      6  C   UNL     1       1.708  -0.293   0.000  0.00  0.00    +0.000 A 
ENDROOT
BRANCH   1   8
ATOM      7  F   UNL     1      -1.592  -0.293   0.000  0.00  0.00    +0.000 F 
ATOM      8  C   UNL     1      -0.767  -0.293   0.000  0.00  0.00    +0.000 C 
ATOM      9  F   UNL     1      -0.767  -1.118   0.000  0.00  0.00    +0.000 F 
ATOM     10  F   UNL     1      -0.767   0.532   0.000  0.00  0.00    +0.000 F 
ENDBRANCH   1   8
BRANCH   6  11
ATOM     11  N   UNL     1       2.533  -0.293   0.000  0.00  0.00    +0.000 NA
ATOM     12  C   UNL     1       2.946   0.421   0.000  0.00  0.00    +0.000 C 
ATOM     13  O   UNL     1       2.533   1.136   0.000  0.00  0.00    +0.000 OA
BRANCH  12  14
ATOM     14  C   UNL     1       3.771   0.421   0.000  0.00  0.00    +0.000 C 
ATOM     15  C   UNL     1       3.771   1.246   0.000  0.00  0.00    +0.000 C 
ATOM     16  C   UNL     1       3.771  -0.404   0.000  0.00  0.00    +0.000 C 
BRANCH  14  17
ATOM     17  C   UNL     1       4.596   0.421   0.000  0.00  0.00    +0.000 C 
ATOM     18 CL   UNL     1       5.008   1.136   0.000  0.00  0.00    +0.000 Cl
ENDBRANCH  14  17
ENDBRANCH  12  14
ENDBRANCH   6  11
TORSDOF 4
