REMARK  Name = G23
REMARK  8 active torsions:
REMARK  status: ('A' for Active; 'I' for Inactive)
REMARK    1  A    between atoms: CA_1  and  C_7
REMARK    2  A    between atoms: C_2  and  C_3
REMARK    3  A    between atoms: C_3  and  C_4
REMARK    4  A    between atoms: C_3  and  N_25
REMARK    5  A    between atoms: C_9  and  C_22
REMARK    6  A    between atoms: C_9  and  N_26
REMARK    7  A    between atoms: C_10  and  C_11
REMARK    8  A    between atoms: C_11  and  C_13
REMARK                            x       y       z     vdW  Elec       q    Type
REMARK                         _______ _______ _______ _____ _____    ______ ____
ROOT
ATOM      1  C   UNL     1       0.004   0.860   0.000  0.00  0.00    +0.000 C 
ENDROOT
BRANCH   1   3
ATOM      2  CA  UNL     1       0.417  -1.235   0.000  0.00  0.00    +0.000 C 
ATOM      3  C   UNL     1       0.004   0.035   0.000  0.00  0.00    +0.000 C 
ATOM      4  C   UNL     1      -0.322  -2.055   0.000  0.00  0.00    +0.000 C 
ATOM      5  C   UNL     1      -1.215  -1.406   0.000  0.00  0.00    +0.000 C 
ATOM      6  C   UNL     1      -0.408  -1.235   0.000  0.00  0.00    +0.000 C 
ATOM      7  N   UNL     1       0.672  -0.450   0.000  0.00  0.00    +0.000 NA
ATOM      8  S   UNL     1      -0.663  -0.450   0.000  0.00  0.00    +0.000 S 
BRANCH   2   9
ATOM      9  C   UNL     1       0.902  -1.902   0.000  0.00  0.00    +0.000 C 
ATOM     10  O   UNL     1       1.722  -1.816   0.000  0.00  0.00    +0.000 OA
ATOM     11  OXT UNL     1       0.566  -2.656   0.000  0.00  0.00    +0.000 OA
ENDBRANCH   2   9
ENDBRANCH   1   3
BRANCH   1  13
ATOM     12  C   UNL     1       1.433   0.860   0.000  0.00  0.00    +0.000 C 
ATOM     13  N   UNL     1       0.719   1.272   0.000  0.00  0.00    +0.000 NA
ATOM     14  O   UNL     1       1.433   0.035   0.000  0.00  0.00    +0.000 OA
BRANCH  12  15
ATOM     15  C   UNL     1       2.148   1.272   0.000  0.00  0.00    +0.000 C 
BRANCH  15  17
ATOM     16  C   UNL     1       2.862   0.035   0.000  0.00  0.00    +0.000 A 
ATOM     17  C   UNL     1       2.862   0.860   0.000  0.00  0.00    +0.000 A 
ATOM     18  C   UNL     1       3.576   1.272   0.000  0.00  0.00    +0.000 A 
ATOM     19  C   UNL     1       4.291   0.860   0.000  0.00  0.00    +0.000 A 
ATOM     20  C   UNL     1       4.291   0.035   0.000  0.00  0.00    +0.000 A 
ATOM     21  C   UNL     1       3.576  -0.378   0.000  0.00  0.00    +0.000 A 
ENDBRANCH  15  17
ENDBRANCH  12  15
ENDBRANCH   1  13
BRANCH   1  22
ATOM     22  C   UNL     1      -0.710   1.272   0.000  0.00  0.00    +0.000 C 
ATOM     23  N   UNL     1      -1.425   0.860   0.000  0.00  0.00    +0.000 NA
ATOM     24  O   UNL     1      -0.710   2.098   0.000  0.00  0.00    +0.000 OA
BRANCH  23  25
ATOM     25  C   UNL     1      -2.139   1.272   0.000  0.00  0.00    +0.000 C 
BRANCH  25  30
ATOM     26  C   UNL     1      -3.568  -0.378   0.000  0.00  0.00    +0.000 A 
ATOM     27  C   UNL     1      -4.283   0.035   0.000  0.00  0.00    +0.000 A 
ATOM     28  C   UNL     1      -4.283   0.860   0.000  0.00  0.00    +0.000 A 
ATOM     29  C   UNL     1      -3.568   1.272   0.000  0.00  0.00    +0.000 A 
ATOM     30  C   UNL     1      -2.854   0.860   0.000  0.00  0.00    +0.000 A 
ATOM     31  C   UNL     1      -2.854   0.035   0.000  0.00  0.00    +0.000 A 
ENDBRANCH  25  30
ENDBRANCH  23  25
ENDBRANCH   1  22
TORSDOF 8
