REMARK  Name = G27
REMARK  5 active torsions:
REMARK  status: ('A' for Active; 'I' for Inactive)
REMARK    1  A    between atoms: C_6  and  C_7
REMARK    2  A    between atoms: C_7  and  C_8
REMARK    3  A    between atoms: C_8  and  C_9
REMARK    4  A    between atoms: C_9  and  N_10
REMARK    5  A    between atoms: C_17  and  C_18
REMARK                            x       y       z     vdW  Elec       q    Type
REMARK                         _______ _______ _______ _____ _____    ______ ____
ROOT
ATOM      1  N   UNL     1      -0.777   0.473   0.000  0.00  0.00    +0.000 NA
ATOM      2  C   UNL     1      -0.777  -0.352   0.000  0.00  0.00    +0.000 C 
ATOM      3  C   UNL     1      -1.492   0.886   0.000  0.00  0.00    +0.000 C 
ATOM      4  C   UNL     1      -2.206   0.473   0.000  0.00  0.00    +0.000 C 
ATOM      5  O   UNL     1      -2.920   0.886   0.000  0.00  0.00    +0.000 OA
ATOM      6  C   UNL     1      -2.206  -0.352   0.000  0.00  0.00    +0.000 C 
ATOM      7  O   UNL     1      -2.920  -0.764   0.000  0.00  0.00    +0.000 OA
ATOM      8  C   UNL     1      -1.492  -0.764   0.000  0.00  0.00    +0.000 C 
ENDROOT
BRANCH   8   9
ATOM      9  C   UNL     1      -1.492  -1.589   0.000  0.00  0.00    +0.000 C 
ATOM     10  O   UNL     1      -2.206  -2.002   0.000  0.00  0.00    +0.000 OA
ENDBRANCH   8   9
BRANCH   1  11
ATOM     11  C   UNL     1      -0.062   0.886   0.000  0.00  0.00    +0.000 C 
BRANCH  11  12
ATOM     12  C   UNL     1       0.652   0.473   0.000  0.00  0.00    +0.000 C 
BRANCH  12  13
ATOM     13  C   UNL     1       1.366   0.886   0.000  0.00  0.00    +0.000 C 
BRANCH  13  19
ATOM     14  C   UNL     1       2.795   0.886   0.000  0.00  0.00    +0.000 A 
ATOM     15  C   UNL     1       3.510   0.473   0.000  0.00  0.00    +0.000 A 
ATOM     16  C   UNL     1       3.510  -0.352   0.000  0.00  0.00    +0.000 A 
ATOM     17  C   UNL     1       2.795  -0.764   0.000  0.00  0.00    +0.000 A 
ATOM     18  C   UNL     1       2.081  -0.352   0.000  0.00  0.00    +0.000 A 
ATOM     19  C   UNL     1       2.081   0.473   0.000  0.00  0.00    +0.000 A 
ENDBRANCH  13  19
ENDBRANCH  12  13
ENDBRANCH  11  12
ENDBRANCH   1  11
TORSDOF 5
