REMARK  Name = G30
REMARK  3 active torsions:
REMARK  status: ('A' for Active; 'I' for Inactive)
REMARK    1  A    between atoms: C_8  and  N_9
REMARK    2  A    between atoms: C_10  and  C_12
REMARK    3  A    between atoms: C_13  and  C_15
REMARK                            x       y       z     vdW  Elec       q    Type
REMARK                         _______ _______ _______ _____ _____    ______ ____
ROOT
ATOM      1  N   UNL     1       0.697   0.161   0.000  0.00  0.00    +0.000 NA
ATOM      2  C   UNL     1      -0.018  -0.252   0.000  0.00  0.00    +0.000 C 
ATOM      3  O   UNL     1      -0.732   0.161   0.000  0.00  0.00    +0.000 OA
ENDROOT
BRANCH   1  11
ATOM      4  F   UNL     1       2.126   2.636   0.000  0.00  0.00    +0.000 F 
ATOM      5  C   UNL     1       1.411   2.223   0.000  0.00  0.00    +0.000 A 
ATOM      6  C   UNL     1       0.697   2.636   0.000  0.00  0.00    +0.000 A 
ATOM      7  C   UNL     1      -0.018   2.223   0.000  0.00  0.00    +0.000 A 
ATOM      8  C   UNL     1      -0.018   1.398   0.000  0.00  0.00    +0.000 A 
ATOM      9  F   UNL     1      -0.732   0.986   0.000  0.00  0.00    +0.000 F 
ATOM     10  C   UNL     1       1.411   1.398   0.000  0.00  0.00    +0.000 A 
ATOM     11  C   UNL     1       0.697   0.986   0.000  0.00  0.00    +0.000 A 
ENDBRANCH   1  11
BRANCH   2  12
ATOM     12  C   UNL     1      -0.018  -1.077   0.000  0.00  0.00    +0.000 C 
ATOM     13  C   UNL     1      -0.430  -1.791   0.000  0.00  0.00    +0.000 C 
ATOM     14  C   UNL     1       0.395  -1.791   0.000  0.00  0.00    +0.000 C 
BRANCH  13  15
ATOM     15  C   UNL     1      -1.145  -2.204   0.000  0.00  0.00    +0.000 C 
ATOM     16  O   UNL     1      -1.145  -3.029   0.000  0.00  0.00    +0.000 OA
ATOM     17  O   UNL     1      -1.859  -1.791   0.000  0.00  0.00    +0.000 OA
ENDBRANCH  13  15
ENDBRANCH   2  12
TORSDOF 3
