REMARK  Name = G44
REMARK  6 active torsions:
REMARK  status: ('A' for Active; 'I' for Inactive)
REMARK    1  A    between atoms: C_6  and  C_8
REMARK    2  A    between atoms: C_8  and  C_10
REMARK    3  A    between atoms: C_14  and  N_15
REMARK    4  A    between atoms: N_15  and  C_16
REMARK    5  A    between atoms: C_16  and  C_17
REMARK    6  A    between atoms: C_20  and  C_23
REMARK                            x       y       z     vdW  Elec       q    Type
REMARK                         _______ _______ _______ _____ _____    ______ ____
ROOT
ATOM      1  C   UNL     1      -1.165   0.563   0.000  0.00  0.00    +0.000 A 
ATOM      2  C   UNL     1      -1.165   1.388   0.000  0.00  0.00    +0.000 A 
ATOM      3  C   UNL     1      -0.450   1.800   0.000  0.00  0.00    +0.000 A 
ATOM      4  N   UNL     1       0.264   1.388   0.000  0.00  0.00    +0.000 NA
ATOM      5  C   UNL     1       0.264   0.563   0.000  0.00  0.00    +0.000 A 
ATOM      6  C   UNL     1      -0.450   0.150   0.000  0.00  0.00    +0.000 A 
ENDROOT
BRANCH   1   7
ATOM      7  C   UNL     1      -1.879   0.150   0.000  0.00  0.00    +0.000 C 
ATOM      8  O   UNL     1      -1.879  -0.675   0.000  0.00  0.00    +0.000 OA
BRANCH   7  14
ATOM      9  C   UNL     1      -3.308   2.625   0.000  0.00  0.00    +0.000 C 
ATOM     10  C   UNL     1      -3.308   1.800   0.000  0.00  0.00    +0.000 A 
ATOM     11  C   UNL     1      -4.023   1.388   0.000  0.00  0.00    +0.000 A 
ATOM     12  C   UNL     1      -4.023   0.563   0.000  0.00  0.00    +0.000 A 
ATOM     13  C   UNL     1      -3.308   0.150   0.000  0.00  0.00    +0.000 A 
ATOM     14  C   UNL     1      -2.594   0.563   0.000  0.00  0.00    +0.000 A 
ATOM     15  C   UNL     1      -2.594   1.388   0.000  0.00  0.00    +0.000 A 
ENDBRANCH   7  14
ENDBRANCH   1   7
BRANCH   5  16
ATOM     16  N   UNL     1       0.979   0.150   0.000  0.00  0.00    +0.000 NA
BRANCH  16  17
ATOM     17  C   UNL     1       0.979  -0.675   0.000  0.00  0.00    +0.000 C 
BRANCH  17  18
ATOM     18  C   UNL     1       1.693  -1.087   0.000  0.00  0.00    +0.000 A 
ATOM     19  C   UNL     1       1.693  -1.912   0.000  0.00  0.00    +0.000 A 
ATOM     20  C   UNL     1       2.408  -2.325   0.000  0.00  0.00    +0.000 A 
ATOM     21  C   UNL     1       3.122  -1.912   0.000  0.00  0.00    +0.000 A 
ATOM     22  C   UNL     1       3.122  -1.087   0.000  0.00  0.00    +0.000 A 
ATOM     23  C   UNL     1       2.408  -0.675   0.000  0.00  0.00    +0.000 A 
BRANCH  21  24
ATOM     24  C   UNL     1       3.837  -2.325   0.000  0.00  0.00    +0.000 C 
ATOM     25  N   UNL     1       4.551  -1.912   0.000  0.00  0.00    +0.000 NA
ATOM     26  N   UNL     1       3.837  -3.150   0.000  0.00  0.00    +0.000 NA
ENDBRANCH  21  24
ENDBRANCH  17  18
ENDBRANCH  16  17
ENDBRANCH   5  16
TORSDOF 6
