REMARK  Name = G95
REMARK  5 active torsions:
REMARK  status: ('A' for Active; 'I' for Inactive)
REMARK    1  A    between atoms: C_1  and  C_2
REMARK    2  A    between atoms: C_2  and  C_17
REMARK    3  A    between atoms: C_2  and  N_18
REMARK    4  A    between atoms: C_3  and  C_4
REMARK    5  A    between atoms: C_8  and  C_9
REMARK                            x       y       z     vdW  Elec       q    Type
REMARK                         _______ _______ _______ _____ _____    ______ ____
ROOT
ATOM      1  C   UNL     1      -0.003  -0.466   0.000  0.00  0.00    +0.000 A 
ATOM      2  C   UNL     1       0.822  -0.466   0.000  0.00  0.00    +0.000 A 
ATOM      3  C   UNL     1       0.410  -1.735   0.000  0.00  0.00    +0.000 A 
ATOM      4  C   UNL     1       1.077  -1.250   0.000  0.00  0.00    +0.000 A 
ATOM      5  S   UNL     1      -0.258  -1.250   0.000  0.00  0.00    +0.000 S 
ENDROOT
BRANCH   3   8
ATOM      6  C   UNL     1       1.124  -2.973   0.000  0.00  0.00    +0.000 A 
ATOM      7  C   UNL     1       1.124  -3.798   0.000  0.00  0.00    +0.000 A 
ATOM      8  C   UNL     1       0.410  -2.560   0.000  0.00  0.00    +0.000 A 
ATOM      9  C   UNL     1      -1.574  -3.385   0.000  0.00  0.00    +0.000 A 
ATOM     10  C   UNL     1      -1.089  -2.718   0.000  0.00  0.00    +0.000 A 
ATOM     11  C   UNL     1      -0.305  -2.973   0.000  0.00  0.00    +0.000 A 
ATOM     12  N   UNL     1       0.410  -4.210   0.000  0.00  0.00    +0.000 NA
ATOM     13  C   UNL     1      -0.305  -3.798   0.000  0.00  0.00    +0.000 A 
ATOM     14  N   UNL     1      -1.089  -4.053   0.000  0.00  0.00    +0.000 NA
ENDBRANCH   3   8
BRANCH   1  15
ATOM     15  C   UNL     1      -0.488   0.202   0.000  0.00  0.00    +0.000 C 
ATOM     16  O   UNL     1      -1.308   0.115   0.000  0.00  0.00    +0.000 OA
ATOM     17  N   UNL     1      -0.152   0.955   0.000  0.00  0.00    +0.000 NA
BRANCH  17  18
ATOM     18  C   UNL     1      -0.637   1.623   0.000  0.00  0.00    +0.000 C 
BRANCH  18  19
ATOM     19  C   UNL     1      -0.301   2.376   0.000  0.00  0.00    +0.000 A 
ATOM     20  C   UNL     1      -0.786   3.044   0.000  0.00  0.00    +0.000 A 
ATOM     21  C   UNL     1      -0.451   3.797   0.000  0.00  0.00    +0.000 A 
ATOM     22  C   UNL     1       0.370   3.884   0.000  0.00  0.00    +0.000 A 
ATOM     23  C   UNL     1       0.855   3.216   0.000  0.00  0.00    +0.000 A 
ATOM     24  C   UNL     1       0.519   2.463   0.000  0.00  0.00    +0.000 A 
ENDBRANCH  18  19
BRANCH  18  25
ATOM     25  C   UNL     1      -1.458   1.536   0.000  0.00  0.00    +0.000 C 
ATOM     26  N   UNL     1      -1.942   2.204   0.000  0.00  0.00    +0.000 NA
ENDBRANCH  18  25
ENDBRANCH  17  18
ENDBRANCH   1  15
TORSDOF 5
