REMARK  Name = GA0
REMARK  5 active torsions:
REMARK  status: ('A' for Active; 'I' for Inactive)
REMARK    1  A    between atoms: C_2  and  C_3
REMARK    2  A    between atoms: N_5  and  C_6
REMARK    3  A    between atoms: C_6  and  C_8
REMARK    4  A    between atoms: C_12  and  C_15
REMARK    5  A    between atoms: N_17  and  C_18
REMARK                            x       y       z     vdW  Elec       q    Type
REMARK                         _______ _______ _______ _____ _____    ______ ____
ROOT
ATOM      1  C   UNL     1      -0.247   0.472   0.000  0.00  0.00    +0.000 C 
ATOM      2  O   UNL     1      -0.247  -0.353   0.000  0.00  0.00    +0.000 OA
ATOM      3  N   UNL     1       0.468   0.884   0.000  0.00  0.00    +0.000 N 
ATOM      4  C   UNL     1       0.554   1.705   0.000  0.00  0.00    +0.000 C 
ATOM      5  C   UNL     1       1.222   0.549   0.000  0.00  0.00    +0.000 C 
ATOM      6  C   UNL     1       1.774   1.162   0.000  0.00  0.00    +0.000 C 
ATOM      7  C   UNL     1       1.361   1.876   0.000  0.00  0.00    +0.000 C 
ENDROOT
BRANCH   5   8
ATOM      8  C   UNL     1       1.393  -0.258   0.000  0.00  0.00    +0.000 C 
ATOM      9  O   UNL     1       2.178  -0.513   0.000  0.00  0.00    +0.000 OA
ATOM     10  N   UNL     1       0.780  -0.810   0.000  0.00  0.00    +0.000 NA
BRANCH  10  11
ATOM     11  C   UNL     1       0.952  -1.617   0.000  0.00  0.00    +0.000 A 
ATOM     12  C   UNL     1       0.338  -2.169   0.000  0.00  0.00    +0.000 A 
ATOM     13  C   UNL     1       0.510  -2.976   0.000  0.00  0.00    +0.000 A 
ATOM     14  C   UNL     1       1.295  -3.231   0.000  0.00  0.00    +0.000 A 
ATOM     15  C   UNL     1       1.466  -4.038   0.000  0.00  0.00    +0.000 A 
ATOM     16  C   UNL     1       0.853  -4.590   0.000  0.00  0.00    +0.000 A 
ATOM     17  C   UNL     1       0.068  -4.335   0.000  0.00  0.00    +0.000 A 
ATOM     18  C   UNL     1      -0.103  -3.528   0.000  0.00  0.00    +0.000 A 
ATOM     19  C   UNL     1       1.908  -2.679   0.000  0.00  0.00    +0.000 A 
ATOM     20  C   UNL     1       1.736  -1.872   0.000  0.00  0.00    +0.000 A 
ENDBRANCH  10  11
ENDBRANCH   5   8
BRANCH   1  21
ATOM     21  C   UNL     1      -0.961   0.884   0.000  0.00  0.00    +0.000 C 
ATOM     22  C   UNL     1      -0.961   1.709   0.000  0.00  0.00    +0.000 C 
BRANCH  21  25
ATOM     23  C   UNL     1      -2.390   0.884   0.000  0.00  0.00    +0.000 C 
ATOM     24  O   UNL     1      -2.390   1.709   0.000  0.00  0.00    +0.000 OA
ATOM     25  N   UNL     1      -1.675   0.472   0.000  0.00  0.00    +0.000 NA
BRANCH  23  27
ATOM     26  N   UNL     1      -3.819   0.884   0.000  0.00  0.00    +0.000 NA
ATOM     27  C   UNL     1      -3.104   0.472   0.000  0.00  0.00    +0.000 C 
ENDBRANCH  23  27
ENDBRANCH  21  25
ENDBRANCH   1  21
TORSDOF 5
