REMARK  Name = GAS
REMARK  7 active torsions:
REMARK  status: ('A' for Active; 'I' for Inactive)
REMARK    1  A    between atoms: C_6  and  C_7
REMARK    2  A    between atoms: C_7  and  N_8
REMARK    3  A    between atoms: C_7  and  C_9
REMARK    4  A    between atoms: N_16  and  C_17
REMARK    5  A    between atoms: C_17  and  C_18
REMARK    6  A    between atoms: N_21  and  C_22
REMARK    7  A    between atoms: C_25  and  C_26
REMARK                            x       y       z     vdW  Elec       q    Type
REMARK                         _______ _______ _______ _____ _____    ______ ____
ROOT
ATOM      1  N   UNL     1       0.128   0.104   0.000  0.00  0.00    +0.000 NA
ATOM      2  C   UNL     1      -0.586   0.516   0.000  0.00  0.00    +0.000 C 
ATOM      3  N   UNL     1      -1.300   0.104   0.000  0.00  0.00    +0.000 NA
ATOM      4  N   UNL     1      -0.586   1.341   0.000  0.00  0.00    +0.000 NA
ENDROOT
BRANCH   4   5
ATOM      5  C   UNL     1       0.128   1.754   0.000  0.00  0.00    +0.000 A 
ATOM      6  C   UNL     1       0.128   2.579   0.000  0.00  0.00    +0.000 A 
ATOM      7  C   UNL     1       0.843   2.991   0.000  0.00  0.00    +0.000 A 
ATOM      8  C   UNL     1       1.557   2.579   0.000  0.00  0.00    +0.000 A 
ATOM      9  C   UNL     1       1.557   1.754   0.000  0.00  0.00    +0.000 A 
ATOM     10  C   UNL     1       0.843   1.341   0.000  0.00  0.00    +0.000 A 
BRANCH   8  11
ATOM     11  C   UNL     1       2.272   2.991   0.000  0.00  0.00    +0.000 C 
ATOM     12  N   UNL     1       2.986   3.404   0.000  0.00  0.00    +0.000 NA
ENDBRANCH   8  11
ENDBRANCH   4   5
BRANCH   1  13
ATOM     13  C   UNL     1       0.128  -0.721   0.000  0.00  0.00    +0.000 C 
BRANCH  13  19
ATOM     14  C   UNL     1       1.557  -0.721   0.000  0.00  0.00    +0.000 A 
ATOM     15  C   UNL     1       2.272  -1.134   0.000  0.00  0.00    +0.000 A 
ATOM     16  C   UNL     1       2.272  -1.959   0.000  0.00  0.00    +0.000 A 
ATOM     17  C   UNL     1       1.557  -2.371   0.000  0.00  0.00    +0.000 A 
ATOM     18  C   UNL     1       0.843  -1.959   0.000  0.00  0.00    +0.000 A 
ATOM     19  C   UNL     1       0.843  -1.134   0.000  0.00  0.00    +0.000 A 
ENDBRANCH  13  19
BRANCH  13  20
ATOM     20  C   UNL     1      -0.586  -1.134   0.000  0.00  0.00    +0.000 A 
ATOM     21  C   UNL     1      -0.586  -1.959   0.000  0.00  0.00    +0.000 A 
ATOM     22  C   UNL     1      -1.300  -2.371   0.000  0.00  0.00    +0.000 A 
ATOM     23  C   UNL     1      -2.015  -1.959   0.000  0.00  0.00    +0.000 A 
ATOM     24  C   UNL     1      -2.015  -1.134   0.000  0.00  0.00    +0.000 A 
ATOM     25  C   UNL     1      -1.300  -0.721   0.000  0.00  0.00    +0.000 A 
ENDBRANCH  13  20
ENDBRANCH   1  13
BRANCH   3  26
ATOM     26  C   UNL     1      -2.015   0.516   0.000  0.00  0.00    +0.000 C 
BRANCH  26  27
ATOM     27  C   UNL     1      -2.729   0.104   0.000  0.00  0.00    +0.000 C 
ATOM     28  O   UNL     1      -2.729  -0.721   0.000  0.00  0.00    +0.000 OA
ATOM     29  O   UNL     1      -3.444   0.516   0.000  0.00  0.00    +0.000 OA
ENDBRANCH  26  27
ENDBRANCH   3  26
TORSDOF 7
