REMARK  Name = GB4
REMARK  2 active torsions:
REMARK  status: ('A' for Active; 'I' for Inactive)
REMARK    1  A    between atoms: C_2  and  C_5
REMARK    2  A    between atoms: C_6  and  C_7
REMARK                            x       y       z     vdW  Elec       q    Type
REMARK                         _______ _______ _______ _____ _____    ______ ____
ROOT
ATOM      1  C   UNL     1      -0.319  -0.898   0.000  0.00  0.00    +0.000 A 
ATOM      2  C   UNL     1      -0.319  -1.723   0.000  0.00  0.00    +0.000 A 
ATOM      3 CL   UNL     1       0.396  -2.136   0.000  0.00  0.00    +0.000 Cl
ATOM      4  C   UNL     1      -1.033  -2.136   0.000  0.00  0.00    +0.000 A 
ATOM      5  C   UNL     1      -1.033  -0.486   0.000  0.00  0.00    +0.000 A 
ATOM      6  C   UNL     1      -1.748  -0.898   0.000  0.00  0.00    +0.000 A 
ATOM      7  C   UNL     1      -1.748  -1.723   0.000  0.00  0.00    +0.000 A 
ATOM      8 CL   UNL     1      -2.462  -2.136   0.000  0.00  0.00    +0.000 Cl
ENDROOT
BRANCH   1  10
ATOM      9  C   UNL     1       0.396   0.339   0.000  0.00  0.00    +0.000 C 
ATOM     10  C   UNL     1       0.396  -0.486   0.000  0.00  0.00    +0.000 C 
BRANCH   9  12
ATOM     11  O   UNL     1       1.825   0.339   0.000  0.00  0.00    +0.000 OA
ATOM     12  C   UNL     1       1.110   0.752   0.000  0.00  0.00    +0.000 C 
ATOM     13  N   UNL     1       1.110   1.577   0.000  0.00  0.00    +0.000 NA
ATOM     14  O   UNL     1       1.825   1.989   0.000  0.00  0.00    +0.000 OA
ENDBRANCH   9  12
ENDBRANCH   1  10
TORSDOF 2
