REMARK  Name = GB5
REMARK  2 active torsions:
REMARK  status: ('A' for Active; 'I' for Inactive)
REMARK    1  A    between atoms: C_2  and  C_5
REMARK    2  A    between atoms: C_6  and  C_7
REMARK                            x       y       z     vdW  Elec       q    Type
REMARK                         _______ _______ _______ _____ _____    ______ ____
ROOT
ATOM      1  C   UNL     1       0.094  -0.391   0.000  0.00  0.00    +0.000 A 
ATOM      2  C   UNL     1      -0.620   0.022   0.000  0.00  0.00    +0.000 A 
ATOM      3  C   UNL     1      -1.335  -0.391   0.000  0.00  0.00    +0.000 A 
ATOM      4  C   UNL     1      -1.335  -1.216   0.000  0.00  0.00    +0.000 A 
ATOM      5 CL   UNL     1      -2.049  -1.628   0.000  0.00  0.00    +0.000 Cl
ATOM      6  C   UNL     1      -0.620  -1.628   0.000  0.00  0.00    +0.000 A 
ATOM      7  C   UNL     1       0.094  -1.216   0.000  0.00  0.00    +0.000 A 
ENDROOT
BRANCH   1   9
ATOM      8  C   UNL     1       1.523  -0.391   0.000  0.00  0.00    +0.000 C 
ATOM      9  C   UNL     1       0.809   0.022   0.000  0.00  0.00    +0.000 C 
BRANCH   8  11
ATOM     10  O   UNL     1       2.237   0.847   0.000  0.00  0.00    +0.000 OA
ATOM     11  C   UNL     1       2.237   0.022   0.000  0.00  0.00    +0.000 C 
ATOM     12  N   UNL     1       2.952  -0.391   0.000  0.00  0.00    +0.000 NA
ATOM     13  O   UNL     1       3.667   0.022   0.000  0.00  0.00    +0.000 OA
ENDBRANCH   8  11
ENDBRANCH   1   9
TORSDOF 2
