REMARK  Name = GCA
REMARK  6 active torsions:
REMARK  status: ('A' for Active; 'I' for Inactive)
REMARK    1  A    between atoms: C_1  and  C_9
REMARK    2  A    between atoms: C_9  and  C_10
REMARK    3  A    between atoms: C_11  and  C_12
REMARK    4  A    between atoms: N_17  and  C_21
REMARK    5  A    between atoms: C_21  and  O_22
REMARK    6  A    between atoms: O_22  and  C_23
REMARK                            x       y       z     vdW  Elec       q    Type
REMARK                         _______ _______ _______ _____ _____    ______ ____
ROOT
ATOM      1  C   UNL     1       0.025   0.765   0.000  0.00  0.00    +0.000 A 
ATOM      2  C   UNL     1       0.025   1.590   0.000  0.00  0.00    +0.000 A 
ATOM      3  C   UNL     1       0.739   2.003   0.000  0.00  0.00    +0.000 A 
ATOM      4  O   UNL     1       0.739   2.828   0.000  0.00  0.00    +0.000 OA
ATOM      5  N   UNL     1       0.739   0.353   0.000  0.00  0.00    +0.000 N 
ATOM      6  C   UNL     1       1.454   0.765   0.000  0.00  0.00    +0.000 A 
ATOM      7  O   UNL     1       2.168   0.353   0.000  0.00  0.00    +0.000 OA
ATOM      8  N   UNL     1       1.454   1.590   0.000  0.00  0.00    +0.000 NA
ENDROOT
BRANCH   2   9
ATOM      9  C   UNL     1      -0.690   2.003   0.000  0.00  0.00    +0.000 C 
ATOM     10  C   UNL     1      -0.690   2.828   0.000  0.00  0.00    +0.000 C 
ATOM     11  C   UNL     1      -1.404   1.590   0.000  0.00  0.00    +0.000 C 
ENDBRANCH   2   9
BRANCH   1  12
ATOM     12  C   UNL     1      -0.690   0.353   0.000  0.00  0.00    +0.000 C 
BRANCH  12  13
ATOM     13  C   UNL     1      -0.690  -0.472   0.000  0.00  0.00    +0.000 A 
ATOM     14  C   UNL     1       0.025  -0.885   0.000  0.00  0.00    +0.000 A 
ATOM     15  C   UNL     1       0.025  -1.710   0.000  0.00  0.00    +0.000 A 
ATOM     16  C   UNL     1      -0.690  -2.122   0.000  0.00  0.00    +0.000 A 
ATOM     17  C   UNL     1      -1.404  -1.710   0.000  0.00  0.00    +0.000 A 
ATOM     18  C   UNL     1      -1.404  -0.885   0.000  0.00  0.00    +0.000 A 
ATOM     19  C   UNL     1       0.739  -2.122   0.000  0.00  0.00    +0.000 C 
ATOM     20  C   UNL     1      -2.119  -2.122   0.000  0.00  0.00    +0.000 C 
ENDBRANCH  12  13
ENDBRANCH   1  12
BRANCH   5  21
ATOM     21  C   UNL     1       0.739  -0.472   0.000  0.00  0.00    +0.000 C 
BRANCH  21  22
ATOM     22  O   UNL     1       1.454  -0.885   0.000  0.00  0.00    +0.000 OA
BRANCH  22  23
ATOM     23  C   UNL     1       2.168  -0.472   0.000  0.00  0.00    +0.000 C 
ATOM     24  C   UNL     1       2.882  -0.885   0.000  0.00  0.00    +0.000 C 
ENDBRANCH  22  23
ENDBRANCH  21  22
ENDBRANCH   5  21
TORSDOF 6
