REMARK  Name = GD7
REMARK  3 active torsions:
REMARK  status: ('A' for Active; 'I' for Inactive)
REMARK    1  A    between atoms: C_5  and  C_6
REMARK    2  A    between atoms: C_5  and  O_8
REMARK    3  A    between atoms: O_8  and  P_9
REMARK                            x       y       z     vdW  Elec       q    Type
REMARK                         _______ _______ _______ _____ _____    ______ ____
ROOT
ATOM      1  C   UNL     1      -0.336  -1.104   0.000  0.00  0.00    +0.000 C 
ATOM      2  C   UNL     1      -0.336  -0.279   0.000  0.00  0.00    +0.000 C 
ENDROOT
BRANCH   2   6
ATOM      3  C   UNL     1      -1.765   0.546   0.000  0.00  0.00    +0.000 C 
ATOM      4  C   UNL     1      -1.463  -0.581   0.000  0.00  0.00    +0.000 C 
ATOM      5  C   UNL     1      -0.638   0.848   0.000  0.00  0.00    +0.000 C 
ATOM      6  C   UNL     1      -1.050   0.133   0.000  0.00  0.00    +0.000 C 
ENDBRANCH   2   6
BRANCH   2   7
ATOM      7  O   UNL     1       0.379   0.133   0.000  0.00  0.00    +0.000 OA
BRANCH   7   9
ATOM      8  C   UNL     1       1.808   0.133   0.000  0.00  0.00    +0.000 C 
ATOM      9  P   UNL     1       1.093  -0.279   0.000  0.00  0.00    +0.000 P 
ATOM     10  O   UNL     1       1.093  -1.104   0.000  0.00  0.00    +0.000 OA
ATOM     11  H   UNL     1       1.093   0.450   0.000  0.00  0.00    +0.000 HD
ENDBRANCH   7   9
ENDBRANCH   2   7
TORSDOF 3
