REMARK  Name = Genistein
REMARK  1 active torsions:
REMARK  status: ('A' for Active; 'I' for Inactive)
REMARK    1  A    between atoms: C_5  and  C_8
REMARK                            x       y       z     vdW  Elec       q    Type
REMARK                         _______ _______ _______ _____ _____    ______ ____
ROOT
ATOM      1  C   UNL     1       1.643  -1.238   0.000  0.00  0.00    +0.000 A 
ATOM      2  C   UNL     1       1.643  -0.412   0.000  0.00  0.00    +0.000 A 
ATOM      3  O   UNL     1       0.929   0.000   0.000  0.00  0.00    +0.000 OA
ATOM      4  C   UNL     1       0.214  -0.412   0.000  0.00  0.00    +0.000 A 
ATOM      5  C   UNL     1      -0.500   0.000   0.000  0.00  0.00    +0.000 A 
ATOM      6  C   UNL     1      -1.215  -0.412   0.000  0.00  0.00    +0.000 A 
ATOM      7  O   UNL     1      -1.929   0.000   0.000  0.00  0.00    +0.000 OA
ATOM      8  C   UNL     1      -1.215  -1.238   0.000  0.00  0.00    +0.000 A 
ATOM      9  C   UNL     1      -0.500  -1.650   0.000  0.00  0.00    +0.000 A 
ATOM     10  O   UNL     1      -0.500  -2.475   0.000  0.00  0.00    +0.000 OA
ATOM     11  C   UNL     1       0.214  -1.238   0.000  0.00  0.00    +0.000 A 
ATOM     12  C   UNL     1       0.929  -1.650   0.000  0.00  0.00    +0.000 A 
ATOM     13  O   UNL     1       0.929  -2.475   0.000  0.00  0.00    +0.000 OA
ENDROOT
BRANCH   1  18
ATOM     14  O   UNL     1       4.501  -2.888   0.000  0.00  0.00    +0.000 OA
ATOM     15  C   UNL     1       3.787  -2.475   0.000  0.00  0.00    +0.000 A 
ATOM     16  C   UNL     1       3.787  -1.650   0.000  0.00  0.00    +0.000 A 
ATOM     17  C   UNL     1       3.072  -1.238   0.000  0.00  0.00    +0.000 A 
ATOM     18  C   UNL     1       2.358  -1.650   0.000  0.00  0.00    +0.000 A 
ATOM     19  C   UNL     1       2.358  -2.475   0.000  0.00  0.00    +0.000 A 
ATOM     20  C   UNL     1       3.072  -2.888   0.000  0.00  0.00    +0.000 A 
ENDBRANCH   1  18
TORSDOF 1
