REMARK  Name = GEQ
REMARK  2 active torsions:
REMARK  status: ('A' for Active; 'I' for Inactive)
REMARK    1  A    between atoms: C_2  and  C_10
REMARK    2  A    between atoms: N_15  and  C_18
REMARK                            x       y       z     vdW  Elec       q    Type
REMARK                         _______ _______ _______ _____ _____    ______ ____
ROOT
ATOM      1  C   UNL     1      -0.477  -1.854   0.000  0.00  0.00    +0.000 C 
ATOM      2  O   UNL     1      -1.192  -2.266   0.000  0.00  0.00    +0.000 OA
ATOM      3  N   UNL     1      -0.477  -1.029   0.000  0.00  0.00    +0.000 N 
ATOM      4  C   UNL     1      -1.192  -0.616   0.000  0.00  0.00    +0.000 C 
ATOM      5  C   UNL     1      -1.192   0.209   0.000  0.00  0.00    +0.000 C 
ATOM      6  N   UNL     1      -0.477   0.621   0.000  0.00  0.00    +0.000 NA
ATOM      7  C   UNL     1       0.237   0.209   0.000  0.00  0.00    +0.000 C 
ATOM      8  C   UNL     1       0.237  -0.616   0.000  0.00  0.00    +0.000 C 
ENDROOT
BRANCH   6   9
ATOM      9  C   UNL     1      -0.477   1.446   0.000  0.00  0.00    +0.000 C 
ATOM     10  C   UNL     1       0.190   1.931   0.000  0.00  0.00    +0.000 A 
ATOM     11  C   UNL     1       0.997   1.760   0.000  0.00  0.00    +0.000 A 
ATOM     12  C   UNL     1       1.549   2.373   0.000  0.00  0.00    +0.000 A 
ATOM     13  C   UNL     1       1.294   3.157   0.000  0.00  0.00    +0.000 A 
ATOM     14  C   UNL     1       0.487   3.329   0.000  0.00  0.00    +0.000 A 
ATOM     15  C   UNL     1      -0.065   2.716   0.000  0.00  0.00    +0.000 A 
ATOM     16  C   UNL     1      -1.145   1.931   0.000  0.00  0.00    +0.000 A 
ATOM     17  C   UNL     1      -1.952   1.760   0.000  0.00  0.00    +0.000 A 
ATOM     18  C   UNL     1      -2.504   2.373   0.000  0.00  0.00    +0.000 A 
ATOM     19  C   UNL     1      -2.249   3.157   0.000  0.00  0.00    +0.000 A 
ATOM     20  C   UNL     1      -1.442   3.329   0.000  0.00  0.00    +0.000 A 
ATOM     21  C   UNL     1      -0.890   2.716   0.000  0.00  0.00    +0.000 A 
ENDBRANCH   6   9
BRANCH   1  23
ATOM     22  C   UNL     1       0.237  -3.091   0.000  0.00  0.00    +0.000 A 
ATOM     23  C   UNL     1       0.237  -2.266   0.000  0.00  0.00    +0.000 A 
ATOM     24  C   UNL     1       0.952  -1.854   0.000  0.00  0.00    +0.000 A 
ATOM     25  C   UNL     1       1.666  -2.266   0.000  0.00  0.00    +0.000 A 
ATOM     26  C   UNL     1       1.666  -3.091   0.000  0.00  0.00    +0.000 A 
ATOM     27  C   UNL     1       0.952  -3.504   0.000  0.00  0.00    +0.000 A 
ATOM     28  C   UNL     1       1.123  -4.311   0.000  0.00  0.00    +0.000 A 
ATOM     29  C   UNL     1       1.944  -4.397   0.000  0.00  0.00    +0.000 A 
ATOM     30  N   UNL     1       2.279  -3.643   0.000  0.00  0.00    +0.000 NA
ENDBRANCH   1  23
TORSDOF 2
