REMARK  Name = GF1
REMARK  2 active torsions:
REMARK  status: ('A' for Active; 'I' for Inactive)
REMARK    1  A    between atoms: N_3  and  C_4
REMARK    2  A    between atoms: C_4  and  C_5
REMARK                            x       y       z     vdW  Elec       q    Type
REMARK                         _______ _______ _______ _____ _____    ______ ____
ROOT
ATOM      1  O   UNL     1      -1.110  -1.442   0.000  0.00  0.00    +0.000 OA
ATOM      2  C   UNL     1      -0.507  -0.879   0.000  0.00  0.00    +0.000 C 
ATOM      3  N   UNL     1      -0.609  -0.060   0.000  0.00  0.00    +0.000 N 
ATOM      4  C   UNL     1       0.303  -1.035   0.000  0.00  0.00    +0.000 C 
ATOM      5  C   UNL     1       0.702  -0.313   0.000  0.00  0.00    +0.000 C 
ATOM      6  C   UNL     1       0.139   0.289   0.000  0.00  0.00    +0.000 C 
ATOM      7  O   UNL     1       0.295   1.099   0.000  0.00  0.00    +0.000 OA
ATOM      8  C   UNL     1       1.078  -0.645   0.000  0.00  0.00    +0.000 C 
ATOM      9  C   UNL     1       1.809  -1.015   0.000  0.00  0.00    +0.000 C 
ATOM     10  C   UNL     1       2.104  -0.390   0.000  0.00  0.00    +0.000 C 
ATOM     11  C   UNL     1       1.148   0.891   0.000  0.00  0.00    +0.000 C 
ATOM     12  C   UNL     1       1.308   0.075   0.000  0.00  0.00    +0.000 C 
ENDROOT
BRANCH   3  13
ATOM     13  C   UNL     1      -1.330   0.339   0.000  0.00  0.00    +0.000 C 
ATOM     14  C   UNL     1      -2.037  -0.086   0.000  0.00  0.00    +0.000 C 
BRANCH  13  15
ATOM     15  C   UNL     1      -1.346   1.164   0.000  0.00  0.00    +0.000 C 
ATOM     16  O   UNL     1      -2.067   1.563   0.000  0.00  0.00    +0.000 OA
ATOM     17  O   UNL     1      -0.639   1.590   0.000  0.00  0.00    +0.000 OA
ENDBRANCH  13  15
ENDBRANCH   3  13
TORSDOF 2
