REMARK  Name = GF4
REMARK  1 active torsions:
REMARK  status: ('A' for Active; 'I' for Inactive)
REMARK    1  A    between atoms: C_3  and  C_4
REMARK                            x       y       z     vdW  Elec       q    Type
REMARK                         _______ _______ _______ _____ _____    ______ ____
ROOT
ATOM      1  O   UNL     1       2.066   0.447   0.000  0.00  0.00    +0.000 OA
ATOM      2  C   UNL     1       1.281   0.192   0.000  0.00  0.00    +0.000 A 
ATOM      3  C   UNL     1       0.614   0.677   0.000  0.00  0.00    +0.000 A 
ATOM      4  C   UNL     1      -0.053   0.192   0.000  0.00  0.00    +0.000 A 
ATOM      5  C   UNL     1      -0.838   0.447   0.000  0.00  0.00    +0.000 C 
ATOM      6  N   UNL     1       0.202  -0.592   0.000  0.00  0.00    +0.000 NA
ATOM      7  N   UNL     1       1.026  -0.592   0.000  0.00  0.00    +0.000 N 
ATOM      8  C   UNL     1       1.511  -1.260   0.000  0.00  0.00    +0.000 A 
ATOM      9  N   UNL     1       1.256  -2.044   0.000  0.00  0.00    +0.000 NA
ATOM     10  N   UNL     1       1.924  -2.529   0.000  0.00  0.00    +0.000 NA
ATOM     11  N   UNL     1       2.591  -2.044   0.000  0.00  0.00    +0.000 NA
ATOM     12  N   UNL     1       2.336  -1.260   0.000  0.00  0.00    +0.000 NA
ENDROOT
BRANCH   3  13
ATOM     13  C   UNL     1       0.614   1.502   0.000  0.00  0.00    +0.000 C 
ATOM     14  C   UNL     1      -0.101   1.915   0.000  0.00  0.00    +0.000 C 
ENDBRANCH   3  13
TORSDOF 1
