REMARK  Name = GF7
REMARK  3 active torsions:
REMARK  status: ('A' for Active; 'I' for Inactive)
REMARK    1  A    between atoms: C_2  and  C_4
REMARK    2  A    between atoms: C_9  and  N_10
REMARK    3  A    between atoms: C_14  and  C_16
REMARK                            x       y       z     vdW  Elec       q    Type
REMARK                         _______ _______ _______ _____ _____    ______ ____
ROOT
ATOM      1  C   UNL     1       1.133  -1.237   0.000  0.00  0.00    +0.000 A 
ATOM      2  C   UNL     1       0.313  -1.324   0.000  0.00  0.00    +0.000 A 
ATOM      3  C   UNL     1      -0.172  -0.656   0.000  0.00  0.00    +0.000 A 
ATOM      4  C   UNL     1       1.469  -0.484   0.000  0.00  0.00    +0.000 A 
ATOM      5  C   UNL     1       0.984   0.184   0.000  0.00  0.00    +0.000 A 
ATOM      6  C   UNL     1       0.163   0.098   0.000  0.00  0.00    +0.000 A 
ENDROOT
BRANCH   6   7
ATOM      7  N   UNL     1      -0.322   0.765   0.000  0.00  0.00    +0.000 N 
ATOM      8  C   UNL     1      -0.067   1.550   0.000  0.00  0.00    +0.000 C 
ATOM      9  O   UNL     1       0.718   1.805   0.000  0.00  0.00    +0.000 OA
ATOM     10  C   UNL     1      -1.147   0.765   0.000  0.00  0.00    +0.000 C 
ATOM     11  C   UNL     1      -1.402   1.550   0.000  0.00  0.00    +0.000 C 
ATOM     12  C   UNL     1      -0.734   2.034   0.000  0.00  0.00    +0.000 C 
BRANCH  11  13
ATOM     13  C   UNL     1      -2.186   1.805   0.000  0.00  0.00    +0.000 C 
ATOM     14  O   UNL     1      -2.799   1.252   0.000  0.00  0.00    +0.000 OA
ATOM     15  O   UNL     1      -2.358   2.611   0.000  0.00  0.00    +0.000 OA
ENDBRANCH  11  13
ENDBRANCH   6   7
BRANCH   1  17
ATOM     16  O   UNL     1       2.438  -1.819   0.000  0.00  0.00    +0.000 OA
ATOM     17  C   UNL     1       1.618  -1.905   0.000  0.00  0.00    +0.000 C 
ATOM     18  C   UNL     1       1.282  -2.658   0.000  0.00  0.00    +0.000 C 
ENDBRANCH   1  17
TORSDOF 3
