REMARK  Name = GFA
REMARK  6 active torsions:
REMARK  status: ('A' for Active; 'I' for Inactive)
REMARK    1  A    between atoms: O_1  and  C_11
REMARK    2  A    between atoms: O_1  and  C_15
REMARK    3  A    between atoms: N_5  and  C_16
REMARK    4  A    between atoms: C_7  and  C_10
REMARK    5  A    between atoms: C_9  and  C_10
REMARK    6  A    between atoms: C_15  and  C_18
REMARK                            x       y       z     vdW  Elec       q    Type
REMARK                         _______ _______ _______ _____ _____    ______ ____
ROOT
ATOM      1 CL   UNL     1       0.017   2.221   0.000  0.00  0.00    +0.000 Cl
ATOM      2  C   UNL     1       0.732   0.159   0.000  0.00  0.00    +0.000 A 
ATOM      3  C   UNL     1      -0.697   0.159   0.000  0.00  0.00    +0.000 A 
ATOM      4  C   UNL     1      -0.697   0.984   0.000  0.00  0.00    +0.000 A 
ATOM      5  C   UNL     1       0.017  -0.254   0.000  0.00  0.00    +0.000 A 
ATOM      6  C   UNL     1       0.017   1.396   0.000  0.00  0.00    +0.000 A 
ATOM      7  C   UNL     1       0.732   0.984   0.000  0.00  0.00    +0.000 A 
ENDROOT
BRANCH   3   9
ATOM      8  O   UNL     1      -1.412  -1.079   0.000  0.00  0.00    +0.000 OA
ATOM      9  C   UNL     1      -1.412  -0.254   0.000  0.00  0.00    +0.000 C 
BRANCH   9  10
ATOM     10  C   UNL     1      -2.126   0.159   0.000  0.00  0.00    +0.000 A 
ATOM     11  C   UNL     1      -2.841  -0.254   0.000  0.00  0.00    +0.000 A 
ATOM     12  C   UNL     1      -2.841   1.396   0.000  0.00  0.00    +0.000 A 
ATOM     13  C   UNL     1      -2.126   0.984   0.000  0.00  0.00    +0.000 A 
ATOM     14  C   UNL     1      -3.555   0.984   0.000  0.00  0.00    +0.000 A 
ATOM     15  C   UNL     1      -3.555   0.159   0.000  0.00  0.00    +0.000 A 
ENDBRANCH   9  10
ENDBRANCH   3   9
BRANCH   5  16
ATOM     16  O   UNL     1       0.017  -1.079   0.000  0.00  0.00    +0.000 OA
BRANCH  16  17
ATOM     17  C   UNL     1       0.732  -1.491   0.000  0.00  0.00    +0.000 C 
BRANCH  17  20
ATOM     18  O   UNL     1       1.446  -0.254   0.000  0.00  0.00    +0.000 OA
ATOM     19  N   UNL     1       2.161  -1.491   0.000  0.00  0.00    +0.000 NA
ATOM     20  C   UNL     1       1.446  -1.079   0.000  0.00  0.00    +0.000 C 
BRANCH  19  22
ATOM     21  C   UNL     1       3.590  -1.491   0.000  0.00  0.00    +0.000 A 
ATOM     22  C   UNL     1       2.875  -1.079   0.000  0.00  0.00    +0.000 A 
ATOM     23  C   UNL     1       4.304  -1.079   0.000  0.00  0.00    +0.000 A 
ATOM     24  C   UNL     1       2.875  -0.254   0.000  0.00  0.00    +0.000 A 
ATOM     25  C   UNL     1       3.590   0.159   0.000  0.00  0.00    +0.000 A 
ATOM     26  C   UNL     1       4.304  -0.254   0.000  0.00  0.00    +0.000 A 
ENDBRANCH  19  22
ENDBRANCH  17  20
ENDBRANCH  16  17
ENDBRANCH   5  16
TORSDOF 6
