REMARK  Name = GG1
REMARK  6 active torsions:
REMARK  status: ('A' for Active; 'I' for Inactive)
REMARK    1  A    between atoms: C_2  and  C_12
REMARK    2  A    between atoms: C_2  and  N_19
REMARK    3  A    between atoms: C_5  and  C_6
REMARK    4  A    between atoms: C_7  and  C_14
REMARK    5  A    between atoms: C_11  and  C_27
REMARK    6  A    between atoms: C_15  and  C_27
REMARK                            x       y       z     vdW  Elec       q    Type
REMARK                         _______ _______ _______ _____ _____    ______ ____
ROOT
ATOM      1  N   UNL     1      -1.101  -2.573   0.000  0.00  0.00    +0.000 N 
ATOM      2  C   UNL     1      -1.101  -0.923   0.000  0.00  0.00    +0.000 A 
ATOM      3  C   UNL     1       1.043  -2.160   0.000  0.00  0.00    +0.000 A 
ATOM      4  C   UNL     1       1.043  -1.335   0.000  0.00  0.00    +0.000 A 
ATOM      5  C   UNL     1      -0.386  -1.335   0.000  0.00  0.00    +0.000 A 
ATOM      6  N   UNL     1      -1.815  -1.335   0.000  0.00  0.00    +0.000 N 
ATOM      7  O   UNL     1      -1.101  -0.098   0.000  0.00  0.00    +0.000 OA
ATOM      8  C   UNL     1      -0.386  -2.160   0.000  0.00  0.00    +0.000 A 
ATOM      9  C   UNL     1       0.328  -2.573   0.000  0.00  0.00    +0.000 A 
ATOM     10  C   UNL     1      -1.101  -3.398   0.000  0.00  0.00    +0.000 C 
ATOM     11  C   UNL     1      -1.815  -2.160   0.000  0.00  0.00    +0.000 A 
ATOM     12  O   UNL     1      -2.530  -2.573   0.000  0.00  0.00    +0.000 OA
ATOM     13  C   UNL     1       0.328  -0.923   0.000  0.00  0.00    +0.000 A 
ENDROOT
BRANCH   4  14
ATOM     14  C   UNL     1       1.757  -0.923   0.000  0.00  0.00    +0.000 C 
ATOM     15  C   UNL     1       2.472  -0.510   0.000  0.00  0.00    +0.000 C 
BRANCH  15  16
ATOM     16  C   UNL     1       3.186  -0.098   0.000  0.00  0.00    +0.000 C 
BRANCH  16  17
ATOM     17  C   UNL     1       3.901  -0.510   0.000  0.00  0.00    +0.000 A 
ATOM     18  C   UNL     1       4.615  -0.098   0.000  0.00  0.00    +0.000 A 
ATOM     19  C   UNL     1       5.330  -0.510   0.000  0.00  0.00    +0.000 A 
ATOM     20  C   UNL     1       3.901  -1.335   0.000  0.00  0.00    +0.000 A 
ATOM     21  C   UNL     1       4.615  -1.748   0.000  0.00  0.00    +0.000 A 
ATOM     22  C   UNL     1       5.330  -1.335   0.000  0.00  0.00    +0.000 A 
ENDBRANCH  16  17
ENDBRANCH  15  16
ENDBRANCH   4  14
BRANCH   6  23
ATOM     23  C   UNL     1      -2.530  -0.923   0.000  0.00  0.00    +0.000 C 
BRANCH  23  28
ATOM     24  C   UNL     1      -4.673  -2.160   0.000  0.00  0.00    +0.000 A 
ATOM     25  C   UNL     1      -4.673  -1.335   0.000  0.00  0.00    +0.000 A 
ATOM     26  C   UNL     1      -3.958  -0.923   0.000  0.00  0.00    +0.000 A 
ATOM     27  C   UNL     1      -3.244  -2.160   0.000  0.00  0.00    +0.000 A 
ATOM     28  C   UNL     1      -3.244  -1.335   0.000  0.00  0.00    +0.000 A 
ATOM     29  C   UNL     1      -3.958  -2.573   0.000  0.00  0.00    +0.000 A 
BRANCH  24  30
ATOM     30  C   UNL     1      -5.388  -2.573   0.000  0.00  0.00    +0.000 C 
ATOM     31  O   UNL     1      -5.388  -3.398   0.000  0.00  0.00    +0.000 OA
ATOM     32  O   UNL     1      -6.102  -2.160   0.000  0.00  0.00    +0.000 OA
ENDBRANCH  24  30
ENDBRANCH  23  28
ENDBRANCH   6  23
TORSDOF 6
