REMARK  Name = GG5
REMARK  2 active torsions:
REMARK  status: ('A' for Active; 'I' for Inactive)
REMARK    1  A    between atoms: C_5  and  C_7
REMARK    2  A    between atoms: C_11  and  C_12
REMARK                            x       y       z     vdW  Elec       q    Type
REMARK                         _______ _______ _______ _____ _____    ______ ____
ROOT
ATOM      1  C   UNL     1      -0.150  -0.292   0.000  0.00  0.00    +0.000 A 
ATOM      2  C   UNL     1      -0.817  -0.777   0.000  0.00  0.00    +0.000 A 
ATOM      3  N   UNL     1      -0.562  -1.562   0.000  0.00  0.00    +0.000 NA
ATOM      4  N   UNL     1       0.263  -1.562   0.000  0.00  0.00    +0.000 NA
ATOM      5  C   UNL     1       0.517  -0.777   0.000  0.00  0.00    +0.000 A 
ENDROOT
BRANCH   5   6
ATOM      6  C   UNL     1       1.302  -0.522   0.000  0.00  0.00    +0.000 A 
ATOM      7  C   UNL     1       1.474   0.285   0.000  0.00  0.00    +0.000 A 
ATOM      8  C   UNL     1       2.258   0.540   0.000  0.00  0.00    +0.000 A 
ATOM      9  C   UNL     1       2.871  -0.012   0.000  0.00  0.00    +0.000 A 
ATOM     10  C   UNL     1       2.700  -0.819   0.000  0.00  0.00    +0.000 A 
ATOM     11  C   UNL     1       1.915  -1.074   0.000  0.00  0.00    +0.000 A 
ATOM     12  F   UNL     1       3.656   0.243   0.000  0.00  0.00    +0.000 F 
ENDBRANCH   5   6
BRANCH   1  17
ATOM     13  C   UNL     1       0.565   1.770   0.000  0.00  0.00    +0.000 A 
ATOM     14  N   UNL     1      -0.150   2.183   0.000  0.00  0.00    +0.000 NA
ATOM     15  C   UNL     1      -0.864   1.770   0.000  0.00  0.00    +0.000 A 
ATOM     16  C   UNL     1      -0.864   0.945   0.000  0.00  0.00    +0.000 A 
ATOM     17  C   UNL     1      -0.150   0.533   0.000  0.00  0.00    +0.000 A 
ATOM     18  C   UNL     1       0.565   0.945   0.000  0.00  0.00    +0.000 A 
ENDBRANCH   1  17
TORSDOF 2
