REMARK  Name = GGO
REMARK  4 active torsions:
REMARK  status: ('A' for Active; 'I' for Inactive)
REMARK    1  A    between atoms: C_1  and  C_2
REMARK    2  A    between atoms: C_1  and  N_15
REMARK    3  A    between atoms: C_2  and  C_3
REMARK    4  A    between atoms: C_7  and  C_24
REMARK                            x       y       z     vdW  Elec       q    Type
REMARK                         _______ _______ _______ _____ _____    ______ ____
ROOT
ATOM      1  N   UNL     1       3.474   1.518   0.000  0.00  0.00    +0.000 NA
ATOM      2  C   UNL     1       2.760   1.105   0.000  0.00  0.00    +0.000 C 
ATOM      3  C   UNL     1       2.045   1.518   0.000  0.00  0.00    +0.000 C 
ATOM      4  N   UNL     1       1.331   1.105   0.000  0.00  0.00    +0.000 N 
ATOM      5  C   UNL     1       1.331   0.280   0.000  0.00  0.00    +0.000 C 
ATOM      6  O   UNL     1       0.617  -0.132   0.000  0.00  0.00    +0.000 OA
ATOM      7  C   UNL     1       2.045  -0.132   0.000  0.00  0.00    +0.000 C 
ATOM      8  C   UNL     1       2.760   0.280   0.000  0.00  0.00    +0.000 C 
ENDROOT
BRANCH   8   9
ATOM      9  C   UNL     1       3.474  -0.132   0.000  0.00  0.00    +0.000 A 
ATOM     10  C   UNL     1       3.474  -0.957   0.000  0.00  0.00    +0.000 A 
ATOM     11  C   UNL     1       4.189  -1.370   0.000  0.00  0.00    +0.000 A 
ATOM     12  C   UNL     1       4.903  -0.957   0.000  0.00  0.00    +0.000 A 
ATOM     13  C   UNL     1       4.903  -0.132   0.000  0.00  0.00    +0.000 A 
ATOM     14  F   UNL     1       4.189  -2.195   0.000  0.00  0.00    +0.000 F 
ATOM     15  F   UNL     1       5.618  -1.370   0.000  0.00  0.00    +0.000 F 
ATOM     16  C   UNL     1       4.189   0.280   0.000  0.00  0.00    +0.000 A 
ATOM     17  F   UNL     1       4.189   1.105   0.000  0.00  0.00    +0.000 F 
ENDBRANCH   8   9
BRANCH   4  18
ATOM     18  C   UNL     1       0.617   1.518   0.000  0.00  0.00    +0.000 C 
BRANCH  18  19
ATOM     19  C   UNL     1      -0.098   1.105   0.000  0.00  0.00    +0.000 C 
BRANCH  19  20
ATOM     20  C   UNL     1      -0.812   1.518   0.000  0.00  0.00    +0.000 A 
ATOM     21  C   UNL     1      -0.812   2.343   0.000  0.00  0.00    +0.000 A 
ATOM     22  C   UNL     1      -2.241   2.343   0.000  0.00  0.00    +0.000 A 
ATOM     23  C   UNL     1      -1.527   1.105   0.000  0.00  0.00    +0.000 A 
ATOM     24  C   UNL     1      -1.527   2.755   0.000  0.00  0.00    +0.000 A 
ATOM     25  O   UNL     1      -3.026   2.598   0.000  0.00  0.00    +0.000 OA
ATOM     26  C   UNL     1      -3.511   1.930   0.000  0.00  0.00    +0.000 C 
ATOM     27  O   UNL     1      -3.026   1.263   0.000  0.00  0.00    +0.000 OA
ATOM     28  C   UNL     1      -2.241   1.518   0.000  0.00  0.00    +0.000 A 
ENDBRANCH  19  20
ENDBRANCH  18  19
ENDBRANCH   4  18
TORSDOF 4
