REMARK  Name = GIN
REMARK  8 active torsions:
REMARK  status: ('A' for Active; 'I' for Inactive)
REMARK    1  A    between atoms: C_1  and  C_13
REMARK    2  A    between atoms: C_2  and  N_20
REMARK    3  A    between atoms: C_3  and  C_6
REMARK    4  A    between atoms: C_6  and  C_7
REMARK    5  A    between atoms: C_9  and  C_10
REMARK    6  A    between atoms: C_9  and  N_19
REMARK    7  A    between atoms: C_18  and  N_19
REMARK    8  A    between atoms: C_23  and  C_24
REMARK                            x       y       z     vdW  Elec       q    Type
REMARK                         _______ _______ _______ _____ _____    ______ ____
ROOT
ATOM      1  C   UNL     1       3.135  -0.931   0.000  0.00  0.00    +0.000 C 
ATOM      2  N   UNL     1       3.850  -1.344   0.000  0.00  0.00    +0.000 NA
ATOM      3  O   UNL     1       2.421  -1.344   0.000  0.00  0.00    +0.000 OA
ENDROOT
BRANCH   2   4
ATOM      4  C   UNL     1       3.850  -2.169   0.000  0.00  0.00    +0.000 A 
ATOM      5  C   UNL     1       3.850  -3.819   0.000  0.00  0.00    +0.000 A 
ATOM      6  C   UNL     1       3.135  -3.406   0.000  0.00  0.00    +0.000 A 
ATOM      7  C   UNL     1       3.135  -2.581   0.000  0.00  0.00    +0.000 A 
ATOM      8  C   UNL     1       4.564  -2.581   0.000  0.00  0.00    +0.000 A 
ATOM      9  C   UNL     1       4.564  -3.406   0.000  0.00  0.00    +0.000 A 
BRANCH   9  10
ATOM     10  C   UNL     1       5.279  -3.819   0.000  0.00  0.00    +0.000 C 
ATOM     11  F   UNL     1       5.993  -4.231   0.000  0.00  0.00    +0.000 F 
ATOM     12  F   UNL     1       4.866  -4.533   0.000  0.00  0.00    +0.000 F 
ATOM     13  F   UNL     1       5.691  -3.104   0.000  0.00  0.00    +0.000 F 
ENDBRANCH   9  10
BRANCH   5  14
ATOM     14  C   UNL     1       3.850  -4.644   0.000  0.00  0.00    +0.000 C 
BRANCH  14  15
ATOM     15  C   UNL     1       4.564  -5.056   0.000  0.00  0.00    +0.000 C 
ATOM     16  C   UNL     1       4.564  -5.881   0.000  0.00  0.00    +0.000 C 
ENDBRANCH  14  15
ENDBRANCH   5  14
ENDBRANCH   2   4
BRANCH   1  17
ATOM     17  C   UNL     1       3.135  -0.106   0.000  0.00  0.00    +0.000 A 
ATOM     18  C   UNL     1       3.850   0.306   0.000  0.00  0.00    +0.000 A 
ATOM     19  C   UNL     1       3.850   1.131   0.000  0.00  0.00    +0.000 A 
ATOM     20  C   UNL     1       3.135   1.544   0.000  0.00  0.00    +0.000 A 
ATOM     21  C   UNL     1       2.421   1.131   0.000  0.00  0.00    +0.000 A 
ATOM     22  C   UNL     1       2.421   0.306   0.000  0.00  0.00    +0.000 A 
BRANCH  22  23
ATOM     23  N   UNL     1       1.706  -0.106   0.000  0.00  0.00    +0.000 NA
BRANCH  23  24
ATOM     24  C   UNL     1       0.992   0.306   0.000  0.00  0.00    +0.000 C 
BRANCH  24  25
ATOM     25  C   UNL     1       0.992   1.131   0.000  0.00  0.00    +0.000 A 
ATOM     26  C   UNL     1       1.706   1.544   0.000  0.00  0.00    +0.000 A 
ATOM     27  C   UNL     1       1.706   2.369   0.000  0.00  0.00    +0.000 A 
ATOM     28  C   UNL     1       0.992   2.781   0.000  0.00  0.00    +0.000 A 
ATOM     29  N   UNL     1       0.277   2.369   0.000  0.00  0.00    +0.000 NA
ATOM     30  C   UNL     1       0.277   1.544   0.000  0.00  0.00    +0.000 A 
ATOM     31  O   UNL     1       0.992   3.606   0.000  0.00  0.00    +0.000 OA
ENDBRANCH  24  25
ENDBRANCH  23  24
ENDBRANCH  22  23
ENDBRANCH   1  17
TORSDOF 8
