REMARK  Name = Ginsenoside Rg1
REMARK  10 active torsions:
REMARK  status: ('A' for Active; 'I' for Inactive)
REMARK    1  A    between atoms: O_1  and  C_26
REMARK    2  A    between atoms: O_1  and  C_40
REMARK    3  A    between atoms: O_3  and  C_34
REMARK    4  A    between atoms: O_3  and  C_42
REMARK    5  A    between atoms: C_23  and  C_34
REMARK    6  A    between atoms: C_34  and  C_38
REMARK    7  A    between atoms: C_38  and  C_41
REMARK    8  A    between atoms: C_41  and  C_47
REMARK    9  A    between atoms: C_46  and  C_52
REMARK   10  A    between atoms: C_50  and  C_54
REMARK                            x       y       z     vdW  Elec       q    Type
REMARK                         _______ _______ _______ _____ _____    ______ ____
ROOT
ATOM      1  O   UNL     1       5.827   1.864   0.000  0.00  0.00    +0.000 OA
ATOM      2  O   UNL     1       2.092  -1.892   0.000  0.00  0.00    +0.000 OA
ATOM      3  C   UNL     1       5.827  -0.612   0.000  0.00  0.00    +0.000 C 
ATOM      4  C   UNL     1       6.541  -0.199   0.000  0.00  0.00    +0.000 C 
ATOM      5  C   UNL     1       5.112  -0.199   0.000  0.00  0.00    +0.000 C 
ATOM      6  C   UNL     1       4.362  -0.617   0.000  0.00  0.00    +0.000 C 
ATOM      7  C   UNL     1       6.541   0.626   0.000  0.00  0.00    +0.000 C 
ATOM      8  C   UNL     1       4.355  -1.476   0.000  0.00  0.00    +0.000 C 
ATOM      9  C   UNL     1       5.840  -1.471   0.000  0.00  0.00    +0.000 C 
ATOM     10  C   UNL     1       5.112   0.626   0.000  0.00  0.00    +0.000 C 
ATOM     11  C   UNL     1       7.322   0.877   0.000  0.00  0.00    +0.000 C 
ATOM     12  C   UNL     1       5.827   1.038   0.000  0.00  0.00    +0.000 C 
ATOM     13  C   UNL     1       7.322  -0.450   0.000  0.00  0.00    +0.000 C 
ATOM     14  C   UNL     1       5.099  -1.906   0.000  0.00  0.00    +0.000 C 
ATOM     15  C   UNL     1       3.583  -1.930   0.000  0.00  0.00    +0.000 C 
ATOM     16  C   UNL     1       7.803   0.213   0.000  0.00  0.00    +0.000 C 
ATOM     17  C   UNL     1       3.597  -0.152   0.000  0.00  0.00    +0.000 C 
ATOM     18  C   UNL     1       6.357  -1.244   0.000  0.00  0.00    +0.000 C 
ATOM     19  C   UNL     1       6.824  -0.974   0.000  0.00  0.00    +0.000 C 
ATOM     20  C   UNL     1       4.368   0.208   0.000  0.00  0.00    +0.000 C 
ATOM     21  C   UNL     1       2.808  -1.482   0.000  0.00  0.00    +0.000 C 
ATOM     22  C   UNL     1       2.815  -0.587   0.000  0.00  0.00    +0.000 C 
ATOM     23  C   UNL     1       3.174  -2.646   0.000  0.00  0.00    +0.000 C 
ATOM     24  C   UNL     1       3.998  -2.643   0.000  0.00  0.00    +0.000 C 
ENDROOT
BRANCH  11  25
ATOM     25  C   UNL     1       7.578   1.662   0.000  0.00  0.00    +0.000 C 
ATOM     26  C   UNL     1       6.794   1.918   0.000  0.00  0.00    +0.000 C 
BRANCH  25  27
ATOM     27  O   UNL     1       7.835   2.446   0.000  0.00  0.00    +0.000 OA
BRANCH  27  32
ATOM     28  O   UNL     1       8.898   3.400   0.000  0.00  0.00    +0.000 OA
ATOM     29  O   UNL     1       8.937   1.218   0.000  0.00  0.00    +0.000 OA
ATOM     30  O   UNL     1      10.551   1.558   0.000  0.00  0.00    +0.000 OA
ATOM     31  O   UNL     1      11.064   3.126   0.000  0.00  0.00    +0.000 OA
ATOM     32  C   UNL     1       8.642   2.616   0.000  0.00  0.00    +0.000 C 
ATOM     33  C   UNL     1       9.193   2.002   0.000  0.00  0.00    +0.000 C 
ATOM     34  C   UNL     1      10.000   2.172   0.000  0.00  0.00    +0.000 C 
ATOM     35  C   UNL     1       9.706   3.570   0.000  0.00  0.00    +0.000 C 
ATOM     36  C   UNL     1      10.257   2.956   0.000  0.00  0.00    +0.000 C 
BRANCH  35  38
ATOM     37  O   UNL     1       9.411   4.969   0.000  0.00  0.00    +0.000 OA
ATOM     38  C   UNL     1       9.962   4.354   0.000  0.00  0.00    +0.000 C 
ENDBRANCH  35  38
ENDBRANCH  27  32
ENDBRANCH  25  27
BRANCH  25  39
ATOM     39  C   UNL     1       8.363   1.405   0.000  0.00  0.00    +0.000 C 
BRANCH  39  40
ATOM     40  C   UNL     1       8.533   0.598   0.000  0.00  0.00    +0.000 C 
BRANCH  40  41
ATOM     41  C   UNL     1       9.317   0.342   0.000  0.00  0.00    +0.000 C 
ATOM     42  C   UNL     1       9.487  -0.466   0.000  0.00  0.00    +0.000 C 
ATOM     43  C   UNL     1      10.271  -0.722   0.000  0.00  0.00    +0.000 C 
ATOM     44  C   UNL     1       8.873  -1.016   0.000  0.00  0.00    +0.000 C 
ENDBRANCH  40  41
ENDBRANCH  39  40
ENDBRANCH  25  39
ENDBRANCH  11  25
BRANCH  14  45
ATOM     45  O   UNL     1       5.103  -2.731   0.000  0.00  0.00    +0.000 OA
BRANCH  45  50
ATOM     46  O   UNL     1       6.531  -2.726   0.000  0.00  0.00    +0.000 OA
ATOM     47  O   UNL     1       5.109  -4.381   0.000  0.00  0.00    +0.000 OA
ATOM     48  O   UNL     1       6.541  -5.201   0.000  0.00  0.00    +0.000 OA
ATOM     49  O   UNL     1       7.967  -4.370   0.000  0.00  0.00    +0.000 OA
ATOM     50  C   UNL     1       5.819  -3.141   0.000  0.00  0.00    +0.000 C 
ATOM     51  C   UNL     1       5.822  -3.966   0.000  0.00  0.00    +0.000 C 
ATOM     52  C   UNL     1       6.538  -4.376   0.000  0.00  0.00    +0.000 C 
ATOM     53  C   UNL     1       7.247  -3.135   0.000  0.00  0.00    +0.000 C 
ATOM     54  C   UNL     1       7.251  -3.960   0.000  0.00  0.00    +0.000 C 
BRANCH  53  56
ATOM     55  O   UNL     1       8.677  -3.130   0.000  0.00  0.00    +0.000 OA
ATOM     56  C   UNL     1       7.960  -2.720   0.000  0.00  0.00    +0.000 C 
ENDBRANCH  53  56
ENDBRANCH  45  50
ENDBRANCH  14  45
TORSDOF 10
