REMARK  Name = GK1
REMARK  4 active torsions:
REMARK  status: ('A' for Active; 'I' for Inactive)
REMARK    1  A    between atoms: C_2  and  C_3
REMARK    2  A    between atoms: C_7  and  C_8
REMARK    3  A    between atoms: C_17  and  N_18
REMARK    4  A    between atoms: N_18  and  C_19
REMARK                            x       y       z     vdW  Elec       q    Type
REMARK                         _______ _______ _______ _____ _____    ______ ____
ROOT
ATOM      1  C   UNL     1      -0.082   1.195   0.000  0.00  0.00    +0.000 A 
ATOM      2  C   UNL     1       0.633   1.608   0.000  0.00  0.00    +0.000 A 
ATOM      3  C   UNL     1      -0.082   0.370   0.000  0.00  0.00    +0.000 A 
ATOM      4  C   UNL     1       0.633  -0.042   0.000  0.00  0.00    +0.000 A 
ATOM      5  C   UNL     1       1.347   0.370   0.000  0.00  0.00    +0.000 A 
ATOM      6  C   UNL     1       1.347   1.195   0.000  0.00  0.00    +0.000 A 
ATOM      7  N   UNL     1       2.062   1.608   0.000  0.00  0.00    +0.000 NA
ATOM      8  C   UNL     1       2.776   1.195   0.000  0.00  0.00    +0.000 A 
ATOM      9  C   UNL     1       2.776   0.370   0.000  0.00  0.00    +0.000 A 
ATOM     10  C   UNL     1       2.062  -0.042   0.000  0.00  0.00    +0.000 A 
ENDROOT
BRANCH   1  15
ATOM     11  C   UNL     1      -1.689   2.600   0.000  0.00  0.00    +0.000 A 
ATOM     12  S   UNL     1      -2.102   1.885   0.000  0.00  0.00    +0.000 S 
ATOM     13  C   UNL     1      -1.550   1.272   0.000  0.00  0.00    +0.000 A 
ATOM     14  N   UNL     1      -0.882   2.428   0.000  0.00  0.00    +0.000 NA
ATOM     15  C   UNL     1      -0.796   1.608   0.000  0.00  0.00    +0.000 A 
BRANCH  11  17
ATOM     16  O   UNL     1      -2.845   3.440   0.000  0.00  0.00    +0.000 OA
ATOM     17  C   UNL     1      -2.025   3.353   0.000  0.00  0.00    +0.000 C 
ENDBRANCH  11  17
ENDBRANCH   1  15
BRANCH  10  18
ATOM     18  N   UNL     1       2.062  -0.867   0.000  0.00  0.00    +0.000 NA
BRANCH  18  19
ATOM     19  C   UNL     1       1.347  -1.280   0.000  0.00  0.00    +0.000 A 
ATOM     20  C   UNL     1       1.347  -2.105   0.000  0.00  0.00    +0.000 A 
ATOM     21  C   UNL     1       2.062  -2.517   0.000  0.00  0.00    +0.000 C 
ATOM     22  C   UNL     1       0.633  -0.867   0.000  0.00  0.00    +0.000 A 
ATOM     23  C   UNL     1      -0.082  -1.280   0.000  0.00  0.00    +0.000 A 
ATOM     24  O   UNL     1      -0.796  -0.867   0.000  0.00  0.00    +0.000 OA
ATOM     25  C   UNL     1      -0.082  -2.105   0.000  0.00  0.00    +0.000 A 
ATOM     26  C   UNL     1       0.633  -2.517   0.000  0.00  0.00    +0.000 A 
ENDBRANCH  18  19
ENDBRANCH  10  18
TORSDOF 4
