REMARK  Name = GK3
REMARK  5 active torsions:
REMARK  status: ('A' for Active; 'I' for Inactive)
REMARK    1  A    between atoms: C_2  and  C_3
REMARK    2  A    between atoms: C_8  and  N_9
REMARK    3  A    between atoms: C_10  and  C_12
REMARK    4  A    between atoms: C_16  and  C_18
REMARK    5  A    between atoms: C_20  and  C_21
REMARK                            x       y       z     vdW  Elec       q    Type
REMARK                         _______ _______ _______ _____ _____    ______ ____
ROOT
ATOM      1  C   UNL     1       0.873   0.782   0.000  0.00  0.00    +0.000 A 
ATOM      2  C   UNL     1       0.159   1.194   0.000  0.00  0.00    +0.000 A 
ATOM      3  C   UNL     1       0.873  -0.043   0.000  0.00  0.00    +0.000 A 
ATOM      4  C   UNL     1       0.159  -0.456   0.000  0.00  0.00    +0.000 A 
ATOM      5  C   UNL     1      -0.556  -0.043   0.000  0.00  0.00    +0.000 A 
ATOM      6  C   UNL     1      -0.556   0.782   0.000  0.00  0.00    +0.000 A 
ENDROOT
BRANCH   5   7
ATOM      7  C   UNL     1      -1.270  -0.456   0.000  0.00  0.00    +0.000 A 
ATOM      8  C   UNL     1      -1.270  -1.281   0.000  0.00  0.00    +0.000 A 
ATOM      9  C   UNL     1      -1.985  -1.693   0.000  0.00  0.00    +0.000 A 
ATOM     10  C   UNL     1      -2.699  -1.281   0.000  0.00  0.00    +0.000 A 
ATOM     11  C   UNL     1      -2.699  -0.456   0.000  0.00  0.00    +0.000 A 
ATOM     12  C   UNL     1      -1.985  -0.043   0.000  0.00  0.00    +0.000 A 
ATOM     13  C   UNL     1      -1.985   0.782   0.000  0.00  0.00    +0.000 C 
BRANCH   9  14
ATOM     14  C   UNL     1      -1.985  -2.518   0.000  0.00  0.00    +0.000 A 
ATOM     15  O   UNL     1      -1.317  -3.003   0.000  0.00  0.00    +0.000 OA
ATOM     16  C   UNL     1      -1.572  -3.788   0.000  0.00  0.00    +0.000 A 
ATOM     17  C   UNL     1      -1.087  -4.455   0.000  0.00  0.00    +0.000 C 
ATOM     18  N   UNL     1      -2.397  -3.788   0.000  0.00  0.00    +0.000 NA
ATOM     19  N   UNL     1      -2.652  -3.003   0.000  0.00  0.00    +0.000 NA
ENDBRANCH   9  14
ENDBRANCH   5   7
BRANCH   1  21
ATOM     20  N   UNL     1       1.588   2.019   0.000  0.00  0.00    +0.000 NA
ATOM     21  C   UNL     1       1.588   1.194   0.000  0.00  0.00    +0.000 C 
ATOM     22  O   UNL     1       2.302   0.782   0.000  0.00  0.00    +0.000 OA
BRANCH  20  28
ATOM     23  C   UNL     1       3.731   2.432   0.000  0.00  0.00    +0.000 A 
ATOM     24  C   UNL     1       3.731   3.257   0.000  0.00  0.00    +0.000 A 
ATOM     25  C   UNL     1       3.017   3.669   0.000  0.00  0.00    +0.000 A 
ATOM     26  C   UNL     1       2.302   3.257   0.000  0.00  0.00    +0.000 A 
ATOM     27  C   UNL     1       3.017   2.019   0.000  0.00  0.00    +0.000 A 
ATOM     28  C   UNL     1       2.302   2.432   0.000  0.00  0.00    +0.000 A 
BRANCH  23  30
ATOM     29  N   UNL     1       5.160   1.607   0.000  0.00  0.00    +0.000 NA
ATOM     30  C   UNL     1       4.446   2.019   0.000  0.00  0.00    +0.000 C 
ENDBRANCH  23  30
ENDBRANCH  20  28
ENDBRANCH   1  21
TORSDOF 5
