REMARK  Name = GK4
REMARK  5 active torsions:
REMARK  status: ('A' for Active; 'I' for Inactive)
REMARK    1  A    between atoms: C_2  and  C_8
REMARK    2  A    between atoms: N_3  and  C_4
REMARK    3  A    between atoms: C_4  and  C_5
REMARK    4  A    between atoms: C_13  and  C_14
REMARK    5  A    between atoms: C_20  and  C_21
REMARK                            x       y       z     vdW  Elec       q    Type
REMARK                         _______ _______ _______ _____ _____    ______ ____
ROOT
ATOM      1  C   UNL     1      -0.514   1.173   0.000  0.00  0.00    +0.000 A 
ATOM      2  C   UNL     1      -1.229   0.761   0.000  0.00  0.00    +0.000 A 
ATOM      3  C   UNL     1      -1.229  -0.064   0.000  0.00  0.00    +0.000 A 
ATOM      4  C   UNL     1       0.200   0.761   0.000  0.00  0.00    +0.000 A 
ATOM      5  C   UNL     1       0.200  -0.064   0.000  0.00  0.00    +0.000 A 
ATOM      6  C   UNL     1      -0.514  -0.476   0.000  0.00  0.00    +0.000 A 
ENDROOT
BRANCH   6   7
ATOM      7  C   UNL     1      -0.514  -1.302   0.000  0.00  0.00    +0.000 A 
ATOM      8  C   UNL     1      -1.229  -1.714   0.000  0.00  0.00    +0.000 A 
ATOM      9  C   UNL     1      -1.943  -1.302   0.000  0.00  0.00    +0.000 C 
ATOM     10  C   UNL     1      -1.229  -2.539   0.000  0.00  0.00    +0.000 A 
ATOM     11  C   UNL     1      -0.514  -2.951   0.000  0.00  0.00    +0.000 A 
ATOM     12  C   UNL     1       0.200  -1.714   0.000  0.00  0.00    +0.000 A 
ATOM     13  C   UNL     1       0.200  -2.539   0.000  0.00  0.00    +0.000 A 
BRANCH  13  14
ATOM     14  C   UNL     1       0.915  -2.951   0.000  0.00  0.00    +0.000 A 
ATOM     15  N   UNL     1       1.001  -3.772   0.000  0.00  0.00    +0.000 NA
ATOM     16  N   UNL     1       1.808  -3.943   0.000  0.00  0.00    +0.000 NA
ATOM     17  O   UNL     1       1.668  -2.616   0.000  0.00  0.00    +0.000 OA
ATOM     18  C   UNL     1       2.220  -3.229   0.000  0.00  0.00    +0.000 A 
ATOM     19  C   UNL     1       3.041  -3.143   0.000  0.00  0.00    +0.000 C 
ENDBRANCH  13  14
ENDBRANCH   6   7
BRANCH   1  21
ATOM     20  O   UNL     1      -1.229   2.411   0.000  0.00  0.00    +0.000 OA
ATOM     21  C   UNL     1      -0.514   1.998   0.000  0.00  0.00    +0.000 C 
ATOM     22  N   UNL     1       0.200   2.411   0.000  0.00  0.00    +0.000 NA
BRANCH  22  23
ATOM     23  C   UNL     1       0.200   3.236   0.000  0.00  0.00    +0.000 C 
BRANCH  23  24
ATOM     24  C   UNL     1       0.915   3.648   0.000  0.00  0.00    +0.000 C 
ATOM     25  C   UNL     1       1.327   4.363   0.000  0.00  0.00    +0.000 C 
ATOM     26  C   UNL     1       1.740   3.648   0.000  0.00  0.00    +0.000 C 
ENDBRANCH  23  24
ENDBRANCH  22  23
ENDBRANCH   1  21
TORSDOF 5
