REMARK  Name = Glycyrrhetinic acid ChEBI
REMARK  1 active torsions:
REMARK  status: ('A' for Active; 'I' for Inactive)
REMARK    1  A    between atoms: C_20  and  C_30
REMARK                            x       y       z     vdW  Elec       q    Type
REMARK                         _______ _______ _______ _____ _____    ______ ____
ROOT
ATOM      1  C   UNL     1       3.837  -4.077   0.000  0.00  0.00    +0.000 C 
ATOM      2  C   UNL     1       3.119  -4.514   0.000  0.00  0.00    +0.000 C 
ATOM      3  C   UNL     1       3.119  -5.326   0.000  0.00  0.00    +0.000 C 
ATOM      4  C   UNL     1       3.837  -5.732   0.000  0.00  0.00    +0.000 C 
ATOM      5  C   UNL     1       4.556  -5.326   0.000  0.00  0.00    +0.000 C 
ATOM      6  C   UNL     1       5.274  -5.732   0.000  0.00  0.00    +0.000 C 
ATOM      7  C   UNL     1       6.023  -5.326   0.000  0.00  0.00    +0.000 C 
ATOM      8  C   UNL     1       6.023  -4.514   0.000  0.00  0.00    +0.000 C 
ATOM      9  C   UNL     1       5.274  -4.077   0.000  0.00  0.00    +0.000 C 
ATOM     10  C   UNL     1       4.556  -4.514   0.000  0.00  0.00    +0.000 C 
ATOM     11  C   UNL     1       5.274  -3.265   0.000  0.00  0.00    +0.000 C 
ATOM     12  C   UNL     1       6.023  -2.859   0.000  0.00  0.00    +0.000 C 
ATOM     13  C   UNL     1       6.742  -3.265   0.000  0.00  0.00    +0.000 C 
ATOM     14  C   UNL     1       6.742  -4.077   0.000  0.00  0.00    +0.000 C 
ATOM     15  C   UNL     1       7.460  -4.514   0.000  0.00  0.00    +0.000 C 
ATOM     16  C   UNL     1       8.178  -4.077   0.000  0.00  0.00    +0.000 C 
ATOM     17  C   UNL     1       8.178  -3.265   0.000  0.00  0.00    +0.000 C 
ATOM     18  C   UNL     1       7.460  -2.859   0.000  0.00  0.00    +0.000 C 
ATOM     19  C   UNL     1       7.460  -2.047   0.000  0.00  0.00    +0.000 C 
ATOM     20  C   UNL     1       8.178  -1.610   0.000  0.00  0.00    +0.000 C 
ATOM     21  C   UNL     1       8.865  -2.047   0.000  0.00  0.00    +0.000 C 
ATOM     22  C   UNL     1       8.896  -2.859   0.000  0.00  0.00    +0.000 C 
ATOM     23  C   UNL     1       3.525  -6.450   0.000  0.00  0.00    +0.000 C 
ATOM     24  C   UNL     1       4.150  -6.419   0.000  0.00  0.00    +0.000 C 
ATOM     25  C   UNL     1       4.556  -3.671   0.000  0.00  0.00    +0.000 C 
ATOM     26  C   UNL     1       5.992  -3.733   0.000  0.00  0.00    +0.000 C 
ATOM     27  C   UNL     1       6.742  -4.951   0.000  0.00  0.00    +0.000 C 
ATOM     28  C   UNL     1       8.147  -2.453   0.000  0.00  0.00    +0.000 C 
ATOM     29  C   UNL     1       7.678  -0.954   0.000  0.00  0.00    +0.000 C 
ATOM     30  O   UNL     1       2.432  -5.732   0.000  0.00  0.00    +0.000 OA
ATOM     31  O   UNL     1       4.587  -2.828   0.000  0.00  0.00    +0.000 OA
ENDROOT
BRANCH  20  32
ATOM     32  C   UNL     1       8.615  -0.923   0.000  0.00  0.00    +0.000 C 
ATOM     33  O   UNL     1       9.427  -0.954   0.000  0.00  0.00    +0.000 OA
ATOM     34  O   UNL     1       8.241  -0.205   0.000  0.00  0.00    +0.000 OA
ENDBRANCH  20  32
TORSDOF 1
