REMARK  Name = GMG
REMARK  4 active torsions:
REMARK  status: ('A' for Active; 'I' for Inactive)
REMARK    1  A    between atoms: C_8  and  C_21
REMARK    2  A    between atoms: C_8  and  C_25
REMARK    3  A    between atoms: C_10  and  C_11
REMARK    4  A    between atoms: C_22  and  C_24
REMARK                            x       y       z     vdW  Elec       q    Type
REMARK                         _______ _______ _______ _____ _____    ______ ____
ROOT
ATOM      1  C   UNL     1      -1.898   1.638   0.000  0.00  0.00    +0.000 A 
ATOM      2  C   UNL     1       0.800   1.226   0.000  0.00  0.00    +0.000 A 
ATOM      3  C   UNL     1      -0.629   1.226   0.000  0.00  0.00    +0.000 A 
ATOM      4  C   UNL     1      -0.629   2.051   0.000  0.00  0.00    +0.000 A 
ATOM      5  C   UNL     1       0.086   0.813   0.000  0.00  0.00    +0.000 A 
ATOM      6  C   UNL     1       0.800   2.051   0.000  0.00  0.00    +0.000 A 
ATOM      7  C   UNL     1      -1.413   0.971   0.000  0.00  0.00    +0.000 A 
ATOM      8  N   UNL     1      -1.413   2.306   0.000  0.00  0.00    +0.000 NA
ATOM      9  N   UNL     1       0.086   2.463   0.000  0.00  0.00    +0.000 NA
ENDROOT
BRANCH   2  14
ATOM     10  C   UNL     1       3.658   1.226   0.000  0.00  0.00    +0.000 A 
ATOM     11  C   UNL     1       2.229  -0.424   0.000  0.00  0.00    +0.000 A 
ATOM     12  C   UNL     1       1.515  -0.012   0.000  0.00  0.00    +0.000 A 
ATOM     13  C   UNL     1       2.944  -0.012   0.000  0.00  0.00    +0.000 A 
ATOM     14  C   UNL     1       1.515   0.813   0.000  0.00  0.00    +0.000 A 
ATOM     15  C   UNL     1       4.373  -0.012   0.000  0.00  0.00    +0.000 A 
ATOM     16  C   UNL     1       4.373   0.813   0.000  0.00  0.00    +0.000 A 
ATOM     17  C   UNL     1       3.658  -0.424   0.000  0.00  0.00    +0.000 A 
ATOM     18  C   UNL     1       2.229   1.226   0.000  0.00  0.00    +0.000 A 
ATOM     19  C   UNL     1       2.944   0.813   0.000  0.00  0.00    +0.000 A 
ENDBRANCH   2  14
BRANCH   7  25
ATOM     20  C   UNL     1      -2.730  -0.770   0.000  0.00  0.00    +0.000 A 
ATOM     21  C   UNL     1      -1.371  -1.212   0.000  0.00  0.00    +0.000 A 
ATOM     22  C   UNL     1      -2.475   0.015   0.000  0.00  0.00    +0.000 A 
ATOM     23  C   UNL     1      -1.116  -0.427   0.000  0.00  0.00    +0.000 A 
ATOM     24  C   UNL     1      -2.178  -1.383   0.000  0.00  0.00    +0.000 A 
ATOM     25  C   UNL     1      -1.668   0.186   0.000  0.00  0.00    +0.000 A 
BRANCH  24  26
ATOM     26  C   UNL     1      -2.433  -2.168   0.000  0.00  0.00    +0.000 C 
BRANCH  26  27
ATOM     27  C   UNL     1      -3.240  -2.339   0.000  0.00  0.00    +0.000 C 
ATOM     28  O   UNL     1      -3.495  -3.124   0.000  0.00  0.00    +0.000 OA
ATOM     29  O   UNL     1      -3.792  -1.726   0.000  0.00  0.00    +0.000 OA
ENDBRANCH  26  27
ENDBRANCH  24  26
ENDBRANCH   7  25
TORSDOF 4
