REMARK  Name = GN8
REMARK  4 active torsions:
REMARK  status: ('A' for Active; 'I' for Inactive)
REMARK    1  A    between atoms: C_4  and  C_5
REMARK    2  A    between atoms: C_8  and  N_9
REMARK    3  A    between atoms: N_18  and  C_19
REMARK    4  A    between atoms: C_19  and  C_20
REMARK                            x       y       z     vdW  Elec       q    Type
REMARK                         _______ _______ _______ _____ _____    ______ ____
ROOT
ATOM      1  O   UNL     1       0.616   0.968   0.000  0.00  0.00    +0.000 OA
ATOM      2  C   UNL     1       0.616   0.143   0.000  0.00  0.00    +0.000 C 
ATOM      3  C   UNL     1      -0.051  -0.342   0.000  0.00  0.00    +0.000 C 
ATOM      4  C   UNL     1      -0.836  -0.087   0.000  0.00  0.00    +0.000 C 
ATOM      5  S   UNL     1       0.203  -1.127   0.000  0.00  0.00    +0.000 S 
ATOM      6  C   UNL     1       1.028  -1.127   0.000  0.00  0.00    +0.000 C 
ATOM      7  S   UNL     1       1.513  -1.794   0.000  0.00  0.00    +0.000 S 
ATOM      8  N   UNL     1       1.283  -0.342   0.000  0.00  0.00    +0.000 N 
ENDROOT
BRANCH   4   9
ATOM      9  C   UNL     1      -1.449  -0.639   0.000  0.00  0.00    +0.000 A 
ATOM     10  C   UNL     1      -1.278  -1.446   0.000  0.00  0.00    +0.000 A 
ATOM     11  O   UNL     1      -0.493  -1.701   0.000  0.00  0.00    +0.000 OA
ATOM     12  C   UNL     1      -1.891  -1.998   0.000  0.00  0.00    +0.000 A 
ATOM     13  C   UNL     1      -2.675  -1.743   0.000  0.00  0.00    +0.000 A 
ATOM     14  C   UNL     1      -2.847  -0.936   0.000  0.00  0.00    +0.000 A 
ATOM     15  C   UNL     1      -2.234  -0.384   0.000  0.00  0.00    +0.000 A 
BRANCH  12  16
ATOM     16  N   UNL     1      -1.719  -2.805   0.000  0.00  0.00    +0.000 N 
ATOM     17  O   UNL     1      -2.332  -3.357   0.000  0.00  0.00    +0.000 OA
ATOM     18  O   UNL     1      -0.935  -3.060   0.000  0.00  0.00    +0.000 OA
ENDBRANCH  12  16
ENDBRANCH   4   9
BRANCH   8  19
ATOM     19  C   UNL     1       2.068  -0.087   0.000  0.00  0.00    +0.000 C 
BRANCH  19  20
ATOM     20  C   UNL     1       2.681  -0.639   0.000  0.00  0.00    +0.000 A 
ATOM     21  C   UNL     1       2.510  -1.446   0.000  0.00  0.00    +0.000 A 
ATOM     22  C   UNL     1       3.466  -0.384   0.000  0.00  0.00    +0.000 A 
ATOM     23  C   UNL     1       4.079  -0.936   0.000  0.00  0.00    +0.000 A 
ATOM     24  C   UNL     1       3.907  -1.743   0.000  0.00  0.00    +0.000 A 
ATOM     25  C   UNL     1       3.123  -1.998   0.000  0.00  0.00    +0.000 A 
ENDBRANCH  19  20
ENDBRANCH   8  19
TORSDOF 4
