REMARK  Name = GNF
REMARK  9 active torsions:
REMARK  status: ('A' for Active; 'I' for Inactive)
REMARK    1  A    between atoms: C_2  and  C_3
REMARK    2  A    between atoms: C_3  and  N_4
REMARK    3  A    between atoms: C_3  and  C_14
REMARK    4  A    between atoms: C_14  and  C_15
REMARK    5  A    between atoms: N_21  and  C_22
REMARK    6  A    between atoms: C_22  and  C_23
REMARK    7  A    between atoms: C_23  and  N_24
REMARK    8  A    between atoms: N_24  and  C_25
REMARK    9  A    between atoms: C_30  and  O_31
REMARK                            x       y       z     vdW  Elec       q    Type
REMARK                         _______ _______ _______ _____ _____    ______ ____
ROOT
ATOM      1  C   UNL     1      -0.940   0.503   0.000  0.00  0.00    +0.000 C 
ENDROOT
BRANCH   1   2
ATOM      2  N   UNL     1      -1.480   1.127   0.000  0.00  0.00    +0.000 NA
ATOM      3  C   UNL     1      -2.290   0.971   0.000  0.00  0.00    +0.000 A 
ATOM      4  O   UNL     1      -2.640   0.224   0.000  0.00  0.00    +0.000 OA
ATOM      5  C   UNL     1      -3.459   0.326   0.000  0.00  0.00    +0.000 A 
ATOM      6  C   UNL     1      -4.082  -0.214   0.000  0.00  0.00    +0.000 A 
ATOM      7  C   UNL     1      -4.862   0.056   0.000  0.00  0.00    +0.000 A 
ATOM      8  C   UNL     1      -5.018   0.866   0.000  0.00  0.00    +0.000 A 
ATOM      9  C   UNL     1      -4.394   1.406   0.000  0.00  0.00    +0.000 A 
ATOM     10  C   UNL     1      -3.615   1.136   0.000  0.00  0.00    +0.000 A 
ATOM     11  N   UNL     1      -2.892   1.534   0.000  0.00  0.00    +0.000 NA
ENDBRANCH   1   2
BRANCH   1  13
ATOM     12  O   UNL     1       0.140   1.438   0.000  0.00  0.00    +0.000 OA
ATOM     13  C   UNL     1      -0.130   0.659   0.000  0.00  0.00    +0.000 C 
ATOM     14  N   UNL     1       0.410   0.035   0.000  0.00  0.00    +0.000 NA
BRANCH  14  15
ATOM     15  C   UNL     1       1.220   0.191   0.000  0.00  0.00    +0.000 C 
BRANCH  15  16
ATOM     16  C   UNL     1       1.761  -0.432   0.000  0.00  0.00    +0.000 C 
BRANCH  16  17
ATOM     17  N   UNL     1       2.571  -0.277   0.000  0.00  0.00    +0.000 NA
BRANCH  17  18
ATOM     18  C   UNL     1       2.841   0.503   0.000  0.00  0.00    +0.000 A 
ATOM     19  C   UNL     1       2.301   1.127   0.000  0.00  0.00    +0.000 A 
ATOM     20  C   UNL     1       2.571   1.906   0.000  0.00  0.00    +0.000 A 
ATOM     21  C   UNL     1       3.651   0.659   0.000  0.00  0.00    +0.000 A 
ATOM     22  C   UNL     1       3.921   1.438   0.000  0.00  0.00    +0.000 A 
ATOM     23  C   UNL     1       3.381   2.062   0.000  0.00  0.00    +0.000 A 
BRANCH  23  24
ATOM     24  O   UNL     1       3.651   2.842   0.000  0.00  0.00    +0.000 OA
ATOM     25  C   UNL     1       3.111   3.465   0.000  0.00  0.00    +0.000 C 
ENDBRANCH  23  24
ENDBRANCH  17  18
ENDBRANCH  16  17
ENDBRANCH  15  16
ENDBRANCH  14  15
ENDBRANCH   1  13
BRANCH   1  26
ATOM     26  C   UNL     1      -1.210  -0.277   0.000  0.00  0.00    +0.000 C 
BRANCH  26  27
ATOM     27  C   UNL     1      -0.670  -0.900   0.000  0.00  0.00    +0.000 C 
ATOM     28  C   UNL     1       0.140  -0.744   0.000  0.00  0.00    +0.000 C 
ATOM     29  C   UNL     1       0.680  -1.368   0.000  0.00  0.00    +0.000 C 
ATOM     30  C   UNL     1       0.410  -2.147   0.000  0.00  0.00    +0.000 C 
ATOM     31  C   UNL     1      -0.400  -2.303   0.000  0.00  0.00    +0.000 C 
ATOM     32  C   UNL     1      -0.940  -1.680   0.000  0.00  0.00    +0.000 C 
ENDBRANCH  26  27
ENDBRANCH   1  26
TORSDOF 9
