REMARK  Name = GNR
REMARK  2 active torsions:
REMARK  status: ('A' for Active; 'I' for Inactive)
REMARK    1  A    between atoms: C_11  and  C_12
REMARK    2  A    between atoms: C_12  and  C_13
REMARK                            x       y       z     vdW  Elec       q    Type
REMARK                         _______ _______ _______ _____ _____    ______ ____
ROOT
ATOM      1  O   UNL     1      -1.386   1.538   0.000  0.00  0.00    +0.000 OA
ATOM      2  C   UNL     1      -0.671   1.126   0.000  0.00  0.00    +0.000 C 
ATOM      3  N   UNL     1       0.043   1.538   0.000  0.00  0.00    +0.000 NA
ATOM      4  C   UNL     1       0.757   1.126   0.000  0.00  0.00    +0.000 A 
ATOM      5  C   UNL     1       1.472   1.538   0.000  0.00  0.00    +0.000 A 
ATOM      6  C   UNL     1       2.187   1.126   0.000  0.00  0.00    +0.000 A 
ATOM      7  C   UNL     1       2.187   0.301   0.000  0.00  0.00    +0.000 A 
ATOM      8  C   UNL     1       1.472  -0.112   0.000  0.00  0.00    +0.000 A 
ATOM      9  C   UNL     1       0.757   0.301   0.000  0.00  0.00    +0.000 A 
ATOM     10  S   UNL     1       0.043  -0.112   0.000  0.00  0.00    +0.000 S 
ATOM     11  C   UNL     1      -0.671   0.301   0.000  0.00  0.00    +0.000 C 
ENDROOT
BRANCH  11  12
ATOM     12  C   UNL     1      -1.386  -0.112   0.000  0.00  0.00    +0.000 C 
BRANCH  12  13
ATOM     13  C   UNL     1      -1.386  -0.937   0.000  0.00  0.00    +0.000 C 
ATOM     14  O   UNL     1      -0.671  -1.349   0.000  0.00  0.00    +0.000 OA
ATOM     15  N   UNL     1      -2.100  -1.349   0.000  0.00  0.00    +0.000 NA
ATOM     16  O   UNL     1      -2.100  -2.174   0.000  0.00  0.00    +0.000 OA
ENDBRANCH  12  13
ENDBRANCH  11  12
TORSDOF 2
