REMARK  Name = GP6
REMARK  3 active torsions:
REMARK  status: ('A' for Active; 'I' for Inactive)
REMARK    1  A    between atoms: C_3  and  C_4
REMARK    2  A    between atoms: C_7  and  N_10
REMARK    3  A    between atoms: N_13  and  C_14
REMARK                            x       y       z     vdW  Elec       q    Type
REMARK                         _______ _______ _______ _____ _____    ______ ____
ROOT
ATOM      1  N   UNL     1       0.696  -0.367   0.000  0.00  0.00    +0.000 NA
ATOM      2  C   UNL     1      -0.019  -0.780   0.000  0.00  0.00    +0.000 C 
ATOM      3  O   UNL     1      -0.733  -0.367   0.000  0.00  0.00    +0.000 OA
ATOM      4  N   UNL     1      -0.019  -1.605   0.000  0.00  0.00    +0.000 NA
ENDROOT
BRANCH   4   5
ATOM      5  C   UNL     1      -0.733  -2.017   0.000  0.00  0.00    +0.000 A 
ATOM      6  C   UNL     1      -0.733  -2.842   0.000  0.00  0.00    +0.000 A 
ATOM      7  C   UNL     1      -1.448  -3.255   0.000  0.00  0.00    +0.000 A 
ATOM      8  C   UNL     1      -2.162  -2.842   0.000  0.00  0.00    +0.000 A 
ATOM      9  C   UNL     1      -2.162  -2.017   0.000  0.00  0.00    +0.000 A 
ATOM     10  C   UNL     1      -1.448  -1.605   0.000  0.00  0.00    +0.000 A 
ATOM     11 CL   UNL     1      -2.877  -3.255   0.000  0.00  0.00    +0.000 Cl
ENDBRANCH   4   5
BRANCH   1  15
ATOM     12  C   UNL     1       0.696   2.108   0.000  0.00  0.00    +0.000 A 
ATOM     13  C   UNL     1       1.410   1.695   0.000  0.00  0.00    +0.000 A 
ATOM     14  C   UNL     1       1.410   0.870   0.000  0.00  0.00    +0.000 A 
ATOM     15  C   UNL     1       0.696   0.458   0.000  0.00  0.00    +0.000 A 
ATOM     16  C   UNL     1      -0.019   0.870   0.000  0.00  0.00    +0.000 A 
ATOM     17  C   UNL     1      -0.019   1.695   0.000  0.00  0.00    +0.000 A 
BRANCH  12  20
ATOM     18  N   UNL     1      -0.019   3.345   0.000  0.00  0.00    +0.000 NA
ATOM     19  N   UNL     1       1.410   3.345   0.000  0.00  0.00    +0.000 NA
ATOM     20  C   UNL     1       0.696   2.933   0.000  0.00  0.00    +0.000 C 
ENDBRANCH  12  20
ENDBRANCH   1  15
TORSDOF 3
