REMARK  Name = GP8
REMARK  5 active torsions:
REMARK  status: ('A' for Active; 'I' for Inactive)
REMARK    1  A    between atoms: C_3  and  C_4
REMARK    2  A    between atoms: C_7  and  N_10
REMARK    3  A    between atoms: N_13  and  C_14
REMARK    4  A    between atoms: C_17  and  O_20
REMARK    5  A    between atoms: O_20  and  C_21
REMARK                            x       y       z     vdW  Elec       q    Type
REMARK                         _______ _______ _______ _____ _____    ______ ____
ROOT
ATOM      1  N   UNL     1       1.483   0.947   0.000  0.00  0.00    +0.000 NA
ATOM      2  C   UNL     1       0.769   0.534   0.000  0.00  0.00    +0.000 C 
ATOM      3  O   UNL     1       0.054   0.947   0.000  0.00  0.00    +0.000 OA
ATOM      4  N   UNL     1       0.769  -0.291   0.000  0.00  0.00    +0.000 NA
ENDROOT
BRANCH   1   8
ATOM      5  C   UNL     1       1.483   3.421   0.000  0.00  0.00    +0.000 A 
ATOM      6  C   UNL     1       2.198   3.009   0.000  0.00  0.00    +0.000 A 
ATOM      7  C   UNL     1       2.198   2.184   0.000  0.00  0.00    +0.000 A 
ATOM      8  C   UNL     1       1.483   1.772   0.000  0.00  0.00    +0.000 A 
ATOM      9  C   UNL     1       0.769   2.184   0.000  0.00  0.00    +0.000 A 
ATOM     10  C   UNL     1       0.769   3.009   0.000  0.00  0.00    +0.000 A 
BRANCH   5  13
ATOM     11  N   UNL     1       0.769   4.659   0.000  0.00  0.00    +0.000 NA
ATOM     12  N   UNL     1       2.198   4.659   0.000  0.00  0.00    +0.000 NA
ATOM     13  C   UNL     1       1.483   4.247   0.000  0.00  0.00    +0.000 C 
ENDBRANCH   5  13
ENDBRANCH   1   8
BRANCH   4  14
ATOM     14  C   UNL     1       0.054  -0.704   0.000  0.00  0.00    +0.000 A 
ATOM     15  C   UNL     1       0.054  -1.528   0.000  0.00  0.00    +0.000 A 
ATOM     16  C   UNL     1      -0.660  -1.941   0.000  0.00  0.00    +0.000 A 
ATOM     17  C   UNL     1      -1.375  -1.528   0.000  0.00  0.00    +0.000 A 
ATOM     18  C   UNL     1      -1.375  -0.704   0.000  0.00  0.00    +0.000 A 
ATOM     19  C   UNL     1      -0.660  -0.291   0.000  0.00  0.00    +0.000 A 
BRANCH  17  20
ATOM     20  O   UNL     1      -2.089  -1.941   0.000  0.00  0.00    +0.000 OA
BRANCH  20  21
ATOM     21  C   UNL     1      -2.089  -2.766   0.000  0.00  0.00    +0.000 A 
ATOM     22  C   UNL     1      -1.375  -3.179   0.000  0.00  0.00    +0.000 A 
ATOM     23  C   UNL     1      -1.375  -4.003   0.000  0.00  0.00    +0.000 A 
ATOM     24  C   UNL     1      -2.089  -4.416   0.000  0.00  0.00    +0.000 A 
ATOM     25  C   UNL     1      -2.804  -4.003   0.000  0.00  0.00    +0.000 A 
ATOM     26  C   UNL     1      -2.804  -3.179   0.000  0.00  0.00    +0.000 A 
ENDBRANCH  20  21
ENDBRANCH  17  20
ENDBRANCH   4  14
TORSDOF 5
