REMARK  Name = GPI
REMARK  9 active torsions:
REMARK  status: ('A' for Active; 'I' for Inactive)
REMARK    1  A    between atoms: C_1  and  C_6
REMARK    2  A    between atoms: C_6  and  O_8
REMARK    3  A    between atoms: O_8  and  C_9
REMARK    4  A    between atoms: C_9  and  C_10
REMARK    5  A    between atoms: C_10  and  C_11
REMARK    6  A    between atoms: C_11  and  C_16
REMARK    7  A    between atoms: C_18  and  C_20
REMARK    8  A    between atoms: C_20  and  C_22
REMARK    9  A    between atoms: C_22  and  C_25
REMARK                            x       y       z     vdW  Elec       q    Type
REMARK                         _______ _______ _______ _____ _____    ______ ____
ROOT
ATOM      1  C   UNL     1      -0.354   0.219   0.000  0.00  0.00    +0.000 C 
ATOM      2  N   UNL     1      -1.108  -0.116   0.000  0.00  0.00    +0.000 N 
ATOM      3  C   UNL     1      -1.660   0.497   0.000  0.00  0.00    +0.000 C 
ATOM      4  C   UNL     1      -0.440   1.040   0.000  0.00  0.00    +0.000 C 
ATOM      5  C   UNL     1      -1.247   1.211   0.000  0.00  0.00    +0.000 C 
ATOM      6  C   UNL     1      -1.279  -0.923   0.000  0.00  0.00    +0.000 C 
ATOM      7  O   UNL     1      -0.666  -1.475   0.000  0.00  0.00    +0.000 OA
ENDROOT
BRANCH   6   8
ATOM      8  C   UNL     1      -2.064  -1.178   0.000  0.00  0.00    +0.000 C 
ATOM      9  O   UNL     1      -2.235  -1.985   0.000  0.00  0.00    +0.000 OA
BRANCH   8  10
ATOM     10  C   UNL     1      -2.677  -0.626   0.000  0.00  0.00    +0.000 C 
ATOM     11  C   UNL     1      -2.125  -0.013   0.000  0.00  0.00    +0.000 C 
ATOM     12  C   UNL     1      -3.229  -1.239   0.000  0.00  0.00    +0.000 C 
BRANCH  10  13
ATOM     13  C   UNL     1      -3.290  -0.074   0.000  0.00  0.00    +0.000 C 
ATOM     14  C   UNL     1      -4.075  -0.329   0.000  0.00  0.00    +0.000 C 
ENDBRANCH  10  13
ENDBRANCH   8  10
ENDBRANCH   6   8
BRANCH   1  15
ATOM     15  C   UNL     1       0.360  -0.193   0.000  0.00  0.00    +0.000 C 
ATOM     16  O   UNL     1       0.360  -1.018   0.000  0.00  0.00    +0.000 OA
BRANCH  15  17
ATOM     17  O   UNL     1       1.075   0.219   0.000  0.00  0.00    +0.000 OA
BRANCH  17  18
ATOM     18  C   UNL     1       1.789  -0.193   0.000  0.00  0.00    +0.000 C 
BRANCH  18  19
ATOM     19  C   UNL     1       2.504   0.219   0.000  0.00  0.00    +0.000 C 
BRANCH  19  20
ATOM     20  C   UNL     1       3.218  -0.193   0.000  0.00  0.00    +0.000 C 
BRANCH  20  25
ATOM     21  N   UNL     1       4.647   1.457   0.000  0.00  0.00    +0.000 NA
ATOM     22  C   UNL     1       5.362   1.044   0.000  0.00  0.00    +0.000 A 
ATOM     23  C   UNL     1       5.362   0.219   0.000  0.00  0.00    +0.000 A 
ATOM     24  C   UNL     1       4.647  -0.193   0.000  0.00  0.00    +0.000 A 
ATOM     25  C   UNL     1       3.933   0.219   0.000  0.00  0.00    +0.000 A 
ATOM     26  C   UNL     1       3.933   1.044   0.000  0.00  0.00    +0.000 A 
ENDBRANCH  20  25
ENDBRANCH  19  20
ENDBRANCH  18  19
ENDBRANCH  17  18
ENDBRANCH  15  17
ENDBRANCH   1  15
TORSDOF 9
