REMARK  Name = GPP
REMARK  8 active torsions:
REMARK  status: ('A' for Active; 'I' for Inactive)
REMARK    1  A    between atoms: C_1  and  O_2
REMARK    2  A    between atoms: C_1  and  C_3
REMARK    3  A    between atoms: O_2  and  P_12
REMARK    4  A    between atoms: C_4  and  C_6
REMARK    5  A    between atoms: C_6  and  C_7
REMARK    6  A    between atoms: C_7  and  C_8
REMARK    7  A    between atoms: P_12  and  O_15
REMARK    8  A    between atoms: O_15  and  P_16
REMARK                            x       y       z     vdW  Elec       q    Type
REMARK                         _______ _______ _______ _____ _____    ______ ____
ROOT
ATOM      1  C   UNL     1       0.159  -1.626   0.000  0.00  0.00    +0.000 C 
ENDROOT
BRANCH   1   2
ATOM      2  C   UNL     1      -0.555  -1.214   0.000  0.00  0.00    +0.000 C 
ATOM      3  C   UNL     1      -0.555  -0.389   0.000  0.00  0.00    +0.000 C 
ATOM      4  C   UNL     1       0.159   0.024   0.000  0.00  0.00    +0.000 C 
BRANCH   3   5
ATOM      5  C   UNL     1      -1.270   0.024   0.000  0.00  0.00    +0.000 C 
BRANCH   5   6
ATOM      6  C   UNL     1      -1.270   0.849   0.000  0.00  0.00    +0.000 C 
BRANCH   6   7
ATOM      7  C   UNL     1      -1.984   1.262   0.000  0.00  0.00    +0.000 C 
ATOM      8  C   UNL     1      -1.984   2.087   0.000  0.00  0.00    +0.000 C 
ATOM      9  C   UNL     1      -2.699   2.499   0.000  0.00  0.00    +0.000 C 
ATOM     10  C   UNL     1      -1.270   2.499   0.000  0.00  0.00    +0.000 C 
ENDBRANCH   6   7
ENDBRANCH   5   6
ENDBRANCH   3   5
ENDBRANCH   1   2
BRANCH   1  11
ATOM     11  O   UNL     1       0.874  -1.214   0.000  0.00  0.00    +0.000 OA
BRANCH  11  12
ATOM     12  P   UNL     1       1.588  -1.626   0.000  0.00  0.00    +0.000 P 
ATOM     13  O   UNL     1       1.176  -2.341   0.000  0.00  0.00    +0.000 OA
ATOM     14  O   UNL     1       2.001  -0.911   0.000  0.00  0.00    +0.000 OA
BRANCH  12  15
ATOM     15  O   UNL     1       2.303  -2.038   0.000  0.00  0.00    +0.000 OA
BRANCH  15  16
ATOM     16  P   UNL     1       3.017  -1.626   0.000  0.00  0.00    +0.000 P 
ATOM     17  O   UNL     1       3.732  -1.214   0.000  0.00  0.00    +0.000 OA
ATOM     18  O   UNL     1       3.430  -2.341   0.000  0.00  0.00    +0.000 OA
ATOM     19  O   UNL     1       2.605  -0.911   0.000  0.00  0.00    +0.000 OA
ENDBRANCH  15  16
ENDBRANCH  12  15
ENDBRANCH  11  12
ENDBRANCH   1  11
TORSDOF 8
