REMARK  Name = GRR
REMARK  6 active torsions:
REMARK  status: ('A' for Active; 'I' for Inactive)
REMARK    1  A    between atoms: C_2  and  C_3
REMARK    2  A    between atoms: C_8  and  O_9
REMARK    3  A    between atoms: O_9  and  C_10
REMARK    4  A    between atoms: C_10  and  C_11
REMARK    5  A    between atoms: C_10  and  C_14
REMARK    6  A    between atoms: C_14  and  C_15
REMARK                            x       y       z     vdW  Elec       q    Type
REMARK                         _______ _______ _______ _____ _____    ______ ____
ROOT
ATOM      1  C   UNL     1      -0.091  -1.008   0.000  0.00  0.00    +0.000 C 
ENDROOT
BRANCH   1   2
ATOM      2  C   UNL     1       0.623  -0.596   0.000  0.00  0.00    +0.000 C 
ATOM      3  O   UNL     1       0.623   0.229   0.000  0.00  0.00    +0.000 OA
ATOM      4  O   UNL     1       1.338  -1.008   0.000  0.00  0.00    +0.000 OA
ENDBRANCH   1   2
BRANCH   1   5
ATOM      5  O   UNL     1      -0.806  -0.596   0.000  0.00  0.00    +0.000 OA
BRANCH   5  11
ATOM      6  C   UNL     1      -0.806   1.879   0.000  0.00  0.00    +0.000 A 
ATOM      7  C   UNL     1      -1.520   1.467   0.000  0.00  0.00    +0.000 A 
ATOM      8  C   UNL     1      -1.520   0.642   0.000  0.00  0.00    +0.000 A 
ATOM      9  C   UNL     1      -0.091   1.467   0.000  0.00  0.00    +0.000 A 
ATOM     10  C   UNL     1      -0.091   0.642   0.000  0.00  0.00    +0.000 A 
ATOM     11  C   UNL     1      -0.806   0.229   0.000  0.00  0.00    +0.000 A 
BRANCH   6  13
ATOM     12  C   UNL     1      -0.091   3.117   0.000  0.00  0.00    +0.000 C 
ATOM     13  C   UNL     1      -0.806   2.704   0.000  0.00  0.00    +0.000 C 
ENDBRANCH   6  13
ENDBRANCH   5  11
ENDBRANCH   1   5
BRANCH   1  14
ATOM     14  C   UNL     1      -0.091  -1.833   0.000  0.00  0.00    +0.000 C 
BRANCH  14  15
ATOM     15  C   UNL     1       0.623  -2.246   0.000  0.00  0.00    +0.000 A 
ATOM     16  C   UNL     1       0.623  -3.071   0.000  0.00  0.00    +0.000 A 
ATOM     17  C   UNL     1       1.338  -3.483   0.000  0.00  0.00    +0.000 A 
ATOM     18  C   UNL     1       2.052  -3.071   0.000  0.00  0.00    +0.000 A 
ATOM     19  C   UNL     1       2.052  -2.246   0.000  0.00  0.00    +0.000 A 
ATOM     20  C   UNL     1       1.338  -1.833   0.000  0.00  0.00    +0.000 A 
ENDBRANCH  14  15
ENDBRANCH   1  14
TORSDOF 6
