REMARK  Name = GS5
REMARK  5 active torsions:
REMARK  status: ('A' for Active; 'I' for Inactive)
REMARK    1  A    between atoms: C_9  and  S_10
REMARK    2  A    between atoms: S_10  and  N_13
REMARK    3  A    between atoms: N_13  and  C_14
REMARK    4  A    between atoms: N_19  and  C_20
REMARK    5  A    between atoms: C_20  and  C_22
REMARK                            x       y       z     vdW  Elec       q    Type
REMARK                         _______ _______ _______ _____ _____    ______ ____
ROOT
ATOM      1  C   UNL     1      -0.304  -2.977   0.000  0.00  0.00    +0.000 C 
ATOM      2  C   UNL     1      -1.125  -2.891   0.000  0.00  0.00    +0.000 C 
ATOM      3  O   UNL     1      -1.677  -3.504   0.000  0.00  0.00    +0.000 OA
ATOM      4  C   UNL     1       0.031  -2.223   0.000  0.00  0.00    +0.000 C 
ATOM      5  C   UNL     1      -0.582  -1.671   0.000  0.00  0.00    +0.000 C 
ATOM      6  N   UNL     1      -1.296  -2.084   0.000  0.00  0.00    +0.000 N 
ENDROOT
BRANCH   6   7
ATOM      7  C   UNL     1      -2.050  -1.748   0.000  0.00  0.00    +0.000 C 
ATOM      8  C   UNL     1      -2.136  -0.928   0.000  0.00  0.00    +0.000 C 
BRANCH   7   9
ATOM      9  C   UNL     1      -2.717  -2.233   0.000  0.00  0.00    +0.000 C 
ATOM     10  O   UNL     1      -2.631  -3.054   0.000  0.00  0.00    +0.000 OA
ATOM     11  N   UNL     1      -3.471  -1.898   0.000  0.00  0.00    +0.000 N 
ATOM     12  C   UNL     1      -4.138  -2.382   0.000  0.00  0.00    +0.000 C 
ATOM     13  C   UNL     1      -4.892  -2.047   0.000  0.00  0.00    +0.000 C 
ATOM     14  O   UNL     1      -4.978  -1.226   0.000  0.00  0.00    +0.000 OA
ATOM     15  C   UNL     1      -4.311  -0.742   0.000  0.00  0.00    +0.000 C 
ATOM     16  C   UNL     1      -3.557  -1.077   0.000  0.00  0.00    +0.000 C 
ENDBRANCH   7   9
ENDBRANCH   6   7
BRANCH   1  17
ATOM     17  N   UNL     1       0.108  -3.692   0.000  0.00  0.00    +0.000 NA
BRANCH  17  18
ATOM     18  S   UNL     1       0.933  -3.692   0.000  0.00  0.00    +0.000 S 
ATOM     19  O   UNL     1       0.933  -2.866   0.000  0.00  0.00    +0.000 OA
ATOM     20  O   UNL     1       0.933  -4.516   0.000  0.00  0.00    +0.000 OA
BRANCH  18  29
ATOM     21 CL   UNL     1       5.171  -2.866   0.000  0.00  0.00    +0.000 Cl
ATOM     22  C   UNL     1       4.457  -3.279   0.000  0.00  0.00    +0.000 A 
ATOM     23  C   UNL     1       4.457  -4.104   0.000  0.00  0.00    +0.000 A 
ATOM     24  C   UNL     1       3.742  -4.516   0.000  0.00  0.00    +0.000 A 
ATOM     25  C   UNL     1       3.028  -4.104   0.000  0.00  0.00    +0.000 A 
ATOM     26  C   UNL     1       3.028  -3.279   0.000  0.00  0.00    +0.000 A 
ATOM     27  C   UNL     1       3.742  -2.866   0.000  0.00  0.00    +0.000 A 
ATOM     28  C   UNL     1       2.243  -3.024   0.000  0.00  0.00    +0.000 A 
ATOM     29  C   UNL     1       1.758  -3.692   0.000  0.00  0.00    +0.000 A 
ATOM     30  S   UNL     1       2.243  -4.359   0.000  0.00  0.00    +0.000 S 
ENDBRANCH  18  29
ENDBRANCH  17  18
ENDBRANCH   1  17
TORSDOF 5
