REMARK  Name = GS6
REMARK  5 active torsions:
REMARK  status: ('A' for Active; 'I' for Inactive)
REMARK    1  A    between atoms: C_9  and  S_10
REMARK    2  A    between atoms: S_10  and  N_13
REMARK    3  A    between atoms: N_13  and  C_14
REMARK    4  A    between atoms: N_19  and  C_20
REMARK    5  A    between atoms: C_20  and  C_22
REMARK                            x       y       z     vdW  Elec       q    Type
REMARK                         _______ _______ _______ _____ _____    ______ ____
ROOT
ATOM      1  C   UNL     1      -0.451  -1.697   0.000  0.00  0.00    +0.000 C 
ATOM      2  C   UNL     1      -0.116  -2.451   0.000  0.00  0.00    +0.000 C 
ATOM      3  C   UNL     1      -0.729  -3.003   0.000  0.00  0.00    +0.000 C 
ATOM      4  C   UNL     1      -1.272  -1.783   0.000  0.00  0.00    +0.000 C 
ATOM      5  O   UNL     1      -1.824  -1.170   0.000  0.00  0.00    +0.000 OA
ATOM      6  N   UNL     1      -1.443  -2.590   0.000  0.00  0.00    +0.000 N 
ENDROOT
BRANCH   6   7
ATOM      7  C   UNL     1      -2.197  -2.926   0.000  0.00  0.00    +0.000 C 
ATOM      8  C   UNL     1      -2.865  -2.441   0.000  0.00  0.00    +0.000 C 
BRANCH   7   9
ATOM      9  C   UNL     1      -2.283  -3.746   0.000  0.00  0.00    +0.000 C 
ATOM     10  O   UNL     1      -1.616  -4.231   0.000  0.00  0.00    +0.000 OA
ATOM     11  N   UNL     1      -3.037  -4.082   0.000  0.00  0.00    +0.000 N 
ATOM     12  C   UNL     1      -3.123  -4.902   0.000  0.00  0.00    +0.000 C 
ATOM     13  C   UNL     1      -3.877  -5.238   0.000  0.00  0.00    +0.000 C 
ATOM     14  O   UNL     1      -4.544  -4.753   0.000  0.00  0.00    +0.000 OA
ATOM     15  C   UNL     1      -4.458  -3.933   0.000  0.00  0.00    +0.000 C 
ATOM     16  C   UNL     1      -3.704  -3.597   0.000  0.00  0.00    +0.000 C 
ENDBRANCH   7   9
ENDBRANCH   6   7
BRANCH   1  17
ATOM     17  N   UNL     1      -0.039  -0.983   0.000  0.00  0.00    +0.000 NA
BRANCH  17  18
ATOM     18  S   UNL     1       0.786  -0.983   0.000  0.00  0.00    +0.000 S 
ATOM     19  O   UNL     1       0.786  -0.158   0.000  0.00  0.00    +0.000 OA
ATOM     20  O   UNL     1       0.786  -1.808   0.000  0.00  0.00    +0.000 OA
BRANCH  18  29
ATOM     21 CL   UNL     1       5.024  -1.808   0.000  0.00  0.00    +0.000 Cl
ATOM     22  C   UNL     1       4.310  -1.395   0.000  0.00  0.00    +0.000 A 
ATOM     23  C   UNL     1       3.595  -1.808   0.000  0.00  0.00    +0.000 A 
ATOM     24  C   UNL     1       2.881  -1.395   0.000  0.00  0.00    +0.000 A 
ATOM     25  C   UNL     1       2.881  -0.570   0.000  0.00  0.00    +0.000 A 
ATOM     26  C   UNL     1       2.096  -0.315   0.000  0.00  0.00    +0.000 A 
ATOM     27  C   UNL     1       3.595  -0.158   0.000  0.00  0.00    +0.000 A 
ATOM     28  C   UNL     1       4.310  -0.570   0.000  0.00  0.00    +0.000 A 
ATOM     29  C   UNL     1       1.611  -0.983   0.000  0.00  0.00    +0.000 A 
ATOM     30  S   UNL     1       2.096  -1.650   0.000  0.00  0.00    +0.000 S 
ENDBRANCH  18  29
ENDBRANCH  17  18
ENDBRANCH   1  17
TORSDOF 5
