REMARK  Name = GS7
REMARK  6 active torsions:
REMARK  status: ('A' for Active; 'I' for Inactive)
REMARK    1  A    between atoms: N_10  and  C_11
REMARK    2  A    between atoms: C_12  and  O_13
REMARK    3  A    between atoms: C_17  and  C_19
REMARK    4  A    between atoms: C_19  and  S_20
REMARK    5  A    between atoms: C_25  and  C_27
REMARK    6  A    between atoms: C_33  and  N_34
REMARK                            x       y       z     vdW  Elec       q    Type
REMARK                         _______ _______ _______ _____ _____    ______ ____
ROOT
ATOM      1  C   UNL     1      -0.853   1.467   0.000  0.00  0.00    +0.000 A 
ATOM      2  N   UNL     1      -0.138   1.054   0.000  0.00  0.00    +0.000 NA
ATOM      3  C   UNL     1      -1.567   1.054   0.000  0.00  0.00    +0.000 A 
ATOM      4  C   UNL     1      -1.567   0.229   0.000  0.00  0.00    +0.000 A 
ATOM      5  N   UNL     1      -2.352  -0.026   0.000  0.00  0.00    +0.000 NA
ATOM      6  C   UNL     1      -2.837   0.642   0.000  0.00  0.00    +0.000 A 
ATOM      7  C   UNL     1      -2.352   1.309   0.000  0.00  0.00    +0.000 A 
ATOM      8  N   UNL     1      -0.853  -0.183   0.000  0.00  0.00    +0.000 NA
ATOM      9  C   UNL     1      -0.138   0.229   0.000  0.00  0.00    +0.000 A 
ATOM     10  N   UNL     1       0.576  -0.183   0.000  0.00  0.00    +0.000 NA
ATOM     11  N   UNL     1      -0.853   2.292   0.000  0.00  0.00    +0.000 NA
ENDROOT
BRANCH  11  18
ATOM     12  C   UNL     1      -0.138   3.529   0.000  0.00  0.00    +0.000 A 
ATOM     13  C   UNL     1       0.576   3.942   0.000  0.00  0.00    +0.000 A 
ATOM     14  F   UNL     1       0.576   4.767   0.000  0.00  0.00    +0.000 F 
ATOM     15  C   UNL     1       1.291   3.529   0.000  0.00  0.00    +0.000 A 
ATOM     16  C   UNL     1       1.291   2.704   0.000  0.00  0.00    +0.000 A 
ATOM     17  C   UNL     1       0.576   2.292   0.000  0.00  0.00    +0.000 A 
ATOM     18  C   UNL     1      -0.138   2.704   0.000  0.00  0.00    +0.000 A 
BRANCH  12  20
ATOM     19  O   UNL     1      -1.567   3.529   0.000  0.00  0.00    +0.000 OA
ATOM     20  C   UNL     1      -0.853   3.942   0.000  0.00  0.00    +0.000 C 
ATOM     21  N   UNL     1      -0.853   4.767   0.000  0.00  0.00    +0.000 NA
ENDBRANCH  12  20
ENDBRANCH  11  18
BRANCH  10  22
ATOM     22  C   UNL     1       0.576  -1.008   0.000  0.00  0.00    +0.000 A 
ATOM     23  C   UNL     1       1.291  -1.421   0.000  0.00  0.00    +0.000 A 
ATOM     24  C   UNL     1      -0.138  -1.421   0.000  0.00  0.00    +0.000 A 
ATOM     25  C   UNL     1      -0.138  -2.246   0.000  0.00  0.00    +0.000 A 
ATOM     26  C   UNL     1       0.576  -2.658   0.000  0.00  0.00    +0.000 A 
ATOM     27  C   UNL     1       1.291  -2.246   0.000  0.00  0.00    +0.000 A 
BRANCH  23  28
ATOM     28  O   UNL     1       2.005  -1.008   0.000  0.00  0.00    +0.000 OA
ATOM     29  C   UNL     1       2.720  -1.421   0.000  0.00  0.00    +0.000 C 
ENDBRANCH  23  28
BRANCH  26  30
ATOM     30  C   UNL     1       0.576  -3.483   0.000  0.00  0.00    +0.000 C 
BRANCH  30  31
ATOM     31  S   UNL     1       1.291  -3.896   0.000  0.00  0.00    +0.000 S 
ATOM     32  O   UNL     1       2.005  -4.308   0.000  0.00  0.00    +0.000 OA
ATOM     33  O   UNL     1       1.703  -3.181   0.000  0.00  0.00    +0.000 OA
ATOM     34  C   UNL     1       0.878  -4.610   0.000  0.00  0.00    +0.000 C 
ENDBRANCH  30  31
ENDBRANCH  26  30
ENDBRANCH  10  22
TORSDOF 6
