REMARK  Name = GSK
REMARK  5 active torsions:
REMARK  status: ('A' for Active; 'I' for Inactive)
REMARK    1  A    between atoms: C_11  and  S_12
REMARK    2  A    between atoms: S_12  and  N_15
REMARK    3  A    between atoms: N_15  and  C_16
REMARK    4  A    between atoms: N_21  and  C_22
REMARK    5  A    between atoms: C_22  and  C_24
REMARK                            x       y       z     vdW  Elec       q    Type
REMARK                         _______ _______ _______ _____ _____    ______ ____
ROOT
ATOM      1  C   UNL     1       0.028  -0.493   0.000  0.00  0.00    +0.000 C 
ATOM      2  C   UNL     1      -0.639  -0.008   0.000  0.00  0.00    +0.000 C 
ATOM      3  C   UNL     1      -0.385   0.777   0.000  0.00  0.00    +0.000 C 
ATOM      4  C   UNL     1       0.695  -0.008   0.000  0.00  0.00    +0.000 C 
ATOM      5  O   UNL     1       1.480  -0.263   0.000  0.00  0.00    +0.000 OA
ATOM      6  N   UNL     1       0.441   0.777   0.000  0.00  0.00    +0.000 N 
ENDROOT
BRANCH   6   7
ATOM      7  C   UNL     1       0.925   1.444   0.000  0.00  0.00    +0.000 C 
ATOM      8  C   UNL     1       1.746   1.358   0.000  0.00  0.00    +0.000 C 
BRANCH   7   9
ATOM      9  C   UNL     1       0.590   2.198   0.000  0.00  0.00    +0.000 C 
ATOM     10  O   UNL     1      -0.231   2.284   0.000  0.00  0.00    +0.000 OA
ATOM     11  N   UNL     1       1.075   2.865   0.000  0.00  0.00    +0.000 N 
ATOM     12  C   UNL     1       0.739   3.619   0.000  0.00  0.00    +0.000 C 
ATOM     13  C   UNL     1       1.224   4.287   0.000  0.00  0.00    +0.000 C 
ATOM     14  O   UNL     1       2.045   4.200   0.000  0.00  0.00    +0.000 OA
ATOM     15  C   UNL     1       2.380   3.447   0.000  0.00  0.00    +0.000 C 
ATOM     16  C   UNL     1       1.895   2.779   0.000  0.00  0.00    +0.000 C 
ENDBRANCH   7   9
ENDBRANCH   6   7
BRANCH   1  17
ATOM     17  N   UNL     1       0.028  -1.318   0.000  0.00  0.00    +0.000 NA
BRANCH  17  18
ATOM     18  S   UNL     1      -0.686  -1.730   0.000  0.00  0.00    +0.000 S 
ATOM     19  O   UNL     1      -0.274  -2.445   0.000  0.00  0.00    +0.000 OA
ATOM     20  O   UNL     1      -1.099  -1.016   0.000  0.00  0.00    +0.000 OA
BRANCH  18  31
ATOM     21 CL   UNL     1      -4.973  -3.380   0.000  0.00  0.00    +0.000 Cl
ATOM     22  C   UNL     1      -4.259  -2.968   0.000  0.00  0.00    +0.000 A 
ATOM     23  C   UNL     1      -4.259  -2.143   0.000  0.00  0.00    +0.000 A 
ATOM     24  C   UNL     1      -3.544  -1.730   0.000  0.00  0.00    +0.000 A 
ATOM     25  C   UNL     1      -2.830  -2.143   0.000  0.00  0.00    +0.000 A 
ATOM     26  C   UNL     1      -2.115  -1.730   0.000  0.00  0.00    +0.000 A 
ATOM     27  C   UNL     1      -2.830  -2.968   0.000  0.00  0.00    +0.000 A 
ATOM     28  C   UNL     1      -3.544  -3.380   0.000  0.00  0.00    +0.000 A 
ATOM     29  C   UNL     1      -2.115  -3.380   0.000  0.00  0.00    +0.000 A 
ATOM     30  C   UNL     1      -1.401  -2.968   0.000  0.00  0.00    +0.000 A 
ATOM     31  C   UNL     1      -1.401  -2.143   0.000  0.00  0.00    +0.000 A 
ENDBRANCH  18  31
ENDBRANCH  17  18
ENDBRANCH   1  17
TORSDOF 5
