REMARK  Name = GT9
REMARK  11 active torsions:
REMARK  status: ('A' for Active; 'I' for Inactive)
REMARK    1  A    between atoms: C_2  and  C_3
REMARK    2  A    between atoms: C_2  and  C_5
REMARK    3  A    between atoms: C_3  and  S_4
REMARK    4  A    between atoms: S_4  and  C_8
REMARK    5  A    between atoms: C_8  and  C_9
REMARK    6  A    between atoms: C_9  and  C_10
REMARK    7  A    between atoms: C_10  and  C_11
REMARK    8  A    between atoms: C_11  and  C_12
REMARK    9  A    between atoms: C_12  and  C_13
REMARK   10  A    between atoms: C_13  and  C_14
REMARK   11  A    between atoms: C_14  and  C_15
REMARK                            x       y       z     vdW  Elec       q    Type
REMARK                         _______ _______ _______ _____ _____    ______ ____
ROOT
ATOM      1  C   UNK     1       1.340  -0.175   0.000  0.00  0.00    +0.000 C 
ENDROOT
BRANCH   1   2
ATOM      2  S   UNK     1       2.054   0.238   0.000  0.00  0.00    +0.000 S 
BRANCH   2   3
ATOM      3  C   UNK     1       2.769  -0.175   0.000  0.00  0.00    +0.000 C 
BRANCH   3   5
ATOM      4  N   UNK     1       3.483   1.063   0.000  0.00  0.00    +0.000 NA
ATOM      5  C   UNK     1       3.483   0.238   0.000  0.00  0.00    +0.000 C 
BRANCH   5   6
ATOM      6  C   UNK     1       4.198  -0.175   0.000  0.00  0.00    +0.000 C 
ATOM      7  O   UNK     1       4.912   0.238   0.000  0.00  0.00    +0.000 OA
ATOM      8  O   UNK     1       4.198  -1.000   0.000  0.00  0.00    +0.000 OA
ENDBRANCH   5   6
ENDBRANCH   3   5
ENDBRANCH   2   3
ENDBRANCH   1   2
BRANCH   1   9
ATOM      9  C   UNK     1       0.625   0.238   0.000  0.00  0.00    +0.000 C 
BRANCH   9  10
ATOM     10  C   UNK     1      -0.089  -0.175   0.000  0.00  0.00    +0.000 C 
BRANCH  10  11
ATOM     11  C   UNK     1      -0.803   0.238   0.000  0.00  0.00    +0.000 C 
BRANCH  11  12
ATOM     12  C   UNK     1      -1.518  -0.175   0.000  0.00  0.00    +0.000 C 
BRANCH  12  13
ATOM     13  C   UNK     1      -2.232   0.238   0.000  0.00  0.00    +0.000 C 
BRANCH  13  14
ATOM     14  C   UNK     1      -2.947  -0.175   0.000  0.00  0.00    +0.000 C 
BRANCH  14  15
ATOM     15  C   UNK     1      -3.661   0.238   0.000  0.00  0.00    +0.000 C 
ATOM     16  C   UNK     1      -4.376  -0.175   0.000  0.00  0.00    +0.000 C 
ENDBRANCH  14  15
ENDBRANCH  13  14
ENDBRANCH  12  13
ENDBRANCH  11  12
ENDBRANCH  10  11
ENDBRANCH   9  10
ENDBRANCH   1   9
TORSDOF 11
