REMARK  Name = Guaiacol
REMARK  1 active torsions:
REMARK  status: ('A' for Active; 'I' for Inactive)
REMARK    1  A    between atoms: O_1  and  C_3
REMARK                            x       y       z     vdW  Elec       q    Type
REMARK                         _______ _______ _______ _____ _____    ______ ____
ROOT
ATOM      1  O   UNL     1       5.320  -5.410   0.000  0.00  0.00    +0.000 OA
ATOM      2  C   UNL     1       6.029  -6.663   0.000  0.00  0.00    +0.000 A 
ATOM      3  C   UNL     1       5.320  -6.245   0.000  0.00  0.00    +0.000 A 
ATOM      4  C   UNL     1       6.029  -7.498   0.000  0.00  0.00    +0.000 A 
ATOM      5  C   UNL     1       4.609  -6.663   0.000  0.00  0.00    +0.000 A 
ATOM      6  C   UNL     1       5.320  -7.916   0.000  0.00  0.00    +0.000 A 
ATOM      7  C   UNL     1       4.609  -7.498   0.000  0.00  0.00    +0.000 A 
ENDROOT
BRANCH   2   8
ATOM      8  O   UNL     1       6.737  -6.245   0.000  0.00  0.00    +0.000 OA
ATOM      9  C   UNL     1       7.467  -6.667   0.000  0.00  0.00    +0.000 C 
ENDBRANCH   2   8
TORSDOF 1
