REMARK  Name = Guanosine.mol
REMARK  2 active torsions:
REMARK  status: ('A' for Active; 'I' for Inactive)
REMARK    1  A    between atoms: C5*_2  and  C4*_3
REMARK    2  A    between atoms: C1*_8  and  N9_10
REMARK                            x       y       z     vdW  Elec       q    Type
REMARK                         _______ _______ _______ _____ _____    ______ ____
ROOT
ATOM      1  N9    G A   1      -0.129  -0.692   0.000  0.00  0.00    +0.000 N 
ATOM      2  C8    G A   1      -0.300  -1.499   0.000  0.00  0.00    +0.000 A 
ATOM      3  N7    G A   1      -1.121  -1.585   0.000  0.00  0.00    +0.000 NA
ATOM      4  C5    G A   1      -1.456  -0.832   0.000  0.00  0.00    +0.000 A 
ATOM      5  C6    G A   1      -2.241  -0.577   0.000  0.00  0.00    +0.000 A 
ATOM      6  O6    G A   1      -2.854  -1.129   0.000  0.00  0.00    +0.000 OA
ATOM      7  N1    G A   1      -2.413   0.230   0.000  0.00  0.00    +0.000 NA
ATOM      8  C2    G A   1      -1.800   0.782   0.000  0.00  0.00    +0.000 A 
ATOM      9  N2    G A   1      -1.971   1.589   0.000  0.00  0.00    +0.000 NA
ATOM     10  N3    G A   1      -1.015   0.527   0.000  0.00  0.00    +0.000 NA
ATOM     11  C4    G A   1      -0.843  -0.280   0.000  0.00  0.00    +0.000 A 
ENDROOT
BRANCH   1  17
ATOM     12  C4*   G A   1       1.617   0.537   0.000  0.00  0.00    +0.000 C 
ATOM     13  C3*   G A   1       1.952  -0.217   0.000  0.00  0.00    +0.000 C 
ATOM     14  O3*   G A   1       2.759  -0.388   0.000  0.00  0.00    +0.000 OA
ATOM     15  C2*   G A   1       1.339  -0.769   0.000  0.00  0.00    +0.000 C 
ATOM     16  O2*   G A   1       1.425  -1.589   0.000  0.00  0.00    +0.000 OA
ATOM     17  C1*   G A   1       0.625  -0.356   0.000  0.00  0.00    +0.000 C 
ATOM     18  O4*   G A   1       0.796   0.451   0.000  0.00  0.00    +0.000 OA
BRANCH  12  20
ATOM     19  O5*   G A   1       2.854   1.251   0.000  0.00  0.00    +0.000 OA
ATOM     20  C5*   G A   1       2.029   1.251   0.000  0.00  0.00    +0.000 C 
ENDBRANCH  12  20
ENDBRANCH   1  17
TORSDOF 2
