REMARK  Name = GVB
REMARK  4 active torsions:
REMARK  status: ('A' for Active; 'I' for Inactive)
REMARK    1  A    between atoms: O_2  and  C_3
REMARK    2  A    between atoms: C_6  and  O_7
REMARK    3  A    between atoms: C_10  and  N_11
REMARK    4  A    between atoms: C_17  and  C_18
REMARK                            x       y       z     vdW  Elec       q    Type
REMARK                         _______ _______ _______ _____ _____    ______ ____
ROOT
ATOM      1  N   UNL     1       1.651  -0.946   0.000  0.00  0.00    +0.000 N 
ATOM      2  C   UNL     1       2.366  -1.358   0.000  0.00  0.00    +0.000 C 
ATOM      3  C   UNL     1       0.937  -1.358   0.000  0.00  0.00    +0.000 C 
ATOM      4  C   UNL     1       0.937  -2.183   0.000  0.00  0.00    +0.000 C 
ATOM      5  C   UNL     1       1.651  -2.595   0.000  0.00  0.00    +0.000 C 
ATOM      6  N   UNL     1       1.651  -3.421   0.000  0.00  0.00    +0.000 NA
ATOM      7  C   UNL     1       2.366  -2.183   0.000  0.00  0.00    +0.000 C 
ENDROOT
BRANCH   7   8
ATOM      8  C   UNL     1       3.080  -2.595   0.000  0.00  0.00    +0.000 A 
ATOM      9  C   UNL     1       3.795  -2.183   0.000  0.00  0.00    +0.000 A 
ATOM     10  C   UNL     1       4.509  -2.595   0.000  0.00  0.00    +0.000 A 
ATOM     11  C   UNL     1       4.509  -3.421   0.000  0.00  0.00    +0.000 A 
ATOM     12  C   UNL     1       3.795  -3.833   0.000  0.00  0.00    +0.000 A 
ATOM     13  C   UNL     1       3.080  -3.421   0.000  0.00  0.00    +0.000 A 
ATOM     14  C   UNL     1       3.795  -4.658   0.000  0.00  0.00    +0.000 C 
ENDBRANCH   7   8
BRANCH   1  20
ATOM     15  C   UNL     1       1.651   1.530   0.000  0.00  0.00    +0.000 A 
ATOM     16  C   UNL     1       2.366   1.117   0.000  0.00  0.00    +0.000 A 
ATOM     17  C   UNL     1       2.366   0.292   0.000  0.00  0.00    +0.000 A 
ATOM     18  C   UNL     1       0.937   1.117   0.000  0.00  0.00    +0.000 A 
ATOM     19  C   UNL     1       0.937   0.292   0.000  0.00  0.00    +0.000 A 
ATOM     20  C   UNL     1       1.651  -0.120   0.000  0.00  0.00    +0.000 A 
BRANCH  15  22
ATOM     21  C   UNL     1       0.937   2.767   0.000  0.00  0.00    +0.000 C 
ATOM     22  O   UNL     1       1.651   2.354   0.000  0.00  0.00    +0.000 OA
ENDBRANCH  15  22
BRANCH  18  23
ATOM     23  O   UNL     1       0.222   1.530   0.000  0.00  0.00    +0.000 OA
ATOM     24  C   UNL     1      -0.492   1.117   0.000  0.00  0.00    +0.000 C 
ENDBRANCH  18  23
ENDBRANCH   1  20
TORSDOF 4
