REMARK  Name = GVC
REMARK  2 active torsions:
REMARK  status: ('A' for Active; 'I' for Inactive)
REMARK    1  A    between atoms: C_2  and  C_3
REMARK    2  A    between atoms: N_8  and  C_9
REMARK                            x       y       z     vdW  Elec       q    Type
REMARK                         _______ _______ _______ _____ _____    ______ ____
ROOT
ATOM      1  C   UNL     1      -0.485   1.589   0.000  0.00  0.00    +0.000 A 
ATOM      2  N   UNL     1       0.182   1.104   0.000  0.00  0.00    +0.000 NA
ATOM      3  N   UNL     1      -1.152   1.104   0.000  0.00  0.00    +0.000 NA
ATOM      4  C   UNL     1      -0.897   0.320   0.000  0.00  0.00    +0.000 A 
ATOM      5  C   UNL     1      -1.382  -0.348   0.000  0.00  0.00    +0.000 C 
ATOM      6  N   UNL     1      -0.072   0.320   0.000  0.00  0.00    +0.000 N 
ENDROOT
BRANCH   6   7
ATOM      7  C   UNL     1       0.412  -0.348   0.000  0.00  0.00    +0.000 A 
ATOM      8  C   UNL     1       1.233  -0.262   0.000  0.00  0.00    +0.000 A 
ATOM      9  C   UNL     1       1.718  -0.929   0.000  0.00  0.00    +0.000 A 
ATOM     10  C   UNL     1       1.382  -1.683   0.000  0.00  0.00    +0.000 A 
ATOM     11 CL   UNL     1       2.538  -0.843   0.000  0.00  0.00    +0.000 Cl
ATOM     12  C   UNL     1       0.077  -1.101   0.000  0.00  0.00    +0.000 A 
ATOM     13  C   UNL     1       0.562  -1.769   0.000  0.00  0.00    +0.000 A 
ATOM     14 CL   UNL     1       0.226  -2.523   0.000  0.00  0.00    +0.000 Cl
ENDBRANCH   6   7
BRANCH   1  16
ATOM     15  O   UNL     1      -1.199   2.827   0.000  0.00  0.00    +0.000 OA
ATOM     16  C   UNL     1      -0.485   2.414   0.000  0.00  0.00    +0.000 C 
ATOM     17  O   UNL     1       0.230   2.827   0.000  0.00  0.00    +0.000 OA
ENDBRANCH   1  16
TORSDOF 2
