REMARK  Name = GVI
REMARK  3 active torsions:
REMARK  status: ('A' for Active; 'I' for Inactive)
REMARK    1  A    between atoms: C_6  and  C_10
REMARK    2  A    between atoms: C_6  and  N_16
REMARK    3  A    between atoms: C_13  and  C_17
REMARK                            x       y       z     vdW  Elec       q    Type
REMARK                         _______ _______ _______ _____ _____    ______ ____
ROOT
ATOM      1  C   UNL     1      -1.342   3.421   0.000  0.00  0.00    +0.000 A 
ATOM      2  C   UNL     1      -0.627   3.008   0.000  0.00  0.00    +0.000 A 
ATOM      3  C   UNL     1      -0.627   2.183   0.000  0.00  0.00    +0.000 A 
ATOM      4  C   UNL     1      -1.342   1.770   0.000  0.00  0.00    +0.000 A 
ATOM      5  C   UNL     1      -2.056   2.183   0.000  0.00  0.00    +0.000 A 
ATOM      6  C   UNL     1      -2.056   3.008   0.000  0.00  0.00    +0.000 A 
ENDROOT
BRANCH   4  15
ATOM      7  N   UNL     1      -0.627   0.533   0.000  0.00  0.00    +0.000 NA
ATOM      8  C   UNL     1      -0.627  -0.292   0.000  0.00  0.00    +0.000 A 
ATOM      9  N   UNL     1      -1.342  -0.705   0.000  0.00  0.00    +0.000 NA
ATOM     10  C   UNL     1      -2.056  -0.292   0.000  0.00  0.00    +0.000 A 
ATOM     11  C   UNL     1      -2.056   0.533   0.000  0.00  0.00    +0.000 A 
ATOM     12  N   UNL     1      -2.841   0.788   0.000  0.00  0.00    +0.000 NA
ATOM     13  C   UNL     1      -3.326   0.120   0.000  0.00  0.00    +0.000 A 
ATOM     14  N   UNL     1      -2.841  -0.547   0.000  0.00  0.00    +0.000 NA
ATOM     15  C   UNL     1      -1.342   0.946   0.000  0.00  0.00    +0.000 A 
ENDBRANCH   4  15
BRANCH   1  16
ATOM     16  C   UNL     1      -1.342   4.245   0.000  0.00  0.00    +0.000 C 
BRANCH  16  17
ATOM     17  N   UNL     1      -0.627   4.658   0.000  0.00  0.00    +0.000 NA
ATOM     18  C   UNL     1      -0.627   5.483   0.000  0.00  0.00    +0.000 C 
ENDBRANCH  16  17
ENDBRANCH   1  16
TORSDOF 3
