REMARK  Name = GVJ
REMARK  3 active torsions:
REMARK  status: ('A' for Active; 'I' for Inactive)
REMARK    1  A    between atoms: C_2  and  C_3
REMARK    2  A    between atoms: C_2  and  C_9
REMARK    3  A    between atoms: C_12  and  C_15
REMARK                            x       y       z     vdW  Elec       q    Type
REMARK                         _______ _______ _______ _____ _____    ______ ____
ROOT
ATOM      1  C   UNL     1      -0.270   5.189   0.000  0.00  0.00    +0.000 A 
ATOM      2  C   UNL     1       0.445   4.777   0.000  0.00  0.00    +0.000 A 
ATOM      3  C   UNL     1       0.445   3.951   0.000  0.00  0.00    +0.000 A 
ATOM      4  C   UNL     1      -0.270   3.539   0.000  0.00  0.00    +0.000 A 
ATOM      5  C   UNL     1      -0.984   3.951   0.000  0.00  0.00    +0.000 A 
ATOM      6  C   UNL     1      -0.984   4.777   0.000  0.00  0.00    +0.000 A 
ENDROOT
BRANCH   4   7
ATOM      7  C   UNL     1      -0.270   2.714   0.000  0.00  0.00    +0.000 A 
ATOM      8  N   UNL     1       0.445   2.301   0.000  0.00  0.00    +0.000 NA
ATOM      9  C   UNL     1       0.445   1.476   0.000  0.00  0.00    +0.000 A 
ATOM     10  N   UNL     1      -0.270   1.064   0.000  0.00  0.00    +0.000 NA
ATOM     11  C   UNL     1      -0.984   1.476   0.000  0.00  0.00    +0.000 A 
ATOM     12  N   UNL     1      -1.769   1.222   0.000  0.00  0.00    +0.000 NA
ATOM     13  C   UNL     1      -2.254   1.889   0.000  0.00  0.00    +0.000 A 
ATOM     14  N   UNL     1      -1.769   2.556   0.000  0.00  0.00    +0.000 NA
ATOM     15  C   UNL     1      -0.984   2.301   0.000  0.00  0.00    +0.000 A 
ENDBRANCH   4   7
BRANCH   1  17
ATOM     16  N   UNL     1       0.445   6.426   0.000  0.00  0.00    +0.000 NA
ATOM     17  C   UNL     1      -0.270   6.014   0.000  0.00  0.00    +0.000 C 
BRANCH  17  18
ATOM     18  C   UNL     1      -0.984   6.426   0.000  0.00  0.00    +0.000 A 
ATOM     19  C   UNL     1      -1.699   6.014   0.000  0.00  0.00    +0.000 A 
ATOM     20  C   UNL     1      -2.413   6.426   0.000  0.00  0.00    +0.000 A 
ATOM     21  C   UNL     1      -2.413   7.252   0.000  0.00  0.00    +0.000 A 
ATOM     22  C   UNL     1      -1.699   7.664   0.000  0.00  0.00    +0.000 A 
ATOM     23  C   UNL     1      -0.984   7.252   0.000  0.00  0.00    +0.000 A 
ENDBRANCH  17  18
ENDBRANCH   1  17
TORSDOF 3
