REMARK  Name = GVK
REMARK  3 active torsions:
REMARK  status: ('A' for Active; 'I' for Inactive)
REMARK    1  A    between atoms: C_5  and  C_8
REMARK    2  A    between atoms: C_8  and  C_14
REMARK    3  A    between atoms: C_17  and  C_20
REMARK                            x       y       z     vdW  Elec       q    Type
REMARK                         _______ _______ _______ _____ _____    ______ ____
ROOT
ATOM      1  C   UNL     1       0.447   2.483   0.000  0.00  0.00    +0.000 A 
ATOM      2  C   UNL     1       1.161   2.070   0.000  0.00  0.00    +0.000 A 
ATOM      3  C   UNL     1       1.161   1.245   0.000  0.00  0.00    +0.000 A 
ATOM      4  C   UNL     1       0.447   0.833   0.000  0.00  0.00    +0.000 A 
ATOM      5  C   UNL     1      -0.268   1.245   0.000  0.00  0.00    +0.000 A 
ATOM      6  C   UNL     1      -0.268   2.070   0.000  0.00  0.00    +0.000 A 
ENDROOT
BRANCH   4   7
ATOM      7  C   UNL     1       0.447   0.008   0.000  0.00  0.00    +0.000 A 
ATOM      8  N   UNL     1       1.161  -0.405   0.000  0.00  0.00    +0.000 NA
ATOM      9  C   UNL     1       1.161  -1.230   0.000  0.00  0.00    +0.000 A 
ATOM     10  N   UNL     1       0.447  -1.642   0.000  0.00  0.00    +0.000 NA
ATOM     11  C   UNL     1      -0.268  -1.230   0.000  0.00  0.00    +0.000 A 
ATOM     12  N   UNL     1      -1.052  -1.485   0.000  0.00  0.00    +0.000 NA
ATOM     13  C   UNL     1      -1.537  -0.817   0.000  0.00  0.00    +0.000 A 
ATOM     14  N   UNL     1      -1.052  -0.150   0.000  0.00  0.00    +0.000 NA
ATOM     15  C   UNL     1      -0.268  -0.405   0.000  0.00  0.00    +0.000 A 
ENDBRANCH   4   7
BRANCH   1  16
ATOM     16  C   UNL     1       0.447   3.308   0.000  0.00  0.00    +0.000 C 
ATOM     17  C   UNL     1      -0.366   3.164   0.000  0.00  0.00    +0.000 C 
ATOM     18  C   UNL     1      -0.896   3.796   0.000  0.00  0.00    +0.000 C 
ATOM     19  N   UNL     1      -0.614   4.572   0.000  0.00  0.00    +0.000 NA
ATOM     20  C   UNL     1       0.199   4.715   0.000  0.00  0.00    +0.000 C 
ATOM     21  C   UNL     1       0.729   4.083   0.000  0.00  0.00    +0.000 C 
BRANCH  16  26
ATOM     22 CL   UNL     1       3.697   2.735   0.000  0.00  0.00    +0.000 Cl
ATOM     23  C   UNL     1       2.884   2.878   0.000  0.00  0.00    +0.000 A 
ATOM     24  C   UNL     1       2.354   2.246   0.000  0.00  0.00    +0.000 A 
ATOM     25  C   UNL     1       1.542   2.389   0.000  0.00  0.00    +0.000 A 
ATOM     26  C   UNL     1       1.259   3.164   0.000  0.00  0.00    +0.000 A 
ATOM     27  C   UNL     1       1.790   3.796   0.000  0.00  0.00    +0.000 A 
ATOM     28  C   UNL     1       2.602   3.653   0.000  0.00  0.00    +0.000 A 
ENDBRANCH  16  26
ENDBRANCH   1  16
TORSDOF 3
