REMARK  Name = GVP
REMARK  3 active torsions:
REMARK  status: ('A' for Active; 'I' for Inactive)
REMARK    1  A    between atoms: C_5  and  C_8
REMARK    2  A    between atoms: C_8  and  C_14
REMARK    3  A    between atoms: C_17  and  C_20
REMARK                            x       y       z     vdW  Elec       q    Type
REMARK                         _______ _______ _______ _____ _____    ______ ____
ROOT
ATOM      1  C   UNL     1       0.057   2.743   0.000  0.00  0.00    +0.000 C 
ATOM      2  C   UNL     1      -0.755   2.600   0.000  0.00  0.00    +0.000 C 
ATOM      3  C   UNL     1      -1.286   3.232   0.000  0.00  0.00    +0.000 C 
ATOM      4  N   UNL     1      -1.003   4.007   0.000  0.00  0.00    +0.000 NA
ATOM      5  C   UNL     1      -0.191   4.151   0.000  0.00  0.00    +0.000 C 
ATOM      6  C   UNL     1       0.339   3.519   0.000  0.00  0.00    +0.000 C 
ENDROOT
BRANCH   1  11
ATOM      7 CL   UNL     1       3.307   2.170   0.000  0.00  0.00    +0.000 Cl
ATOM      8  C   UNL     1       2.495   2.314   0.000  0.00  0.00    +0.000 A 
ATOM      9  C   UNL     1       1.964   1.682   0.000  0.00  0.00    +0.000 A 
ATOM     10  C   UNL     1       1.152   1.825   0.000  0.00  0.00    +0.000 A 
ATOM     11  C   UNL     1       0.870   2.600   0.000  0.00  0.00    +0.000 A 
ATOM     12  C   UNL     1       1.400   3.232   0.000  0.00  0.00    +0.000 A 
ATOM     13  C   UNL     1       2.212   3.089   0.000  0.00  0.00    +0.000 A 
ENDBRANCH   1  11
BRANCH   1  14
ATOM     14  C   UNL     1       0.057   1.918   0.000  0.00  0.00    +0.000 A 
ATOM     15  C   UNL     1      -0.657   1.506   0.000  0.00  0.00    +0.000 A 
ATOM     16  C   UNL     1      -0.657   0.681   0.000  0.00  0.00    +0.000 A 
ATOM     17  C   UNL     1       0.057   0.268   0.000  0.00  0.00    +0.000 A 
ATOM     18  C   UNL     1       0.772   0.681   0.000  0.00  0.00    +0.000 A 
ATOM     19  C   UNL     1       0.772   1.506   0.000  0.00  0.00    +0.000 A 
BRANCH  17  20
ATOM     20  C   UNL     1       0.057  -0.557   0.000  0.00  0.00    +0.000 A 
ATOM     21  C   UNL     1       0.725  -1.042   0.000  0.00  0.00    +0.000 A 
ATOM     22  N   UNL     1       0.470  -1.826   0.000  0.00  0.00    +0.000 NA
ATOM     23  N   UNL     1      -0.355  -1.826   0.000  0.00  0.00    +0.000 NA
ATOM     24  C   UNL     1      -0.610  -1.042   0.000  0.00  0.00    +0.000 A 
ENDBRANCH  17  20
ENDBRANCH   1  14
TORSDOF 3
