REMARK  Name = GVQ
REMARK  3 active torsions:
REMARK  status: ('A' for Active; 'I' for Inactive)
REMARK    1  A    between atoms: C_9  and  C_11
REMARK    2  A    between atoms: C_9  and  C_12
REMARK    3  A    between atoms: C_9  and  C_14
REMARK                            x       y       z     vdW  Elec       q    Type
REMARK                         _______ _______ _______ _____ _____    ______ ____
ROOT
ATOM      1  C   UNL     1       0.498  -0.259   0.000  0.00  0.00    +0.000 C 
ENDROOT
BRANCH   1   6
ATOM      2  C   UNL     1       1.927  -0.259   0.000  0.00  0.00    +0.000 A 
ATOM      3  C   UNL     1       2.642  -0.672   0.000  0.00  0.00    +0.000 A 
ATOM      4  C   UNL     1       2.642  -1.497   0.000  0.00  0.00    +0.000 A 
ATOM      5  C   UNL     1       1.927  -1.909   0.000  0.00  0.00    +0.000 A 
ATOM      6  C   UNL     1       1.213  -0.672   0.000  0.00  0.00    +0.000 A 
ATOM      7  C   UNL     1       1.213  -1.497   0.000  0.00  0.00    +0.000 A 
ATOM      8 CL   UNL     1       3.356  -1.909   0.000  0.00  0.00    +0.000 Cl
ENDBRANCH   1   6
BRANCH   1  14
ATOM      9  C   UNL     1      -0.931  -1.909   0.000  0.00  0.00    +0.000 A 
ATOM     10  C   UNL     1      -1.645  -1.497   0.000  0.00  0.00    +0.000 A 
ATOM     11  C   UNL     1      -1.645  -0.672   0.000  0.00  0.00    +0.000 A 
ATOM     12  C   UNL     1      -0.931  -0.259   0.000  0.00  0.00    +0.000 A 
ATOM     13  C   UNL     1      -0.216  -1.497   0.000  0.00  0.00    +0.000 A 
ATOM     14  C   UNL     1      -0.216  -0.672   0.000  0.00  0.00    +0.000 A 
ENDBRANCH   1  14
BRANCH   1  15
ATOM     15  C   UNL     1       0.498   0.566   0.000  0.00  0.00    +0.000 C 
ATOM     16  N   UNL     1       1.213   0.978   0.000  0.00  0.00    +0.000 NA
ENDBRANCH   1  15
TORSDOF 3
