REMARK  Name = GVR
REMARK  6 active torsions:
REMARK  status: ('A' for Active; 'I' for Inactive)
REMARK    1  A    between atoms: C_2  and  C_5
REMARK    2  A    between atoms: C_5  and  C_6
REMARK    3  A    between atoms: C_5  and  N_17
REMARK    4  A    between atoms: C_6  and  C_7
REMARK    5  A    between atoms: N_17  and  S_18
REMARK    6  A    between atoms: S_18  and  C_21
REMARK                            x       y       z     vdW  Elec       q    Type
REMARK                         _______ _______ _______ _____ _____    ______ ____
ROOT
ATOM      1  C   UNL     1       6.915   8.153   0.000  0.00  0.00    +0.000 C 
ENDROOT
BRANCH   1   3
ATOM      2  O   UNL     1       5.486   8.153   0.000  0.00  0.00    +0.000 OA
ATOM      3  C   UNL     1       6.200   7.741   0.000  0.00  0.00    +0.000 C 
ATOM      4  N   UNL     1       6.200   6.916   0.000  0.00  0.00    +0.000 NA
ATOM      5  O   UNL     1       5.486   6.503   0.000  0.00  0.00    +0.000 OA
ENDBRANCH   1   3
BRANCH   1   6
ATOM      6  C   UNL     1       6.915   8.978   0.000  0.00  0.00    +0.000 C 
BRANCH   6   7
ATOM      7  C   UNL     1       6.200   9.391   0.000  0.00  0.00    +0.000 A 
ATOM      8  C   UNL     1       5.486   8.978   0.000  0.00  0.00    +0.000 A 
ATOM      9  C   UNL     1       4.771   9.391   0.000  0.00  0.00    +0.000 A 
ATOM     10  C   UNL     1       4.771  10.216   0.000  0.00  0.00    +0.000 A 
ATOM     11  C   UNL     1       4.057  10.628   0.000  0.00  0.00    +0.000 A 
ATOM     12  C   UNL     1       5.486  10.628   0.000  0.00  0.00    +0.000 A 
ATOM     13  C   UNL     1       5.486  11.453   0.000  0.00  0.00    +0.000 A 
ATOM     14  C   UNL     1       4.771  11.866   0.000  0.00  0.00    +0.000 A 
ATOM     15  C   UNL     1       4.057  11.453   0.000  0.00  0.00    +0.000 A 
ATOM     16  C   UNL     1       6.200  10.216   0.000  0.00  0.00    +0.000 A 
ENDBRANCH   6   7
ENDBRANCH   1   6
BRANCH   1  17
ATOM     17  N   UNL     1       7.629   7.741   0.000  0.00  0.00    +0.000 NA
BRANCH  17  18
ATOM     18  S   UNL     1       7.629   6.916   0.000  0.00  0.00    +0.000 S 
ATOM     19  O   UNL     1       6.804   6.916   0.000  0.00  0.00    +0.000 OA
ATOM     20  O   UNL     1       8.454   6.916   0.000  0.00  0.00    +0.000 OA
BRANCH  18  21
ATOM     21  C   UNL     1       7.629   6.091   0.000  0.00  0.00    +0.000 A 
ATOM     22  C   UNL     1       8.344   5.678   0.000  0.00  0.00    +0.000 A 
ATOM     23  C   UNL     1       8.344   4.853   0.000  0.00  0.00    +0.000 A 
ATOM     24  C   UNL     1       7.629   4.441   0.000  0.00  0.00    +0.000 A 
ATOM     25  C   UNL     1       7.629   3.616   0.000  0.00  0.00    +0.000 A 
ATOM     26  C   UNL     1       6.915   4.853   0.000  0.00  0.00    +0.000 A 
ATOM     27  C   UNL     1       6.915   5.678   0.000  0.00  0.00    +0.000 A 
ATOM     28  C   UNL     1       6.200   4.441   0.000  0.00  0.00    +0.000 A 
ATOM     29  C   UNL     1       6.200   3.616   0.000  0.00  0.00    +0.000 A 
ATOM     30  C   UNL     1       6.915   3.203   0.000  0.00  0.00    +0.000 A 
ENDBRANCH  18  21
ENDBRANCH  17  18
ENDBRANCH   1  17
TORSDOF 6
