REMARK  Name = GW3
REMARK  3 active torsions:
REMARK  status: ('A' for Active; 'I' for Inactive)
REMARK    1  A    between atoms: N_14  and  C_16
REMARK    2  A    between atoms: C_16  and  C_17
REMARK    3  A    between atoms: C_16  and  C_19
REMARK                            x       y       z     vdW  Elec       q    Type
REMARK                         _______ _______ _______ _____ _____    ______ ____
ROOT
ATOM      1  C   UNL     1       1.744   0.057   0.000  0.00  0.00    +0.000 A 
ATOM      2  C   UNL     1       1.355  -0.670   0.000  0.00  0.00    +0.000 A 
ATOM      3  C   UNL     1       1.789  -1.371   0.000  0.00  0.00    +0.000 A 
ATOM      4  N   UNL     1       2.614  -1.345   0.000  0.00  0.00    +0.000 NA
ATOM      5  C   UNL     1       3.004  -0.618   0.000  0.00  0.00    +0.000 A 
ATOM      6  N   UNL     1       2.569   0.083   0.000  0.00  0.00    +0.000 NA
ATOM      7  N   UNL     1       1.399  -2.098   0.000  0.00  0.00    +0.000 NA
ATOM      8  C   UNL     1       1.310   0.759   0.000  0.00  0.00    +0.000 A 
ATOM      9  C   UNL     1       0.485   0.733   0.000  0.00  0.00    +0.000 A 
ATOM     10  C   UNL     1       0.095   0.006   0.000  0.00  0.00    +0.000 A 
ATOM     11  C   UNL     1       0.530  -0.695   0.000  0.00  0.00    +0.000 A 
ATOM     12  C   UNL     1      -0.003  -1.325   0.000  0.00  0.00    +0.000 A 
ATOM     13  C   UNL     1      -0.766  -1.014   0.000  0.00  0.00    +0.000 A 
ATOM     14  N   UNL     1      -0.706  -0.191   0.000  0.00  0.00    +0.000 N 
ATOM     15  N   UNL     1       3.828  -0.592   0.000  0.00  0.00    +0.000 NA
ENDROOT
BRANCH  14  16
ATOM     16  C   UNL     1      -1.336   0.342   0.000  0.00  0.00    +0.000 C 
BRANCH  16  17
ATOM     17  C   UNL     1      -1.190   1.154   0.000  0.00  0.00    +0.000 C 
ATOM     18  C   UNL     1      -1.820   1.686   0.000  0.00  0.00    +0.000 C 
ENDBRANCH  16  17
BRANCH  16  19
ATOM     19  C   UNL     1      -2.112   0.063   0.000  0.00  0.00    +0.000 C 
ATOM     20  C   UNL     1      -2.742   0.595   0.000  0.00  0.00    +0.000 C 
ENDBRANCH  16  19
ENDBRANCH  14  16
TORSDOF 3
