REMARK  Name = GW9
REMARK  3 active torsions:
REMARK  status: ('A' for Active; 'I' for Inactive)
REMARK    1  A    between atoms: C_5  and  N_6
REMARK    2  A    between atoms: C_10  and  C_11
REMARK    3  A    between atoms: N_13  and  C_14
REMARK                            x       y       z     vdW  Elec       q    Type
REMARK                         _______ _______ _______ _____ _____    ______ ____
ROOT
ATOM      1 CL   UNL     1       1.329   1.374   0.000  0.00  0.00    +0.000 Cl
ATOM      2  C   UNL     1       1.329   0.549   0.000  0.00  0.00    +0.000 A 
ATOM      3  C   UNL     1       2.043   0.137   0.000  0.00  0.00    +0.000 A 
ATOM      4  C   UNL     1       2.043  -0.688   0.000  0.00  0.00    +0.000 A 
ATOM      5  C   UNL     1       1.329  -1.101   0.000  0.00  0.00    +0.000 A 
ATOM      6  C   UNL     1       0.614  -0.688   0.000  0.00  0.00    +0.000 A 
ATOM      7  C   UNL     1       0.614   0.137   0.000  0.00  0.00    +0.000 A 
ENDROOT
BRANCH   5   8
ATOM      8  N   UNL     1       1.329  -1.926   0.000  0.00  0.00    +0.000 N 
ATOM      9  O   UNL     1       2.043  -2.338   0.000  0.00  0.00    +0.000 OA
ATOM     10  O   UNL     1       0.614  -2.338   0.000  0.00  0.00    +0.000 OA
ENDBRANCH   5   8
BRANCH   7  11
ATOM     11  C   UNL     1      -0.100   0.549   0.000  0.00  0.00    +0.000 C 
ATOM     12  O   UNL     1      -0.100   1.374   0.000  0.00  0.00    +0.000 OA
ATOM     13  N   UNL     1      -0.815   0.137   0.000  0.00  0.00    +0.000 NA
BRANCH  13  14
ATOM     14  C   UNL     1      -1.529   0.549   0.000  0.00  0.00    +0.000 A 
ATOM     15  C   UNL     1      -2.244   0.137   0.000  0.00  0.00    +0.000 A 
ATOM     16  C   UNL     1      -2.958   0.549   0.000  0.00  0.00    +0.000 A 
ATOM     17  C   UNL     1      -2.958   1.374   0.000  0.00  0.00    +0.000 A 
ATOM     18  C   UNL     1      -2.244   1.787   0.000  0.00  0.00    +0.000 A 
ATOM     19  C   UNL     1      -1.529   1.374   0.000  0.00  0.00    +0.000 A 
ENDBRANCH  13  14
ENDBRANCH   7  11
TORSDOF 3
