REMARK  Name = GWB
REMARK  4 active torsions:
REMARK  status: ('A' for Active; 'I' for Inactive)
REMARK    1  A    between atoms: C_1  and  O_11
REMARK    2  A    between atoms: C_2  and  C_3
REMARK    3  A    between atoms: C_9  and  C_19
REMARK    4  A    between atoms: C_10  and  O_11
REMARK                            x       y       z     vdW  Elec       q    Type
REMARK                         _______ _______ _______ _____ _____    ______ ____
ROOT
ATOM      1  N   UNL     1       0.991  -1.848   0.000  0.00  0.00    +0.000 NA
ATOM      2  C   UNL     1       0.277  -1.435   0.000  0.00  0.00    +0.000 A 
ATOM      3  O   UNL     1      -0.438  -1.848   0.000  0.00  0.00    +0.000 OA
ATOM      4  C   UNL     1       0.277  -0.611   0.000  0.00  0.00    +0.000 A 
ATOM      5  C   UNL     1       0.991  -0.198   0.000  0.00  0.00    +0.000 A 
ATOM      6  C   UNL     1       1.705  -1.435   0.000  0.00  0.00    +0.000 A 
ATOM      7  C   UNL     1       1.705  -0.611   0.000  0.00  0.00    +0.000 A 
ATOM      8  C   UNL     1       2.420  -0.198   0.000  0.00  0.00    +0.000 A 
ATOM      9  C   UNL     1       3.134  -0.611   0.000  0.00  0.00    +0.000 A 
ATOM     10  C   UNL     1       3.134  -1.435   0.000  0.00  0.00    +0.000 A 
ATOM     11  C   UNL     1       2.420  -1.848   0.000  0.00  0.00    +0.000 A 
ATOM     12  F   UNL     1       3.849  -0.198   0.000  0.00  0.00    +0.000 F 
ENDROOT
BRANCH   4  13
ATOM     13  C   UNL     1      -0.438  -0.198   0.000  0.00  0.00    +0.000 C 
ATOM     14  C   UNL     1      -0.438   0.627   0.000  0.00  0.00    +0.000 C 
ATOM     15  C   UNL     1      -1.152  -0.611   0.000  0.00  0.00    +0.000 C 
ENDBRANCH   4  13
BRANCH   5  16
ATOM     16  O   UNL     1       0.991   0.627   0.000  0.00  0.00    +0.000 OA
BRANCH  16  17
ATOM     17  C   UNL     1       0.277   1.040   0.000  0.00  0.00    +0.000 C 
ATOM     18  C   UNL     1      -0.438   1.452   0.000  0.00  0.00    +0.000 C 
BRANCH  18  19
ATOM     19  C   UNL     1      -1.152   1.865   0.000  0.00  0.00    +0.000 C 
ATOM     20  C   UNL     1      -1.977   1.865   0.000  0.00  0.00    +0.000 C 
ATOM     21  C   UNL     1      -1.565   2.579   0.000  0.00  0.00    +0.000 C 
ENDBRANCH  18  19
ENDBRANCH  16  17
ENDBRANCH   5  16
TORSDOF 4
