REMARK  Name = GZ2
REMARK  1 active torsions:
REMARK  status: ('A' for Active; 'I' for Inactive)
REMARK    1  A    between atoms: C_4  and  N_8
REMARK                            x       y       z     vdW  Elec       q    Type
REMARK                         _______ _______ _______ _____ _____    ______ ____
ROOT
ATOM      1  O   UNL     1      -0.542   2.259   0.000  0.00  0.00    +0.000 OA
ATOM      2  C   UNL     1      -0.542   1.434   0.000  0.00  0.00    +0.000 C 
ATOM      3  C   UNL     1       0.172   1.022   0.000  0.00  0.00    +0.000 C 
ATOM      4  C   UNL     1       0.172   0.197   0.000  0.00  0.00    +0.000 C 
ATOM      5  C   UNL     1      -0.542  -0.216   0.000  0.00  0.00    +0.000 C 
ATOM      6  C   UNL     1      -1.257   0.197   0.000  0.00  0.00    +0.000 C 
ATOM      7  C   UNL     1      -1.257   1.022   0.000  0.00  0.00    +0.000 C 
ENDROOT
BRANCH   4   8
ATOM      8  N   UNL     1       0.887  -0.216   0.000  0.00  0.00    +0.000 NA
ATOM      9  C   UNL     1       0.887  -1.041   0.000  0.00  0.00    +0.000 A 
ATOM     10  N   UNL     1       1.554  -1.526   0.000  0.00  0.00    +0.000 NA
ATOM     11  N   UNL     1       1.299  -2.311   0.000  0.00  0.00    +0.000 NA
ATOM     12  N   UNL     1       0.474  -2.311   0.000  0.00  0.00    +0.000 NA
ATOM     13  N   UNL     1       0.219  -1.526   0.000  0.00  0.00    +0.000 NA
ENDBRANCH   4   8
TORSDOF 1
