REMARK  Name = H12
REMARK  4 active torsions:
REMARK  status: ('A' for Active; 'I' for Inactive)
REMARK    1  A    between atoms: C_1  and  O_12
REMARK    2  A    between atoms: C_10  and  C_20
REMARK    3  A    between atoms: C_11  and  O_12
REMARK    4  A    between atoms: C_20  and  C_21
REMARK                            x       y       z     vdW  Elec       q    Type
REMARK                         _______ _______ _______ _____ _____    ______ ____
ROOT
ATOM      1  N   UNL     1       1.103  -1.974   0.000  0.00  0.00    +0.000 NA
ATOM      2  C   UNL     1       0.388  -1.561   0.000  0.00  0.00    +0.000 A 
ATOM      3  O   UNL     1      -0.326  -1.974   0.000  0.00  0.00    +0.000 OA
ATOM      4  C   UNL     1       0.388  -0.736   0.000  0.00  0.00    +0.000 A 
ATOM      5  C   UNL     1       1.103  -0.324   0.000  0.00  0.00    +0.000 A 
ATOM      6  C   UNL     1       1.817  -1.561   0.000  0.00  0.00    +0.000 A 
ATOM      7  C   UNL     1       1.817  -0.736   0.000  0.00  0.00    +0.000 A 
ATOM      8  C   UNL     1       2.532  -0.324   0.000  0.00  0.00    +0.000 A 
ATOM      9  C   UNL     1       3.246  -0.736   0.000  0.00  0.00    +0.000 A 
ATOM     10  C   UNL     1       3.246  -1.561   0.000  0.00  0.00    +0.000 A 
ATOM     11  C   UNL     1       2.532  -1.974   0.000  0.00  0.00    +0.000 A 
ATOM     12 CL   UNL     1       3.961  -0.324   0.000  0.00  0.00    +0.000 Cl
ENDROOT
BRANCH   5  13
ATOM     13  O   UNL     1       1.103   0.501   0.000  0.00  0.00    +0.000 OA
BRANCH  13  14
ATOM     14  C   UNL     1       0.388   0.914   0.000  0.00  0.00    +0.000 C 
ATOM     15  C   UNL     1      -0.326   0.501   0.000  0.00  0.00    +0.000 C 
ATOM     16  C   UNL     1      -1.041   0.914   0.000  0.00  0.00    +0.000 C 
ATOM     17  C   UNL     1      -1.041   1.739   0.000  0.00  0.00    +0.000 C 
ATOM     18  C   UNL     1      -0.326   2.151   0.000  0.00  0.00    +0.000 C 
ATOM     19  C   UNL     1       0.388   1.739   0.000  0.00  0.00    +0.000 C 
ENDBRANCH  13  14
ENDBRANCH   5  13
BRANCH   4  20
ATOM     20  C   UNL     1      -0.326  -0.324   0.000  0.00  0.00    +0.000 C 
BRANCH  20  21
ATOM     21  C   UNL     1      -1.041  -0.736   0.000  0.00  0.00    +0.000 C 
ATOM     22  C   UNL     1      -1.755  -0.324   0.000  0.00  0.00    +0.000 C 
ENDBRANCH  20  21
ENDBRANCH   4  20
TORSDOF 4
