REMARK  Name = H16
REMARK  4 active torsions:
REMARK  status: ('A' for Active; 'I' for Inactive)
REMARK    1  A    between atoms: C_1  and  S_12
REMARK    2  A    between atoms: C_10  and  C_20
REMARK    3  A    between atoms: C_11  and  S_12
REMARK    4  A    between atoms: C_20  and  C_21
REMARK                            x       y       z     vdW  Elec       q    Type
REMARK                         _______ _______ _______ _____ _____    ______ ____
ROOT
ATOM      1  N   UNL     1       1.112  -1.875   0.000  0.00  0.00    +0.000 NA
ATOM      2  C   UNL     1       0.397  -1.463   0.000  0.00  0.00    +0.000 A 
ATOM      3  O   UNL     1      -0.317  -1.875   0.000  0.00  0.00    +0.000 OA
ATOM      4  C   UNL     1       0.397  -0.638   0.000  0.00  0.00    +0.000 A 
ATOM      5  C   UNL     1       1.112  -0.225   0.000  0.00  0.00    +0.000 A 
ATOM      6  C   UNL     1       1.826  -1.463   0.000  0.00  0.00    +0.000 A 
ATOM      7  C   UNL     1       1.826  -0.638   0.000  0.00  0.00    +0.000 A 
ATOM      8  C   UNL     1       2.541  -0.225   0.000  0.00  0.00    +0.000 A 
ATOM      9  C   UNL     1       3.255  -0.638   0.000  0.00  0.00    +0.000 A 
ATOM     10  C   UNL     1       3.255  -1.463   0.000  0.00  0.00    +0.000 A 
ATOM     11  C   UNL     1       2.541  -1.875   0.000  0.00  0.00    +0.000 A 
ATOM     12 CL   UNL     1       3.970  -0.225   0.000  0.00  0.00    +0.000 Cl
ENDROOT
BRANCH   5  13
ATOM     13  S   UNL     1       1.112   0.600   0.000  0.00  0.00    +0.000 S 
BRANCH  13  14
ATOM     14  C   UNL     1       0.397   1.012   0.000  0.00  0.00    +0.000 C 
ATOM     15  C   UNL     1      -0.317   0.600   0.000  0.00  0.00    +0.000 C 
ATOM     16  C   UNL     1      -1.032   1.012   0.000  0.00  0.00    +0.000 C 
ATOM     17  C   UNL     1      -1.032   1.837   0.000  0.00  0.00    +0.000 C 
ATOM     18  C   UNL     1      -0.317   2.250   0.000  0.00  0.00    +0.000 C 
ATOM     19  C   UNL     1       0.397   1.837   0.000  0.00  0.00    +0.000 C 
ENDBRANCH  13  14
ENDBRANCH   5  13
BRANCH   4  20
ATOM     20  C   UNL     1      -0.317  -0.225   0.000  0.00  0.00    +0.000 C 
BRANCH  20  21
ATOM     21  C   UNL     1      -1.032  -0.638   0.000  0.00  0.00    +0.000 C 
ATOM     22  C   UNL     1      -1.746  -0.225   0.000  0.00  0.00    +0.000 C 
ENDBRANCH  20  21
ENDBRANCH   4  20
TORSDOF 4
