REMARK  Name = H20
REMARK  3 active torsions:
REMARK  status: ('A' for Active; 'I' for Inactive)
REMARK    1  A    between atoms: C_1  and  O_12
REMARK    2  A    between atoms: C_10  and  C_20
REMARK    3  A    between atoms: C_11  and  O_12
REMARK                            x       y       z     vdW  Elec       q    Type
REMARK                         _______ _______ _______ _____ _____    ______ ____
ROOT
ATOM      1  N   UNL     1      -0.824  -1.999   0.000  0.00  0.00    +0.000 NA
ATOM      2  C   UNL     1      -1.539  -1.587   0.000  0.00  0.00    +0.000 A 
ATOM      3  O   UNL     1      -2.253  -1.999   0.000  0.00  0.00    +0.000 OA
ATOM      4  C   UNL     1      -1.539  -0.762   0.000  0.00  0.00    +0.000 A 
ATOM      5  C   UNL     1      -0.824  -0.349   0.000  0.00  0.00    +0.000 A 
ATOM      6  C   UNL     1      -0.110  -1.587   0.000  0.00  0.00    +0.000 A 
ATOM      7  C   UNL     1      -0.110  -0.762   0.000  0.00  0.00    +0.000 A 
ATOM      8  C   UNL     1       0.605  -0.349   0.000  0.00  0.00    +0.000 A 
ATOM      9  C   UNL     1       1.319  -0.762   0.000  0.00  0.00    +0.000 A 
ATOM     10  C   UNL     1       1.319  -1.587   0.000  0.00  0.00    +0.000 A 
ATOM     11  C   UNL     1       0.605  -1.999   0.000  0.00  0.00    +0.000 A 
ATOM     12 CL   UNL     1       2.034  -0.349   0.000  0.00  0.00    +0.000 Cl
ENDROOT
BRANCH   4  13
ATOM     13  C   UNL     1      -2.253  -0.349   0.000  0.00  0.00    +0.000 C 
ATOM     14  C   UNL     1      -2.253   0.476   0.000  0.00  0.00    +0.000 C 
ATOM     15  C   UNL     1      -2.967  -0.762   0.000  0.00  0.00    +0.000 C 
ENDBRANCH   4  13
BRANCH   5  16
ATOM     16  O   UNL     1      -0.824   0.476   0.000  0.00  0.00    +0.000 OA
BRANCH  16  17
ATOM     17  C   UNL     1      -0.110   0.888   0.000  0.00  0.00    +0.000 C 
ATOM     18  C   UNL     1      -0.110   1.713   0.000  0.00  0.00    +0.000 C 
ATOM     19  C   UNL     1       0.605   2.126   0.000  0.00  0.00    +0.000 C 
ATOM     20  C   UNL     1       1.319   1.713   0.000  0.00  0.00    +0.000 C 
ATOM     21  C   UNL     1       1.319   0.888   0.000  0.00  0.00    +0.000 C 
ATOM     22  C   UNL     1       0.605   0.476   0.000  0.00  0.00    +0.000 C 
ENDBRANCH  16  17
ENDBRANCH   5  16
TORSDOF 3
