REMARK  Name = H22
REMARK  6 active torsions:
REMARK  status: ('A' for Active; 'I' for Inactive)
REMARK    1  A    between atoms: C_4  and  N_5
REMARK    2  A    between atoms: C_14  and  N_15
REMARK    3  A    between atoms: C_16  and  C_18
REMARK    4  A    between atoms: C_18  and  N_19
REMARK    5  A    between atoms: C_21  and  N_24
REMARK    6  A    between atoms: C_25  and  C_27
REMARK                            x       y       z     vdW  Elec       q    Type
REMARK                         _______ _______ _______ _____ _____    ______ ____
ROOT
ATOM      1  N   UNL     1      -1.049   5.114   0.000  0.00  0.00    +0.000 NA
ATOM      2  C   UNL     1      -1.833   4.859   0.000  0.00  0.00    +0.000 C 
ATOM      3  O   UNL     1      -2.446   5.411   0.000  0.00  0.00    +0.000 OA
ENDROOT
BRANCH   1  10
ATOM      4  F   UNL     1      -2.275   6.218   0.000  0.00  0.00    +0.000 F 
ATOM      5  C   UNL     1      -1.490   6.473   0.000  0.00  0.00    +0.000 A 
ATOM      6  C   UNL     1      -1.319   7.280   0.000  0.00  0.00    +0.000 A 
ATOM      7  C   UNL     1      -0.534   7.535   0.000  0.00  0.00    +0.000 A 
ATOM      8  C   UNL     1       0.079   6.982   0.000  0.00  0.00    +0.000 A 
ATOM      9  C   UNL     1      -0.092   6.176   0.000  0.00  0.00    +0.000 A 
ATOM     10  C   UNL     1      -0.877   5.921   0.000  0.00  0.00    +0.000 A 
BRANCH   7  11
ATOM     11  N   UNL     1      -0.363   8.341   0.000  0.00  0.00    +0.000 N 
ATOM     12  C   UNL     1      -0.976   8.893   0.000  0.00  0.00    +0.000 A 
ATOM     13  C   UNL     1      -0.804   9.700   0.000  0.00  0.00    +0.000 A 
ATOM     14  C   UNL     1      -0.019   9.955   0.000  0.00  0.00    +0.000 A 
ATOM     15  C   UNL     1       0.594   9.403   0.000  0.00  0.00    +0.000 A 
ATOM     16  C   UNL     1       0.422   8.596   0.000  0.00  0.00    +0.000 A 
ATOM     17  O   UNL     1       1.035   8.044   0.000  0.00  0.00    +0.000 OA
ENDBRANCH   7  11
ENDBRANCH   1  10
BRANCH   2  18
ATOM     18  C   UNL     1      -2.005   4.052   0.000  0.00  0.00    +0.000 C 
BRANCH  18  19
ATOM     19  N   UNL     1      -2.789   3.797   0.000  0.00  0.00    +0.000 NA
ATOM     20  C   UNL     1      -3.044   3.012   0.000  0.00  0.00    +0.000 C 
ATOM     21  C   UNL     1      -3.869   3.012   0.000  0.00  0.00    +0.000 C 
ATOM     22  C   UNL     1      -4.124   3.797   0.000  0.00  0.00    +0.000 C 
ATOM     23  C   UNL     1      -3.457   4.282   0.000  0.00  0.00    +0.000 C 
BRANCH  21  24
ATOM     24  N   UNL     1      -4.354   2.345   0.000  0.00  0.00    +0.000 NA
ATOM     25  C   UNL     1      -5.175   2.431   0.000  0.00  0.00    +0.000 C 
ATOM     26  O   UNL     1      -5.510   3.185   0.000  0.00  0.00    +0.000 OA
BRANCH  25  27
ATOM     27  C   UNL     1      -5.660   1.764   0.000  0.00  0.00    +0.000 A 
ATOM     28  C   UNL     1      -5.405   0.979   0.000  0.00  0.00    +0.000 A 
ATOM     29  C   UNL     1      -6.072   0.494   0.000  0.00  0.00    +0.000 A 
ATOM     30  S   UNL     1      -6.485   1.764   0.000  0.00  0.00    +0.000 S 
ATOM     31  C   UNL     1      -6.740   0.979   0.000  0.00  0.00    +0.000 A 
ATOM     32 CL   UNL     1      -7.524   0.724   0.000  0.00  0.00    +0.000 Cl
ENDBRANCH  25  27
ENDBRANCH  21  24
ENDBRANCH  18  19
ENDBRANCH   2  18
TORSDOF 6
