REMARK  Name = H23
REMARK  12 active torsions:
REMARK  status: ('A' for Active; 'I' for Inactive)
REMARK    1  A    between atoms: C_2  and  C_3
REMARK    2  A    between atoms: C_3  and  C_4
REMARK    3  A    between atoms: C_4  and  C_5
REMARK    4  A    between atoms: C_5  and  C_6
REMARK    5  A    between atoms: C_6  and  C_7
REMARK    6  A    between atoms: C_7  and  C_8
REMARK    7  A    between atoms: C_8  and  C_9
REMARK    8  A    between atoms: C_9  and  C_10
REMARK    9  A    between atoms: C_10  and  C_11
REMARK   10  A    between atoms: C_11  and  C_12
REMARK   11  A    between atoms: C_12  and  P_13
REMARK   12  A    between atoms: C_12  and  P_17
REMARK                            x       y       z     vdW  Elec       q    Type
REMARK                         _______ _______ _______ _____ _____    ______ ____
ROOT
ATOM      1  C   UNL     1       3.450  -0.055   0.000  0.00  0.00    +0.000 C 
ENDROOT
BRANCH   1   2
ATOM      2  C   UNL     1       4.146   0.388   0.000  0.00  0.00    +0.000 C 
ATOM      3  O   UNL     1       4.842   0.832   0.000  0.00  0.00    +0.000 OA
BRANCH   2   4
ATOM      4  P   UNL     1       4.590  -0.307   0.000  0.00  0.00    +0.000 P 
ATOM      5  O   UNL     1       3.894  -0.751   0.000  0.00  0.00    +0.000 OA
ATOM      6  O   UNL     1       5.285   0.136   0.000  0.00  0.00    +0.000 OA
ATOM      7  O   UNL     1       5.033  -1.003   0.000  0.00  0.00    +0.000 OA
ENDBRANCH   2   4
BRANCH   2   8
ATOM      8  P   UNL     1       3.703   1.084   0.000  0.00  0.00    +0.000 P 
ATOM      9  O   UNL     1       3.007   0.640   0.000  0.00  0.00    +0.000 OA
ATOM     10  O   UNL     1       3.259   1.779   0.000  0.00  0.00    +0.000 OA
ATOM     11  O   UNL     1       4.398   1.528   0.000  0.00  0.00    +0.000 OA
ENDBRANCH   2   8
ENDBRANCH   1   2
BRANCH   1  12
ATOM     12  C   UNL     1       2.719   0.325   0.000  0.00  0.00    +0.000 C 
BRANCH  12  13
ATOM     13  C   UNL     1       2.023  -0.118   0.000  0.00  0.00    +0.000 C 
BRANCH  13  14
ATOM     14  C   UNL     1       1.291   0.262   0.000  0.00  0.00    +0.000 C 
BRANCH  14  15
ATOM     15  C   UNL     1       0.596  -0.181   0.000  0.00  0.00    +0.000 C 
BRANCH  15  16
ATOM     16  C   UNL     1      -0.136   0.199   0.000  0.00  0.00    +0.000 C 
BRANCH  16  17
ATOM     17  C   UNL     1      -0.832  -0.244   0.000  0.00  0.00    +0.000 C 
BRANCH  17  18
ATOM     18  C   UNL     1      -1.564   0.136   0.000  0.00  0.00    +0.000 C 
BRANCH  18  19
ATOM     19  C   UNL     1      -2.260  -0.307   0.000  0.00  0.00    +0.000 C 
BRANCH  19  21
ATOM     20  C   UNL     1      -3.687  -0.370   0.000  0.00  0.00    +0.000 C 
ATOM     21  C   UNL     1      -2.991   0.073   0.000  0.00  0.00    +0.000 C 
ENDBRANCH  19  21
ENDBRANCH  18  19
ENDBRANCH  17  18
ENDBRANCH  16  17
ENDBRANCH  15  16
ENDBRANCH  14  15
ENDBRANCH  13  14
ENDBRANCH  12  13
ENDBRANCH   1  12
TORSDOF 12
