REMARK  Name = H24
REMARK  3 active torsions:
REMARK  status: ('A' for Active; 'I' for Inactive)
REMARK    1  A    between atoms: O_2  and  C_3
REMARK    2  A    between atoms: C_7  and  C_9
REMARK    3  A    between atoms: C_13  and  C_14
REMARK                            x       y       z     vdW  Elec       q    Type
REMARK                         _______ _______ _______ _____ _____    ______ ____
ROOT
ATOM      1  C   UNL     1      38.418  25.263   0.000  0.00  0.00    +0.000 A 
ATOM      2  C   UNL     1      38.418  24.438   0.000  0.00  0.00    +0.000 A 
ATOM      3  C   UNL     1      37.703  24.026   0.000  0.00  0.00    +0.000 A 
ATOM      4  C   UNL     1      36.989  24.438   0.000  0.00  0.00    +0.000 A 
ATOM      5  C   UNL     1      36.989  25.263   0.000  0.00  0.00    +0.000 A 
ATOM      6  C   UNL     1      37.703  25.675   0.000  0.00  0.00    +0.000 A 
ENDROOT
BRANCH   5   7
ATOM      7  C   UNL     1      36.274  25.675   0.000  0.00  0.00    +0.000 C 
ATOM      8  C   UNL     1      36.805  26.307   0.000  0.00  0.00    +0.000 C 
ATOM      9  C   UNL     1      35.992  24.900   0.000  0.00  0.00    +0.000 C 
ATOM     10  C   UNL     1      35.180  24.757   0.000  0.00  0.00    +0.000 C 
ATOM     11  O   UNL     1      34.898  23.982   0.000  0.00  0.00    +0.000 OA
ATOM     12  N   UNL     1      34.649  25.389   0.000  0.00  0.00    +0.000 N 
ATOM     13  C   UNL     1      33.837  25.246   0.000  0.00  0.00    +0.000 C 
ATOM     14  C   UNL     1      34.932  26.164   0.000  0.00  0.00    +0.000 C 
ATOM     15  N   UNL     1      34.401  26.796   0.000  0.00  0.00    +0.000 NA
ATOM     16  N   UNL     1      35.744  26.307   0.000  0.00  0.00    +0.000 NA
ENDBRANCH   5   7
BRANCH   1  21
ATOM     17  C   UNL     1      39.847  26.913   0.000  0.00  0.00    +0.000 A 
ATOM     18  C   UNL     1      40.561  26.500   0.000  0.00  0.00    +0.000 A 
ATOM     19  C   UNL     1      40.561  25.675   0.000  0.00  0.00    +0.000 A 
ATOM     20  C   UNL     1      39.847  25.263   0.000  0.00  0.00    +0.000 A 
ATOM     21  C   UNL     1      39.132  25.675   0.000  0.00  0.00    +0.000 A 
ATOM     22  C   UNL     1      39.132  26.500   0.000  0.00  0.00    +0.000 A 
BRANCH  17  24
ATOM     23  C   UNL     1      40.561  28.151   0.000  0.00  0.00    +0.000 C 
ATOM     24  O   UNL     1      39.847  27.738   0.000  0.00  0.00    +0.000 OA
ENDBRANCH  17  24
ENDBRANCH   1  21
TORSDOF 3
