REMARK  Name = H25
REMARK  6 active torsions:
REMARK  status: ('A' for Active; 'I' for Inactive)
REMARK    1  A    between atoms: C_4  and  N_5
REMARK    2  A    between atoms: C_14  and  N_15
REMARK    3  A    between atoms: C_16  and  C_18
REMARK    4  A    between atoms: C_18  and  N_19
REMARK    5  A    between atoms: C_24  and  N_25
REMARK    6  A    between atoms: C_26  and  C_28
REMARK                            x       y       z     vdW  Elec       q    Type
REMARK                         _______ _______ _______ _____ _____    ______ ____
ROOT
ATOM      1  N   UNL     1       6.759  33.919   0.000  0.00  0.00    +0.000 NA
ATOM      2  C   UNL     1       5.975  33.664   0.000  0.00  0.00    +0.000 C 
ATOM      3  O   UNL     1       5.362  34.216   0.000  0.00  0.00    +0.000 OA
ENDROOT
BRANCH   1  10
ATOM      4  F   UNL     1       5.533  35.023   0.000  0.00  0.00    +0.000 F 
ATOM      5  C   UNL     1       6.318  35.278   0.000  0.00  0.00    +0.000 A 
ATOM      6  C   UNL     1       6.489  36.085   0.000  0.00  0.00    +0.000 A 
ATOM      7  C   UNL     1       7.274  36.340   0.000  0.00  0.00    +0.000 A 
ATOM      8  C   UNL     1       7.887  35.788   0.000  0.00  0.00    +0.000 A 
ATOM      9  C   UNL     1       7.715  34.981   0.000  0.00  0.00    +0.000 A 
ATOM     10  C   UNL     1       6.931  34.726   0.000  0.00  0.00    +0.000 A 
BRANCH   7  11
ATOM     11  N   UNL     1       7.445  37.147   0.000  0.00  0.00    +0.000 N 
ATOM     12  C   UNL     1       6.832  37.699   0.000  0.00  0.00    +0.000 A 
ATOM     13  C   UNL     1       7.004  38.506   0.000  0.00  0.00    +0.000 A 
ATOM     14  C   UNL     1       7.788  38.761   0.000  0.00  0.00    +0.000 A 
ATOM     15  C   UNL     1       8.402  38.209   0.000  0.00  0.00    +0.000 A 
ATOM     16  C   UNL     1       8.230  37.401   0.000  0.00  0.00    +0.000 A 
ATOM     17  O   UNL     1       8.843  36.849   0.000  0.00  0.00    +0.000 OA
ENDBRANCH   7  11
ENDBRANCH   1  10
BRANCH   2  18
ATOM     18  C   UNL     1       5.803  32.857   0.000  0.00  0.00    +0.000 C 
BRANCH  18  19
ATOM     19  N   UNL     1       5.019  32.602   0.000  0.00  0.00    +0.000 NA
ATOM     20  C   UNL     1       4.351  33.087   0.000  0.00  0.00    +0.000 C 
ATOM     21  C   UNL     1       3.684  32.602   0.000  0.00  0.00    +0.000 C 
ATOM     22  O   UNL     1       2.899  32.857   0.000  0.00  0.00    +0.000 OA
ATOM     23  C   UNL     1       4.764  31.817   0.000  0.00  0.00    +0.000 C 
ATOM     24  C   UNL     1       3.939  31.817   0.000  0.00  0.00    +0.000 C 
BRANCH  24  25
ATOM     25  N   UNL     1       3.454  31.150   0.000  0.00  0.00    +0.000 NA
ATOM     26  C   UNL     1       2.633  31.236   0.000  0.00  0.00    +0.000 C 
ATOM     27  O   UNL     1       2.298  31.990   0.000  0.00  0.00    +0.000 OA
BRANCH  26  28
ATOM     28  C   UNL     1       2.148  30.569   0.000  0.00  0.00    +0.000 A 
ATOM     29  C   UNL     1       2.403  29.784   0.000  0.00  0.00    +0.000 A 
ATOM     30  C   UNL     1       1.736  29.299   0.000  0.00  0.00    +0.000 A 
ATOM     31  S   UNL     1       1.323  30.569   0.000  0.00  0.00    +0.000 S 
ATOM     32  C   UNL     1       1.068  29.784   0.000  0.00  0.00    +0.000 A 
ATOM     33 CL   UNL     1       0.284  29.529   0.000  0.00  0.00    +0.000 Cl
ENDBRANCH  26  28
ENDBRANCH  24  25
ENDBRANCH  18  19
ENDBRANCH   2  18
TORSDOF 6
