REMARK  Name = H52
REMARK  2 active torsions:
REMARK  status: ('A' for Active; 'I' for Inactive)
REMARK    1  A    between atoms: S_2  and  N_4
REMARK    2  A    between atoms: S_2  and  C_12
REMARK                            x       y       z     vdW  Elec       q    Type
REMARK                         _______ _______ _______ _____ _____    ______ ____
ROOT
ATOM      1  O   UNL     1      -1.141  -0.183   0.000  0.00  0.00    +0.000 OA
ATOM      2  S   UNL     1      -0.316  -0.183   0.000  0.00  0.00    +0.000 S 
ATOM      3  O   UNL     1       0.509  -0.183   0.000  0.00  0.00    +0.000 OA
ENDROOT
BRANCH   2   4
ATOM      4  C   UNL     1      -0.316  -1.008   0.000  0.00  0.00    +0.000 A 
ATOM      5  C   UNL     1       0.399  -1.420   0.000  0.00  0.00    +0.000 A 
ATOM      6  C   UNL     1       1.113  -1.008   0.000  0.00  0.00    +0.000 A 
ATOM      7  C   UNL     1       1.113  -0.183   0.000  0.00  0.00    +0.000 C 
ATOM      8  C   UNL     1       0.399  -2.245   0.000  0.00  0.00    +0.000 A 
ATOM      9  C   UNL     1      -0.316  -2.658   0.000  0.00  0.00    +0.000 A 
ATOM     10  C   UNL     1      -1.030  -2.245   0.000  0.00  0.00    +0.000 A 
ATOM     11  C   UNL     1      -1.030  -1.420   0.000  0.00  0.00    +0.000 A 
ATOM     12  C   UNL     1       1.113  -2.658   0.000  0.00  0.00    +0.000 A 
ATOM     13  N   UNL     1       1.828  -2.245   0.000  0.00  0.00    +0.000 NA
ATOM     14  C   UNL     1       1.828  -1.420   0.000  0.00  0.00    +0.000 A 
ENDBRANCH   2   4
BRANCH   2  15
ATOM     15  N   UNL     1      -0.316   0.642   0.000  0.00  0.00    +0.000 NA
ATOM     16  C   UNL     1      -1.059   1.000   0.000  0.00  0.00    +0.000 C 
ATOM     17  C   UNL     1      -1.704   0.486   0.000  0.00  0.00    +0.000 C 
ATOM     18  C   UNL     1      -1.242   1.805   0.000  0.00  0.00    +0.000 C 
ATOM     19  N   UNL     1      -0.728   2.450   0.000  0.00  0.00    +0.000 NA
ATOM     20  C   UNL     1       0.097   2.450   0.000  0.00  0.00    +0.000 C 
ATOM     21  C   UNL     1       0.611   1.805   0.000  0.00  0.00    +0.000 C 
ATOM     22  C   UNL     1       0.428   1.000   0.000  0.00  0.00    +0.000 C 
ENDBRANCH   2  15
TORSDOF 2
