REMARK  Name = H64
REMARK  7 active torsions:
REMARK  status: ('A' for Active; 'I' for Inactive)
REMARK    1  A    between atoms: C_2  and  N_4
REMARK    2  A    between atoms: N_4  and  C_5
REMARK    3  A    between atoms: C_5  and  C_6
REMARK    4  A    between atoms: C_6  and  C_7
REMARK    5  A    between atoms: C_7  and  N_8
REMARK    6  A    between atoms: C_17  and  S_18
REMARK    7  A    between atoms: S_18  and  C_19
REMARK                            x       y       z     vdW  Elec       q    Type
REMARK                         _______ _______ _______ _____ _____    ______ ____
ROOT
ATOM      1  N   UNL     1      -0.540   0.330   0.000  0.00  0.00    +0.000 N 
ATOM      2  C   UNL     1      -0.453   1.150   0.000  0.00  0.00    +0.000 A 
ATOM      3  N   UNL     1      -1.005   1.763   0.000  0.00  0.00    +0.000 NA
ATOM      4  C   UNL     1      -0.750   2.548   0.000  0.00  0.00    +0.000 A 
ATOM      5  N   UNL     1       0.057   2.720   0.000  0.00  0.00    +0.000 NA
ATOM      6  C   UNL     1       0.609   2.106   0.000  0.00  0.00    +0.000 A 
ATOM      7  N   UNL     1       1.416   2.278   0.000  0.00  0.00    +0.000 NA
ATOM      8  C   UNL     1       0.354   1.322   0.000  0.00  0.00    +0.000 A 
ATOM      9  N   UNL     1       0.766   0.607   0.000  0.00  0.00    +0.000 NA
ATOM     10  C   UNL     1       0.214  -0.006   0.000  0.00  0.00    +0.000 A 
ENDROOT
BRANCH  10  11
ATOM     11  S   UNL     1       0.386  -0.813   0.000  0.00  0.00    +0.000 S 
BRANCH  11  12
ATOM     12  C   UNL     1       1.170  -1.068   0.000  0.00  0.00    +0.000 A 
ATOM     13  C   UNL     1       1.783  -0.516   0.000  0.00  0.00    +0.000 A 
ATOM     14  C   UNL     1       2.568  -0.771   0.000  0.00  0.00    +0.000 A 
ATOM     15  O   UNL     1       3.283  -0.358   0.000  0.00  0.00    +0.000 OA
ATOM     16  C   UNL     1       3.896  -0.910   0.000  0.00  0.00    +0.000 C 
ATOM     17  O   UNL     1       3.560  -1.664   0.000  0.00  0.00    +0.000 OA
ATOM     18  C   UNL     1       2.740  -1.578   0.000  0.00  0.00    +0.000 A 
ATOM     19  C   UNL     1       2.126  -2.130   0.000  0.00  0.00    +0.000 A 
ATOM     20  C   UNL     1       1.342  -1.875   0.000  0.00  0.00    +0.000 A 
ATOM     21 BR   UNL     1       0.729  -2.427   0.000  0.00  0.00    +0.000 Br
ENDBRANCH  11  12
ENDBRANCH  10  11
BRANCH   1  22
ATOM     22  C   UNL     1      -1.254  -0.083   0.000  0.00  0.00    +0.000 C 
BRANCH  22  23
ATOM     23  C   UNL     1      -1.968   0.330   0.000  0.00  0.00    +0.000 C 
BRANCH  23  24
ATOM     24  C   UNL     1      -2.683  -0.083   0.000  0.00  0.00    +0.000 C 
BRANCH  24  25
ATOM     25  N   UNL     1      -3.397   0.330   0.000  0.00  0.00    +0.000 NA
BRANCH  25  27
ATOM     26  C   UNL     1      -4.826   0.330   0.000  0.00  0.00    +0.000 C 
ATOM     27  C   UNL     1      -4.112  -0.083   0.000  0.00  0.00    +0.000 C 
ATOM     28  C   UNL     1      -4.112  -0.908   0.000  0.00  0.00    +0.000 C 
ENDBRANCH  25  27
ENDBRANCH  24  25
ENDBRANCH  23  24
ENDBRANCH  22  23
ENDBRANCH   1  22
TORSDOF 7
