REMARK  Name = H7J
REMARK  8 active torsions:
REMARK  status: ('A' for Active; 'I' for Inactive)
REMARK    1  A    between atoms: C_2  and  C_3
REMARK    2  A    between atoms: N_9  and  C_10
REMARK    3  A    between atoms: C_10  and  C_12
REMARK    4  A    between atoms: C_10  and  C_15
REMARK    5  A    between atoms: N_19  and  C_20
REMARK    6  A    between atoms: C_20  and  C_21
REMARK    7  A    between atoms: C_20  and  C_24
REMARK    8  A    between atoms: C_24  and  C_25
REMARK                            x       y       z     vdW  Elec       q    Type
REMARK                         _______ _______ _______ _____ _____    ______ ____
ROOT
ATOM      1  C   UNL     1       1.706  -0.241   0.000  0.00  0.00    +0.000 C 
ATOM      2  C   UNL     1       2.290  -0.825   0.000  0.00  0.00    +0.000 C 
ENDROOT
BRANCH   1   3
ATOM      3  C   UNL     1       1.123  -0.825   0.000  0.00  0.00    +0.000 A 
ATOM      4  N   UNL     1       1.252  -1.639   0.000  0.00  0.00    +0.000 NA
ATOM      5  N   UNL     1       0.517  -2.014   0.000  0.00  0.00    +0.000 NA
ATOM      6  C   UNL     1       0.308  -0.696   0.000  0.00  0.00    +0.000 A 
ATOM      7  N   UNL     1      -0.066  -1.431   0.000  0.00  0.00    +0.000 N 
BRANCH   7   8
ATOM      8  C   UNL     1      -0.881  -1.560   0.000  0.00  0.00    +0.000 C 
BRANCH   8   9
ATOM      9  C   UNL     1      -1.177  -2.330   0.000  0.00  0.00    +0.000 C 
ATOM     10  C   UNL     1      -1.992  -2.459   0.000  0.00  0.00    +0.000 C 
ATOM     11  O   UNL     1      -0.658  -2.971   0.000  0.00  0.00    +0.000 OA
ENDBRANCH   8   9
BRANCH   8  12
ATOM     12  C   UNL     1      -1.401  -0.919   0.000  0.00  0.00    +0.000 C 
BRANCH  12  13
ATOM     13  C   UNL     1      -2.215  -1.048   0.000  0.00  0.00    +0.000 C 
ATOM     14  C   UNL     1      -2.735  -0.406   0.000  0.00  0.00    +0.000 C 
ATOM     15  C   UNL     1      -3.549  -0.535   0.000  0.00  0.00    +0.000 C 
ENDBRANCH  12  13
ENDBRANCH   8  12
ENDBRANCH   7   8
ENDBRANCH   1   3
BRANCH   1  18
ATOM     16  O   UNL     1       2.133   1.353   0.000  0.00  0.00    +0.000 OA
ATOM     17  C   UNL     1       1.337   1.139   0.000  0.00  0.00    +0.000 C 
ATOM     18  N   UNL     1       1.123   0.342   0.000  0.00  0.00    +0.000 NA
BRANCH  17  19
ATOM     19  C   UNL     1       0.753   1.722   0.000  0.00  0.00    +0.000 A 
ATOM     20  C   UNL     1      -0.044   1.509   0.000  0.00  0.00    +0.000 A 
ATOM     21  C   UNL     1      -0.627   2.092   0.000  0.00  0.00    +0.000 A 
ATOM     22  C   UNL     1      -0.414   2.889   0.000  0.00  0.00    +0.000 A 
ATOM     23  C   UNL     1       0.383   3.103   0.000  0.00  0.00    +0.000 A 
ATOM     24  C   UNL     1       0.967   2.519   0.000  0.00  0.00    +0.000 A 
ENDBRANCH  17  19
ENDBRANCH   1  18
BRANCH   1  25
ATOM     25  C   UNL     1       2.290   0.342   0.000  0.00  0.00    +0.000 C 
ATOM     26  C   UNL     1       2.585   1.112   0.000  0.00  0.00    +0.000 C 
ATOM     27  C   UNL     1       3.087   0.129   0.000  0.00  0.00    +0.000 C 
ENDBRANCH   1  25
TORSDOF 8
