REMARK  Name = HA3
REMARK  3 active torsions:
REMARK  status: ('A' for Active; 'I' for Inactive)
REMARK    1  A    between atoms: C_6  and  C_7
REMARK    2  A    between atoms: C_16  and  C_18
REMARK    3  A    between atoms: C_22  and  C_23
REMARK                            x       y       z     vdW  Elec       q    Type
REMARK                         _______ _______ _______ _____ _____    ______ ____
ROOT
ATOM      1  C   UNL     1       8.225  -4.215   0.000  0.00  0.00    +0.000 A 
ATOM      2  C   UNL     1       7.740  -3.547   0.000  0.00  0.00    +0.000 A 
ATOM      3  N   UNL     1       8.225  -2.880   0.000  0.00  0.00    +0.000 NA
ATOM      4  C   UNL     1       9.010  -3.135   0.000  0.00  0.00    +0.000 A 
ATOM      5  C   UNL     1       9.724  -2.722   0.000  0.00  0.00    +0.000 C 
ATOM      6  N   UNL     1       9.010  -3.960   0.000  0.00  0.00    +0.000 N 
ATOM      7  C   UNL     1       9.724  -4.372   0.000  0.00  0.00    +0.000 C 
ATOM      8  C   UNL     1      10.439  -3.960   0.000  0.00  0.00    +0.000 C 
ATOM      9  N   UNL     1      10.439  -3.135   0.000  0.00  0.00    +0.000 N 
ATOM     10  C   UNL     1      11.153  -2.722   0.000  0.00  0.00    +0.000 C 
ATOM     11  O   UNL     1      11.153  -1.897   0.000  0.00  0.00    +0.000 OA
ENDROOT
BRANCH   1  17
ATOM     12  C   UNL     1       8.522  -5.612   0.000  0.00  0.00    +0.000 A 
ATOM     13  C   UNL     1       8.267  -6.397   0.000  0.00  0.00    +0.000 A 
ATOM     14  C   UNL     1       7.460  -6.569   0.000  0.00  0.00    +0.000 A 
ATOM     15  C   UNL     1       6.908  -5.955   0.000  0.00  0.00    +0.000 A 
ATOM     16  C   UNL     1       7.163  -5.171   0.000  0.00  0.00    +0.000 A 
ATOM     17  C   UNL     1       7.970  -4.999   0.000  0.00  0.00    +0.000 A 
ENDBRANCH   1  17
BRANCH  10  18
ATOM     18  C   UNL     1      11.868  -3.135   0.000  0.00  0.00    +0.000 A 
ATOM     19  S   UNL     1      12.621  -2.799   0.000  0.00  0.00    +0.000 S 
ATOM     20  C   UNL     1      11.954  -3.955   0.000  0.00  0.00    +0.000 A 
ATOM     21  C   UNL     1      12.761  -4.127   0.000  0.00  0.00    +0.000 A 
ATOM     22  C   UNL     1      13.173  -3.412   0.000  0.00  0.00    +0.000 A 
BRANCH  22  23
ATOM     23  C   UNL     1      13.994  -3.326   0.000  0.00  0.00    +0.000 C 
ATOM     24  O   UNL     1      14.329  -2.572   0.000  0.00  0.00    +0.000 OA
ATOM     25  N   UNL     1      14.479  -3.994   0.000  0.00  0.00    +0.000 NA
ATOM     26  O   UNL     1      15.299  -3.907   0.000  0.00  0.00    +0.000 OA
ENDBRANCH  22  23
ENDBRANCH  10  18
TORSDOF 3
