REMARK  Name = HAB
REMARK  3 active torsions:
REMARK  status: ('A' for Active; 'I' for Inactive)
REMARK    1  A    between atoms: C_1  and  N_14
REMARK    2  A    between atoms: C_2  and  C_13
REMARK    3  A    between atoms: C_7  and  N_15
REMARK                            x       y       z     vdW  Elec       q    Type
REMARK                         _______ _______ _______ _____ _____    ______ ____
ROOT
ATOM      1  C   UNL     1       0.211  -1.105   0.000  0.00  0.00    +0.000 A 
ATOM      2  C   UNL     1       0.925  -1.518   0.000  0.00  0.00    +0.000 A 
ATOM      3  C   UNL     1       0.925  -2.343   0.000  0.00  0.00    +0.000 A 
ATOM      4  C   UNL     1       0.211  -2.756   0.000  0.00  0.00    +0.000 A 
ATOM      5  C   UNL     1      -0.504  -2.343   0.000  0.00  0.00    +0.000 A 
ATOM      6  C   UNL     1      -0.504  -1.518   0.000  0.00  0.00    +0.000 A 
ENDROOT
BRANCH   2   7
ATOM      7  C   UNL     1       1.639  -1.105   0.000  0.00  0.00    +0.000 C 
ATOM      8  O   UNL     1       2.354  -1.518   0.000  0.00  0.00    +0.000 OA
ATOM      9  O   UNL     1       1.639  -0.281   0.000  0.00  0.00    +0.000 OA
ENDBRANCH   2   7
BRANCH   1  10
ATOM     10  N   UNL     1       0.211  -0.281   0.000  0.00  0.00    +0.000 NA
ATOM     11  N   UNL     1      -0.504   0.132   0.000  0.00  0.00    +0.000 NA
BRANCH  11  12
ATOM     12  C   UNL     1      -0.504   0.957   0.000  0.00  0.00    +0.000 A 
ATOM     13  C   UNL     1      -1.218   1.369   0.000  0.00  0.00    +0.000 A 
ATOM     14  C   UNL     1      -1.218   2.195   0.000  0.00  0.00    +0.000 A 
ATOM     15  C   UNL     1      -0.504   2.607   0.000  0.00  0.00    +0.000 A 
ATOM     16  C   UNL     1       0.211   2.195   0.000  0.00  0.00    +0.000 A 
ATOM     17  C   UNL     1       0.211   1.369   0.000  0.00  0.00    +0.000 A 
ATOM     18  O   UNL     1      -0.504   3.432   0.000  0.00  0.00    +0.000 OA
ENDBRANCH  11  12
ENDBRANCH   1  10
TORSDOF 3
