REMARK  Name = HAZ
REMARK  8 active torsions:
REMARK  status: ('A' for Active; 'I' for Inactive)
REMARK    1  A    between atoms: C_2  and  C_6
REMARK    2  A    between atoms: C_4  and  C_5
REMARK    3  A    between atoms: C_4  and  C_7
REMARK    4  A    between atoms: C_5  and  C_6
REMARK    5  A    between atoms: N_9  and  C_13
REMARK    6  A    between atoms: C_10  and  N_16
REMARK    7  A    between atoms: C_17  and  C_26
REMARK    8  A    between atoms: C_26  and  N_27
REMARK                            x       y       z     vdW  Elec       q    Type
REMARK                         _______ _______ _______ _____ _____    ______ ____
ROOT
ATOM      1  N   UNL     1       0.273   0.128   0.000  0.00  0.00    +0.000 NA
ATOM      2  C   UNL     1       0.987  -0.284   0.000  0.00  0.00    +0.000 C 
ATOM      3  O   UNL     1       0.987  -1.109   0.000  0.00  0.00    +0.000 OA
ENDROOT
BRANCH   1   4
ATOM      4  C   UNL     1      -0.442  -0.284   0.000  0.00  0.00    +0.000 A 
ATOM      5  C   UNL     1      -0.442  -1.109   0.000  0.00  0.00    +0.000 A 
ATOM      6  C   UNL     1      -1.156  -1.522   0.000  0.00  0.00    +0.000 A 
ATOM      7  C   UNL     1      -1.871  -1.109   0.000  0.00  0.00    +0.000 A 
ATOM      8  C   UNL     1      -1.871  -0.284   0.000  0.00  0.00    +0.000 A 
ATOM      9  C   UNL     1      -1.156   0.128   0.000  0.00  0.00    +0.000 A 
BRANCH   7  12
ATOM     10  C   UNL     1      -3.300  -1.109   0.000  0.00  0.00    +0.000 C 
ATOM     11  O   UNL     1      -3.300  -0.284   0.000  0.00  0.00    +0.000 OA
ATOM     12  N   UNL     1      -2.585  -1.522   0.000  0.00  0.00    +0.000 NA
BRANCH  10  13
ATOM     13  C   UNL     1      -4.014  -1.522   0.000  0.00  0.00    +0.000 C 
BRANCH  13  14
ATOM     14  C   UNL     1      -4.729  -1.109   0.000  0.00  0.00    +0.000 C 
BRANCH  14  15
ATOM     15  C   UNL     1      -5.443  -1.522   0.000  0.00  0.00    +0.000 C 
BRANCH  15  17
ATOM     16  O   UNL     1      -6.872  -1.522   0.000  0.00  0.00    +0.000 OA
ATOM     17  C   UNL     1      -6.157  -1.109   0.000  0.00  0.00    +0.000 C 
ATOM     18  O   UNL     1      -6.157  -0.284   0.000  0.00  0.00    +0.000 OA
ENDBRANCH  15  17
ENDBRANCH  14  15
ENDBRANCH  13  14
ENDBRANCH  10  13
ENDBRANCH   7  12
ENDBRANCH   1   4
BRANCH   2  19
ATOM     19  C   UNL     1       1.702   0.128   0.000  0.00  0.00    +0.000 C 
BRANCH  19  27
ATOM     20  C   UNL     1       4.041   0.002   0.000  0.00  0.00    +0.000 C 
ATOM     21  C   UNL     1       3.511   0.634   0.000  0.00  0.00    +0.000 C 
ATOM     22  C   UNL     1       3.119   2.854   0.000  0.00  0.00    +0.000 C 
ATOM     23  C   UNL     1       4.323   0.777   0.000  0.00  0.00    +0.000 C 
ATOM     24  C   UNL     1       3.759  -0.773   0.000  0.00  0.00    +0.000 C 
ATOM     25  C   UNL     1       2.946  -0.916   0.000  0.00  0.00    +0.000 C 
ATOM     26  O   UNL     1       1.886  -0.916   0.000  0.00  0.00    +0.000 OA
ATOM     27  N   UNL     1       2.416  -0.284   0.000  0.00  0.00    +0.000 N 
ATOM     28  C   UNL     1       2.698   0.491   0.000  0.00  0.00    +0.000 C 
ATOM     29  C   UNL     1       2.168   1.123   0.000  0.00  0.00    +0.000 C 
ATOM     30  C   UNL     1       2.450   1.898   0.000  0.00  0.00    +0.000 C 
ATOM     31  C   UNL     1       3.263   2.041   0.000  0.00  0.00    +0.000 C 
ATOM     32  C   UNL     1       3.793   1.409   0.000  0.00  0.00    +0.000 C 
ATOM     33  O   UNL     1       4.075   2.185   0.000  0.00  0.00    +0.000 OA
ENDBRANCH  19  27
ENDBRANCH   2  19
TORSDOF 8
