REMARK  Name = HBC
REMARK  3 active torsions:
REMARK  status: ('A' for Active; 'I' for Inactive)
REMARK    1  A    between atoms: C_1  and  C_15
REMARK    2  A    between atoms: C_12  and  C_18
REMARK    3  A    between atoms: C_13  and  C_15
REMARK                            x       y       z     vdW  Elec       q    Type
REMARK                         _______ _______ _______ _____ _____    ______ ____
ROOT
ATOM      1  C   UNL     1      -1.084   0.495   0.000  0.00  0.00    +0.000 C 
ATOM      2  C   UNL     1      -1.860   0.105   0.000  0.00  0.00    +0.000 C 
ATOM      3  C   UNL     1      -1.494   0.766   0.000  0.00  0.00    +0.000 C 
ATOM      4  C   UNL     1      -0.854   1.216   0.000  0.00  0.00    +0.000 C 
ATOM      5  C   UNL     1      -1.014   2.031   0.000  0.00  0.00    +0.000 C 
ATOM      6  C   UNL     1      -0.059   0.751   0.000  0.00  0.00    +0.000 C 
ATOM      7  C   UNL     1      -0.354   0.125   0.000  0.00  0.00    +0.000 C 
ATOM      8  N   UNL     1      -0.536  -0.679   0.000  0.00  0.00    +0.000 NA
ENDROOT
BRANCH   6  10
ATOM      9  C   UNL     1       1.335   0.434   0.000  0.00  0.00    +0.000 A 
ATOM     10  C   UNL     1       0.730   0.995   0.000  0.00  0.00    +0.000 A 
ATOM     11  C   UNL     1       0.912   1.799   0.000  0.00  0.00    +0.000 A 
ATOM     12  C   UNL     1       1.700   2.043   0.000  0.00  0.00    +0.000 A 
ATOM     13  C   UNL     1       2.306   1.483   0.000  0.00  0.00    +0.000 A 
ATOM     14  C   UNL     1       2.123   0.678   0.000  0.00  0.00    +0.000 A 
ENDBRANCH   6  10
BRANCH   7  15
ATOM     15  C   UNL     1       0.284  -0.398   0.000  0.00  0.00    +0.000 C 
ATOM     16  O   UNL     1       1.056  -0.108   0.000  0.00  0.00    +0.000 OA
BRANCH  15  17
ATOM     17  C   UNL     1       0.150  -1.212   0.000  0.00  0.00    +0.000 A 
ATOM     18  C   UNL     1       0.787  -1.736   0.000  0.00  0.00    +0.000 A 
ATOM     19  C   UNL     1       0.653  -2.550   0.000  0.00  0.00    +0.000 A 
ATOM     20  C   UNL     1      -0.119  -2.840   0.000  0.00  0.00    +0.000 A 
ATOM     21  C   UNL     1      -0.757  -2.317   0.000  0.00  0.00    +0.000 A 
ATOM     22  C   UNL     1      -0.623  -1.503   0.000  0.00  0.00    +0.000 A 
ENDBRANCH  15  17
ENDBRANCH   7  15
TORSDOF 3
