REMARK  Name = HBN
REMARK  4 active torsions:
REMARK  status: ('A' for Active; 'I' for Inactive)
REMARK    1  A    between atoms: C_8  and  N_11
REMARK    2  A    between atoms: C_13  and  C_14
REMARK    3  A    between atoms: C_13  and  C_16
REMARK    4  A    between atoms: C_16  and  C_17
REMARK                            x       y       z     vdW  Elec       q    Type
REMARK                         _______ _______ _______ _____ _____    ______ ____
ROOT
ATOM      1  N   UNL     1      -0.311  -0.629   0.000  0.00  0.00    +0.000 NA
ATOM      2  C   UNL     1       0.403  -0.216   0.000  0.00  0.00    +0.000 C 
ATOM      3  O   UNL     1       0.403   0.609   0.000  0.00  0.00    +0.000 OA
ENDROOT
BRANCH   1  11
ATOM      4  C   UNL     1      -1.740   1.846   0.000  0.00  0.00    +0.000 A 
ATOM      5  C   UNL     1      -2.454   2.259   0.000  0.00  0.00    +0.000 A 
ATOM      6  C   UNL     1      -3.169   1.846   0.000  0.00  0.00    +0.000 A 
ATOM      7  C   UNL     1      -3.169   1.021   0.000  0.00  0.00    +0.000 A 
ATOM      8  C   UNL     1      -2.454   0.609   0.000  0.00  0.00    +0.000 A 
ATOM      9  C   UNL     1      -1.740   1.021   0.000  0.00  0.00    +0.000 A 
ATOM     10  C   UNL     1      -1.026   0.609   0.000  0.00  0.00    +0.000 A 
ATOM     11  C   UNL     1      -1.026  -0.216   0.000  0.00  0.00    +0.000 A 
ATOM     12  C   UNL     1      -1.740  -0.629   0.000  0.00  0.00    +0.000 A 
ATOM     13  C   UNL     1      -2.454  -0.216   0.000  0.00  0.00    +0.000 A 
ENDBRANCH   1  11
BRANCH   2  15
ATOM     14  N   UNL     1       1.118  -1.454   0.000  0.00  0.00    +0.000 NA
ATOM     15  C   UNL     1       1.118  -0.629   0.000  0.00  0.00    +0.000 C 
BRANCH  15  16
ATOM     16  C   UNL     1       1.832  -0.216   0.000  0.00  0.00    +0.000 C 
BRANCH  16  17
ATOM     17  C   UNL     1       2.547  -0.629   0.000  0.00  0.00    +0.000 A 
ATOM     18  N   UNL     1       3.300  -0.293   0.000  0.00  0.00    +0.000 NA
ATOM     19  C   UNL     1       2.633  -1.449   0.000  0.00  0.00    +0.000 A 
ATOM     20  C   UNL     1       3.853  -0.906   0.000  0.00  0.00    +0.000 A 
ATOM     21  N   UNL     1       3.440  -1.621   0.000  0.00  0.00    +0.000 NA
ENDBRANCH  16  17
ENDBRANCH  15  16
ENDBRANCH   2  15
TORSDOF 4
