REMARK  Name = HBO
REMARK  1 active torsions:
REMARK  status: ('A' for Active; 'I' for Inactive)
REMARK    1  A    between atoms: C_13  and  O_14
REMARK                            x       y       z     vdW  Elec       q    Type
REMARK                         _______ _______ _______ _____ _____    ______ ____
ROOT
ATOM      1  O   UNL     1      -2.255   0.657   0.000  0.00  0.00    +0.000 OA
ATOM      2  C   UNL     1      -1.541  -0.581   0.000  0.00  0.00    +0.000 C 
ATOM      3  N   UNL     1      -0.826  -0.993   0.000  0.00  0.00    +0.000 N 
ATOM      4  C   UNL     1      -0.112  -0.581   0.000  0.00  0.00    +0.000 A 
ATOM      5  C   UNL     1      -0.112   0.244   0.000  0.00  0.00    +0.000 A 
ATOM      6  O   UNL     1      -0.826   0.657   0.000  0.00  0.00    +0.000 OA
ATOM      7  C   UNL     1      -1.541   0.244   0.000  0.00  0.00    +0.000 C 
ATOM      8  C   UNL     1       0.603  -0.993   0.000  0.00  0.00    +0.000 A 
ATOM      9  C   UNL     1       1.317  -0.581   0.000  0.00  0.00    +0.000 A 
ATOM     10  C   UNL     1       0.603   0.657   0.000  0.00  0.00    +0.000 A 
ATOM     11  O   UNL     1      -2.255  -0.993   0.000  0.00  0.00    +0.000 OA
ATOM     12  O   UNL     1      -0.826  -1.818   0.000  0.00  0.00    +0.000 OA
ATOM     13  C   UNL     1       1.317   0.244   0.000  0.00  0.00    +0.000 A 
ENDROOT
BRANCH  13  14
ATOM     14  O   UNL     1       2.032   0.657   0.000  0.00  0.00    +0.000 OA
ATOM     15  C   UNL     1       2.032   1.482   0.000  0.00  0.00    +0.000 C 
ENDBRANCH  13  14
TORSDOF 1
