REMARK  Name = HBY
REMARK  5 active torsions:
REMARK  status: ('A' for Active; 'I' for Inactive)
REMARK    1  A    between atoms: C_1  and  C_13
REMARK    2  A    between atoms: C_6  and  O_20
REMARK    3  A    between atoms: C_9  and  O_19
REMARK    4  A    between atoms: C_10  and  O_19
REMARK    5  A    between atoms: C_13  and  S_22
REMARK                            x       y       z     vdW  Elec       q    Type
REMARK                         _______ _______ _______ _____ _____    ______ ____
ROOT
ATOM      1  C   UNL     1      -0.773  -0.712   0.000  0.00  0.00    +0.000 C 
ATOM      2  C   UNL     1      -0.773  -1.537   0.000  0.00  0.00    +0.000 C 
ATOM      3  C   UNL     1       0.656  -1.537   0.000  0.00  0.00    +0.000 A 
ATOM      4  C   UNL     1       0.656  -0.712   0.000  0.00  0.00    +0.000 A 
ATOM      5  C   UNL     1       1.371  -0.300   0.000  0.00  0.00    +0.000 A 
ATOM      6  C   UNL     1       2.085  -0.712   0.000  0.00  0.00    +0.000 A 
ATOM      7  C   UNL     1       2.085  -1.537   0.000  0.00  0.00    +0.000 A 
ATOM      8  C   UNL     1       1.371  -1.950   0.000  0.00  0.00    +0.000 A 
ATOM      9  C   UNL     1      -0.058   0.525   0.000  0.00  0.00    +0.000 C 
ATOM     10  N   UNL     1      -0.058  -0.300   0.000  0.00  0.00    +0.000 N 
ATOM     11  N   UNL     1      -0.058  -1.950   0.000  0.00  0.00    +0.000 NA
ATOM     12  O   UNL     1       0.656   0.938   0.000  0.00  0.00    +0.000 OA
ATOM     13  S   UNL     1      -1.487  -1.950   0.000  0.00  0.00    +0.000 S 
ENDROOT
BRANCH   6  15
ATOM     14  C   UNL     1       2.800   0.525   0.000  0.00  0.00    +0.000 C 
ATOM     15  O   UNL     1       2.800  -0.300   0.000  0.00  0.00    +0.000 OA
ENDBRANCH   6  15
BRANCH   1  16
ATOM     16  C   UNL     1      -1.487  -0.300   0.000  0.00  0.00    +0.000 C 
BRANCH  16  18
ATOM     17  C   UNL     1      -2.916  -0.300   0.000  0.00  0.00    +0.000 C 
ATOM     18  S   UNL     1      -2.202  -0.712   0.000  0.00  0.00    +0.000 S 
ENDBRANCH  16  18
ENDBRANCH   1  16
BRANCH   9  19
ATOM     19  O   UNL     1      -0.773   0.938   0.000  0.00  0.00    +0.000 OA
BRANCH  19  20
ATOM     20  C   UNL     1      -0.773   1.763   0.000  0.00  0.00    +0.000 C 
ATOM     21  C   UNL     1      -1.487   2.175   0.000  0.00  0.00    +0.000 C 
ATOM     22  C   UNL     1      -0.058   2.175   0.000  0.00  0.00    +0.000 C 
ENDBRANCH  19  20
ENDBRANCH   9  19
TORSDOF 5
