REMARK  Name = HDI
REMARK  4 active torsions:
REMARK  status: ('A' for Active; 'I' for Inactive)
REMARK    1  A    between atoms: C_2  and  O_4
REMARK    2  A    between atoms: C_2  and  C_5
REMARK    3  A    between atoms: C_5  and  C_8
REMARK    4  A    between atoms: C_10  and  C_13
REMARK                            x       y       z     vdW  Elec       q    Type
REMARK                         _______ _______ _______ _____ _____    ______ ____
ROOT
ATOM      1  N   UNL     1       0.396  -0.932   0.000  0.00  0.00    +0.000 NA
ATOM      2  O   UNL     1      -0.429  -0.932   0.000  0.00  0.00    +0.000 OA
ATOM      3  C   UNL     1      -0.684  -0.148   0.000  0.00  0.00    +0.000 C 
ATOM      4  C   UNL     1      -0.017   0.337   0.000  0.00  0.00    +0.000 C 
ATOM      5  C   UNL     1       0.651  -0.148   0.000  0.00  0.00    +0.000 C 
ENDROOT
BRANCH   5   8
ATOM      6  O   UNL     1       3.789   0.872   0.000  0.00  0.00    +0.000 OA
ATOM      7  C   UNL     1       2.048  -0.445   0.000  0.00  0.00    +0.000 A 
ATOM      8  C   UNL     1       1.435   0.107   0.000  0.00  0.00    +0.000 A 
ATOM      9  C   UNL     1       1.607   0.914   0.000  0.00  0.00    +0.000 A 
ATOM     10  C   UNL     1       2.391   1.169   0.000  0.00  0.00    +0.000 A 
ATOM     11  C   UNL     1       3.005   0.617   0.000  0.00  0.00    +0.000 A 
ATOM     12  C   UNL     1       2.833  -0.190   0.000  0.00  0.00    +0.000 A 
ENDBRANCH   5   8
BRANCH   3  13
ATOM     13  C   UNL     1      -1.469   0.107   0.000  0.00  0.00    +0.000 C 
BRANCH  13  14
ATOM     14  C   UNL     1      -2.082  -0.445   0.000  0.00  0.00    +0.000 C 
ATOM     15  O   UNL     1      -1.910  -1.252   0.000  0.00  0.00    +0.000 OA
BRANCH  14  17
ATOM     16  C   UNL     1      -3.480  -0.742   0.000  0.00  0.00    +0.000 C 
ATOM     17  O   UNL     1      -2.867  -0.190   0.000  0.00  0.00    +0.000 OA
ENDBRANCH  14  17
ENDBRANCH  13  14
ENDBRANCH   3  13
TORSDOF 4
