REMARK  Name = HDT
REMARK  3 active torsions:
REMARK  status: ('A' for Active; 'I' for Inactive)
REMARK    1  A    between atoms: C_9  and  C_10
REMARK    2  A    between atoms: C_13  and  N_24
REMARK    3  A    between atoms: C_18  and  S_20
REMARK                            x       y       z     vdW  Elec       q    Type
REMARK                         _______ _______ _______ _____ _____    ______ ____
ROOT
ATOM      1  C   UNL     1       1.290  -0.366   0.000  0.00  0.00    +0.000 A 
ATOM      2  C   UNL     1       0.738  -0.979   0.000  0.00  0.00    +0.000 A 
ATOM      3  C   UNL     1       1.035   0.418   0.000  0.00  0.00    +0.000 A 
ATOM      4  C   UNL     1      -0.324  -0.023   0.000  0.00  0.00    +0.000 A 
ATOM      5  N   UNL     1      -0.069  -0.808   0.000  0.00  0.00    +0.000 NA
ATOM      6  N   UNL     1      -1.131   0.148   0.000  0.00  0.00    +0.000 NA
ATOM      7  N   UNL     1       0.228   0.590   0.000  0.00  0.00    +0.000 NA
ENDROOT
BRANCH   2  14
ATOM      8  N   UNL     1       1.777  -2.019   0.000  0.00  0.00    +0.000 N 
ATOM      9  C   UNL     1       2.492  -1.606   0.000  0.00  0.00    +0.000 A 
ATOM     10  C   UNL     1       1.777  -2.844   0.000  0.00  0.00    +0.000 A 
ATOM     11  C   UNL     1       2.492  -3.256   0.000  0.00  0.00    +0.000 A 
ATOM     12  C   UNL     1       3.206  -2.844   0.000  0.00  0.00    +0.000 A 
ATOM     13  C   UNL     1       3.206  -2.019   0.000  0.00  0.00    +0.000 A 
ATOM     14  C   UNL     1       0.993  -1.764   0.000  0.00  0.00    +0.000 A 
ATOM     15  C   UNL     1       0.508  -2.431   0.000  0.00  0.00    +0.000 A 
ATOM     16  N   UNL     1       0.993  -3.099   0.000  0.00  0.00    +0.000 NA
ENDBRANCH   2  14
BRANCH   6  18
ATOM     17  C   UNL     1      -0.834   1.546   0.000  0.00  0.00    +0.000 A 
ATOM     18  C   UNL     1      -1.386   0.933   0.000  0.00  0.00    +0.000 A 
ATOM     19  C   UNL     1      -2.193   1.105   0.000  0.00  0.00    +0.000 A 
ATOM     20  C   UNL     1      -2.448   1.889   0.000  0.00  0.00    +0.000 A 
ATOM     21  C   UNL     1      -1.896   2.502   0.000  0.00  0.00    +0.000 A 
ATOM     22  C   UNL     1      -1.089   2.331   0.000  0.00  0.00    +0.000 A 
BRANCH  21  24
ATOM     23  O   UNL     1      -2.406   4.072   0.000  0.00  0.00    +0.000 OA
ATOM     24  S   UNL     1      -2.151   3.287   0.000  0.00  0.00    +0.000 S 
ATOM     25  O   UNL     1      -1.366   3.542   0.000  0.00  0.00    +0.000 OA
ATOM     26  N   UNL     1      -2.936   3.032   0.000  0.00  0.00    +0.000 NA
ENDBRANCH  21  24
ENDBRANCH   6  18
TORSDOF 3
