REMARK  Name = HDU
REMARK  1 active torsions:
REMARK  status: ('A' for Active; 'I' for Inactive)
REMARK    1  A    between atoms: C_10  and  C_11
REMARK                            x       y       z     vdW  Elec       q    Type
REMARK                         _______ _______ _______ _____ _____    ______ ____
ROOT
ATOM      1  O   UNL     1      -3.009  -2.100   0.000  0.00  0.00    +0.000 OA
ATOM      2  C   UNL     1      -2.202  -1.929   0.000  0.00  0.00    +0.000 C 
ATOM      3  C   UNL     1      -1.650  -2.542   0.000  0.00  0.00    +0.000 C 
ATOM      4  N   UNL     1      -1.947  -1.144   0.000  0.00  0.00    +0.000 NA
ATOM      5  C   UNL     1      -1.140  -0.972   0.000  0.00  0.00    +0.000 A 
ATOM      6  N   UNL     1      -0.885  -0.188   0.000  0.00  0.00    +0.000 NA
ATOM      7  N   UNL     1      -0.588  -1.585   0.000  0.00  0.00    +0.000 NA
ATOM      8  C   UNL     1       0.219  -1.414   0.000  0.00  0.00    +0.000 A 
ATOM      9  C   UNL     1       0.474  -0.629   0.000  0.00  0.00    +0.000 A 
ATOM     10  C   UNL     1      -0.078  -0.016   0.000  0.00  0.00    +0.000 A 
ENDROOT
BRANCH  10  11
ATOM     11  C   UNL     1       0.177   0.768   0.000  0.00  0.00    +0.000 A 
ATOM     12  N   UNL     1       0.962   1.023   0.000  0.00  0.00    +0.000 N 
ATOM     13  C   UNL     1       0.962   1.848   0.000  0.00  0.00    +0.000 A 
ATOM     14  N   UNL     1       0.177   2.103   0.000  0.00  0.00    +0.000 NA
ATOM     15  C   UNL     1      -0.308   1.436   0.000  0.00  0.00    +0.000 A 
ATOM     16  C   UNL     1      -1.133   1.436   0.000  0.00  0.00    +0.000 C 
ATOM     17  C   UNL     1       1.676   2.261   0.000  0.00  0.00    +0.000 A 
ATOM     18  C   UNL     1       2.391   1.848   0.000  0.00  0.00    +0.000 A 
ATOM     19  C   UNL     1       2.391   1.023   0.000  0.00  0.00    +0.000 A 
ATOM     20  C   UNL     1       1.676   0.611   0.000  0.00  0.00    +0.000 A 
ENDBRANCH  10  11
TORSDOF 1
