REMARK  Name = HE1
REMARK  5 active torsions:
REMARK  status: ('A' for Active; 'I' for Inactive)
REMARK    1  A    between atoms: P_1  and  C_5
REMARK    2  A    between atoms: C_6  and  C_8
REMARK    3  A    between atoms: C_7  and  C_8
REMARK    4  A    between atoms: C_7  and  S_9
REMARK    5  A    between atoms: S_9  and  C_14
REMARK                            x       y       z     vdW  Elec       q    Type
REMARK                         _______ _______ _______ _____ _____    ______ ____
ROOT
ATOM      1  C   UNL     1       0.729  -2.212   0.000  0.00  0.00    +0.000 C 
ENDROOT
BRANCH   1   2
ATOM      2  C   UNL     1       0.015  -2.625   0.000  0.00  0.00    +0.000 C 
BRANCH   2   4
ATOM      3  C   UNL     1      -0.700  -1.387   0.000  0.00  0.00    +0.000 C 
ATOM      4  C   UNL     1      -0.700  -2.212   0.000  0.00  0.00    +0.000 C 
BRANCH   3   5
ATOM      5  P   UNL     1      -1.414  -0.975   0.000  0.00  0.00    +0.000 P 
ATOM      6  O   UNL     1      -2.129  -0.562   0.000  0.00  0.00    +0.000 OA
ATOM      7  O   UNL     1      -1.827  -1.689   0.000  0.00  0.00    +0.000 OA
ATOM      8  O   UNL     1      -1.002  -0.260   0.000  0.00  0.00    +0.000 OA
ENDBRANCH   3   5
ENDBRANCH   2   4
ENDBRANCH   1   2
BRANCH   1   9
ATOM      9  S   UNL     1       1.444  -2.625   0.000  0.00  0.00    +0.000 S 
BRANCH   9  14
ATOM     10  O   UNL     1       2.873  -3.450   0.000  0.00  0.00    +0.000 OA
ATOM     11  C   UNL     1       3.587  -1.387   0.000  0.00  0.00    +0.000 A 
ATOM     12  C   UNL     1       3.587  -2.212   0.000  0.00  0.00    +0.000 A 
ATOM     13  C   UNL     1       2.873  -2.625   0.000  0.00  0.00    +0.000 A 
ATOM     14  C   UNL     1       2.158  -2.212   0.000  0.00  0.00    +0.000 A 
ATOM     15  C   UNL     1       2.158  -1.387   0.000  0.00  0.00    +0.000 A 
ATOM     16  C   UNL     1       2.873  -0.975   0.000  0.00  0.00    +0.000 A 
ENDBRANCH   9  14
ENDBRANCH   1   9
TORSDOF 5
