REMARK  Name = HEF
REMARK  6 active torsions:
REMARK  status: ('A' for Active; 'I' for Inactive)
REMARK    1  A    between atoms: N_1  and  C_10
REMARK    2  A    between atoms: C_8  and  S_15
REMARK    3  A    between atoms: C_10  and  O_11
REMARK    4  A    between atoms: O_11  and  C_12
REMARK    5  A    between atoms: C_12  and  C_13
REMARK    6  A    between atoms: S_15  and  C_16
REMARK                            x       y       z     vdW  Elec       q    Type
REMARK                         _______ _______ _______ _____ _____    ______ ____
ROOT
ATOM      1  N   UNL     1       0.281  -0.690   0.000  0.00  0.00    +0.000 N 
ATOM      2  C   UNL     1       0.281  -1.515   0.000  0.00  0.00    +0.000 A 
ATOM      3  O   UNL     1       0.995  -1.928   0.000  0.00  0.00    +0.000 OA
ATOM      4  N   UNL     1      -0.434  -1.928   0.000  0.00  0.00    +0.000 NA
ATOM      5  C   UNL     1      -1.148  -1.515   0.000  0.00  0.00    +0.000 A 
ATOM      6  O   UNL     1      -1.863  -1.928   0.000  0.00  0.00    +0.000 OA
ATOM      7  C   UNL     1      -1.148  -0.690   0.000  0.00  0.00    +0.000 A 
ATOM      8  C   UNL     1      -0.434  -0.278   0.000  0.00  0.00    +0.000 A 
ATOM      9  C   UNL     1      -1.863  -0.278   0.000  0.00  0.00    +0.000 C 
ENDROOT
BRANCH   1  10
ATOM     10  C   UNL     1       0.995  -0.278   0.000  0.00  0.00    +0.000 C 
BRANCH  10  11
ATOM     11  O   UNL     1       1.710  -0.690   0.000  0.00  0.00    +0.000 OA
BRANCH  11  12
ATOM     12  C   UNL     1       2.424  -0.278   0.000  0.00  0.00    +0.000 C 
BRANCH  12  13
ATOM     13  C   UNL     1       3.139  -0.690   0.000  0.00  0.00    +0.000 C 
ATOM     14  O   UNL     1       3.853  -0.278   0.000  0.00  0.00    +0.000 OA
ENDBRANCH  12  13
ENDBRANCH  11  12
ENDBRANCH  10  11
ENDBRANCH   1  10
BRANCH   8  15
ATOM     15  S   UNL     1      -0.434   0.547   0.000  0.00  0.00    +0.000 S 
BRANCH  15  16
ATOM     16  C   UNL     1      -1.148   0.960   0.000  0.00  0.00    +0.000 A 
ATOM     17  C   UNL     1      -1.863   0.547   0.000  0.00  0.00    +0.000 A 
ATOM     18  C   UNL     1      -2.577   0.960   0.000  0.00  0.00    +0.000 A 
ATOM     19  C   UNL     1      -2.577   1.785   0.000  0.00  0.00    +0.000 A 
ATOM     20  C   UNL     1      -1.863   2.197   0.000  0.00  0.00    +0.000 A 
ATOM     21  C   UNL     1      -1.148   1.785   0.000  0.00  0.00    +0.000 A 
ENDBRANCH  15  16
ENDBRANCH   8  15
TORSDOF 6
