REMARK  Name = HEP
REMARK  10 active torsions:
REMARK  status: ('A' for Active; 'I' for Inactive)
REMARK    1  A    between atoms: C_1  and  C_2
REMARK    2  A    between atoms: C_1  and  N_22
REMARK    3  A    between atoms: C_1  and  P_23
REMARK    4  A    between atoms: C_2  and  C_3
REMARK    5  A    between atoms: C_3  and  C_4
REMARK    6  A    between atoms: C_11  and  O_18
REMARK    7  A    between atoms: C_12  and  C_14
REMARK    8  A    between atoms: C_13  and  C_14
REMARK    9  A    between atoms: C_13  and  C_15
REMARK   10  A    between atoms: O_18  and  P_23
REMARK                            x       y       z     vdW  Elec       q    Type
REMARK                         _______ _______ _______ _____ _____    ______ ____
ROOT
ATOM      1  C   UNL     1       0.368  -0.424   0.000  0.00  0.00    +0.000 C 
ENDROOT
BRANCH   1   4
ATOM      2  C   UNL     1       1.448   0.511   0.000  0.00  0.00    +0.000 C 
ATOM      3  O   UNL     1       0.908   1.135   0.000  0.00  0.00    +0.000 OA
ATOM      4  N   UNL     1       1.178  -0.268   0.000  0.00  0.00    +0.000 NA
BRANCH   2   5
ATOM      5  C   UNL     1       2.258   0.667   0.000  0.00  0.00    +0.000 C 
BRANCH   5   6
ATOM      6  C   UNL     1       2.528   1.447   0.000  0.00  0.00    +0.000 C 
BRANCH   6   7
ATOM      7  C   UNL     1       3.338   1.603   0.000  0.00  0.00    +0.000 C 
ATOM      8  O   UNL     1       3.608   2.382   0.000  0.00  0.00    +0.000 OA
ATOM      9  O   UNL     1       3.878   0.979   0.000  0.00  0.00    +0.000 OA
ENDBRANCH   6   7
ENDBRANCH   5   6
ENDBRANCH   2   5
ENDBRANCH   1   4
BRANCH   1  12
ATOM     10  O   UNL     1       0.877  -1.474   0.000  0.00  0.00    +0.000 OA
ATOM     11  O   UNL     1      -0.682  -0.933   0.000  0.00  0.00    +0.000 OA
ATOM     12  P   UNL     1       0.098  -1.204   0.000  0.00  0.00    +0.000 P 
BRANCH  12  13
ATOM     13  O   UNL     1      -0.172  -1.983   0.000  0.00  0.00    +0.000 OA
BRANCH  13  19
ATOM     14  C   UNL     1      -1.253  -2.919   0.000  0.00  0.00    +0.000 A 
ATOM     15  C   UNL     1      -2.063  -3.075   0.000  0.00  0.00    +0.000 A 
ATOM     16  C   UNL     1      -2.603  -2.451   0.000  0.00  0.00    +0.000 A 
ATOM     17  C   UNL     1      -2.333  -1.671   0.000  0.00  0.00    +0.000 A 
ATOM     18  C   UNL     1      -1.523  -1.515   0.000  0.00  0.00    +0.000 A 
ATOM     19  C   UNL     1      -0.983  -2.139   0.000  0.00  0.00    +0.000 A 
ENDBRANCH  13  19
ENDBRANCH  12  13
ENDBRANCH   1  12
BRANCH   1  20
ATOM     20  C   UNL     1      -0.172   0.200   0.000  0.00  0.00    +0.000 C 
BRANCH  20  21
ATOM     21  C   UNL     1       0.098   0.979   0.000  0.00  0.00    +0.000 C 
BRANCH  21  22
ATOM     22  C   UNL     1      -0.443   1.603   0.000  0.00  0.00    +0.000 C 
ATOM     23  C   UNL     1      -0.172   2.382   0.000  0.00  0.00    +0.000 C 
ENDBRANCH  21  22
ENDBRANCH  20  21
ENDBRANCH   1  20
TORSDOF 10
