REMARK  Name = HF1
REMARK  5 active torsions:
REMARK  status: ('A' for Active; 'I' for Inactive)
REMARK    1  A    between atoms: P_1  and  C_17
REMARK    2  A    between atoms: C_5  and  C_16
REMARK    3  A    between atoms: C_6  and  S_15
REMARK    4  A    between atoms: C_6  and  C_16
REMARK    5  A    between atoms: C_8  and  S_15
REMARK                            x       y       z     vdW  Elec       q    Type
REMARK                         _______ _______ _______ _____ _____    ______ ____
ROOT
ATOM      1  S   UNL     1      -0.622  -0.470   0.000  0.00  0.00    +0.000 S 
ENDROOT
BRANCH   1   3
ATOM      2  C   UNL     1      -1.336   0.768   0.000  0.00  0.00    +0.000 A 
ATOM      3  C   UNL     1      -1.336  -0.057   0.000  0.00  0.00    +0.000 A 
ATOM      4  C   UNL     1      -2.050  -0.470   0.000  0.00  0.00    +0.000 A 
ATOM      5  O   UNL     1      -2.050  -1.295   0.000  0.00  0.00    +0.000 OA
ATOM      6  C   UNL     1      -2.765  -0.057   0.000  0.00  0.00    +0.000 A 
ATOM      7  C   UNL     1      -2.765   0.768   0.000  0.00  0.00    +0.000 A 
ATOM      8  C   UNL     1      -2.050   1.180   0.000  0.00  0.00    +0.000 A 
ATOM      9  F   UNL     1      -2.050   2.005   0.000  0.00  0.00    +0.000 F 
ENDBRANCH   1   3
BRANCH   1  10
ATOM     10  C   UNL     1       0.093  -0.057   0.000  0.00  0.00    +0.000 C 
BRANCH  10  11
ATOM     11  C   UNL     1       0.807  -0.470   0.000  0.00  0.00    +0.000 C 
BRANCH  11  12
ATOM     12  C   UNL     1       1.522  -0.057   0.000  0.00  0.00    +0.000 C 
ATOM     13  C   UNL     1       2.236  -0.470   0.000  0.00  0.00    +0.000 C 
BRANCH  13  14
ATOM     14  P   UNL     1       2.951  -0.057   0.000  0.00  0.00    +0.000 P 
ATOM     15  O   UNL     1       3.665   0.355   0.000  0.00  0.00    +0.000 OA
ATOM     16  O   UNL     1       2.538   0.657   0.000  0.00  0.00    +0.000 OA
ATOM     17  O   UNL     1       3.363  -0.772   0.000  0.00  0.00    +0.000 OA
ENDBRANCH  13  14
ENDBRANCH  11  12
ENDBRANCH  10  11
ENDBRANCH   1  10
TORSDOF 5
