REMARK  Name = HFP
REMARK  11 active torsions:
REMARK  status: ('A' for Active; 'I' for Inactive)
REMARK    1  A    between atoms: P_1  and  C_5
REMARK    2  A    between atoms: C_5  and  C_7
REMARK    3  A    between atoms: C_7  and  C_8
REMARK    4  A    between atoms: C_8  and  C_10
REMARK    5  A    between atoms: C_10  and  C_11
REMARK    6  A    between atoms: C_11  and  C_12
REMARK    7  A    between atoms: C_12  and  C_13
REMARK    8  A    between atoms: C_13  and  C_15
REMARK    9  A    between atoms: C_15  and  C_16
REMARK   10  A    between atoms: C_16  and  C_17
REMARK   11  A    between atoms: C_17  and  C_18
REMARK                            x       y       z     vdW  Elec       q    Type
REMARK                         _______ _______ _______ _____ _____    ______ ____
ROOT
ATOM      1  C   UNL     1      -1.147   0.407   0.000  0.00  0.00    +0.000 C 
ENDROOT
BRANCH   1   2
ATOM      2  C   UNL     1      -1.861  -0.005   0.000  0.00  0.00    +0.000 C 
ATOM      3  C   UNL     1      -1.861  -0.830   0.000  0.00  0.00    +0.000 C 
BRANCH   2   4
ATOM      4  C   UNL     1      -2.575   0.407   0.000  0.00  0.00    +0.000 C 
BRANCH   4   5
ATOM      5  C   UNL     1      -3.290  -0.005   0.000  0.00  0.00    +0.000 C 
ATOM      6  O   UNL     1      -3.290  -0.830   0.000  0.00  0.00    +0.000 OA
BRANCH   5   7
ATOM      7  P   UNL     1      -4.004   0.407   0.000  0.00  0.00    +0.000 P 
ATOM      8  O   UNL     1      -4.719   0.820   0.000  0.00  0.00    +0.000 OA
ATOM      9  O   UNL     1      -4.417  -0.307   0.000  0.00  0.00    +0.000 OA
ATOM     10  O   UNL     1      -3.592   1.122   0.000  0.00  0.00    +0.000 OA
ENDBRANCH   5   7
ENDBRANCH   4   5
ENDBRANCH   2   4
ENDBRANCH   1   2
BRANCH   1  11
ATOM     11  C   UNL     1      -0.432  -0.005   0.000  0.00  0.00    +0.000 C 
BRANCH  11  12
ATOM     12  C   UNL     1       0.282   0.407   0.000  0.00  0.00    +0.000 C 
BRANCH  12  13
ATOM     13  C   UNL     1       0.997  -0.005   0.000  0.00  0.00    +0.000 C 
ATOM     14  C   UNL     1       0.997  -0.830   0.000  0.00  0.00    +0.000 C 
BRANCH  13  15
ATOM     15  C   UNL     1       1.711   0.407   0.000  0.00  0.00    +0.000 C 
BRANCH  15  16
ATOM     16  C   UNL     1       2.426  -0.005   0.000  0.00  0.00    +0.000 C 
BRANCH  16  17
ATOM     17  C   UNL     1       3.140   0.407   0.000  0.00  0.00    +0.000 C 
BRANCH  17  18
ATOM     18  C   UNL     1       3.855  -0.005   0.000  0.00  0.00    +0.000 C 
ATOM     19  C   UNL     1       4.569   0.407   0.000  0.00  0.00    +0.000 C 
ATOM     20  C   UNL     1       3.855  -0.830   0.000  0.00  0.00    +0.000 C 
ENDBRANCH  17  18
ENDBRANCH  16  17
ENDBRANCH  15  16
ENDBRANCH  13  15
ENDBRANCH  12  13
ENDBRANCH  11  12
ENDBRANCH   1  11
TORSDOF 11
