REMARK  Name = HHH
REMARK  2 active torsions:
REMARK  status: ('A' for Active; 'I' for Inactive)
REMARK    1  A    between atoms: C_2  and  C_4
REMARK    2  A    between atoms: C_4  and  C_6
REMARK                            x       y       z     vdW  Elec       q    Type
REMARK                         _______ _______ _______ _____ _____    ______ ____
ROOT
ATOM      1  C   UNL     1       0.047  -0.027   0.000  0.00  0.00    +0.000 A 
ATOM      2  C   UNL     1       0.047  -0.852   0.000  0.00  0.00    +0.000 A 
ATOM      3  C   UNL     1      -0.668  -1.265   0.000  0.00  0.00    +0.000 A 
ATOM      4  C   UNL     1      -0.668   0.385   0.000  0.00  0.00    +0.000 A 
ATOM      5  C   UNL     1      -1.382  -0.027   0.000  0.00  0.00    +0.000 A 
ATOM      6  C   UNL     1      -1.382  -0.852   0.000  0.00  0.00    +0.000 A 
ATOM      7  O   UNL     1      -2.097  -1.265   0.000  0.00  0.00    +0.000 OA
ENDROOT
BRANCH   1   8
ATOM      8  C   UNL     1       0.761   0.385   0.000  0.00  0.00    +0.000 C 
ATOM      9  O   UNL     1       1.476  -0.027   0.000  0.00  0.00    +0.000 OA
BRANCH   8  11
ATOM     10  O   UNL     1       1.476   1.623   0.000  0.00  0.00    +0.000 OA
ATOM     11  C   UNL     1       0.761   1.210   0.000  0.00  0.00    +0.000 C 
ATOM     12  O   UNL     1       0.047   1.623   0.000  0.00  0.00    +0.000 OA
ENDBRANCH   8  11
ENDBRANCH   1   8
TORSDOF 2
