REMARK  Name = HI5
REMARK  12 active torsions:
REMARK  status: ('A' for Active; 'I' for Inactive)
REMARK    1  A    between atoms: P_1  and  O_4
REMARK    2  A    between atoms: O_4  and  C_7
REMARK    3  A    between atoms: C_7  and  C_8
REMARK    4  A    between atoms: C_8  and  C_9
REMARK    5  A    between atoms: C_8  and  O_16
REMARK    6  A    between atoms: C_9  and  O_10
REMARK    7  A    between atoms: O_10  and  C_11
REMARK    8  A    between atoms: C_11  and  C_13
REMARK    9  A    between atoms: C_13  and  C_14
REMARK   10  A    between atoms: O_16  and  C_17
REMARK   11  A    between atoms: C_17  and  C_18
REMARK   12  A    between atoms: C_18  and  C_19
REMARK                            x       y       z     vdW  Elec       q    Type
REMARK                         _______ _______ _______ _____ _____    ______ ____
ROOT
ATOM      1  C   UNL     1       0.075   0.650   0.000  0.00  0.00    +0.000 C 
ENDROOT
BRANCH   1   2
ATOM      2  C   UNL     1       0.075  -0.175   0.000  0.00  0.00    +0.000 C 
BRANCH   2   3
ATOM      3  O   UNL     1       0.790  -0.587   0.000  0.00  0.00    +0.000 OA
BRANCH   3   4
ATOM      4  P   UNL     1       0.790  -1.412   0.000  0.00  0.00    +0.000 P 
ATOM      5  O   UNL     1       1.274  -2.080   0.000  0.00  0.00    +0.000 OA
ATOM      6  O   UNL     1       1.574  -1.157   0.000  0.00  0.00    +0.000 OA
ATOM      7  O   UNL     1       0.305  -2.080   0.000  0.00  0.00    +0.000 OA
ATOM      8  O   UNL     1       0.005  -1.157   0.000  0.00  0.00    +0.000 OA
ENDBRANCH   3   4
ENDBRANCH   2   3
ENDBRANCH   1   2
BRANCH   1   9
ATOM      9  C   UNL     1      -0.639   1.063   0.000  0.00  0.00    +0.000 C 
BRANCH   9  10
ATOM     10  O   UNL     1      -1.354   0.650   0.000  0.00  0.00    +0.000 OA
BRANCH  10  11
ATOM     11  C   UNL     1      -2.068   1.063   0.000  0.00  0.00    +0.000 C 
ATOM     12  O   UNL     1      -2.068   1.888   0.000  0.00  0.00    +0.000 OA
BRANCH  11  13
ATOM     13  C   UNL     1      -2.783   0.650   0.000  0.00  0.00    +0.000 C 
BRANCH  13  14
ATOM     14  C   UNL     1      -3.497   1.063   0.000  0.00  0.00    +0.000 C 
ATOM     15  C   UNL     1      -4.212   0.650   0.000  0.00  0.00    +0.000 C 
ENDBRANCH  13  14
ENDBRANCH  11  13
ENDBRANCH  10  11
ENDBRANCH   9  10
ENDBRANCH   1   9
BRANCH   1  16
ATOM     16  O   UNL     1       0.790   1.063   0.000  0.00  0.00    +0.000 OA
BRANCH  16  17
ATOM     17  C   UNL     1       1.504   0.650   0.000  0.00  0.00    +0.000 C 
ATOM     18  O   UNL     1       1.504  -0.175   0.000  0.00  0.00    +0.000 OA
BRANCH  17  19
ATOM     19  C   UNL     1       2.219   1.063   0.000  0.00  0.00    +0.000 C 
BRANCH  19  20
ATOM     20  C   UNL     1       2.933   0.650   0.000  0.00  0.00    +0.000 C 
ATOM     21  C   UNL     1       3.647   1.063   0.000  0.00  0.00    +0.000 C 
ENDBRANCH  19  20
ENDBRANCH  17  19
ENDBRANCH  16  17
ENDBRANCH   1  16
TORSDOF 12
