REMARK  Name = HII
REMARK  3 active torsions:
REMARK  status: ('A' for Active; 'I' for Inactive)
REMARK    1  A    between atoms: C_1  and  C_3
REMARK    2  A    between atoms: C_3  and  C_5
REMARK    3  A    between atoms: C_5  and  C_6
REMARK                            x       y       z     vdW  Elec       q    Type
REMARK                         _______ _______ _______ _____ _____    ______ ____
ROOT
ATOM      1  C   UNL     1       0.169   0.506   0.000  0.00  0.00    +0.000 A 
ATOM      2  C   UNL     1      -0.656   0.506   0.000  0.00  0.00    +0.000 A 
ATOM      3  S   UNL     1      -0.911   1.291   0.000  0.00  0.00    +0.000 S 
ATOM      4  C   UNL     1      -0.243   1.776   0.000  0.00  0.00    +0.000 A 
ATOM      5  N   UNL     1       0.424   1.291   0.000  0.00  0.00    +0.000 NA
ATOM      6  N   UNL     1      -0.243   2.601   0.000  0.00  0.00    +0.000 NA
ENDROOT
BRANCH   1   7
ATOM      7  C   UNL     1       0.654  -0.161   0.000  0.00  0.00    +0.000 C 
BRANCH   7   8
ATOM      8  C   UNL     1       0.318  -0.915   0.000  0.00  0.00    +0.000 C 
ATOM      9  C   UNL     1      -0.502  -1.001   0.000  0.00  0.00    +0.000 C 
BRANCH   8  10
ATOM     10  C   UNL     1       0.803  -1.582   0.000  0.00  0.00    +0.000 C 
ATOM     11  O   UNL     1       0.468  -2.336   0.000  0.00  0.00    +0.000 OA
ENDBRANCH   8  10
ENDBRANCH   7   8
ENDBRANCH   1   7
TORSDOF 3
