REMARK  Name = HIN
REMARK  8 active torsions:
REMARK  status: ('A' for Active; 'I' for Inactive)
REMARK    1  A    between atoms: C_1  and  C_2
REMARK    2  A    between atoms: C_2  and  C_3
REMARK    3  A    between atoms: C_3  and  C_4
REMARK    4  A    between atoms: C_4  and  N_5
REMARK    5  A    between atoms: C_4  and  C_12
REMARK    6  A    between atoms: C_6  and  C_7
REMARK    7  A    between atoms: C_7  and  N_8
REMARK    8  A    between atoms: C_12  and  C_13
REMARK                            x       y       z     vdW  Elec       q    Type
REMARK                         _______ _______ _______ _____ _____    ______ ____
ROOT
ATOM      1  C   UNL     1      -0.310  -1.090   0.000  0.00  0.00    +0.000 C 
ENDROOT
BRANCH   1   2
ATOM      2  N   UNL     1       0.500  -0.934   0.000  0.00  0.00    +0.000 NA
ATOM      3  C   UNL     1       0.770  -0.155   0.000  0.00  0.00    +0.000 C 
ATOM      4  O   UNL     1       0.230   0.469   0.000  0.00  0.00    +0.000 OA
BRANCH   3   5
ATOM      5  C   UNL     1       1.580   0.001   0.000  0.00  0.00    +0.000 C 
ATOM      6  C   UNL     1       2.120  -0.622   0.000  0.00  0.00    +0.000 C 
BRANCH   5   7
ATOM      7  N   UNL     1       1.850   0.781   0.000  0.00  0.00    +0.000 NA
ATOM      8  C   UNL     1       2.660   0.937   0.000  0.00  0.00    +0.000 C 
ATOM      9  C   UNL     1       2.930   1.716   0.000  0.00  0.00    +0.000 C 
ATOM     10  O   UNL     1       3.201   0.313   0.000  0.00  0.00    +0.000 OA
ENDBRANCH   5   7
ENDBRANCH   3   5
ENDBRANCH   1   2
BRANCH   1  11
ATOM     11  C   UNL     1      -0.850  -0.467   0.000  0.00  0.00    +0.000 C 
ATOM     12  O   UNL     1      -1.660  -0.622   0.000  0.00  0.00    +0.000 OA
BRANCH  11  13
ATOM     13  C   UNL     1      -0.580   0.313   0.000  0.00  0.00    +0.000 C 
BRANCH  13  14
ATOM     14  C   UNL     1      -1.120   0.937   0.000  0.00  0.00    +0.000 C 
ATOM     15 CL   UNL     1      -0.850   1.716   0.000  0.00  0.00    +0.000 Cl
ENDBRANCH  13  14
ENDBRANCH  11  13
ENDBRANCH   1  11
BRANCH   1  16
ATOM     16  C   UNL     1      -0.580  -1.870   0.000  0.00  0.00    +0.000 C 
BRANCH  16  17
ATOM     17  C   UNL     1      -1.390  -2.026   0.000  0.00  0.00    +0.000 A 
ATOM     18  C   UNL     1      -1.660  -2.805   0.000  0.00  0.00    +0.000 A 
ATOM     19  C   UNL     1      -2.470  -2.961   0.000  0.00  0.00    +0.000 A 
ATOM     20  C   UNL     1      -3.010  -2.337   0.000  0.00  0.00    +0.000 A 
ATOM     21  C   UNL     1      -2.740  -1.558   0.000  0.00  0.00    +0.000 A 
ATOM     22  C   UNL     1      -1.930  -1.402   0.000  0.00  0.00    +0.000 A 
ENDBRANCH  16  17
ENDBRANCH   1  16
TORSDOF 8
