REMARK  Name = HLE
REMARK  5 active torsions:
REMARK  status: ('A' for Active; 'I' for Inactive)
REMARK    1  A    between atoms: C_3  and  C_4
REMARK    2  A    between atoms: C_3  and  C_8
REMARK    3  A    between atoms: C_3  and  C_10
REMARK    4  A    between atoms: C_4  and  C_5
REMARK    5  A    between atoms: C_10  and  C_12
REMARK                            x       y       z     vdW  Elec       q    Type
REMARK                         _______ _______ _______ _____ _____    ______ ____
ROOT
ATOM      1  C   UNL     1      -0.121   0.032   0.000  0.00  0.00    +0.000 C 
ENDROOT
BRANCH   1   2
ATOM      2  C   UNL     1      -0.121  -0.793   0.000  0.00  0.00    +0.000 C 
ATOM      3  O   UNL     1      -0.836  -1.205   0.000  0.00  0.00    +0.000 OA
ENDBRANCH   1   2
BRANCH   1   4
ATOM      4  C   UNL     1      -0.836   0.445   0.000  0.00  0.00    +0.000 C 
ATOM      5  O   UNL     1      -0.836   1.270   0.000  0.00  0.00    +0.000 OA
BRANCH   4   8
ATOM      6  N   UNL     1      -2.265   0.445   0.000  0.00  0.00    +0.000 NA
ATOM      7  O   UNL     1      -2.979   0.032   0.000  0.00  0.00    +0.000 OA
ATOM      8  C   UNL     1      -1.550   0.032   0.000  0.00  0.00    +0.000 C 
ATOM      9  O   UNL     1      -1.550  -0.793   0.000  0.00  0.00    +0.000 OA
ENDBRANCH   4   8
ENDBRANCH   1   4
BRANCH   1  10
ATOM     10  C   UNL     1       0.593   0.445   0.000  0.00  0.00    +0.000 C 
BRANCH  10  11
ATOM     11  C   UNL     1       1.308   0.032   0.000  0.00  0.00    +0.000 C 
ATOM     12  C   UNL     1       2.022   0.445   0.000  0.00  0.00    +0.000 C 
ATOM     13  C   UNL     1       1.308  -0.793   0.000  0.00  0.00    +0.000 C 
ENDBRANCH  10  11
ENDBRANCH   1  10
TORSDOF 5
