REMARK  Name = HM2
REMARK  4 active torsions:
REMARK  status: ('A' for Active; 'I' for Inactive)
REMARK    1  A    between atoms: N_4  and  C_14
REMARK    2  A    between atoms: C_9  and  C_10
REMARK    3  A    between atoms: C_14  and  C_15
REMARK    4  A    between atoms: C_15  and  C_16
REMARK                            x       y       z     vdW  Elec       q    Type
REMARK                         _______ _______ _______ _____ _____    ______ ____
ROOT
ATOM      1  N   UNL     1      -0.556  -0.491   0.000  0.00  0.00    +0.000 NA
ATOM      2  N   UNL     1      -1.270  -1.728   0.000  0.00  0.00    +0.000 NA
ATOM      3  N   UNL     1      -1.270   0.747   0.000  0.00  0.00    +0.000 NA
ATOM      4  C   UNL     1      -0.556  -1.316   0.000  0.00  0.00    +0.000 A 
ATOM      5  C   UNL     1      -1.270  -0.079   0.000  0.00  0.00    +0.000 A 
ATOM      6  C   UNL     1      -1.985  -1.316   0.000  0.00  0.00    +0.000 A 
ATOM      7  C   UNL     1      -1.985  -0.491   0.000  0.00  0.00    +0.000 A 
ATOM      8  C   UNL     1      -2.699  -1.728   0.000  0.00  0.00    +0.000 C 
ATOM      9 CL   UNL     1      -2.699  -0.079   0.000  0.00  0.00    +0.000 Cl
ENDROOT
BRANCH   4  15
ATOM     10  N   UNL     1       0.873  -1.316   0.000  0.00  0.00    +0.000 NA
ATOM     11  C   UNL     1       1.588  -1.728   0.000  0.00  0.00    +0.000 A 
ATOM     12  C   UNL     1       1.588  -2.554   0.000  0.00  0.00    +0.000 A 
ATOM     13  C   UNL     1       0.873  -2.966   0.000  0.00  0.00    +0.000 A 
ATOM     14  C   UNL     1       0.159  -2.554   0.000  0.00  0.00    +0.000 A 
ATOM     15  C   UNL     1       0.159  -1.728   0.000  0.00  0.00    +0.000 A 
ENDBRANCH   4  15
BRANCH   3  16
ATOM     16  C   UNL     1      -0.556   1.159   0.000  0.00  0.00    +0.000 C 
BRANCH  16  17
ATOM     17  C   UNL     1      -0.556   1.984   0.000  0.00  0.00    +0.000 C 
BRANCH  17  18
ATOM     18  C   UNL     1       0.159   2.397   0.000  0.00  0.00    +0.000 A 
ATOM     19  C   UNL     1       0.159   3.221   0.000  0.00  0.00    +0.000 A 
ATOM     20  C   UNL     1       0.873   3.634   0.000  0.00  0.00    +0.000 A 
ATOM     21  C   UNL     1       1.588   3.221   0.000  0.00  0.00    +0.000 A 
ATOM     22  C   UNL     1       1.588   2.397   0.000  0.00  0.00    +0.000 A 
ATOM     23  C   UNL     1       0.873   1.984   0.000  0.00  0.00    +0.000 A 
ENDBRANCH  17  18
ENDBRANCH  16  17
ENDBRANCH   3  16
TORSDOF 4
