REMARK  Name = HM4
REMARK  4 active torsions:
REMARK  status: ('A' for Active; 'I' for Inactive)
REMARK    1  A    between atoms: N_5  and  C_14
REMARK    2  A    between atoms: C_9  and  C_10
REMARK    3  A    between atoms: C_15  and  O_22
REMARK    4  A    between atoms: C_16  and  O_22
REMARK                            x       y       z     vdW  Elec       q    Type
REMARK                         _______ _______ _______ _____ _____    ______ ____
ROOT
ATOM      1  N   UNL     1      -2.388  -0.712   0.000  0.00  0.00    +0.000 NA
ATOM      2  C   UNL     1      -1.674  -1.124   0.000  0.00  0.00    +0.000 A 
ATOM      3  C   UNL     1      -2.388   0.113   0.000  0.00  0.00    +0.000 A 
ATOM      4  C   UNL     1      -1.674   0.526   0.000  0.00  0.00    +0.000 A 
ATOM      5  C   UNL     1      -0.959   0.113   0.000  0.00  0.00    +0.000 A 
ATOM      6  C   UNL     1      -0.959  -0.712   0.000  0.00  0.00    +0.000 A 
ENDROOT
BRANCH   2  13
ATOM      7  S   UNL     1      -3.856  -2.285   0.000  0.00  0.00    +0.000 S 
ATOM      8  N   UNL     1      -3.189  -1.129   0.000  0.00  0.00    +0.000 NA
ATOM      9  N   UNL     1      -2.388  -2.362   0.000  0.00  0.00    +0.000 NA
ATOM     10  C   UNL     1      -4.409  -1.672   0.000  0.00  0.00    +0.000 A 
ATOM     11  C   UNL     1      -3.996  -0.957   0.000  0.00  0.00    +0.000 A 
ATOM     12  C   UNL     1      -3.103  -1.949   0.000  0.00  0.00    +0.000 A 
ATOM     13  C   UNL     1      -1.674  -1.949   0.000  0.00  0.00    +0.000 C 
ATOM     14  O   UNL     1      -0.959  -2.362   0.000  0.00  0.00    +0.000 OA
ENDBRANCH   2  13
BRANCH   6  15
ATOM     15  N   UNL     1      -0.245  -1.124   0.000  0.00  0.00    +0.000 NA
ATOM     16  C   UNL     1       0.470  -0.712   0.000  0.00  0.00    +0.000 C 
ATOM     17  O   UNL     1       0.470   0.113   0.000  0.00  0.00    +0.000 OA
BRANCH  16  18
ATOM     18  O   UNL     1       1.184  -1.124   0.000  0.00  0.00    +0.000 OA
BRANCH  18  19
ATOM     19  C   UNL     1       1.899  -0.712   0.000  0.00  0.00    +0.000 C 
ATOM     20  C   UNL     1       2.613  -0.299   0.000  0.00  0.00    +0.000 C 
ATOM     21  C   UNL     1       2.311  -1.426   0.000  0.00  0.00    +0.000 C 
ATOM     22  C   UNL     1       1.486   0.003   0.000  0.00  0.00    +0.000 C 
ENDBRANCH  18  19
ENDBRANCH  16  18
ENDBRANCH   6  15
TORSDOF 4
