REMARK  Name = HM5
REMARK  3 active torsions:
REMARK  status: ('A' for Active; 'I' for Inactive)
REMARK    1  A    between atoms: N_5  and  C_14
REMARK    2  A    between atoms: C_9  and  C_10
REMARK    3  A    between atoms: C_15  and  C_16
REMARK                            x       y       z     vdW  Elec       q    Type
REMARK                         _______ _______ _______ _____ _____    ______ ____
ROOT
ATOM      1  N   UNL     1       2.941  -0.365   0.000  0.00  0.00    +0.000 NA
ATOM      2  C   UNL     1       2.605   0.389   0.000  0.00  0.00    +0.000 A 
ATOM      3  C   UNL     1       2.456  -1.032   0.000  0.00  0.00    +0.000 A 
ATOM      4  C   UNL     1       1.635  -0.946   0.000  0.00  0.00    +0.000 A 
ATOM      5  C   UNL     1       1.300  -0.192   0.000  0.00  0.00    +0.000 A 
ATOM      6  C   UNL     1       1.785   0.475   0.000  0.00  0.00    +0.000 A 
ENDROOT
BRANCH   2  13
ATOM      7  S   UNL     1       2.985   3.262   0.000  0.00  0.00    +0.000 S 
ATOM      8  N   UNL     1       4.064   2.478   0.000  0.00  0.00    +0.000 NA
ATOM      9  N   UNL     1       2.755   1.810   0.000  0.00  0.00    +0.000 NA
ATOM     10  C   UNL     1       3.652   3.747   0.000  0.00  0.00    +0.000 A 
ATOM     11  C   UNL     1       4.319   3.262   0.000  0.00  0.00    +0.000 A 
ATOM     12  C   UNL     1       3.239   2.478   0.000  0.00  0.00    +0.000 A 
ATOM     13  C   UNL     1       3.090   1.056   0.000  0.00  0.00    +0.000 C 
ATOM     14  O   UNL     1       3.910   0.970   0.000  0.00  0.00    +0.000 OA
ENDBRANCH   2  13
BRANCH   6  15
ATOM     15  N   UNL     1       1.449   1.229   0.000  0.00  0.00    +0.000 NA
ATOM     16  C   UNL     1       0.629   1.315   0.000  0.00  0.00    +0.000 C 
ATOM     17  O   UNL     1       0.293   2.069   0.000  0.00  0.00    +0.000 OA
BRANCH  16  18
ATOM     18  C   UNL     1       0.144   0.648   0.000  0.00  0.00    +0.000 C 
ATOM     19  C   UNL     1      -0.341  -0.020   0.000  0.00  0.00    +0.000 C 
ATOM     20  C   UNL     1      -0.524   1.133   0.000  0.00  0.00    +0.000 C 
ATOM     21  C   UNL     1       0.811   0.163   0.000  0.00  0.00    +0.000 C 
ENDBRANCH  16  18
ENDBRANCH   6  15
TORSDOF 3
