REMARK  Name = HMDB01062.mol
REMARK  4 active torsions:
REMARK  status: ('A' for Active; 'I' for Inactive)
REMARK    1  A    between atoms: C_3  and  C_9
REMARK    2  A    between atoms: C_6  and  N_7
REMARK    3  A    between atoms: C_9  and  O_15
REMARK    4  A    between atoms: O_15  and  P_16
REMARK                            x       y       z     vdW  Elec       q    Type
REMARK                         _______ _______ _______ _____ _____    ______ ____
ROOT
ATOM      1  C   UNL     1      -0.770   0.826   0.000  0.00  0.00    +0.000 C 
ATOM      2  C   UNL     1      -0.770  -0.001   0.000  0.00  0.00    +0.000 C 
ATOM      3  C   UNL     1      -0.054  -0.415   0.000  0.00  0.00    +0.000 C 
ATOM      4  O   UNL     1       0.664  -0.003   0.000  0.00  0.00    +0.000 OA
ATOM      5  C   UNL     1       0.663   0.826   0.000  0.00  0.00    +0.000 C 
ATOM      6  C   UNL     1      -0.053   1.240   0.000  0.00  0.00    +0.000 C 
ATOM      7  O   UNL     1      -1.484  -0.414   0.000  0.00  0.00    +0.000 OA
ATOM      8  O   UNL     1      -1.484   1.239   0.000  0.00  0.00    +0.000 OA
ATOM      9  O   UNL     1       1.377   1.239   0.000  0.00  0.00    +0.000 OA
ENDROOT
BRANCH   6  10
ATOM     10  N   UNL     1      -0.053   2.065   0.000  0.00  0.00    +0.000 NA
ATOM     11  C   UNL     1       0.661   2.477   0.000  0.00  0.00    +0.000 C 
ATOM     12  C   UNL     1       1.375   2.065   0.000  0.00  0.00    +0.000 C 
ATOM     13  O   UNL     1       0.661   3.302   0.000  0.00  0.00    +0.000 OA
ENDBRANCH   6  10
BRANCH   3  14
ATOM     14  C   UNL     1      -0.054  -1.240   0.000  0.00  0.00    +0.000 C 
BRANCH  14  15
ATOM     15  O   UNL     1       0.660  -1.652   0.000  0.00  0.00    +0.000 OA
BRANCH  15  16
ATOM     16  P   UNL     1       0.660  -2.477   0.000  0.00  0.00    +0.000 P 
ATOM     17  O   UNL     1       0.660  -3.302   0.000  0.00  0.00    +0.000 OA
ATOM     18  O   UNL     1       1.484  -2.477   0.000  0.00  0.00    +0.000 OA
ATOM     19  O   UNL     1      -0.165  -2.477   0.000  0.00  0.00    +0.000 OA
ENDBRANCH  15  16
ENDBRANCH  14  15
ENDBRANCH   3  14
TORSDOF 4
