REMARK  Name = HMDB02269.mol
REMARK  8 active torsions:
REMARK  status: ('A' for Active; 'I' for Inactive)
REMARK    1  A    between atoms: C_3  and  O_8
REMARK    2  A    between atoms: C_5  and  C_9
REMARK    3  A    between atoms: C_10  and  C_11
REMARK    4  A    between atoms: C_11  and  C_12
REMARK    5  A    between atoms: C_12  and  C_14
REMARK    6  A    between atoms: C_14  and  C_15
REMARK    7  A    between atoms: C_17  and  C_18
REMARK    8  A    between atoms: C_20  and  O_24
REMARK                            x       y       z     vdW  Elec       q    Type
REMARK                         _______ _______ _______ _____ _____    ______ ____
ROOT
ATOM      1  C   UNL     1       0.000   0.620   0.000  0.00  0.00    +0.000 C 
ENDROOT
BRANCH   1   2
ATOM      2  C   UNL     1      -0.714   1.032   0.000  0.00  0.00    +0.000 C 
ATOM      3  O   UNL     1      -0.714   1.859   0.000  0.00  0.00    +0.000 OA
BRANCH   2   5
ATOM      4  C   UNL     1      -2.145   1.032   0.000  0.00  0.00    +0.000 C 
ATOM      5  C   UNL     1      -1.431   0.620   0.000  0.00  0.00    +0.000 C 
BRANCH   4  10
ATOM      6  C   UNL     1      -4.291   0.620   0.000  0.00  0.00    +0.000 A 
ATOM      7  C   UNL     1      -4.291  -0.206   0.000  0.00  0.00    +0.000 A 
ATOM      8  C   UNL     1      -3.577  -0.620   0.000  0.00  0.00    +0.000 A 
ATOM      9  C   UNL     1      -2.862  -0.206   0.000  0.00  0.00    +0.000 A 
ATOM     10  C   UNL     1      -2.862   0.620   0.000  0.00  0.00    +0.000 A 
ATOM     11  C   UNL     1      -3.577   1.032   0.000  0.00  0.00    +0.000 A 
ATOM     12  O   UNL     1      -5.005  -0.620   0.000  0.00  0.00    +0.000 OA
BRANCH   8  13
ATOM     13  O   UNL     1      -3.577  -1.446   0.000  0.00  0.00    +0.000 OA
ATOM     14  C   UNL     1      -4.291  -1.859   0.000  0.00  0.00    +0.000 C 
ENDBRANCH   8  13
ENDBRANCH   4  10
ENDBRANCH   2   5
ENDBRANCH   1   2
BRANCH   1  15
ATOM     15  C   UNL     1       0.717   1.032   0.000  0.00  0.00    +0.000 C 
ATOM     16  O   UNL     1       0.717   1.859   0.000  0.00  0.00    +0.000 OA
BRANCH  15  17
ATOM     17  C   UNL     1       1.431   0.620   0.000  0.00  0.00    +0.000 C 
ATOM     18  C   UNL     1       2.148   1.032   0.000  0.00  0.00    +0.000 C 
BRANCH  18  19
ATOM     19  C   UNL     1       2.865   0.620   0.000  0.00  0.00    +0.000 A 
ATOM     20  C   UNL     1       2.865  -0.206   0.000  0.00  0.00    +0.000 A 
ATOM     21  C   UNL     1       3.579  -0.620   0.000  0.00  0.00    +0.000 A 
ATOM     22  C   UNL     1       4.291  -0.206   0.000  0.00  0.00    +0.000 A 
ATOM     23  C   UNL     1       4.291   0.620   0.000  0.00  0.00    +0.000 A 
ATOM     24  C   UNL     1       3.579   1.032   0.000  0.00  0.00    +0.000 A 
ATOM     25  O   UNL     1       5.008  -0.620   0.000  0.00  0.00    +0.000 OA
BRANCH  21  26
ATOM     26  O   UNL     1       3.579  -1.446   0.000  0.00  0.00    +0.000 OA
ATOM     27  C   UNL     1       4.294  -1.859   0.000  0.00  0.00    +0.000 C 
ENDBRANCH  21  26
ENDBRANCH  18  19
ENDBRANCH  15  17
ENDBRANCH   1  15
TORSDOF 8
