REMARK  Name = HMDB03818.mol
REMARK  0 active torsions:
REMARK  status: ('A' for Active; 'I' for Inactive)
REMARK                            x       y       z     vdW  Elec       q    Type
REMARK                         _______ _______ _______ _____ _____    ______ ____
ROOT
ATOM      1  C   UNL     1      -2.064  -0.520   0.000  0.00  0.00    +0.000 C 
ATOM      2  C   UNL     1      -2.064  -1.345   0.000  0.00  0.00    +0.000 C 
ATOM      3  C   UNL     1      -1.349  -1.757   0.000  0.00  0.00    +0.000 C 
ATOM      4  C   UNL     1      -0.635  -1.345   0.000  0.00  0.00    +0.000 C 
ATOM      5  C   UNL     1      -0.635  -0.520   0.000  0.00  0.00    +0.000 C 
ATOM      6  C   UNL     1      -1.349  -0.107   0.000  0.00  0.00    +0.000 C 
ATOM      7  C   UNL     1       0.080  -1.757   0.000  0.00  0.00    +0.000 C 
ATOM      8  C   UNL     1       0.794  -1.345   0.000  0.00  0.00    +0.000 C 
ATOM      9  C   UNL     1       0.794  -0.520   0.000  0.00  0.00    +0.000 C 
ATOM     10  C   UNL     1       0.080  -0.107   0.000  0.00  0.00    +0.000 C 
ATOM     11  C   UNL     1       1.509  -0.107   0.000  0.00  0.00    +0.000 C 
ATOM     12  C   UNL     1       1.509   0.718   0.000  0.00  0.00    +0.000 C 
ATOM     13  C   UNL     1       0.794   1.130   0.000  0.00  0.00    +0.000 C 
ATOM     14  C   UNL     1       0.080   0.718   0.000  0.00  0.00    +0.000 C 
ATOM     15  C   UNL     1       2.293  -0.362   0.000  0.00  0.00    +0.000 C 
ATOM     16  C   UNL     1       2.778   0.305   0.000  0.00  0.00    +0.000 C 
ATOM     17  C   UNL     1       2.293   0.973   0.000  0.00  0.00    +0.000 C 
ATOM     18  C   UNL     1      -0.635   0.305   0.000  0.00  0.00    +0.000 C 
ATOM     19  O   UNL     1      -2.778  -1.757   0.000  0.00  0.00    +0.000 OA
ATOM     20  C   UNL     1       1.595   1.538   0.000  0.00  0.00    +0.000 C 
ATOM     21  O   UNL     1       2.548   1.757   0.000  0.00  0.00    +0.000 OA
ENDROOT
TORSDOF 0
