REMARK  Name = HMDB02124.mol
REMARK  1 active torsions:
REMARK  status: ('A' for Active; 'I' for Inactive)
REMARK    1  A    between atoms: C_9  and  C_12
REMARK                            x       y       z     vdW  Elec       q    Type
REMARK                         _______ _______ _______ _____ _____    ______ ____
ROOT
ATOM      1  C   UNL     1      -2.499   0.206   0.000  0.00  0.00    +0.000 A 
ATOM      2  C   UNL     1      -2.499  -0.619   0.000  0.00  0.00    +0.000 A 
ATOM      3  C   UNL     1      -1.785  -1.032   0.000  0.00  0.00    +0.000 A 
ATOM      4  C   UNL     1      -1.072  -0.619   0.000  0.00  0.00    +0.000 A 
ATOM      5  C   UNL     1      -1.072   0.206   0.000  0.00  0.00    +0.000 A 
ATOM      6  C   UNL     1      -1.785   0.618   0.000  0.00  0.00    +0.000 A 
ATOM      7  C   UNL     1      -0.358  -1.032   0.000  0.00  0.00    +0.000 A 
ATOM      8  C   UNL     1       0.355  -0.619   0.000  0.00  0.00    +0.000 A 
ATOM      9  C   UNL     1       0.355   0.206   0.000  0.00  0.00    +0.000 A 
ATOM     10  O   UNL     1      -0.358   0.618   0.000  0.00  0.00    +0.000 OA
ATOM     11  O   UNL     1      -0.358  -1.858   0.000  0.00  0.00    +0.000 OA
ATOM     12  O   UNL     1      -1.785  -1.858   0.000  0.00  0.00    +0.000 OA
ATOM     13  O   UNL     1      -3.213   0.619   0.000  0.00  0.00    +0.000 OA
ENDROOT
BRANCH   9  14
ATOM     14  C   UNL     1       1.071   0.619   0.000  0.00  0.00    +0.000 A 
ATOM     15  C   UNL     1       1.786   0.206   0.000  0.00  0.00    +0.000 A 
ATOM     16  C   UNL     1       2.501   0.619   0.000  0.00  0.00    +0.000 A 
ATOM     17  C   UNL     1       2.501   1.444   0.000  0.00  0.00    +0.000 A 
ATOM     18  C   UNL     1       1.786   1.855   0.000  0.00  0.00    +0.000 A 
ATOM     19  C   UNL     1       1.071   1.444   0.000  0.00  0.00    +0.000 A 
ATOM     20  O   UNL     1       3.215   1.857   0.000  0.00  0.00    +0.000 OA
ENDBRANCH   9  14
TORSDOF 1
