REMARK  Name = HNA
REMARK  1 active torsions:
REMARK  status: ('A' for Active; 'I' for Inactive)
REMARK    1  A    between atoms: C_4  and  N_19
REMARK                            x       y       z     vdW  Elec       q    Type
REMARK                         _______ _______ _______ _____ _____    ______ ____
ROOT
ATOM      1  C   UNL     1       1.511  -0.802   0.000  0.00  0.00    +0.000 A 
ATOM      2  C   UNL     1       0.796  -0.389   0.000  0.00  0.00    +0.000 A 
ATOM      3  C   UNL     1       0.796   0.436   0.000  0.00  0.00    +0.000 A 
ATOM      4  C   UNL     1       1.511   0.848   0.000  0.00  0.00    +0.000 A 
ATOM      5  C   UNL     1       2.225   0.436   0.000  0.00  0.00    +0.000 A 
ATOM      6  C   UNL     1       2.225  -0.389   0.000  0.00  0.00    +0.000 A 
ATOM      7  C   UNL     1       0.082   0.848   0.000  0.00  0.00    +0.000 C 
ATOM      8  C   UNL     1      -0.633   0.436   0.000  0.00  0.00    +0.000 A 
ATOM      9  C   UNL     1      -0.633  -0.389   0.000  0.00  0.00    +0.000 A 
ATOM     10  C   UNL     1       0.082  -0.802   0.000  0.00  0.00    +0.000 C 
ATOM     11  C   UNL     1      -1.347  -0.802   0.000  0.00  0.00    +0.000 A 
ATOM     12  C   UNL     1      -2.062  -0.389   0.000  0.00  0.00    +0.000 A 
ATOM     13  C   UNL     1      -2.062   0.436   0.000  0.00  0.00    +0.000 A 
ATOM     14  C   UNL     1      -1.347   0.848   0.000  0.00  0.00    +0.000 A 
ATOM     15  O   UNL     1       0.082  -1.627   0.000  0.00  0.00    +0.000 OA
ATOM     16  O   UNL     1       0.082   1.673   0.000  0.00  0.00    +0.000 OA
ATOM     17  O   UNL     1       1.511  -1.627   0.000  0.00  0.00    +0.000 OA
ATOM     18  O   UNL     1      -1.347  -1.627   0.000  0.00  0.00    +0.000 OA
ENDROOT
BRANCH   4  19
ATOM     19  N   UNL     1       1.511   1.673   0.000  0.00  0.00    +0.000 N 
ATOM     20  O   UNL     1       0.796   2.086   0.000  0.00  0.00    +0.000 OA
ATOM     21  O   UNL     1       2.225   2.086   0.000  0.00  0.00    +0.000 OA
ENDBRANCH   4  19
TORSDOF 1
