REMARK  Name = HNT
REMARK  2 active torsions:
REMARK  status: ('A' for Active; 'I' for Inactive)
REMARK    1  A    between atoms: CA_2  and  C_10
REMARK    2  A    between atoms: C_6  and  N_12
REMARK                            x       y       z     vdW  Elec       q    Type
REMARK                         _______ _______ _______ _____ _____    ______ ____
ROOT
ATOM      1  C   UNL     1      -0.001  -0.752   0.000  0.00  0.00    +0.000 C 
ATOM      2  CA  UNL     1      -0.715  -0.340   0.000  0.00  0.00    +0.000 C 
ATOM      3  C   UNL     1      -0.001   0.898   0.000  0.00  0.00    +0.000 C 
ATOM      4  C   UNL     1       1.428   0.898   0.000  0.00  0.00    +0.000 A 
ATOM      5  C   UNL     1       2.143   0.485   0.000  0.00  0.00    +0.000 A 
ATOM      6  C   UNL     1       2.143  -0.340   0.000  0.00  0.00    +0.000 A 
ATOM      7  C   UNL     1       1.428  -0.752   0.000  0.00  0.00    +0.000 A 
ATOM      8  C   UNL     1       0.714  -0.340   0.000  0.00  0.00    +0.000 A 
ATOM      9  C   UNL     1       0.714   0.485   0.000  0.00  0.00    +0.000 A 
ATOM     10  N   UNL     1      -0.715   0.485   0.000  0.00  0.00    +0.000 NA
ENDROOT
BRANCH   5  12
ATOM     11  O   UNL     1       2.857   1.723   0.000  0.00  0.00    +0.000 OA
ATOM     12  N   UNL     1       2.857   0.898   0.000  0.00  0.00    +0.000 N 
ATOM     13  O   UNL     1       3.571   0.485   0.000  0.00  0.00    +0.000 OA
ENDBRANCH   5  12
BRANCH   2  15
ATOM     14  O   UNL     1      -1.430  -1.577   0.000  0.00  0.00    +0.000 OA
ATOM     15  C   UNL     1      -1.430  -0.752   0.000  0.00  0.00    +0.000 C 
ENDBRANCH   2  15
TORSDOF 2
