REMARK  Name = HOM
REMARK  2 active torsions:
REMARK  status: ('A' for Active; 'I' for Inactive)
REMARK    1  A    between atoms: C_1  and  C_10
REMARK    2  A    between atoms: C_10  and  C_11
REMARK                            x       y       z     vdW  Elec       q    Type
REMARK                         _______ _______ _______ _____ _____    ______ ____
ROOT
ATOM      1  C   UNL     1      -0.497  -0.059   0.000  0.00  0.00    +0.000 A 
ATOM      2  C   UNL     1      -0.497   0.766   0.000  0.00  0.00    +0.000 A 
ATOM      3  C   UNL     1       0.932   0.766   0.000  0.00  0.00    +0.000 A 
ATOM      4  C   UNL     1       1.647   1.179   0.000  0.00  0.00    +0.000 A 
ATOM      5  C   UNL     1       2.361   0.766   0.000  0.00  0.00    +0.000 A 
ATOM      6  C   UNL     1       2.361  -0.059   0.000  0.00  0.00    +0.000 A 
ATOM      7  C   UNL     1       1.647  -0.471   0.000  0.00  0.00    +0.000 A 
ATOM      8  C   UNL     1       0.932  -0.059   0.000  0.00  0.00    +0.000 A 
ATOM      9  C   UNL     1       0.218  -0.471   0.000  0.00  0.00    +0.000 A 
ATOM     10  C   UNL     1       0.218  -1.296   0.000  0.00  0.00    +0.000 C 
ATOM     11  O   UNL     1      -1.211   1.179   0.000  0.00  0.00    +0.000 OA
ATOM     12  O   UNL     1       0.218   1.179   0.000  0.00  0.00    +0.000 OA
ATOM     13  O   UNL     1       3.075   1.179   0.000  0.00  0.00    +0.000 OA
ENDROOT
BRANCH   1  14
ATOM     14  C   UNL     1      -1.211  -0.471   0.000  0.00  0.00    +0.000 C 
BRANCH  14  15
ATOM     15  C   UNL     1      -1.926  -0.059   0.000  0.00  0.00    +0.000 C 
ATOM     16  O   UNL     1      -2.640  -0.471   0.000  0.00  0.00    +0.000 OA
ENDBRANCH  14  15
ENDBRANCH   1  14
TORSDOF 2
