REMARK  Name = HOP
REMARK  7 active torsions:
REMARK  status: ('A' for Active; 'I' for Inactive)
REMARK    1  A    between atoms: C_5  and  C_7
REMARK    2  A    between atoms: C_10  and  C_13
REMARK    3  A    between atoms: C_16  and  C_20
REMARK    4  A    between atoms: N_22  and  C_23
REMARK    5  A    between atoms: C_23  and  C_24
REMARK    6  A    between atoms: C_24  and  C_25
REMARK    7  A    between atoms: C_25  and  C_26
REMARK                            x       y       z     vdW  Elec       q    Type
REMARK                         _______ _______ _______ _____ _____    ______ ____
ROOT
ATOM      1  C   UNL     1      -0.221   0.219   0.000  0.00  0.00    +0.000 A 
ATOM      2  C   UNL     1      -0.221   1.044   0.000  0.00  0.00    +0.000 A 
ATOM      3  C   UNL     1       0.493   1.456   0.000  0.00  0.00    +0.000 A 
ATOM      4  C   UNL     1       1.208   1.044   0.000  0.00  0.00    +0.000 A 
ATOM      5  C   UNL     1       1.208   0.219   0.000  0.00  0.00    +0.000 A 
ATOM      6  C   UNL     1       0.493  -0.194   0.000  0.00  0.00    +0.000 A 
ENDROOT
BRANCH   1  10
ATOM      7  C   UNL     1      -2.364  -1.019   0.000  0.00  0.00    +0.000 C 
ATOM      8  C   UNL     1      -2.364  -0.194   0.000  0.00  0.00    +0.000 C 
ATOM      9  C   UNL     1      -1.650   0.219   0.000  0.00  0.00    +0.000 C 
ATOM     10  C   UNL     1      -0.935  -0.194   0.000  0.00  0.00    +0.000 C 
ATOM     11  C   UNL     1      -0.935  -1.019   0.000  0.00  0.00    +0.000 C 
ATOM     12  C   UNL     1      -1.650  -1.431   0.000  0.00  0.00    +0.000 C 
ATOM     13  O   UNL     1      -1.650   1.044   0.000  0.00  0.00    +0.000 OA
BRANCH   7  18
ATOM     14  C   UNL     1      -4.508  -2.256   0.000  0.00  0.00    +0.000 A 
ATOM     15  C   UNL     1      -4.508  -1.431   0.000  0.00  0.00    +0.000 A 
ATOM     16  C   UNL     1      -3.793  -2.669   0.000  0.00  0.00    +0.000 A 
ATOM     17  C   UNL     1      -3.079  -2.256   0.000  0.00  0.00    +0.000 A 
ATOM     18  C   UNL     1      -3.079  -1.431   0.000  0.00  0.00    +0.000 A 
ATOM     19  C   UNL     1      -3.793  -1.019   0.000  0.00  0.00    +0.000 A 
ENDBRANCH   7  18
ENDBRANCH   1  10
BRANCH   4  20
ATOM     20  C   UNL     1       1.922   1.456   0.000  0.00  0.00    +0.000 C 
ATOM     21  O   UNL     1       1.922   2.281   0.000  0.00  0.00    +0.000 OA
ATOM     22  N   UNL     1       2.637   1.044   0.000  0.00  0.00    +0.000 NA
BRANCH  22  23
ATOM     23  C   UNL     1       3.351   1.456   0.000  0.00  0.00    +0.000 C 
BRANCH  23  24
ATOM     24  C   UNL     1       4.066   1.044   0.000  0.00  0.00    +0.000 C 
BRANCH  24  25
ATOM     25  C   UNL     1       4.780   1.456   0.000  0.00  0.00    +0.000 C 
BRANCH  25  26
ATOM     26  C   UNL     1       5.495   1.044   0.000  0.00  0.00    +0.000 C 
ATOM     27  O   UNL     1       6.209   1.456   0.000  0.00  0.00    +0.000 OA
ATOM     28  O   UNL     1       5.495   0.219   0.000  0.00  0.00    +0.000 OA
ENDBRANCH  25  26
ENDBRANCH  24  25
ENDBRANCH  23  24
ENDBRANCH  22  23
ENDBRANCH   4  20
TORSDOF 7
