REMARK  Name = HPH
REMARK  3 active torsions:
REMARK  status: ('A' for Active; 'I' for Inactive)
REMARK    1  A    between atoms: C_1  and  CA_4
REMARK    2  A    between atoms: CA_4  and  CB_6
REMARK    3  A    between atoms: CB_6  and  CG_7
REMARK                            x       y       z     vdW  Elec       q    Type
REMARK                         _______ _______ _______ _____ _____    ______ ____
ROOT
ATOM      1  CB  PHE A   1       0.420  -0.177   0.000  0.00  0.00    +0.000 C 
ENDROOT
BRANCH   1   2
ATOM      2  CG  PHE A   1      -0.295  -0.589   0.000  0.00  0.00    +0.000 A 
ATOM      3  CD1 PHE A   1      -0.295  -1.414   0.000  0.00  0.00    +0.000 A 
ATOM      4  CD2 PHE A   1      -1.009  -0.177   0.000  0.00  0.00    +0.000 A 
ATOM      5  CE1 PHE A   1      -1.009  -1.827   0.000  0.00  0.00    +0.000 A 
ATOM      6  CE2 PHE A   1      -1.724  -0.589   0.000  0.00  0.00    +0.000 A 
ATOM      7  CZ  PHE A   1      -1.724  -1.414   0.000  0.00  0.00    +0.000 A 
ENDBRANCH   1   2
BRANCH   1   8
ATOM      8  CA  PHE A   1       0.420   0.648   0.000  0.00  0.00    +0.000 C 
ATOM      9  N   PHE A   1      -0.295   1.061   0.000  0.00  0.00    +0.000 NA
BRANCH   8  10
ATOM     10  C   PHE A   1       1.134   1.061   0.000  0.00  0.00    +0.000 C 
ATOM     11  O   PHE A   1       1.134   1.886   0.000  0.00  0.00    +0.000 OA
ATOM     12  OXT PHE A   1       1.849   0.648   0.000  0.00  0.00    +0.000 OA
ENDBRANCH   8  10
ENDBRANCH   1   8
TORSDOF 3
