REMARK  Name = HPO
REMARK  6 active torsions:
REMARK  status: ('A' for Active; 'I' for Inactive)
REMARK    1  A    between atoms: C_2  and  C_3
REMARK    2  A    between atoms: C_3  and  C_4
REMARK    3  A    between atoms: C_4  and  C_5
REMARK    4  A    between atoms: C_5  and  C_6
REMARK    5  A    between atoms: C_6  and  C_7
REMARK    6  A    between atoms: C_7  and  P_9
REMARK                            x       y       z     vdW  Elec       q    Type
REMARK                         _______ _______ _______ _____ _____    ______ ____
ROOT
ATOM      1  C   UNL     1       0.815   0.249   0.000  0.00  0.00    +0.000 C 
ATOM      2  O   UNL     1       0.815   1.074   0.000  0.00  0.00    +0.000 OA
ENDROOT
BRANCH   1   3
ATOM      3  C   UNL     1       1.529  -0.164   0.000  0.00  0.00    +0.000 C 
BRANCH   3   4
ATOM      4  P   UNL     1       2.244   0.249   0.000  0.00  0.00    +0.000 P 
ATOM      5  O   UNL     1       2.958   0.661   0.000  0.00  0.00    +0.000 OA
ATOM      6  O   UNL     1       2.656  -0.466   0.000  0.00  0.00    +0.000 OA
ATOM      7  O   UNL     1       1.831   0.963   0.000  0.00  0.00    +0.000 OA
ENDBRANCH   3   4
ENDBRANCH   1   3
BRANCH   1   8
ATOM      8  C   UNL     1       0.100  -0.164   0.000  0.00  0.00    +0.000 C 
BRANCH   8   9
ATOM      9  C   UNL     1      -0.614   0.249   0.000  0.00  0.00    +0.000 C 
BRANCH   9  10
ATOM     10  C   UNL     1      -1.329  -0.164   0.000  0.00  0.00    +0.000 C 
BRANCH  10  12
ATOM     11  C   UNL     1      -2.758  -0.164   0.000  0.00  0.00    +0.000 C 
ATOM     12  C   UNL     1      -2.043   0.249   0.000  0.00  0.00    +0.000 C 
ENDBRANCH  10  12
ENDBRANCH   9  10
ENDBRANCH   8   9
ENDBRANCH   1   8
TORSDOF 6
