REMARK  Name = HPQ
REMARK  4 active torsions:
REMARK  status: ('A' for Active; 'I' for Inactive)
REMARK    1  A    between atoms: C_2  and  C_3
REMARK    2  A    between atoms: C_2  and  C_5
REMARK    3  A    between atoms: C_5  and  C_6
REMARK    4  A    between atoms: C_6  and  C_7
REMARK                            x       y       z     vdW  Elec       q    Type
REMARK                         _______ _______ _______ _____ _____    ______ ____
ROOT
ATOM      1  C   UNL     1       2.426   0.357   0.000  0.00  0.00    +0.000 C 
ENDROOT
BRANCH   1   2
ATOM      2  C   UNL     1       3.141  -0.055   0.000  0.00  0.00    +0.000 A 
ATOM      3  C   UNL     1       3.855   0.357   0.000  0.00  0.00    +0.000 A 
ATOM      4  C   UNL     1       3.141  -0.880   0.000  0.00  0.00    +0.000 A 
ATOM      5  C   UNL     1       4.570  -0.055   0.000  0.00  0.00    +0.000 A 
ATOM      6  C   UNL     1       3.855  -1.293   0.000  0.00  0.00    +0.000 A 
ATOM      7  C   UNL     1       4.570  -0.880   0.000  0.00  0.00    +0.000 A 
ENDBRANCH   1   2
BRANCH   1   8
ATOM      8  C   UNL     1       1.712  -0.055   0.000  0.00  0.00    +0.000 C 
BRANCH   8  10
ATOM      9  N   UNL     1       0.998   1.182   0.000  0.00  0.00    +0.000 NA
ATOM     10  C   UNL     1       0.998   0.357   0.000  0.00  0.00    +0.000 C 
BRANCH  10  11
ATOM     11  C   UNL     1       0.283  -0.055   0.000  0.00  0.00    +0.000 C 
ATOM     12  O   UNL     1      -0.431   0.357   0.000  0.00  0.00    +0.000 OA
ATOM     13  C   UNL     1       0.283  -0.880   0.000  0.00  0.00    +0.000 C 
ENDBRANCH  10  11
ENDBRANCH   8  10
ENDBRANCH   1   8
TORSDOF 4
