REMARK  Name = HQC
REMARK  12 active torsions:
REMARK  status: ('A' for Active; 'I' for Inactive)
REMARK    1  A    between atoms: C_2  and  CA_3
REMARK    2  A    between atoms: CA_3  and  CB_4
REMARK    3  A    between atoms: CA_3  and  N_8
REMARK    4  A    between atoms: CB_4  and  CG_5
REMARK    5  A    between atoms: C_9  and  C_11
REMARK    6  A    between atoms: C_11  and  C_12
REMARK    7  A    between atoms: C_11  and  C_17
REMARK    8  A    between atoms: C_17  and  C_18
REMARK    9  A    between atoms: C_18  and  C_19
REMARK   10  A    between atoms: C_19  and  C_20
REMARK   11  A    between atoms: C_20  and  N_21
REMARK   12  A    between atoms: C_22  and  C_24
REMARK                            x       y       z     vdW  Elec       q    Type
REMARK                         _______ _______ _______ _____ _____    ______ ____
ROOT
ATOM      1  C   UNK A   0      -1.087   0.007   0.000  0.00  0.00    +0.000 C 
ENDROOT
BRANCH   1   2
ATOM      2  C   UNK A   0      -0.372   0.419   0.000  0.00  0.00    +0.000 C 
BRANCH   2   3
ATOM      3  C   UNK A   0       0.342   0.007   0.000  0.00  0.00    +0.000 C 
BRANCH   3   4
ATOM      4  C   UNK A   0       1.057   0.419   0.000  0.00  0.00    +0.000 C 
BRANCH   4   5
ATOM      5  N   UNK A   0       1.771   0.007   0.000  0.00  0.00    +0.000 NA
ATOM      6  C   UNK A   0       2.486   0.419   0.000  0.00  0.00    +0.000 C 
ATOM      7  O   UNK A   0       2.486   1.244   0.000  0.00  0.00    +0.000 OA
BRANCH   6   8
ATOM      8  C   UNK A   0       3.200   0.007   0.000  0.00  0.00    +0.000 A 
ATOM      9  N   UNK A   0       3.200  -0.818   0.000  0.00  0.00    +0.000 NA
ATOM     10  C   UNK A   0       3.915   0.419   0.000  0.00  0.00    +0.000 A 
ATOM     11  C   UNK A   0       4.629   0.007   0.000  0.00  0.00    +0.000 A 
ATOM     12  C   UNK A   0       4.629  -0.818   0.000  0.00  0.00    +0.000 A 
ATOM     13  C   UNK A   0       5.344  -1.231   0.000  0.00  0.00    +0.000 A 
ATOM     14  C   UNK A   0       3.915  -1.231   0.000  0.00  0.00    +0.000 A 
ATOM     15  C   UNK A   0       3.915  -2.056   0.000  0.00  0.00    +0.000 A 
ATOM     16  O   UNK A   0       3.200  -2.468   0.000  0.00  0.00    +0.000 OA
ATOM     17  C   UNK A   0       4.629  -2.468   0.000  0.00  0.00    +0.000 A 
ATOM     18  C   UNK A   0       5.344  -2.056   0.000  0.00  0.00    +0.000 A 
ENDBRANCH   6   8
ENDBRANCH   4   5
ENDBRANCH   3   4
ENDBRANCH   2   3
ENDBRANCH   1   2
BRANCH   1  19
ATOM     19  C   UNK A   0      -1.801   0.419   0.000  0.00  0.00    +0.000 C 
BRANCH  19  20
ATOM     20  C   UNK A   0      -1.801   1.244   0.000  0.00  0.00    +0.000 A 
ATOM     21  S   UNK A   0      -2.468   1.729   0.000  0.00  0.00    +0.000 S 
ATOM     22  C   UNK A   0      -2.213   2.514   0.000  0.00  0.00    +0.000 A 
ATOM     23  C   UNK A   0      -1.389   2.514   0.000  0.00  0.00    +0.000 A 
ATOM     24  C   UNK A   0      -1.134   1.729   0.000  0.00  0.00    +0.000 A 
ENDBRANCH  19  20
BRANCH  19  26
ATOM     25  N   ASP A   1      -3.230   0.419   0.000  0.00  0.00    +0.000 NA
ATOM     26  C   UNK A   0      -2.515   0.007   0.000  0.00  0.00    +0.000 C 
ATOM     27  O   UNK A   0      -2.515  -0.818   0.000  0.00  0.00    +0.000 OA
BRANCH  25  28
ATOM     28  CA  ASP A   1      -3.944   0.007   0.000  0.00  0.00    +0.000 C 
BRANCH  28  30
ATOM     29  O   ASP A   1      -3.230  -1.231   0.000  0.00  0.00    +0.000 OA
ATOM     30  C   ASP A   1      -3.944  -0.818   0.000  0.00  0.00    +0.000 C 
ENDBRANCH  28  30
BRANCH  28  31
ATOM     31  CB  ASP A   1      -4.659   0.419   0.000  0.00  0.00    +0.000 C 
BRANCH  31  32
ATOM     32  CG  ASP A   1      -5.373   0.007   0.000  0.00  0.00    +0.000 C 
ATOM     33  OD1 ASP A   1      -6.088   0.419   0.000  0.00  0.00    +0.000 OA
ATOM     34  OD2 ASP A   1      -5.373  -0.818   0.000  0.00  0.00    +0.000 OA
ENDBRANCH  31  32
ENDBRANCH  28  31
ENDBRANCH  25  28
ENDBRANCH  19  26
ENDBRANCH   1  19
TORSDOF 12
