REMARK  Name = HQL
REMARK  8 active torsions:
REMARK  status: ('A' for Active; 'I' for Inactive)
REMARK    1  A    between atoms: C_4  and  C_5
REMARK    2  A    between atoms: C_5  and  O_6
REMARK    3  A    between atoms: C_5  and  C_21
REMARK    4  A    between atoms: O_6  and  C_7
REMARK    5  A    between atoms: N_10  and  C_11
REMARK    6  A    between atoms: C_11  and  C_12
REMARK    7  A    between atoms: C_12  and  C_13
REMARK    8  A    between atoms: C_13  and  C_14
REMARK                            x       y       z     vdW  Elec       q    Type
REMARK                         _______ _______ _______ _____ _____    ______ ____
ROOT
ATOM      1  O   UNL     1      -0.298   0.534   0.000  0.00  0.00    +0.000 OA
ENDROOT
BRANCH   1   2
ATOM      2  C   UNL     1       0.416   0.122   0.000  0.00  0.00    +0.000 C 
ATOM      3  C   UNL     1       1.131   0.534   0.000  0.00  0.00    +0.000 C 
ATOM      4  C   UNL     1       1.845   0.122   0.000  0.00  0.00    +0.000 C 
ATOM      5  N   UNL     1       1.845  -0.703   0.000  0.00  0.00    +0.000 NA
ATOM      6  C   UNL     1       1.131  -1.116   0.000  0.00  0.00    +0.000 C 
ATOM      7  C   UNL     1       0.416  -0.703   0.000  0.00  0.00    +0.000 C 
BRANCH   5   8
ATOM      8  C   UNL     1       2.560  -1.116   0.000  0.00  0.00    +0.000 C 
BRANCH   8   9
ATOM      9  C   UNL     1       2.560  -1.941   0.000  0.00  0.00    +0.000 C 
BRANCH   9  10
ATOM     10  C   UNL     1       3.274  -2.353   0.000  0.00  0.00    +0.000 C 
BRANCH  10  11
ATOM     11  C   UNL     1       3.274  -3.178   0.000  0.00  0.00    +0.000 A 
ATOM     12  N   UNL     1       3.942  -3.663   0.000  0.00  0.00    +0.000 NA
ATOM     13  N   UNL     1       3.687  -4.448   0.000  0.00  0.00    +0.000 NA
ATOM     14  N   UNL     1       2.862  -4.448   0.000  0.00  0.00    +0.000 NA
ATOM     15  N   UNL     1       2.607  -3.663   0.000  0.00  0.00    +0.000 NA
ENDBRANCH  10  11
ENDBRANCH   9  10
ENDBRANCH   8   9
ENDBRANCH   5   8
ENDBRANCH   1   2
BRANCH   1  16
ATOM     16  C   UNL     1      -1.012   0.122   0.000  0.00  0.00    +0.000 C 
BRANCH  16  20
ATOM     17  C   UNL     1      -3.156   1.359   0.000  0.00  0.00    +0.000 A 
ATOM     18  C   UNL     1      -2.441   1.772   0.000  0.00  0.00    +0.000 A 
ATOM     19  C   UNL     1      -1.727   1.359   0.000  0.00  0.00    +0.000 A 
ATOM     20  C   UNL     1      -1.727   0.534   0.000  0.00  0.00    +0.000 A 
ATOM     21  C   UNL     1      -2.441   0.122   0.000  0.00  0.00    +0.000 A 
ATOM     22  C   UNL     1      -3.156   0.534   0.000  0.00  0.00    +0.000 A 
ENDBRANCH  16  20
BRANCH  16  23
ATOM     23  C   UNL     1      -1.012  -0.703   0.000  0.00  0.00    +0.000 A 
ATOM     24  C   UNL     1      -0.298  -1.116   0.000  0.00  0.00    +0.000 A 
ATOM     25  C   UNL     1      -0.298  -1.941   0.000  0.00  0.00    +0.000 A 
ATOM     26  C   UNL     1      -1.012  -2.353   0.000  0.00  0.00    +0.000 A 
ATOM     27  C   UNL     1      -1.727  -1.941   0.000  0.00  0.00    +0.000 A 
ATOM     28  C   UNL     1      -1.727  -1.116   0.000  0.00  0.00    +0.000 A 
ENDBRANCH  16  23
ENDBRANCH   1  16
TORSDOF 8
