REMARK  Name = HQQ
REMARK  3 active torsions:
REMARK  status: ('A' for Active; 'I' for Inactive)
REMARK    1  A    between atoms: C_7  and  C_11
REMARK    2  A    between atoms: C_14  and  O_17
REMARK    3  A    between atoms: O_17  and  C_18
REMARK                            x       y       z     vdW  Elec       q    Type
REMARK                         _______ _______ _______ _____ _____    ______ ____
ROOT
ATOM      1  C   UNL     1      -0.775  -0.409   0.000  0.00  0.00    +0.000 A 
ATOM      2  C   UNL     1      -1.212   0.291   0.000  0.00  0.00    +0.000 A 
ATOM      3  C   UNL     1      -0.825   1.019   0.000  0.00  0.00    +0.000 A 
ATOM      4  C   UNL     1      -0.000   1.048   0.000  0.00  0.00    +0.000 A 
ATOM      5  C   UNL     1       0.437   0.348   0.000  0.00  0.00    +0.000 A 
ATOM      6  C   UNL     1       0.050  -0.380   0.000  0.00  0.00    +0.000 A 
ENDROOT
BRANCH   1  13
ATOM      7  N   UNL     1      -0.448  -2.375   0.000  0.00  0.00    +0.000 NA
ATOM      8  C   UNL     1      -1.162  -2.787   0.000  0.00  0.00    +0.000 C 
ATOM      9  O   UNL     1      -1.162  -3.612   0.000  0.00  0.00    +0.000 OA
ATOM     10  N   UNL     1      -1.877  -2.375   0.000  0.00  0.00    +0.000 NA
ATOM     11  C   UNL     1      -1.877  -1.550   0.000  0.00  0.00    +0.000 C 
ATOM     12  O   UNL     1      -2.591  -1.137   0.000  0.00  0.00    +0.000 OA
ATOM     13  C   UNL     1      -1.162  -1.137   0.000  0.00  0.00    +0.000 C 
ATOM     14  C   UNL     1      -0.448  -1.550   0.000  0.00  0.00    +0.000 C 
ATOM     15  O   UNL     1       0.267  -1.137   0.000  0.00  0.00    +0.000 OA
ATOM     16  C   UNL     1      -1.549  -0.409   0.000  0.00  0.00    +0.000 C 
ENDBRANCH   1  13
BRANCH   4  17
ATOM     17  O   UNL     1       0.387   1.776   0.000  0.00  0.00    +0.000 OA
BRANCH  17  18
ATOM     18  C   UNL     1       1.212   1.805   0.000  0.00  0.00    +0.000 A 
ATOM     19  C   UNL     1       1.599   2.534   0.000  0.00  0.00    +0.000 A 
ATOM     20  C   UNL     1       2.423   2.562   0.000  0.00  0.00    +0.000 A 
ATOM     21  C   UNL     1       2.861   1.863   0.000  0.00  0.00    +0.000 A 
ATOM     22  C   UNL     1       2.473   1.134   0.000  0.00  0.00    +0.000 A 
ATOM     23  C   UNL     1       1.649   1.106   0.000  0.00  0.00    +0.000 A 
ENDBRANCH  17  18
ENDBRANCH   4  17
TORSDOF 3
