REMARK  Name = HS6
REMARK  5 active torsions:
REMARK  status: ('A' for Active; 'I' for Inactive)
REMARK    1  A    between atoms: S_2  and  N_4
REMARK    2  A    between atoms: S_2  and  C_10
REMARK    3  A    between atoms: N_4  and  C_5
REMARK    4  A    between atoms: C_5  and  C_6
REMARK    5  A    between atoms: C_6  and  N_8
REMARK                            x       y       z     vdW  Elec       q    Type
REMARK                         _______ _______ _______ _____ _____    ______ ____
ROOT
ATOM      1  O   UNL     1      -0.248   1.127   0.000  0.00  0.00    +0.000 OA
ATOM      2  S   UNL     1       0.164   0.412   0.000  0.00  0.00    +0.000 S 
ATOM      3  O   UNL     1       0.577  -0.302   0.000  0.00  0.00    +0.000 OA
ENDROOT
BRANCH   2   4
ATOM      4  C   UNL     1      -0.550  -0.000   0.000  0.00  0.00    +0.000 A 
ATOM      5  C   UNL     1      -0.550  -0.825   0.000  0.00  0.00    +0.000 A 
ATOM      6  C   UNL     1      -1.265   0.412   0.000  0.00  0.00    +0.000 A 
ATOM      7  C   UNL     1      -1.979  -0.000   0.000  0.00  0.00    +0.000 A 
ATOM      8  C   UNL     1      -1.979  -0.825   0.000  0.00  0.00    +0.000 A 
ATOM      9  F   UNL     1      -2.694  -1.238   0.000  0.00  0.00    +0.000 F 
ATOM     10  C   UNL     1      -1.265  -1.238   0.000  0.00  0.00    +0.000 A 
ENDBRANCH   2   4
BRANCH   2  11
ATOM     11  N   UNL     1       0.878   0.825   0.000  0.00  0.00    +0.000 NA
BRANCH  11  12
ATOM     12  C   UNL     1       1.593   0.412   0.000  0.00  0.00    +0.000 C 
BRANCH  12  13
ATOM     13  C   UNL     1       2.307   0.825   0.000  0.00  0.00    +0.000 C 
ATOM     14  O   UNL     1       2.307   1.650   0.000  0.00  0.00    +0.000 OA
BRANCH  13  15
ATOM     15  N   UNL     1       3.022   0.412   0.000  0.00  0.00    +0.000 NA
ATOM     16  O   UNL     1       3.736   0.825   0.000  0.00  0.00    +0.000 OA
ENDBRANCH  13  15
ENDBRANCH  12  13
ENDBRANCH  11  12
ENDBRANCH   2  11
TORSDOF 5
