REMARK  Name = HS7
REMARK  5 active torsions:
REMARK  status: ('A' for Active; 'I' for Inactive)
REMARK    1  A    between atoms: C_2  and  N_3
REMARK    2  A    between atoms: C_2  and  C_5
REMARK    3  A    between atoms: C_5  and  N_6
REMARK    4  A    between atoms: N_6  and  S_7
REMARK    5  A    between atoms: S_7  and  C_10
REMARK                            x       y       z     vdW  Elec       q    Type
REMARK                         _______ _______ _______ _____ _____    ______ ____
ROOT
ATOM      1  S   UNL     1      -0.312  -0.102   0.000  0.00  0.00    +0.000 S 
ATOM      2  O   UNL     1       0.100  -0.816   0.000  0.00  0.00    +0.000 OA
ATOM      3  O   UNL     1      -0.725   0.613   0.000  0.00  0.00    +0.000 OA
ENDROOT
BRANCH   1   4
ATOM      4  C   UNL     1       0.402   0.311   0.000  0.00  0.00    +0.000 A 
ATOM      5  C   UNL     1       0.402   1.136   0.000  0.00  0.00    +0.000 A 
ATOM      6  C   UNL     1       1.117  -0.102   0.000  0.00  0.00    +0.000 A 
ATOM      7  C   UNL     1       1.831   0.311   0.000  0.00  0.00    +0.000 A 
ATOM      8  C   UNL     1       1.831   1.136   0.000  0.00  0.00    +0.000 A 
ATOM      9  C   UNL     1       1.117   1.548   0.000  0.00  0.00    +0.000 A 
ENDBRANCH   1   4
BRANCH   1  10
ATOM     10  N   UNL     1      -1.027  -0.514   0.000  0.00  0.00    +0.000 NA
BRANCH  10  11
ATOM     11  C   UNL     1      -1.741  -0.102   0.000  0.00  0.00    +0.000 C 
BRANCH  11  13
ATOM     12  O   UNL     1      -2.456  -1.339   0.000  0.00  0.00    +0.000 OA
ATOM     13  C   UNL     1      -2.456  -0.514   0.000  0.00  0.00    +0.000 C 
BRANCH  13  14
ATOM     14  N   UNL     1      -3.170  -0.102   0.000  0.00  0.00    +0.000 NA
ATOM     15  O   UNL     1      -3.885  -0.514   0.000  0.00  0.00    +0.000 OA
ENDBRANCH  13  14
ENDBRANCH  11  13
ENDBRANCH  10  11
ENDBRANCH   1  10
TORSDOF 5
