REMARK  Name = HSH
REMARK  9 active torsions:
REMARK  status: ('A' for Active; 'I' for Inactive)
REMARK    1  A    between atoms: C_2  and  C_3
REMARK    2  A    between atoms: C_3  and  C_4
REMARK    3  A    between atoms: C_4  and  C_5
REMARK    4  A    between atoms: C_5  and  C_6
REMARK    5  A    between atoms: C_6  and  C_7
REMARK    6  A    between atoms: C_7  and  C_8
REMARK    7  A    between atoms: C_8  and  O_9
REMARK    8  A    between atoms: O_9  and  C_10
REMARK    9  A    between atoms: C_12  and  C_13
REMARK                            x       y       z     vdW  Elec       q    Type
REMARK                         _______ _______ _______ _____ _____    ______ ____
ROOT
ATOM      1  C   UNL     1       2.193   0.133   0.000  0.00  0.00    +0.000 C 
ATOM      2  O   UNL     1       2.907   0.545   0.000  0.00  0.00    +0.000 OA
ATOM      3  C   UNL     1       3.622   0.133   0.000  0.00  0.00    +0.000 C 
ATOM      4  C   UNL     1       3.622  -0.692   0.000  0.00  0.00    +0.000 C 
ATOM      5  O   UNL     1       4.336  -1.105   0.000  0.00  0.00    +0.000 OA
ATOM      6  C   UNL     1       2.907  -1.105   0.000  0.00  0.00    +0.000 C 
ATOM      7  O   UNL     1       2.907  -1.930   0.000  0.00  0.00    +0.000 OA
ATOM      8  C   UNL     1       2.193  -0.692   0.000  0.00  0.00    +0.000 C 
ATOM      9  O   UNL     1       1.478  -1.105   0.000  0.00  0.00    +0.000 OA
ENDROOT
BRANCH   3  10
ATOM     10  C   UNL     1       4.336   0.545   0.000  0.00  0.00    +0.000 C 
ATOM     11  O   UNL     1       4.336   1.370   0.000  0.00  0.00    +0.000 OA
ENDBRANCH   3  10
BRANCH   1  12
ATOM     12  O   UNL     1       1.478   0.545   0.000  0.00  0.00    +0.000 OA
BRANCH  12  13
ATOM     13  C   UNL     1       0.764   0.133   0.000  0.00  0.00    +0.000 C 
BRANCH  13  14
ATOM     14  C   UNL     1       0.050   0.545   0.000  0.00  0.00    +0.000 C 
BRANCH  14  15
ATOM     15  C   UNL     1      -0.665   0.133   0.000  0.00  0.00    +0.000 C 
BRANCH  15  16
ATOM     16  C   UNL     1      -1.379   0.545   0.000  0.00  0.00    +0.000 C 
BRANCH  16  17
ATOM     17  C   UNL     1      -2.094   0.133   0.000  0.00  0.00    +0.000 C 
BRANCH  17  18
ATOM     18  C   UNL     1      -2.808   0.545   0.000  0.00  0.00    +0.000 C 
BRANCH  18  20
ATOM     19  C   UNL     1      -4.237   0.545   0.000  0.00  0.00    +0.000 C 
ATOM     20  C   UNL     1      -3.523   0.133   0.000  0.00  0.00    +0.000 C 
ENDBRANCH  18  20
ENDBRANCH  17  18
ENDBRANCH  16  17
ENDBRANCH  15  16
ENDBRANCH  14  15
ENDBRANCH  13  14
ENDBRANCH  12  13
ENDBRANCH   1  12
TORSDOF 9
