REMARK  Name = HST
REMARK  11 active torsions:
REMARK  status: ('A' for Active; 'I' for Inactive)
REMARK    1  A    between atoms: C_4  and  S_9
REMARK    2  A    between atoms: C_5  and  C_6
REMARK    3  A    between atoms: S_9  and  C_15
REMARK    4  A    between atoms: C_11  and  C_12
REMARK    5  A    between atoms: C_12  and  C_13
REMARK    6  A    between atoms: C_13  and  C_14
REMARK    7  A    between atoms: C_14  and  C_15
REMARK    8  A    between atoms: C_15  and  C_16
REMARK    9  A    between atoms: C_16  and  C_17
REMARK   10  A    between atoms: C_17  and  C_18
REMARK   11  A    between atoms: C_18  and  C_19
REMARK                            x       y       z     vdW  Elec       q    Type
REMARK                         _______ _______ _______ _____ _____    ______ ____
ROOT
ATOM      1  C   UNL     1       0.275  -0.875   0.000  0.00  0.00    +0.000 C 
ENDROOT
BRANCH   1   2
ATOM      2  S   UNL     1       0.275  -1.700   0.000  0.00  0.00    +0.000 S 
BRANCH   2   6
ATOM      3  N   UNL     1       1.743  -1.777   0.000  0.00  0.00    +0.000 NA
ATOM      4  N   UNL     1       2.295  -2.390   0.000  0.00  0.00    +0.000 NA
ATOM      5  N   UNL     1       1.883  -3.104   0.000  0.00  0.00    +0.000 NA
ATOM      6  C   UNL     1       0.989  -2.112   0.000  0.00  0.00    +0.000 A 
ATOM      7  C   UNL     1       1.075  -2.933   0.000  0.00  0.00    +0.000 A 
BRANCH   7   8
ATOM      8  C   UNL     1       0.462  -3.485   0.000  0.00  0.00    +0.000 C 
ATOM      9  O   UNL     1       0.634  -4.292   0.000  0.00  0.00    +0.000 OA
ATOM     10  O   UNL     1      -0.322  -3.230   0.000  0.00  0.00    +0.000 OA
ENDBRANCH   7   8
ENDBRANCH   2   6
ENDBRANCH   1   2
BRANCH   1  11
ATOM     11  C   UNL     1       0.989  -0.462   0.000  0.00  0.00    +0.000 C 
BRANCH  11  12
ATOM     12  C   UNL     1       0.989   0.363   0.000  0.00  0.00    +0.000 C 
BRANCH  12  13
ATOM     13  C   UNL     1       1.704   0.775   0.000  0.00  0.00    +0.000 C 
BRANCH  13  14
ATOM     14  C   UNL     1       1.704   1.600   0.000  0.00  0.00    +0.000 C 
ATOM     15  C   UNL     1       2.418   2.013   0.000  0.00  0.00    +0.000 C 
ENDBRANCH  13  14
ENDBRANCH  12  13
ENDBRANCH  11  12
ENDBRANCH   1  11
BRANCH   1  16
ATOM     16  C   UNL     1      -0.440  -0.462   0.000  0.00  0.00    +0.000 C 
BRANCH  16  17
ATOM     17  C   UNL     1      -0.440   0.363   0.000  0.00  0.00    +0.000 C 
BRANCH  17  18
ATOM     18  C   UNL     1      -1.154   0.775   0.000  0.00  0.00    +0.000 C 
BRANCH  18  20
ATOM     19  C   UNL     1      -1.869   2.013   0.000  0.00  0.00    +0.000 C 
ATOM     20  C   UNL     1      -1.154   1.600   0.000  0.00  0.00    +0.000 C 
ENDBRANCH  18  20
ENDBRANCH  17  18
ENDBRANCH  16  17
ENDBRANCH   1  16
TORSDOF 11
