REMARK  Name = HTA
REMARK  10 active torsions:
REMARK  status: ('A' for Active; 'I' for Inactive)
REMARK    1  A    between atoms: C_1  and  C_2
REMARK    2  A    between atoms: C_2  and  C_3
REMARK    3  A    between atoms: C_3  and  C_4
REMARK    4  A    between atoms: C_3  and  C_5
REMARK    5  A    between atoms: C_5  and  C_6
REMARK    6  A    between atoms: C_9  and  C_10
REMARK    7  A    between atoms: C_9  and  C_11
REMARK    8  A    between atoms: C_9  and  N_21
REMARK    9  A    between atoms: C_11  and  C_12
REMARK   10  A    between atoms: C_17  and  O_27
REMARK                            x       y       z     vdW  Elec       q    Type
REMARK                         _______ _______ _______ _____ _____    ______ ____
ROOT
ATOM      1  C   UNL     1      -0.264   0.112   0.000  0.00  0.00    +0.000 C 
ENDROOT
BRANCH   1   2
ATOM      2  C   UNL     1      -0.534  -0.668   0.000  0.00  0.00    +0.000 C 
ATOM      3  C   UNL     1      -0.264  -2.071   0.000  0.00  0.00    +0.000 C 
ATOM      4  N   UNL     1       0.006  -1.291   0.000  0.00  0.00    +0.000 NA
ATOM      5  O   UNL     1      -1.344  -0.824   0.000  0.00  0.00    +0.000 OA
ENDBRANCH   1   2
BRANCH   1   7
ATOM      6  C   UNL     1       1.086  -0.356   0.000  0.00  0.00    +0.000 C 
ATOM      7  N   UNL     1       0.546   0.268   0.000  0.00  0.00    +0.000 NA
ATOM      8  O   UNL     1       0.816  -1.135   0.000  0.00  0.00    +0.000 OA
BRANCH   6   9
ATOM      9  C   UNL     1       1.896  -0.200   0.000  0.00  0.00    +0.000 C 
BRANCH   9  10
ATOM     10  C   UNL     1       2.166   0.580   0.000  0.00  0.00    +0.000 C 
BRANCH  10  11
ATOM     11  C   UNL     1       1.626   1.203   0.000  0.00  0.00    +0.000 C 
ATOM     12  C   UNL     1       0.816   1.047   0.000  0.00  0.00    +0.000 C 
ATOM     13  C   UNL     1       1.896   1.983   0.000  0.00  0.00    +0.000 C 
ENDBRANCH  10  11
ENDBRANCH   9  10
BRANCH   9  14
ATOM     14  C   UNL     1       2.436  -0.824   0.000  0.00  0.00    +0.000 C 
BRANCH  14  15
ATOM     15  C   UNL     1       3.247  -0.668   0.000  0.00  0.00    +0.000 C 
ATOM     16  N   UNL     1       3.787  -1.291   0.000  0.00  0.00    +0.000 NA
ATOM     17  O   UNL     1       4.597  -1.135   0.000  0.00  0.00    +0.000 OA
ATOM     18  O   UNL     1       3.517   0.112   0.000  0.00  0.00    +0.000 OA
ENDBRANCH  14  15
ENDBRANCH   9  14
ENDBRANCH   6   9
ENDBRANCH   1   7
BRANCH   1  19
ATOM     19  C   UNL     1      -0.804   0.735   0.000  0.00  0.00    +0.000 C 
BRANCH  19  20
ATOM     20  C   UNL     1      -1.614   0.580   0.000  0.00  0.00    +0.000 A 
ATOM     21  C   UNL     1      -1.884  -0.200   0.000  0.00  0.00    +0.000 A 
ATOM     22  C   UNL     1      -2.154   1.203   0.000  0.00  0.00    +0.000 A 
ATOM     23  C   UNL     1      -2.695  -0.356   0.000  0.00  0.00    +0.000 A 
ATOM     24  C   UNL     1      -2.965   1.047   0.000  0.00  0.00    +0.000 A 
ATOM     25  C   UNL     1      -3.235   0.268   0.000  0.00  0.00    +0.000 A 
BRANCH  25  27
ATOM     26  C   UNL     1      -4.585   0.735   0.000  0.00  0.00    +0.000 C 
ATOM     27  O   UNL     1      -4.045   0.112   0.000  0.00  0.00    +0.000 OA
ENDBRANCH  25  27
ENDBRANCH  19  20
ENDBRANCH   1  19
TORSDOF 10
