REMARK  Name = HTG
REMARK  8 active torsions:
REMARK  status: ('A' for Active; 'I' for Inactive)
REMARK    1  A    between atoms: C_1  and  S_2
REMARK    2  A    between atoms: S_2  and  C_13
REMARK    3  A    between atoms: C_9  and  C_11
REMARK    4  A    between atoms: C_13  and  C_14
REMARK    5  A    between atoms: C_14  and  C_15
REMARK    6  A    between atoms: C_15  and  C_16
REMARK    7  A    between atoms: C_16  and  C_17
REMARK    8  A    between atoms: C_17  and  C_18
REMARK                            x       y       z     vdW  Elec       q    Type
REMARK                         _______ _______ _______ _____ _____    ______ ____
ROOT
ATOM      1  C   UNL     1      -0.775  -0.305   0.000  0.00  0.00    +0.000 C 
ATOM      2  C   UNL     1      -1.490  -0.718   0.000  0.00  0.00    +0.000 C 
ATOM      3  O   UNL     1      -1.490  -1.543   0.000  0.00  0.00    +0.000 OA
ATOM      4  C   UNL     1      -2.204  -0.305   0.000  0.00  0.00    +0.000 C 
ATOM      5  O   UNL     1      -2.918  -0.718   0.000  0.00  0.00    +0.000 OA
ATOM      6  C   UNL     1      -2.204   0.520   0.000  0.00  0.00    +0.000 C 
ATOM      7  O   UNL     1      -2.918   0.932   0.000  0.00  0.00    +0.000 OA
ATOM      8  C   UNL     1      -1.490   0.932   0.000  0.00  0.00    +0.000 C 
ATOM      9  O   UNL     1      -0.775   0.520   0.000  0.00  0.00    +0.000 OA
ENDROOT
BRANCH   8  10
ATOM     10  C   UNL     1      -1.490   1.757   0.000  0.00  0.00    +0.000 C 
ATOM     11  O   UNL     1      -0.775   2.170   0.000  0.00  0.00    +0.000 OA
ENDBRANCH   8  10
BRANCH   1  12
ATOM     12  S   UNL     1      -0.061  -0.718   0.000  0.00  0.00    +0.000 S 
BRANCH  12  13
ATOM     13  C   UNL     1       0.654  -0.305   0.000  0.00  0.00    +0.000 C 
BRANCH  13  14
ATOM     14  C   UNL     1       1.368  -0.718   0.000  0.00  0.00    +0.000 C 
BRANCH  14  15
ATOM     15  C   UNL     1       2.083  -0.305   0.000  0.00  0.00    +0.000 C 
BRANCH  15  16
ATOM     16  C   UNL     1       2.797  -0.718   0.000  0.00  0.00    +0.000 C 
BRANCH  16  17
ATOM     17  C   UNL     1       3.512  -0.305   0.000  0.00  0.00    +0.000 C 
BRANCH  17  18
ATOM     18  C   UNL     1       4.226  -0.718   0.000  0.00  0.00    +0.000 C 
ATOM     19  C   UNL     1       4.941  -0.305   0.000  0.00  0.00    +0.000 C 
ENDBRANCH  17  18
ENDBRANCH  16  17
ENDBRANCH  15  16
ENDBRANCH  14  15
ENDBRANCH  13  14
ENDBRANCH  12  13
ENDBRANCH   1  12
TORSDOF 8
