REMARK  Name = HWG
REMARK  4 active torsions:
REMARK  status: ('A' for Active; 'I' for Inactive)
REMARK    1  A    between atoms: C_3  and  C_20
REMARK    2  A    between atoms: C_12  and  C_21
REMARK    3  A    between atoms: N_22  and  N_23
REMARK    4  A    between atoms: N_22  and  C_26
REMARK                            x       y       z     vdW  Elec       q    Type
REMARK                         _______ _______ _______ _____ _____    ______ ____
ROOT
ATOM      1  C   UNL     1       0.329  -1.090   0.000  0.00  0.00    +0.000 C 
ATOM      2  N   UNL     1       0.329  -0.265   0.000  0.00  0.00    +0.000 N 
ATOM      3  O   UNL     1      -0.385  -1.502   0.000  0.00  0.00    +0.000 OA
ENDROOT
BRANCH   1   6
ATOM      4  C   UNL     1       1.758  -2.740   0.000  0.00  0.00    +0.000 A 
ATOM      5  C   UNL     1       1.044  -2.327   0.000  0.00  0.00    +0.000 A 
ATOM      6  C   UNL     1       1.044  -1.502   0.000  0.00  0.00    +0.000 A 
ATOM      7  C   UNL     1       1.758  -1.090   0.000  0.00  0.00    +0.000 A 
ATOM      8  C   UNL     1       2.473  -1.502   0.000  0.00  0.00    +0.000 A 
ATOM      9  C   UNL     1       2.473  -2.327   0.000  0.00  0.00    +0.000 A 
ATOM     10  C   UNL     1       1.758  -3.565   0.000  0.00  0.00    +0.000 C 
ATOM     11  C   UNL     1       3.187  -1.090   0.000  0.00  0.00    +0.000 C 
ENDBRANCH   1   6
BRANCH   2  12
ATOM     12  C   UNL     1       1.044   0.148   0.000  0.00  0.00    +0.000 C 
ATOM     13  C   UNL     1       1.456  -0.567   0.000  0.00  0.00    +0.000 C 
ATOM     14  C   UNL     1       0.631   0.862   0.000  0.00  0.00    +0.000 C 
ATOM     15  C   UNL     1       1.758   0.560   0.000  0.00  0.00    +0.000 C 
ENDBRANCH   2  12
BRANCH   2  17
ATOM     16  C   UNL     1      -0.385   0.973   0.000  0.00  0.00    +0.000 C 
ATOM     17  N   UNL     1      -0.385   0.148   0.000  0.00  0.00    +0.000 NA
ATOM     18  O   UNL     1       0.329   1.385   0.000  0.00  0.00    +0.000 OA
BRANCH  16  24
ATOM     19  C   UNL     1      -1.099   2.210   0.000  0.00  0.00    +0.000 A 
ATOM     20  C   UNL     1      -1.814   2.623   0.000  0.00  0.00    +0.000 A 
ATOM     21  C   UNL     1      -2.528   2.210   0.000  0.00  0.00    +0.000 A 
ATOM     22  C   UNL     1      -2.528   1.385   0.000  0.00  0.00    +0.000 A 
ATOM     23  C   UNL     1      -1.814   0.973   0.000  0.00  0.00    +0.000 A 
ATOM     24  C   UNL     1      -1.099   1.385   0.000  0.00  0.00    +0.000 A 
ATOM     25  O   UNL     1      -3.243   2.623   0.000  0.00  0.00    +0.000 OA
ATOM     26  C   UNL     1      -3.957   2.210   0.000  0.00  0.00    +0.000 C 
ATOM     27  C   UNL     1      -3.957   1.385   0.000  0.00  0.00    +0.000 C 
ATOM     28  O   UNL     1      -3.243   0.973   0.000  0.00  0.00    +0.000 OA
ATOM     29  C   UNL     1      -1.814   0.148   0.000  0.00  0.00    +0.000 C 
ENDBRANCH  16  24
ENDBRANCH   2  17
TORSDOF 4
