REMARK  Name = HXP
REMARK  3 active torsions:
REMARK  status: ('A' for Active; 'I' for Inactive)
REMARK    1  A    between atoms: C_15  and  C_17
REMARK    2  A    between atoms: C_17  and  C_18
REMARK    3  A    between atoms: C_18  and  C_19
REMARK                            x       y       z     vdW  Elec       q    Type
REMARK                         _______ _______ _______ _____ _____    ______ ____
ROOT
ATOM      1  C   UNL     1      -1.509  -0.111   0.000  0.00  0.00    +0.000 A 
ATOM      2  C   UNL     1      -2.224   0.301   0.000  0.00  0.00    +0.000 A 
ATOM      3  C   UNL     1      -2.224   1.126   0.000  0.00  0.00    +0.000 A 
ATOM      4  O   UNL     1      -2.938   1.539   0.000  0.00  0.00    +0.000 OA
ATOM      5  C   UNL     1      -1.509   1.539   0.000  0.00  0.00    +0.000 A 
ATOM      6  C   UNL     1      -0.795   1.126   0.000  0.00  0.00    +0.000 A 
ATOM      7  O   UNL     1      -0.080   1.539   0.000  0.00  0.00    +0.000 OA
ATOM      8  C   UNL     1       0.634   1.126   0.000  0.00  0.00    +0.000 A 
ATOM      9  C   UNL     1       1.349   1.539   0.000  0.00  0.00    +0.000 A 
ATOM     10  C   UNL     1       2.063   1.126   0.000  0.00  0.00    +0.000 A 
ATOM     11  O   UNL     1       2.777   1.539   0.000  0.00  0.00    +0.000 OA
ATOM     12  C   UNL     1       2.063   0.301   0.000  0.00  0.00    +0.000 A 
ATOM     13  C   UNL     1       1.349  -0.111   0.000  0.00  0.00    +0.000 A 
ATOM     14  C   UNL     1       0.634   0.301   0.000  0.00  0.00    +0.000 A 
ATOM     15  C   UNL     1      -0.080  -0.111   0.000  0.00  0.00    +0.000 C 
ATOM     16  C   UNL     1      -0.795   0.301   0.000  0.00  0.00    +0.000 A 
ENDROOT
BRANCH  15  17
ATOM     17  C   UNL     1      -0.080  -0.936   0.000  0.00  0.00    +0.000 C 
BRANCH  17  18
ATOM     18  C   UNL     1       0.634  -1.349   0.000  0.00  0.00    +0.000 C 
BRANCH  18  19
ATOM     19  C   UNL     1       0.634  -2.174   0.000  0.00  0.00    +0.000 C 
ATOM     20  O   UNL     1       1.349  -2.586   0.000  0.00  0.00    +0.000 OA
ATOM     21  O   UNL     1      -0.080  -2.586   0.000  0.00  0.00    +0.000 OA
ENDBRANCH  18  19
ENDBRANCH  17  18
ENDBRANCH  15  17
TORSDOF 3
