REMARK  Name = HXS
REMARK  5 active torsions:
REMARK  status: ('A' for Active; 'I' for Inactive)
REMARK    1  A    between atoms: C_5  and  C_8
REMARK    2  A    between atoms: C_8  and  C_9
REMARK    3  A    between atoms: C_8  and  C_11
REMARK    4  A    between atoms: C_11  and  C_12
REMARK    5  A    between atoms: C_11  and  C_14
REMARK                            x       y       z     vdW  Elec       q    Type
REMARK                         _______ _______ _______ _____ _____    ______ ____
ROOT
ATOM      1  C   UNL     1      -0.345   0.185   0.000  0.00  0.00    +0.000 C 
ENDROOT
BRANCH   1   6
ATOM      2  C   UNL     1      -1.060   2.247   0.000  0.00  0.00    +0.000 A 
ATOM      3  C   UNL     1      -0.345   2.660   0.000  0.00  0.00    +0.000 A 
ATOM      4  C   UNL     1       0.369   2.247   0.000  0.00  0.00    +0.000 A 
ATOM      5  C   UNL     1       0.369   1.422   0.000  0.00  0.00    +0.000 A 
ATOM      6  C   UNL     1      -0.345   1.010   0.000  0.00  0.00    +0.000 A 
ATOM      7  O   UNL     1      -0.345   3.485   0.000  0.00  0.00    +0.000 OA
ATOM      8  C   UNL     1      -1.060   1.422   0.000  0.00  0.00    +0.000 A 
ENDBRANCH   1   6
BRANCH   1   9
ATOM      9  C   UNL     1      -1.060  -0.228   0.000  0.00  0.00    +0.000 C 
ATOM     10  C   UNL     1      -1.774   0.185   0.000  0.00  0.00    +0.000 C 
ENDBRANCH   1   9
BRANCH   1  11
ATOM     11  C   UNL     1       0.369  -0.228   0.000  0.00  0.00    +0.000 C 
BRANCH  11  12
ATOM     12  C   UNL     1       0.369  -1.053   0.000  0.00  0.00    +0.000 A 
ATOM     13  C   UNL     1       1.084  -1.465   0.000  0.00  0.00    +0.000 A 
ATOM     14  C   UNL     1       1.084  -2.290   0.000  0.00  0.00    +0.000 A 
ATOM     15  C   UNL     1       0.369  -2.703   0.000  0.00  0.00    +0.000 A 
ATOM     16  O   UNL     1       0.369  -3.528   0.000  0.00  0.00    +0.000 OA
ATOM     17  C   UNL     1      -0.345  -2.290   0.000  0.00  0.00    +0.000 A 
ATOM     18  C   UNL     1      -0.345  -1.465   0.000  0.00  0.00    +0.000 A 
ENDBRANCH  11  12
BRANCH  11  19
ATOM     19  C   UNL     1       1.084   0.185   0.000  0.00  0.00    +0.000 C 
ATOM     20  C   UNL     1       1.798  -0.228   0.000  0.00  0.00    +0.000 C 
ENDBRANCH  11  19
ENDBRANCH   1  11
TORSDOF 5
