REMARK  Name = HYQ
REMARK  2 active torsions:
REMARK  status: ('A' for Active; 'I' for Inactive)
REMARK    1  A    between atoms: N_4  and  C_5
REMARK    2  A    between atoms: C_8  and  N_9
REMARK                            x       y       z     vdW  Elec       q    Type
REMARK                         _______ _______ _______ _____ _____    ______ ____
ROOT
ATOM      1  C   UNL     1      -1.517  -0.481   0.000  0.00  0.00    +0.000 C 
ATOM      2  C   UNL     1      -0.697  -0.577   0.000  0.00  0.00    +0.000 C 
ATOM      3  O   UNL     1      -0.294  -1.297   0.000  0.00  0.00    +0.000 OA
ATOM      4  N   UNL     1      -0.353   0.172   0.000  0.00  0.00    +0.000 N 
ATOM      5  C   UNL     1      -0.959   0.732   0.000  0.00  0.00    +0.000 C 
ATOM      6  O   UNL     1      -0.863   1.551   0.000  0.00  0.00    +0.000 OA
ATOM      7  C   UNL     1      -1.679   0.328   0.000  0.00  0.00    +0.000 C 
ATOM      8  C   UNL     1      -2.408   0.614   0.000  0.00  0.00    +0.000 C 
ATOM      9  C   UNL     1      -3.212   0.262   0.000  0.00  0.00    +0.000 C 
ATOM     10  C   UNL     1      -3.105  -0.493   0.000  0.00  0.00    +0.000 C 
ATOM     11  C   UNL     1      -2.265  -0.134   0.000  0.00  0.00    +0.000 C 
ATOM     12  C   UNL     1      -2.126   0.904   0.000  0.00  0.00    +0.000 C 
ATOM     13  C   UNL     1      -2.370   1.510   0.000  0.00  0.00    +0.000 C 
ENDROOT
BRANCH   4  14
ATOM     14  C   UNL     1       0.456   0.334   0.000  0.00  0.00    +0.000 A 
ATOM     15  C   UNL     1       0.721   1.115   0.000  0.00  0.00    +0.000 A 
ATOM     16  C   UNL     1       1.530   1.277   0.000  0.00  0.00    +0.000 A 
ATOM     17  C   UNL     1       2.074   0.658   0.000  0.00  0.00    +0.000 A 
ATOM     18  C   UNL     1       1.810  -0.124   0.000  0.00  0.00    +0.000 A 
ATOM     19  C   UNL     1       2.354  -0.744   0.000  0.00  0.00    +0.000 A 
ATOM     20  C   UNL     1       2.090  -1.525   0.000  0.00  0.00    +0.000 A 
ATOM     21  C   UNL     1       1.281  -1.687   0.000  0.00  0.00    +0.000 A 
ATOM     22  C   UNL     1       0.736  -1.067   0.000  0.00  0.00    +0.000 A 
ATOM     23  C   UNL     1       1.001  -0.286   0.000  0.00  0.00    +0.000 A 
BRANCH  17  24
ATOM     24  N   UNL     1       2.883   0.819   0.000  0.00  0.00    +0.000 N 
ATOM     25  O   UNL     1       3.428   0.200   0.000  0.00  0.00    +0.000 OA
ATOM     26  O   UNL     1       3.147   1.601   0.000  0.00  0.00    +0.000 OA
ENDBRANCH  17  24
ENDBRANCH   4  14
TORSDOF 2
