REMARK  Name = HZ3
REMARK  6 active torsions:
REMARK  status: ('A' for Active; 'I' for Inactive)
REMARK    1  A    between atoms: C_7  and  C_8
REMARK    2  A    between atoms: C_11  and  C_12
REMARK    3  A    between atoms: C_12  and  O_13
REMARK    4  A    between atoms: C_16  and  C_17
REMARK    5  A    between atoms: C_17  and  O_18
REMARK    6  A    between atoms: C_22  and  C_23
REMARK                            x       y       z     vdW  Elec       q    Type
REMARK                         _______ _______ _______ _____ _____    ______ ____
ROOT
ATOM      1  C   UNL     1       0.031   0.384   0.000  0.00  0.00    +0.000 C 
ATOM      2  C   UNL     1       0.671   0.834   0.000  0.00  0.00    +0.000 C 
ATOM      3  O   UNL     1       0.511   1.649   0.000  0.00  0.00    +0.000 OA
ATOM      4  C   UNL     1       1.467   0.369   0.000  0.00  0.00    +0.000 C 
ATOM      5  C   UNL     1       1.172  -0.257   0.000  0.00  0.00    +0.000 C 
ATOM      6  C   UNL     1       0.441   0.114   0.000  0.00  0.00    +0.000 C 
ATOM      7  C   UNL     1      -0.334  -0.277   0.000  0.00  0.00    +0.000 C 
ENDROOT
BRANCH   1  14
ATOM      8  C   UNL     1      -1.367   0.679   0.000  0.00  0.00    +0.000 A 
ATOM      9  C   UNL     1      -1.981   1.230   0.000  0.00  0.00    +0.000 A 
ATOM     10  C   UNL     1      -1.811   2.037   0.000  0.00  0.00    +0.000 A 
ATOM     11  O   UNL     1      -2.425   2.588   0.000  0.00  0.00    +0.000 OA
ATOM     12  C   UNL     1      -1.026   2.293   0.000  0.00  0.00    +0.000 A 
ATOM     13  C   UNL     1      -0.413   1.742   0.000  0.00  0.00    +0.000 A 
ATOM     14  C   UNL     1      -0.583   0.935   0.000  0.00  0.00    +0.000 A 
ENDBRANCH   1  14
BRANCH   7  15
ATOM     15  C   UNL     1      -0.929  -0.849   0.000  0.00  0.00    +0.000 A 
ATOM     16  C   UNL     1      -1.722  -0.620   0.000  0.00  0.00    +0.000 A 
ATOM     17  C   UNL     1      -2.316  -1.192   0.000  0.00  0.00    +0.000 A 
ATOM     18  C   UNL     1      -2.118  -1.992   0.000  0.00  0.00    +0.000 A 
ATOM     19  O   UNL     1      -2.713  -2.564   0.000  0.00  0.00    +0.000 OA
ATOM     20  C   UNL     1      -1.326  -2.221   0.000  0.00  0.00    +0.000 A 
ATOM     21  C   UNL     1      -0.731  -1.649   0.000  0.00  0.00    +0.000 A 
ENDBRANCH   7  15
BRANCH   4  22
ATOM     22  C   UNL     1       2.255   0.613   0.000  0.00  0.00    +0.000 C 
ATOM     23  O   UNL     1       2.860   0.052   0.000  0.00  0.00    +0.000 OA
BRANCH  22  24
ATOM     24  O   UNL     1       2.438   1.417   0.000  0.00  0.00    +0.000 OA
ATOM     25  C   UNL     1       3.225   1.661   0.000  0.00  0.00    +0.000 C 
ENDBRANCH  22  24
ENDBRANCH   4  22
BRANCH   5  26
ATOM     26  C   UNL     1       1.439  -1.037   0.000  0.00  0.00    +0.000 C 
ATOM     27  O   UNL     1       2.249  -1.196   0.000  0.00  0.00    +0.000 OA
BRANCH  26  28
ATOM     28  O   UNL     1       0.897  -1.659   0.000  0.00  0.00    +0.000 OA
ATOM     29  C   UNL     1       1.165  -2.439   0.000  0.00  0.00    +0.000 C 
ENDBRANCH  26  28
ENDBRANCH   5  26
TORSDOF 6
