REMARK  Name = I06
REMARK  3 active torsions:
REMARK  status: ('A' for Active; 'I' for Inactive)
REMARK    1  A    between atoms: N_9  and  C_13
REMARK    2  A    between atoms: C_13  and  C_14
REMARK    3  A    between atoms: C_14  and  C_15
REMARK                            x       y       z     vdW  Elec       q    Type
REMARK                         _______ _______ _______ _____ _____    ______ ____
ROOT
ATOM      1  C   UNL     1      -3.196   0.078   0.000  0.00  0.00    +0.000 A 
ATOM      2  C   UNL     1      -2.482  -0.335   0.000  0.00  0.00    +0.000 A 
ATOM      3  C   UNL     1      -1.767   0.078   0.000  0.00  0.00    +0.000 A 
ATOM      4  C   UNL     1      -1.767   0.903   0.000  0.00  0.00    +0.000 A 
ATOM      5  C   UNL     1      -2.482   1.315   0.000  0.00  0.00    +0.000 A 
ATOM      6  C   UNL     1      -3.196   0.903   0.000  0.00  0.00    +0.000 A 
ATOM      7  C   UNL     1      -1.053  -0.335   0.000  0.00  0.00    +0.000 A 
ATOM      8  O   UNL     1      -1.053  -1.160   0.000  0.00  0.00    +0.000 OA
ATOM      9  N   UNL     1      -0.338   0.078   0.000  0.00  0.00    +0.000 N 
ATOM     10  N   UNL     1      -0.338   0.903   0.000  0.00  0.00    +0.000 NA
ATOM     11  C   UNL     1      -1.053   1.315   0.000  0.00  0.00    +0.000 A 
ATOM     12  O   UNL     1      -1.053   2.140   0.000  0.00  0.00    +0.000 OA
ENDROOT
BRANCH   9  13
ATOM     13  C   UNL     1       0.376  -0.335   0.000  0.00  0.00    +0.000 C 
BRANCH  13  14
ATOM     14  C   UNL     1       1.091   0.078   0.000  0.00  0.00    +0.000 C 
BRANCH  14  15
ATOM     15  C   UNL     1       1.805  -0.335   0.000  0.00  0.00    +0.000 A 
ATOM     16  C   UNL     1       2.520   0.078   0.000  0.00  0.00    +0.000 A 
ATOM     17  C   UNL     1       1.805  -1.160   0.000  0.00  0.00    +0.000 A 
ATOM     18  C   UNL     1       3.234  -0.335   0.000  0.00  0.00    +0.000 A 
ATOM     19  C   UNL     1       2.520  -1.572   0.000  0.00  0.00    +0.000 A 
ATOM     20  C   UNL     1       3.234  -1.160   0.000  0.00  0.00    +0.000 A 
ENDBRANCH  14  15
ENDBRANCH  13  14
ENDBRANCH   9  13
TORSDOF 3
