REMARK  Name = I0G
REMARK  1 active torsions:
REMARK  status: ('A' for Active; 'I' for Inactive)
REMARK    1  A    between atoms: C_16  and  C_17
REMARK                            x       y       z     vdW  Elec       q    Type
REMARK                         _______ _______ _______ _____ _____    ______ ____
ROOT
ATOM      1  C   UNL     1       0.264  -3.789   0.000  0.00  0.00    +0.000 C 
ATOM      2  C   UNL     1      -0.561  -3.763   0.000  0.00  0.00    +0.000 A 
ATOM      3  C   UNL     1      -0.996  -4.464   0.000  0.00  0.00    +0.000 A 
ATOM      4  C   UNL     1      -1.820  -4.439   0.000  0.00  0.00    +0.000 A 
ATOM      5  C   UNL     1      -2.210  -3.712   0.000  0.00  0.00    +0.000 A 
ATOM      6  C   UNL     1       1.560  -4.107   0.000  0.00  0.00    +0.000 C 
ATOM      7  C   UNL     1       1.499  -3.284   0.000  0.00  0.00    +0.000 C 
ATOM      8  C   UNL     1       0.698  -3.088   0.000  0.00  0.00    +0.000 C 
ATOM      9  O   UNL     1      -2.255  -5.140   0.000  0.00  0.00    +0.000 OA
ATOM     10  C   UNL     1      -1.776  -3.010   0.000  0.00  0.00    +0.000 A 
ATOM     11  C   UNL     1      -0.951  -3.036   0.000  0.00  0.00    +0.000 A 
ATOM     12  O   UNL     1      -0.516  -2.335   0.000  0.00  0.00    +0.000 OA
ATOM     13  C   UNL     1       0.308  -2.361   0.000  0.00  0.00    +0.000 C 
ATOM     14  C   UNL     1       0.796  -4.419   0.000  0.00  0.00    +0.000 C 
ENDROOT
BRANCH  13  18
ATOM     15  C   UNL     1       1.567  -1.685   0.000  0.00  0.00    +0.000 A 
ATOM     16  C   UNL     1       0.787  -0.231   0.000  0.00  0.00    +0.000 A 
ATOM     17  C   UNL     1       0.353  -0.932   0.000  0.00  0.00    +0.000 A 
ATOM     18  C   UNL     1       0.743  -1.659   0.000  0.00  0.00    +0.000 A 
ATOM     19  C   UNL     1       2.002  -0.984   0.000  0.00  0.00    +0.000 A 
ATOM     20  C   UNL     1       1.612  -0.257   0.000  0.00  0.00    +0.000 A 
ATOM     21  O   UNL     1       2.046   0.444   0.000  0.00  0.00    +0.000 OA
ENDBRANCH  13  18
TORSDOF 1
