REMARK  Name = I11
REMARK  10 active torsions:
REMARK  status: ('A' for Active; 'I' for Inactive)
REMARK    1  A    between atoms: C_3  and  S_7
REMARK    2  A    between atoms: S_7  and  N_10
REMARK    3  A    between atoms: N_10  and  C_11
REMARK    4  A    between atoms: C_11  and  C_12
REMARK    5  A    between atoms: N_14  and  C_15
REMARK    6  A    between atoms: C_15  and  C_16
REMARK    7  A    between atoms: C_15  and  C_25
REMARK    8  A    between atoms: C_16  and  C_17
REMARK    9  A    between atoms: C_17  and  N_18
REMARK   10  A    between atoms: N_18  and  C_19
REMARK                            x       y       z     vdW  Elec       q    Type
REMARK                         _______ _______ _______ _____ _____    ______ ____
ROOT
ATOM      1  C   UNL     1       0.386   0.812   0.000  0.00  0.00    +0.000 C 
ENDROOT
BRANCH   1   2
ATOM      2  C   UNL     1       0.656   1.592   0.000  0.00  0.00    +0.000 C 
ATOM      3  O   UNL     1       0.116   2.216   0.000  0.00  0.00    +0.000 OA
ATOM      4  N   UNL     1       1.466   1.748   0.000  0.00  0.00    +0.000 N 
ATOM      5  C   UNL     1       1.736   2.528   0.000  0.00  0.00    +0.000 C 
ATOM      6  C   UNL     1       2.546   2.683   0.000  0.00  0.00    +0.000 C 
ATOM      7  C   UNL     1       3.086   2.060   0.000  0.00  0.00    +0.000 C 
ATOM      8  C   UNL     1       2.816   1.280   0.000  0.00  0.00    +0.000 C 
ATOM      9  C   UNL     1       2.006   1.124   0.000  0.00  0.00    +0.000 C 
ENDBRANCH   1   2
BRANCH   1  12
ATOM     10  C   UNL     1      -0.694  -0.123   0.000  0.00  0.00    +0.000 C 
ATOM     11  O   UNL     1      -0.154  -0.747   0.000  0.00  0.00    +0.000 OA
ATOM     12  N   UNL     1      -0.424   0.657   0.000  0.00  0.00    +0.000 NA
BRANCH  10  13
ATOM     13  C   UNL     1      -1.504  -0.279   0.000  0.00  0.00    +0.000 C 
BRANCH  13  14
ATOM     14  N   UNL     1      -1.774  -1.058   0.000  0.00  0.00    +0.000 NA
BRANCH  14  15
ATOM     15  S   UNL     1      -2.584  -1.214   0.000  0.00  0.00    +0.000 S 
ATOM     16  O   UNL     1      -2.429  -2.024   0.000  0.00  0.00    +0.000 OA
ATOM     17  O   UNL     1      -2.740  -0.404   0.000  0.00  0.00    +0.000 OA
BRANCH  15  20
ATOM     18  C   UNL     1      -4.745  -0.902   0.000  0.00  0.00    +0.000 C 
ATOM     19  C   UNL     1      -3.935  -0.747   0.000  0.00  0.00    +0.000 C 
ATOM     20  C   UNL     1      -3.395  -1.370   0.000  0.00  0.00    +0.000 C 
ATOM     21  C   UNL     1      -3.665  -2.150   0.000  0.00  0.00    +0.000 C 
ATOM     22  C   UNL     1      -4.475  -2.306   0.000  0.00  0.00    +0.000 C 
ATOM     23  C   UNL     1      -5.015  -1.682   0.000  0.00  0.00    +0.000 C 
ENDBRANCH  15  20
ENDBRANCH  14  15
ENDBRANCH  13  14
ENDBRANCH  10  13
ENDBRANCH   1  12
BRANCH   1  24
ATOM     24  C   UNL     1       0.926   0.189   0.000  0.00  0.00    +0.000 C 
BRANCH  24  25
ATOM     25  C   UNL     1       0.656  -0.591   0.000  0.00  0.00    +0.000 C 
BRANCH  25  26
ATOM     26  N   UNL     1       1.196  -1.214   0.000  0.00  0.00    +0.000 NA
BRANCH  26  27
ATOM     27  C   UNL     1       2.006  -1.058   0.000  0.00  0.00    +0.000 A 
ATOM     28  C   UNL     1       2.276  -0.279   0.000  0.00  0.00    +0.000 A 
ATOM     29  C   UNL     1       3.086  -0.123   0.000  0.00  0.00    +0.000 A 
ATOM     30  N   UNL     1       3.627  -0.747   0.000  0.00  0.00    +0.000 NA
ATOM     31  C   UNL     1       3.357  -1.526   0.000  0.00  0.00    +0.000 A 
ATOM     32  C   UNL     1       2.546  -1.682   0.000  0.00  0.00    +0.000 A 
ENDBRANCH  26  27
ENDBRANCH  25  26
ENDBRANCH  24  25
ENDBRANCH   1  24
TORSDOF 10
