REMARK  Name = I15
REMARK  4 active torsions:
REMARK  status: ('A' for Active; 'I' for Inactive)
REMARK    1  A    between atoms: C_2  and  O_5
REMARK    2  A    between atoms: O_5  and  C_11
REMARK    3  A    between atoms: C_15  and  C_18
REMARK    4  A    between atoms: C_16  and  C_19
REMARK                            x       y       z     vdW  Elec       q    Type
REMARK                         _______ _______ _______ _____ _____    ______ ____
ROOT
ATOM      1  C   UNL     1      -4.637  -7.911   0.000  0.00  0.00    +0.000 A 
ATOM      2  C   UNL     1      -3.922  -7.498   0.000  0.00  0.00    +0.000 A 
ATOM      3  C   UNL     1      -4.637  -8.736   0.000  0.00  0.00    +0.000 A 
ATOM      4  C   UNL     1      -5.422  -7.656   0.000  0.00  0.00    +0.000 A 
ATOM      5  C   UNL     1      -3.208  -7.911   0.000  0.00  0.00    +0.000 A 
ATOM      6  N   UNL     1      -5.422  -8.991   0.000  0.00  0.00    +0.000 NA
ATOM      7  C   UNL     1      -3.922  -9.149   0.000  0.00  0.00    +0.000 A 
ATOM      8  N   UNL     1      -5.907  -8.323   0.000  0.00  0.00    +0.000 NA
ATOM      9  C   UNL     1      -5.677  -6.872   0.000  0.00  0.00    +0.000 C 
ATOM     10  C   UNL     1      -3.208  -8.736   0.000  0.00  0.00    +0.000 A 
ATOM     11  F   UNL     1      -2.494  -7.498   0.000  0.00  0.00    +0.000 F 
ENDROOT
BRANCH   2  12
ATOM     12  O   UNL     1      -3.922  -6.673   0.000  0.00  0.00    +0.000 OA
BRANCH  12  13
ATOM     13  C   UNL     1      -4.637  -6.261   0.000  0.00  0.00    +0.000 A 
ATOM     14  C   UNL     1      -5.351  -6.673   0.000  0.00  0.00    +0.000 A 
ATOM     15  C   UNL     1      -4.637  -5.436   0.000  0.00  0.00    +0.000 A 
ATOM     16  C   UNL     1      -6.066  -6.261   0.000  0.00  0.00    +0.000 A 
ATOM     17  C   UNL     1      -5.351  -5.024   0.000  0.00  0.00    +0.000 A 
ATOM     18  C   UNL     1      -6.066  -5.436   0.000  0.00  0.00    +0.000 A 
BRANCH  16  19
ATOM     19  C   UNL     1      -6.780  -6.673   0.000  0.00  0.00    +0.000 C 
ATOM     20  N   UNL     1      -7.495  -7.086   0.000  0.00  0.00    +0.000 NA
ENDBRANCH  16  19
BRANCH  17  21
ATOM     21  C   UNL     1      -5.351  -4.199   0.000  0.00  0.00    +0.000 C 
ATOM     22  N   UNL     1      -5.351  -3.373   0.000  0.00  0.00    +0.000 NA
ENDBRANCH  17  21
ENDBRANCH  12  13
ENDBRANCH   2  12
TORSDOF 4
