REMARK  Name = I17
REMARK  5 active torsions:
REMARK  status: ('A' for Active; 'I' for Inactive)
REMARK    1  A    between atoms: C_1  and  N_2
REMARK    2  A    between atoms: C_6  and  N_11
REMARK    3  A    between atoms: N_11  and  C_12
REMARK    4  A    between atoms: C_12  and  C_18
REMARK    5  A    between atoms: N_19  and  C_20
REMARK                            x       y       z     vdW  Elec       q    Type
REMARK                         _______ _______ _______ _____ _____    ______ ____
ROOT
ATOM      1  N   UNL     1      -1.617   1.012   0.000  0.00  0.00    +0.000 N 
ATOM      2  C   UNL     1      -0.832   0.757   0.000  0.00  0.00    +0.000 A 
ATOM      3  N   UNL     1      -0.118   1.169   0.000  0.00  0.00    +0.000 NA
ATOM      4  C   UNL     1       0.597   0.757   0.000  0.00  0.00    +0.000 A 
ATOM      5  C   UNL     1      -0.118  -0.481   0.000  0.00  0.00    +0.000 A 
ATOM      6  N   UNL     1       0.597  -0.068   0.000  0.00  0.00    +0.000 NA
ATOM      7  C   UNL     1      -0.832  -0.068   0.000  0.00  0.00    +0.000 A 
ATOM      8  N   UNL     1      -1.617  -0.323   0.000  0.00  0.00    +0.000 NA
ATOM      9  C   UNL     1      -2.102   0.344   0.000  0.00  0.00    +0.000 A 
ATOM     10  N   UNL     1       1.311   1.169   0.000  0.00  0.00    +0.000 NA
ENDROOT
BRANCH  10  11
ATOM     11  C   UNL     1       2.026   0.757   0.000  0.00  0.00    +0.000 C 
ATOM     12  C   UNL     1       3.454  -0.068   0.000  0.00  0.00    +0.000 C 
ATOM     13  C   UNL     1       3.454   0.757   0.000  0.00  0.00    +0.000 C 
ATOM     14  C   UNL     1       2.740   1.169   0.000  0.00  0.00    +0.000 C 
ATOM     15  C   UNL     1       2.026  -0.068   0.000  0.00  0.00    +0.000 C 
ATOM     16  C   UNL     1       2.740  -0.481   0.000  0.00  0.00    +0.000 C 
ATOM     17  N   UNL     1       4.169  -0.481   0.000  0.00  0.00    +0.000 NA
ENDBRANCH  10  11
BRANCH   1  18
ATOM     18  C   UNL     1      -1.872   1.796   0.000  0.00  0.00    +0.000 C 
ATOM     19  C   UNL     1      -2.657   2.051   0.000  0.00  0.00    +0.000 C 
ATOM     20  C   UNL     1      -2.657   2.876   0.000  0.00  0.00    +0.000 C 
ATOM     21  C   UNL     1      -1.387   2.464   0.000  0.00  0.00    +0.000 C 
ATOM     22  C   UNL     1      -1.872   3.131   0.000  0.00  0.00    +0.000 C 
ENDBRANCH   1  18
BRANCH   5  23
ATOM     23  N   UNL     1      -0.118  -1.306   0.000  0.00  0.00    +0.000 NA
BRANCH  23  24
ATOM     24  C   UNL     1      -0.832  -1.718   0.000  0.00  0.00    +0.000 C 
BRANCH  24  30
ATOM     25  C   UNL     1      -0.118  -2.956   0.000  0.00  0.00    +0.000 A 
ATOM     26  C   UNL     1      -0.118  -3.781   0.000  0.00  0.00    +0.000 A 
ATOM     27  C   UNL     1      -0.832  -4.193   0.000  0.00  0.00    +0.000 A 
ATOM     28  C   UNL     1      -1.547  -3.781   0.000  0.00  0.00    +0.000 A 
ATOM     29  C   UNL     1      -1.547  -2.956   0.000  0.00  0.00    +0.000 A 
ATOM     30  C   UNL     1      -0.832  -2.543   0.000  0.00  0.00    +0.000 A 
ENDBRANCH  24  30
ENDBRANCH  23  24
ENDBRANCH   5  23
TORSDOF 5
