REMARK  Name = I19
REMARK  5 active torsions:
REMARK  status: ('A' for Active; 'I' for Inactive)
REMARK    1  A    between atoms: C_2  and  N_4
REMARK    2  A    between atoms: C_9  and  C_10
REMARK    3  A    between atoms: N_13  and  C_14
REMARK    4  A    between atoms: C_17  and  C_20
REMARK    5  A    between atoms: C_25  and  N_27
REMARK                            x       y       z     vdW  Elec       q    Type
REMARK                         _______ _______ _______ _____ _____    ______ ____
ROOT
ATOM      1  C   UNL     1      -0.726  11.911   0.000  0.00  0.00    +0.000 A 
ATOM      2  N   UNL     1      -0.554  12.718   0.000  0.00  0.00    +0.000 NA
ATOM      3  C   UNL     1       0.231  12.973   0.000  0.00  0.00    +0.000 A 
ATOM      4  N   UNL     1       0.402  13.780   0.000  0.00  0.00    +0.000 NA
ATOM      5  N   UNL     1       0.844  12.421   0.000  0.00  0.00    +0.000 NA
ATOM      6  C   UNL     1       0.672  11.614   0.000  0.00  0.00    +0.000 A 
ATOM      7  C   UNL     1      -0.113  11.359   0.000  0.00  0.00    +0.000 A 
ATOM      8  F   UNL     1      -0.284  10.552   0.000  0.00  0.00    +0.000 F 
ENDROOT
BRANCH   1  14
ATOM      9  N   UNL     1      -2.178  12.141   0.000  0.00  0.00    +0.000 N 
ATOM     10  C   UNL     1      -2.845  11.656   0.000  0.00  0.00    +0.000 A 
ATOM     11  C   UNL     1      -3.630  11.911   0.000  0.00  0.00    +0.000 C 
ATOM     12  N   UNL     1      -2.590  10.871   0.000  0.00  0.00    +0.000 NA
ATOM     13  C   UNL     1      -1.765  10.871   0.000  0.00  0.00    +0.000 A 
ATOM     14  C   UNL     1      -1.510  11.656   0.000  0.00  0.00    +0.000 A 
BRANCH   9  16
ATOM     15  C   UNL     1      -2.892  13.379   0.000  0.00  0.00    +0.000 C 
ATOM     16  C   UNL     1      -2.178  12.966   0.000  0.00  0.00    +0.000 C 
ATOM     17  C   UNL     1      -1.463  13.379   0.000  0.00  0.00    +0.000 C 
ENDBRANCH   9  16
ENDBRANCH   1  14
BRANCH   4  18
ATOM     18  C   UNL     1       1.187  14.035   0.000  0.00  0.00    +0.000 A 
ATOM     19  C   UNL     1       1.358  14.842   0.000  0.00  0.00    +0.000 A 
ATOM     20  C   UNL     1       2.143  15.097   0.000  0.00  0.00    +0.000 A 
ATOM     21  C   UNL     1       2.756  14.545   0.000  0.00  0.00    +0.000 A 
ATOM     22  C   UNL     1       2.584  13.738   0.000  0.00  0.00    +0.000 A 
ATOM     23  C   UNL     1       1.800  13.483   0.000  0.00  0.00    +0.000 A 
BRANCH  21  24
ATOM     24  C   UNL     1       3.541  14.800   0.000  0.00  0.00    +0.000 C 
ATOM     25  O   UNL     1       4.154  14.248   0.000  0.00  0.00    +0.000 OA
ATOM     26  N   UNL     1       3.712  15.607   0.000  0.00  0.00    +0.000 N 
ATOM     27  C   UNL     1       3.160  16.220   0.000  0.00  0.00    +0.000 C 
ATOM     28  C   UNL     1       3.572  16.934   0.000  0.00  0.00    +0.000 C 
ATOM     29  C   UNL     1       4.380  16.763   0.000  0.00  0.00    +0.000 C 
ATOM     30  C   UNL     1       4.466  15.942   0.000  0.00  0.00    +0.000 C 
BRANCH  29  31
ATOM     31  N   UNL     1       4.993  17.315   0.000  0.00  0.00    +0.000 NA
ATOM     32  C   UNL     1       4.821  18.122   0.000  0.00  0.00    +0.000 C 
ATOM     33  C   UNL     1       5.777  17.060   0.000  0.00  0.00    +0.000 C 
ENDBRANCH  29  31
ENDBRANCH  21  24
ENDBRANCH   4  18
TORSDOF 5
