REMARK  Name = I24
REMARK  10 active torsions:
REMARK  status: ('A' for Active; 'I' for Inactive)
REMARK    1  A    between atoms: C_2  and  O_11
REMARK    2  A    between atoms: C_4  and  N_10
REMARK    3  A    between atoms: N_9  and  C_24
REMARK    4  A    between atoms: N_10  and  C_12
REMARK    5  A    between atoms: O_11  and  C_20
REMARK    6  A    between atoms: C_12  and  C_13
REMARK    7  A    between atoms: C_13  and  N_14
REMARK    8  A    between atoms: C_20  and  C_21
REMARK    9  A    between atoms: C_21  and  C_22
REMARK   10  A    between atoms: C_24  and  C_25
REMARK                            x       y       z     vdW  Elec       q    Type
REMARK                         _______ _______ _______ _____ _____    ______ ____
ROOT
ATOM      1  N   UNL     1       5.247  27.429   0.000  0.00  0.00    +0.000 NA
ATOM      2  C   UNL     1       5.962  27.016   0.000  0.00  0.00    +0.000 A 
ATOM      3  N   UNL     1       5.962  26.191   0.000  0.00  0.00    +0.000 NA
ATOM      4  C   UNL     1       5.247  25.779   0.000  0.00  0.00    +0.000 A 
ATOM      5  C   UNL     1       4.533  27.016   0.000  0.00  0.00    +0.000 A 
ATOM      6  C   UNL     1       4.533  26.191   0.000  0.00  0.00    +0.000 A 
ATOM      7  N   UNL     1       3.748  25.936   0.000  0.00  0.00    +0.000 NA
ATOM      8  C   UNL     1       3.263  26.604   0.000  0.00  0.00    +0.000 A 
ATOM      9  N   UNL     1       3.748  27.271   0.000  0.00  0.00    +0.000 N 
ENDROOT
BRANCH   4  10
ATOM     10  N   UNL     1       5.247  24.954   0.000  0.00  0.00    +0.000 NA
BRANCH  10  11
ATOM     11  C   UNL     1       4.533  24.541   0.000  0.00  0.00    +0.000 C 
BRANCH  11  12
ATOM     12  C   UNL     1       3.818  24.954   0.000  0.00  0.00    +0.000 C 
BRANCH  12  13
ATOM     13  N   UNL     1       3.104  24.541   0.000  0.00  0.00    +0.000 NA
ATOM     14  C   UNL     1       3.104  23.716   0.000  0.00  0.00    +0.000 C 
ATOM     15  C   UNL     1       2.389  23.304   0.000  0.00  0.00    +0.000 C 
ATOM     16  O   UNL     1       1.675  23.716   0.000  0.00  0.00    +0.000 OA
ATOM     17  C   UNL     1       1.675  24.541   0.000  0.00  0.00    +0.000 C 
ATOM     18  C   UNL     1       2.389  24.954   0.000  0.00  0.00    +0.000 C 
ENDBRANCH  12  13
ENDBRANCH  11  12
ENDBRANCH  10  11
ENDBRANCH   4  10
BRANCH   2  19
ATOM     19  O   UNL     1       6.676  27.429   0.000  0.00  0.00    +0.000 OA
BRANCH  19  20
ATOM     20  C   UNL     1       6.676  28.254   0.000  0.00  0.00    +0.000 C 
BRANCH  20  21
ATOM     21  C   UNL     1       7.391  28.666   0.000  0.00  0.00    +0.000 C 
BRANCH  21  22
ATOM     22  C   UNL     1       7.391  29.491   0.000  0.00  0.00    +0.000 C 
ATOM     23  C   UNL     1       8.105  29.904   0.000  0.00  0.00    +0.000 C 
ENDBRANCH  21  22
ENDBRANCH  20  21
ENDBRANCH  19  20
ENDBRANCH   2  19
BRANCH   9  24
ATOM     24  C   UNL     1       3.493  28.056   0.000  0.00  0.00    +0.000 C 
BRANCH  24  25
ATOM     25  C   UNL     1       2.686  28.227   0.000  0.00  0.00    +0.000 A 
ATOM     26  C   UNL     1       2.134  27.614   0.000  0.00  0.00    +0.000 A 
ATOM     27  C   UNL     1       1.327  27.786   0.000  0.00  0.00    +0.000 A 
ATOM     28  C   UNL     1       1.072  28.570   0.000  0.00  0.00    +0.000 A 
ATOM     29  C   UNL     1       1.624  29.183   0.000  0.00  0.00    +0.000 A 
ATOM     30  C   UNL     1       2.431  29.012   0.000  0.00  0.00    +0.000 A 
ATOM     31  F   UNL     1       2.389  26.830   0.000  0.00  0.00    +0.000 F 
ATOM     32  F   UNL     1       2.983  29.625   0.000  0.00  0.00    +0.000 F 
ENDBRANCH  24  25
ENDBRANCH   9  24
TORSDOF 10
