REMARK  Name = I38
REMARK  4 active torsions:
REMARK  status: ('A' for Active; 'I' for Inactive)
REMARK    1  A    between atoms: C_2  and  C_3
REMARK    2  A    between atoms: C_3  and  C_4
REMARK    3  A    between atoms: N_6  and  CA_7
REMARK    4  A    between atoms: CA_7  and  C_9
REMARK                            x       y       z     vdW  Elec       q    Type
REMARK                         _______ _______ _______ _____ _____    ______ ____
ROOT
ATOM      1  C   UNK A   0      -0.440   0.184   0.000  0.00  0.00    +0.000 C 
ATOM      2  O   UNK A   0      -0.440   1.009   0.000  0.00  0.00    +0.000 OA
ATOM      3  N   ALA A   1       0.274  -0.229   0.000  0.00  0.00    +0.000 NA
ENDROOT
BRANCH   3   4
ATOM      4  CA  ALA A   1       0.989   0.184   0.000  0.00  0.00    +0.000 C 
ATOM      5  CB  ALA A   1       0.989   1.009   0.000  0.00  0.00    +0.000 C 
BRANCH   4   6
ATOM      6  C   ALA A   1       1.703  -0.229   0.000  0.00  0.00    +0.000 C 
ATOM      7  O   ALA A   1       2.418   0.184   0.000  0.00  0.00    +0.000 OA
ATOM      8  OXT ALA A   1       1.703  -1.054   0.000  0.00  0.00    +0.000 OA
ENDBRANCH   4   6
ENDBRANCH   3   4
BRANCH   1   9
ATOM      9  C   UNK A   0      -1.155  -0.229   0.000  0.00  0.00    +0.000 C 
BRANCH   9  11
ATOM     10  S   UNK A   0      -2.584  -0.229   0.000  0.00  0.00    +0.000 S 
ATOM     11  C   UNK A   0      -1.869   0.184   0.000  0.00  0.00    +0.000 C 
ENDBRANCH   9  11
ENDBRANCH   1   9
TORSDOF 4
