REMARK  Name = I40
REMARK  3 active torsions:
REMARK  status: ('A' for Active; 'I' for Inactive)
REMARK    1  A    between atoms: C_5  and  N_15
REMARK    2  A    between atoms: N_15  and  C_17
REMARK    3  A    between atoms: C_17  and  C_18
REMARK                            x       y       z     vdW  Elec       q    Type
REMARK                         _______ _______ _______ _____ _____    ______ ____
ROOT
ATOM      1  C   UNL     1       0.958   2.069   0.000  0.00  0.00    +0.000 C 
ATOM      2  C   UNL     1       1.672   1.656   0.000  0.00  0.00    +0.000 C 
ATOM      3  C   UNL     1       1.672   0.831   0.000  0.00  0.00    +0.000 C 
ATOM      4  C   UNL     1       0.958   0.419   0.000  0.00  0.00    +0.000 C 
ATOM      5  C   UNL     1      -0.471   0.419   0.000  0.00  0.00    +0.000 A 
ATOM      6  C   UNL     1      -1.900   0.419   0.000  0.00  0.00    +0.000 A 
ATOM      7  C   UNL     1      -2.615   0.831   0.000  0.00  0.00    +0.000 A 
ATOM      8  C   UNL     1      -2.615   1.656   0.000  0.00  0.00    +0.000 A 
ATOM      9  C   UNL     1      -1.900   2.069   0.000  0.00  0.00    +0.000 A 
ATOM     10  N   UNL     1      -0.471   2.069   0.000  0.00  0.00    +0.000 NA
ATOM     11  C   UNL     1       0.243   1.656   0.000  0.00  0.00    +0.000 A 
ATOM     12  C   UNL     1       0.243   0.831   0.000  0.00  0.00    +0.000 A 
ATOM     13  C   UNL     1      -1.186   0.831   0.000  0.00  0.00    +0.000 A 
ATOM     14  C   UNL     1      -1.186   1.656   0.000  0.00  0.00    +0.000 A 
ENDROOT
BRANCH   5  15
ATOM     15  N   UNL     1      -0.471  -0.406   0.000  0.00  0.00    +0.000 NA
BRANCH  15  16
ATOM     16  C   UNL     1       0.243  -0.819   0.000  0.00  0.00    +0.000 C 
BRANCH  16  18
ATOM     17  I   UNL     1       1.672  -3.294   0.000  0.00  0.00    +0.000 I 
ATOM     18  C   UNL     1       0.243  -1.644   0.000  0.00  0.00    +0.000 A 
ATOM     19  C   UNL     1       0.958  -2.056   0.000  0.00  0.00    +0.000 A 
ATOM     20  C   UNL     1       0.958  -2.881   0.000  0.00  0.00    +0.000 A 
ATOM     21  C   UNL     1       0.243  -3.294   0.000  0.00  0.00    +0.000 A 
ATOM     22  C   UNL     1      -0.471  -2.881   0.000  0.00  0.00    +0.000 A 
ATOM     23  C   UNL     1      -0.471  -2.056   0.000  0.00  0.00    +0.000 A 
ENDBRANCH  16  18
ENDBRANCH  15  16
ENDBRANCH   5  15
TORSDOF 3
