REMARK  Name = I45
REMARK  5 active torsions:
REMARK  status: ('A' for Active; 'I' for Inactive)
REMARK    1  A    between atoms: C_1  and  C_7
REMARK    2  A    between atoms: C_7  and  O_8
REMARK    3  A    between atoms: O_8  and  C_9
REMARK    4  A    between atoms: N_12  and  C_15
REMARK    5  A    between atoms: C_17  and  C_26
REMARK                            x       y       z     vdW  Elec       q    Type
REMARK                         _______ _______ _______ _____ _____    ______ ____
ROOT
ATOM      1  C   UNL     1      -0.661  -0.831   0.000  0.00  0.00    +0.000 A 
ATOM      2  C   UNL     1      -1.376  -0.418   0.000  0.00  0.00    +0.000 A 
ATOM      3  C   UNL     1      -1.376   0.406   0.000  0.00  0.00    +0.000 A 
ATOM      4  N   UNL     1      -0.661   0.819   0.000  0.00  0.00    +0.000 N 
ATOM      5  C   UNL     1       0.053   0.406   0.000  0.00  0.00    +0.000 A 
ATOM      6  C   UNL     1       0.053  -0.418   0.000  0.00  0.00    +0.000 A 
ATOM      7 BR   UNL     1      -2.091  -0.831   0.000  0.00  0.00    +0.000 Br
ATOM      8  O   UNL     1      -2.091   0.819   0.000  0.00  0.00    +0.000 OA
ATOM      9  C   UNL     1       0.767   0.819   0.000  0.00  0.00    +0.000 C 
ENDROOT
BRANCH   4  10
ATOM     10  C   UNL     1      -0.661   1.644   0.000  0.00  0.00    +0.000 A 
ATOM     11  C   UNL     1      -1.376   2.057   0.000  0.00  0.00    +0.000 A 
ATOM     12  C   UNL     1      -1.376   2.881   0.000  0.00  0.00    +0.000 A 
ATOM     13  C   UNL     1      -0.661   3.294   0.000  0.00  0.00    +0.000 A 
ATOM     14  C   UNL     1       0.053   2.881   0.000  0.00  0.00    +0.000 A 
ATOM     15  C   UNL     1       0.053   2.057   0.000  0.00  0.00    +0.000 A 
ATOM     16  C   UNL     1       0.767   1.644   0.000  0.00  0.00    +0.000 C 
BRANCH  12  17
ATOM     17  C   UNL     1      -2.091   3.294   0.000  0.00  0.00    +0.000 C 
ATOM     18  O   UNL     1      -2.805   2.881   0.000  0.00  0.00    +0.000 OA
ATOM     19  N   UNL     1      -2.091   4.119   0.000  0.00  0.00    +0.000 NA
ATOM     20  C   UNL     1      -2.805   4.532   0.000  0.00  0.00    +0.000 C 
ENDBRANCH  12  17
ENDBRANCH   4  10
BRANCH   1  21
ATOM     21  O   UNL     1      -0.661  -1.656   0.000  0.00  0.00    +0.000 OA
BRANCH  21  22
ATOM     22  C   UNL     1       0.053  -2.068   0.000  0.00  0.00    +0.000 C 
BRANCH  22  23
ATOM     23  C   UNL     1       0.053  -2.893   0.000  0.00  0.00    +0.000 A 
ATOM     24  C   UNL     1       0.767  -3.306   0.000  0.00  0.00    +0.000 A 
ATOM     25  C   UNL     1       0.767  -4.131   0.000  0.00  0.00    +0.000 A 
ATOM     26  C   UNL     1       0.053  -4.543   0.000  0.00  0.00    +0.000 A 
ATOM     27  C   UNL     1      -0.661  -4.131   0.000  0.00  0.00    +0.000 A 
ATOM     28  C   UNL     1      -0.661  -3.306   0.000  0.00  0.00    +0.000 A 
ATOM     29  F   UNL     1       1.482  -2.893   0.000  0.00  0.00    +0.000 F 
ATOM     30  F   UNL     1       0.053  -5.369   0.000  0.00  0.00    +0.000 F 
ENDBRANCH  22  23
ENDBRANCH  21  22
ENDBRANCH   1  21
TORSDOF 5
