REMARK  Name = I46
REMARK  2 active torsions:
REMARK  status: ('A' for Active; 'I' for Inactive)
REMARK    1  A    between atoms: C_9  and  C_13
REMARK    2  A    between atoms: C_11  and  C_14
REMARK                            x       y       z     vdW  Elec       q    Type
REMARK                         _______ _______ _______ _____ _____    ______ ____
ROOT
ATOM      1  C   UNL     1       1.413  -1.162   0.000  0.00  0.00    +0.000 A 
ATOM      2  C   UNL     1       0.745  -0.677   0.000  0.00  0.00    +0.000 A 
ATOM      3  C   UNL     1       0.078  -1.162   0.000  0.00  0.00    +0.000 A 
ATOM      4  N   UNL     1       1.158  -1.946   0.000  0.00  0.00    +0.000 NA
ATOM      5  N   UNL     1       0.333  -1.946   0.000  0.00  0.00    +0.000 NA
ENDROOT
BRANCH   2  10
ATOM      6  C   UNL     1       0.031   0.561   0.000  0.00  0.00    +0.000 A 
ATOM      7  C   UNL     1       1.460   0.561   0.000  0.00  0.00    +0.000 A 
ATOM      8  C   UNL     1       0.031   1.386   0.000  0.00  0.00    +0.000 A 
ATOM      9  C   UNL     1       1.460   1.386   0.000  0.00  0.00    +0.000 A 
ATOM     10  C   UNL     1       0.745   0.148   0.000  0.00  0.00    +0.000 A 
ATOM     11  C   UNL     1       0.745   1.798   0.000  0.00  0.00    +0.000 A 
ATOM     12  F   UNL     1       0.745   2.623   0.000  0.00  0.00    +0.000 F 
ENDBRANCH   2  10
BRANCH   3  16
ATOM     13  C   UNL     1      -0.878  -0.100   0.000  0.00  0.00    +0.000 A 
ATOM     14  C   UNL     1      -1.663   0.155   0.000  0.00  0.00    +0.000 A 
ATOM     15  C   UNL     1      -1.320  -1.459   0.000  0.00  0.00    +0.000 A 
ATOM     16  C   UNL     1      -0.707  -0.907   0.000  0.00  0.00    +0.000 A 
ATOM     17  C   UNL     1      -2.105  -1.204   0.000  0.00  0.00    +0.000 A 
ATOM     18  N   UNL     1      -2.276  -0.397   0.000  0.00  0.00    +0.000 NA
ATOM     19  F   UNL     1      -2.718  -1.756   0.000  0.00  0.00    +0.000 F 
ENDBRANCH   3  16
TORSDOF 2
