REMARK  Name = I48
REMARK  8 active torsions:
REMARK  status: ('A' for Active; 'I' for Inactive)
REMARK    1  A    between atoms: C_4  and  N_7
REMARK    2  A    between atoms: N_7  and  C_8
REMARK    3  A    between atoms: C_8  and  C_9
REMARK    4  A    between atoms: C_9  and  O_10
REMARK    5  A    between atoms: O_10  and  C_11
REMARK    6  A    between atoms: C_13  and  N_18
REMARK    7  A    between atoms: N_18  and  S_19
REMARK    8  A    between atoms: S_19  and  C_22
REMARK                            x       y       z     vdW  Elec       q    Type
REMARK                         _______ _______ _______ _____ _____    ______ ____
ROOT
ATOM      1  C   UNL     1      -0.359   0.330   0.000  0.00  0.00    +0.000 A 
ATOM      2  C   UNL     1       0.355   0.742   0.000  0.00  0.00    +0.000 A 
ATOM      3  C   UNL     1       1.069   0.330   0.000  0.00  0.00    +0.000 A 
ATOM      4  C   UNL     1       1.069  -0.495   0.000  0.00  0.00    +0.000 A 
ATOM      5  C   UNL     1       0.355  -0.908   0.000  0.00  0.00    +0.000 A 
ATOM      6  C   UNL     1      -0.359  -0.495   0.000  0.00  0.00    +0.000 A 
ATOM      7  C   UNL     1       0.355  -1.733   0.000  0.00  0.00    +0.000 C 
ENDROOT
BRANCH   3   8
ATOM      8  N   UNL     1       1.784   0.742   0.000  0.00  0.00    +0.000 NA
BRANCH   8   9
ATOM      9  S   UNL     1       2.498   0.330   0.000  0.00  0.00    +0.000 S 
ATOM     10  O   UNL     1       2.086  -0.385   0.000  0.00  0.00    +0.000 OA
ATOM     11  O   UNL     1       2.911   1.044   0.000  0.00  0.00    +0.000 OA
BRANCH   9  12
ATOM     12  C   UNL     1       3.213  -0.083   0.000  0.00  0.00    +0.000 A 
ATOM     13  C   UNL     1       3.927   0.330   0.000  0.00  0.00    +0.000 A 
ATOM     14  C   UNL     1       4.642  -0.083   0.000  0.00  0.00    +0.000 A 
ATOM     15  C   UNL     1       4.642  -0.908   0.000  0.00  0.00    +0.000 A 
ATOM     16  C   UNL     1       3.927  -1.320   0.000  0.00  0.00    +0.000 A 
ATOM     17  C   UNL     1       3.213  -0.908   0.000  0.00  0.00    +0.000 A 
ENDBRANCH   9  12
ENDBRANCH   8   9
ENDBRANCH   3   8
BRANCH   1  18
ATOM     18  O   UNL     1      -1.074   0.742   0.000  0.00  0.00    +0.000 OA
BRANCH  18  19
ATOM     19  C   UNL     1      -1.788   0.330   0.000  0.00  0.00    +0.000 C 
BRANCH  19  20
ATOM     20  C   UNL     1      -2.503   0.742   0.000  0.00  0.00    +0.000 C 
BRANCH  20  21
ATOM     21  N   UNL     1      -3.217   0.330   0.000  0.00  0.00    +0.000 NA
BRANCH  21  25
ATOM     22  N   UNL     1      -5.361   1.567   0.000  0.00  0.00    +0.000 NA
ATOM     23  C   UNL     1      -4.646   1.980   0.000  0.00  0.00    +0.000 A 
ATOM     24  C   UNL     1      -3.932   1.567   0.000  0.00  0.00    +0.000 A 
ATOM     25  C   UNL     1      -3.932   0.742   0.000  0.00  0.00    +0.000 A 
ATOM     26  C   UNL     1      -4.646   0.330   0.000  0.00  0.00    +0.000 A 
ATOM     27  C   UNL     1      -5.361   0.742   0.000  0.00  0.00    +0.000 A 
ENDBRANCH  21  25
ENDBRANCH  20  21
ENDBRANCH  19  20
ENDBRANCH  18  19
ENDBRANCH   1  18
TORSDOF 8
