REMARK  Name = I4A
REMARK  4 active torsions:
REMARK  status: ('A' for Active; 'I' for Inactive)
REMARK    1  A    between atoms: C_2  and  C_4
REMARK    2  A    between atoms: N_17  and  C_18
REMARK    3  A    between atoms: C_18  and  C_19
REMARK    4  A    between atoms: C_21  and  C_22
REMARK                            x       y       z     vdW  Elec       q    Type
REMARK                         _______ _______ _______ _____ _____    ______ ____
ROOT
ATOM      1  C   UNL     1       2.335  -0.280   0.000  0.00  0.00    +0.000 A 
ATOM      2  C   UNL     1       1.525  -0.438   0.000  0.00  0.00    +0.000 A 
ATOM      3  C   UNL     1       1.256  -1.218   0.000  0.00  0.00    +0.000 A 
ATOM      4  C   UNL     1       0.432  -1.204   0.000  0.00  0.00    +0.000 A 
ATOM      5  C   UNL     1      -0.035  -1.884   0.000  0.00  0.00    +0.000 C 
ATOM      6  C   UNL     1      -0.857  -1.944   0.000  0.00  0.00    +0.000 C 
ATOM      7  C   UNL     1      -1.417  -1.338   0.000  0.00  0.00    +0.000 C 
ATOM      8  C   UNL     1      -1.293  -0.523   0.000  0.00  0.00    +0.000 C 
ATOM      9  C   UNL     1      -0.577  -0.112   0.000  0.00  0.00    +0.000 C 
ATOM     10  C   UNL     1       0.190  -0.415   0.000  0.00  0.00    +0.000 A 
ATOM     11  C   UNL     1       1.798  -1.840   0.000  0.00  0.00    +0.000 A 
ATOM     12  C   UNL     1       2.608  -1.682   0.000  0.00  0.00    +0.000 A 
ATOM     13  C   UNL     1       2.876  -0.902   0.000  0.00  0.00    +0.000 A 
ATOM     14  N   UNL     1       0.866   0.059   0.000  0.00  0.00    +0.000 N 
ENDROOT
BRANCH   1  16
ATOM     15  O   UNL     1       3.413   0.658   0.000  0.00  0.00    +0.000 OA
ATOM     16  C   UNL     1       2.603   0.500   0.000  0.00  0.00    +0.000 C 
ATOM     17  O   UNL     1       2.061   1.123   0.000  0.00  0.00    +0.000 OA
ENDBRANCH   1  16
BRANCH  14  18
ATOM     18  C   UNL     1       0.880   0.884   0.000  0.00  0.00    +0.000 C 
BRANCH  18  19
ATOM     19  C   UNL     1       0.172   1.308   0.000  0.00  0.00    +0.000 A 
ATOM     20  C   UNL     1       0.186   2.133   0.000  0.00  0.00    +0.000 A 
ATOM     21  C   UNL     1      -0.521   2.558   0.000  0.00  0.00    +0.000 A 
ATOM     22  C   UNL     1      -1.242   2.158   0.000  0.00  0.00    +0.000 A 
ATOM     23  C   UNL     1      -1.256   1.333   0.000  0.00  0.00    +0.000 A 
ATOM     24  C   UNL     1      -0.549   0.908   0.000  0.00  0.00    +0.000 A 
BRANCH  21  25
ATOM     25  C   UNL     1      -0.507   3.383   0.000  0.00  0.00    +0.000 C 
ATOM     26  N   UNL     1      -1.214   3.807   0.000  0.00  0.00    +0.000 NA
ATOM     27  O   UNL     1       0.215   3.783   0.000  0.00  0.00    +0.000 OA
ENDBRANCH  21  25
ENDBRANCH  18  19
ENDBRANCH  14  18
TORSDOF 4
