REMARK  Name = I59
REMARK  2 active torsions:
REMARK  status: ('A' for Active; 'I' for Inactive)
REMARK    1  A    between atoms: C_10  and  C_11
REMARK    2  A    between atoms: C_11  and  P_13
REMARK                            x       y       z     vdW  Elec       q    Type
REMARK                         _______ _______ _______ _____ _____    ______ ____
ROOT
ATOM      1  C   UNL     1      -1.522  -1.039   0.000  0.00  0.00    +0.000 A 
ATOM      2  C   UNL     1      -0.808  -1.451   0.000  0.00  0.00    +0.000 A 
ATOM      3  C   UNL     1      -0.093  -1.039   0.000  0.00  0.00    +0.000 A 
ATOM      4  C   UNL     1      -0.093  -0.214   0.000  0.00  0.00    +0.000 A 
ATOM      5  C   UNL     1      -0.808   0.199   0.000  0.00  0.00    +0.000 A 
ATOM      6  C   UNL     1      -1.522  -0.214   0.000  0.00  0.00    +0.000 A 
ATOM      7  C   UNL     1       0.621  -1.451   0.000  0.00  0.00    +0.000 A 
ATOM      8  C   UNL     1       1.335  -1.039   0.000  0.00  0.00    +0.000 A 
ATOM      9  C   UNL     1       1.335  -0.214   0.000  0.00  0.00    +0.000 A 
ATOM     10  C   UNL     1       0.621   0.199   0.000  0.00  0.00    +0.000 A 
ENDROOT
BRANCH  10  11
ATOM     11  C   UNL     1       0.621   1.024   0.000  0.00  0.00    +0.000 C 
ATOM     12  O   UNL     1       1.335   1.436   0.000  0.00  0.00    +0.000 OA
BRANCH  11  13
ATOM     13  P   UNL     1      -0.093   1.436   0.000  0.00  0.00    +0.000 P 
ATOM     14  O   UNL     1      -0.808   1.849   0.000  0.00  0.00    +0.000 OA
ATOM     15  O   UNL     1       0.319   2.151   0.000  0.00  0.00    +0.000 OA
ATOM     16  O   UNL     1      -0.506   0.722   0.000  0.00  0.00    +0.000 OA
ENDBRANCH  11  13
ENDBRANCH  10  11
TORSDOF 2
