REMARK  Name = I5S
REMARK  10 active torsions:
REMARK  status: ('A' for Active; 'I' for Inactive)
REMARK    1  A    between atoms: C_5  and  C_6
REMARK    2  A    between atoms: C_6  and  O_7
REMARK    3  A    between atoms: O_7  and  C_8
REMARK    4  A    between atoms: C_8  and  C_9
REMARK    5  A    between atoms: C_9  and  N_10
REMARK    6  A    between atoms: N_10  and  C_11
REMARK    7  A    between atoms: C_11  and  C_12
REMARK    8  A    between atoms: C_12  and  N_13
REMARK    9  A    between atoms: N_13  and  S_14
REMARK   10  A    between atoms: S_14  and  C_17
REMARK                            x       y       z     vdW  Elec       q    Type
REMARK                         _______ _______ _______ _____ _____    ______ ____
ROOT
ATOM      1  C   UNL     1       0.846   0.420   0.000  0.00  0.00    +0.000 C 
ENDROOT
BRANCH   1   2
ATOM      2  C   UNL     1       0.131   0.008   0.000  0.00  0.00    +0.000 C 
BRANCH   2   3
ATOM      3  N   UNL     1      -0.583   0.420   0.000  0.00  0.00    +0.000 NA
BRANCH   3   4
ATOM      4  C   UNL     1      -1.298   0.008   0.000  0.00  0.00    +0.000 C 
BRANCH   4   5
ATOM      5  C   UNL     1      -2.012   0.420   0.000  0.00  0.00    +0.000 C 
BRANCH   5   6
ATOM      6  O   UNL     1      -2.727   0.008   0.000  0.00  0.00    +0.000 OA
BRANCH   6   7
ATOM      7  C   UNL     1      -3.441   0.420   0.000  0.00  0.00    +0.000 C 
BRANCH   7  12
ATOM      8 CL   UNL     1      -6.299  -1.230   0.000  0.00  0.00    +0.000 Cl
ATOM      9  C   UNL     1      -5.585  -0.817   0.000  0.00  0.00    +0.000 A 
ATOM     10  C   UNL     1      -5.585   0.008   0.000  0.00  0.00    +0.000 A 
ATOM     11  C   UNL     1      -4.870   0.420   0.000  0.00  0.00    +0.000 A 
ATOM     12  C   UNL     1      -4.156   0.008   0.000  0.00  0.00    +0.000 A 
ATOM     13  C   UNL     1      -4.156  -0.817   0.000  0.00  0.00    +0.000 A 
ATOM     14  C   UNL     1      -4.870  -1.230   0.000  0.00  0.00    +0.000 A 
ENDBRANCH   7  12
ENDBRANCH   6   7
ENDBRANCH   5   6
ENDBRANCH   4   5
ENDBRANCH   3   4
ENDBRANCH   2   3
ENDBRANCH   1   2
BRANCH   1  15
ATOM     15  N   UNL     1       1.560   0.008   0.000  0.00  0.00    +0.000 NA
BRANCH  15  16
ATOM     16  S   UNL     1       2.275   0.420   0.000  0.00  0.00    +0.000 S 
ATOM     17  O   UNL     1       2.687  -0.294   0.000  0.00  0.00    +0.000 OA
ATOM     18  O   UNL     1       1.862   1.135   0.000  0.00  0.00    +0.000 OA
BRANCH  16  19
ATOM     19  C   UNL     1       2.989   0.833   0.000  0.00  0.00    +0.000 A 
ATOM     20  C   UNL     1       2.989   1.658   0.000  0.00  0.00    +0.000 A 
ATOM     21  C   UNL     1       3.704   2.070   0.000  0.00  0.00    +0.000 A 
ATOM     22  C   UNL     1       4.418   1.658   0.000  0.00  0.00    +0.000 A 
ATOM     23  C   UNL     1       4.418   0.833   0.000  0.00  0.00    +0.000 A 
ATOM     24  C   UNL     1       5.133   0.420   0.000  0.00  0.00    +0.000 A 
ATOM     25  N   UNL     1       5.133  -0.405   0.000  0.00  0.00    +0.000 NA
ATOM     26  C   UNL     1       4.418  -0.817   0.000  0.00  0.00    +0.000 A 
ATOM     27  C   UNL     1       3.704  -0.405   0.000  0.00  0.00    +0.000 A 
ATOM     28  C   UNL     1       3.704   0.420   0.000  0.00  0.00    +0.000 A 
ENDBRANCH  16  19
ENDBRANCH  15  16
ENDBRANCH   1  15
TORSDOF 10
