REMARK  Name = I84
REMARK  7 active torsions:
REMARK  status: ('A' for Active; 'I' for Inactive)
REMARK    1  A    between atoms: C_3  and  C_8
REMARK    2  A    between atoms: C_8  and  C_9
REMARK    3  A    between atoms: N_10  and  C_11
REMARK    4  A    between atoms: C_15  and  S_20
REMARK    5  A    between atoms: S_20  and  N_21
REMARK    6  A    between atoms: N_21  and  C_22
REMARK    7  A    between atoms: C_22  and  C_23
REMARK                            x       y       z     vdW  Elec       q    Type
REMARK                         _______ _______ _______ _____ _____    ______ ____
ROOT
ATOM      1  C   UNL     1       0.080   0.573   0.000  0.00  0.00    +0.000 A 
ATOM      2  C   UNL     1       0.795   0.985   0.000  0.00  0.00    +0.000 A 
ATOM      3  C   UNL     1       1.509   0.573   0.000  0.00  0.00    +0.000 A 
ATOM      4  C   UNL     1       1.509  -0.252   0.000  0.00  0.00    +0.000 A 
ATOM      5  C   UNL     1       0.795  -0.665   0.000  0.00  0.00    +0.000 A 
ATOM      6  C   UNL     1       0.080  -0.252   0.000  0.00  0.00    +0.000 A 
ATOM      7  C   UNL     1       0.795  -1.490   0.000  0.00  0.00    +0.000 C 
ATOM      8  C   UNL     1       2.224   0.985   0.000  0.00  0.00    +0.000 C 
ENDROOT
BRANCH   1  10
ATOM      9  C   UNL     1      -1.349   0.573   0.000  0.00  0.00    +0.000 C 
ATOM     10  N   UNL     1      -0.634   0.985   0.000  0.00  0.00    +0.000 NA
ATOM     11  O   UNL     1      -1.349  -0.252   0.000  0.00  0.00    +0.000 OA
BRANCH   9  12
ATOM     12  C   UNL     1      -2.063   0.985   0.000  0.00  0.00    +0.000 C 
BRANCH  12  15
ATOM     13  C   UNL     1      -4.207   0.573   0.000  0.00  0.00    +0.000 A 
ATOM     14  C   UNL     1      -3.492   0.985   0.000  0.00  0.00    +0.000 A 
ATOM     15  C   UNL     1      -2.778   0.573   0.000  0.00  0.00    +0.000 A 
ATOM     16  C   UNL     1      -2.778  -0.252   0.000  0.00  0.00    +0.000 A 
ATOM     17  C   UNL     1      -3.492  -0.665   0.000  0.00  0.00    +0.000 A 
ATOM     18  C   UNL     1      -4.207  -0.252   0.000  0.00  0.00    +0.000 A 
ATOM     19  C   UNL     1      -3.492   1.810   0.000  0.00  0.00    +0.000 C 
ENDBRANCH  12  15
ENDBRANCH   9  12
ENDBRANCH   1  10
BRANCH   4  20
ATOM     20  S   UNL     1       2.224  -0.665   0.000  0.00  0.00    +0.000 S 
ATOM     21  O   UNL     1       1.811  -1.379   0.000  0.00  0.00    +0.000 OA
ATOM     22  O   UNL     1       2.636   0.050   0.000  0.00  0.00    +0.000 OA
BRANCH  20  23
ATOM     23  N   UNL     1       2.938  -1.077   0.000  0.00  0.00    +0.000 NA
BRANCH  23  24
ATOM     24  C   UNL     1       3.652  -0.665   0.000  0.00  0.00    +0.000 C 
BRANCH  24  25
ATOM     25  C   UNL     1       4.367  -1.077   0.000  0.00  0.00    +0.000 C 
ATOM     26  O   UNL     1       5.082  -0.665   0.000  0.00  0.00    +0.000 OA
ATOM     27  O   UNL     1       4.367  -1.902   0.000  0.00  0.00    +0.000 OA
ENDBRANCH  24  25
ENDBRANCH  23  24
ENDBRANCH  20  23
ENDBRANCH   4  20
TORSDOF 7
