REMARK  Name = IAA
REMARK  3 active torsions:
REMARK  status: ('A' for Active; 'I' for Inactive)
REMARK    1  A    between atoms: C_2  and  C_4
REMARK    2  A    between atoms: C_4  and  O_5
REMARK    3  A    between atoms: O_5  and  N_6
REMARK                            x       y       z     vdW  Elec       q    Type
REMARK                         _______ _______ _______ _____ _____    ______ ____
ROOT
ATOM      1  N   UNL     1       0.211  -0.356   0.000  0.00  0.00    +0.000 NA
ATOM      2  C   UNL     1       0.467   0.429   0.000  0.00  0.00    +0.000 C 
ATOM      3  C   UNL     1      -0.018   1.096   0.000  0.00  0.00    +0.000 C 
ATOM      4  C   UNL     1      -0.843   1.096   0.000  0.00  0.00    +0.000 C 
ATOM      5  C   UNL     1      -1.328   1.764   0.000  0.00  0.00    +0.000 C 
ATOM      6  O   UNL     1      -1.073   2.548   0.000  0.00  0.00    +0.000 OA
ATOM      7  N   UNL     1      -2.113   1.509   0.000  0.00  0.00    +0.000 NA
ATOM      8  C   UNL     1      -2.113   0.684   0.000  0.00  0.00    +0.000 C 
ATOM      9  C   UNL     1      -2.726   0.132   0.000  0.00  0.00    +0.000 C 
ATOM     10  C   UNL     1      -2.555  -0.675   0.000  0.00  0.00    +0.000 C 
ATOM     11  C   UNL     1      -1.770  -0.930   0.000  0.00  0.00    +0.000 C 
ATOM     12  C   UNL     1      -1.157  -0.378   0.000  0.00  0.00    +0.000 C 
ATOM     13  C   UNL     1      -1.328   0.429   0.000  0.00  0.00    +0.000 C 
ATOM     14  N   UNL     1       0.467   1.764   0.000  0.00  0.00    +0.000 NA
ATOM     15  C   UNL     1       1.251   1.509   0.000  0.00  0.00    +0.000 C 
ATOM     16  C   UNL     1       1.966   1.921   0.000  0.00  0.00    +0.000 C 
ATOM     17  C   UNL     1       2.680   1.509   0.000  0.00  0.00    +0.000 C 
ATOM     18  C   UNL     1       2.680   0.684   0.000  0.00  0.00    +0.000 C 
ATOM     19  C   UNL     1       1.966   0.271   0.000  0.00  0.00    +0.000 C 
ATOM     20  C   UNL     1       1.251   0.684   0.000  0.00  0.00    +0.000 C 
ENDROOT
BRANCH   1  21
ATOM     21  O   UNL     1       0.764  -0.969   0.000  0.00  0.00    +0.000 OA
BRANCH  21  22
ATOM     22  C   UNL     1       0.509  -1.754   0.000  0.00  0.00    +0.000 C 
BRANCH  22  24
ATOM     23  O   UNL     1       0.806  -3.151   0.000  0.00  0.00    +0.000 OA
ATOM     24  C   UNL     1       1.061  -2.367   0.000  0.00  0.00    +0.000 C 
ATOM     25  O   UNL     1       1.868  -2.195   0.000  0.00  0.00    +0.000 OA
ENDBRANCH  22  24
ENDBRANCH  21  22
ENDBRANCH   1  21
TORSDOF 3
