REMARK  Name = IAG
REMARK  4 active torsions:
REMARK  status: ('A' for Active; 'I' for Inactive)
REMARK    1  A    between atoms: C_2  and  C_4
REMARK    2  A    between atoms: C_4  and  N_5
REMARK    3  A    between atoms: C_6  and  C_8
REMARK    4  A    between atoms: C_8  and  C_9
REMARK                            x       y       z     vdW  Elec       q    Type
REMARK                         _______ _______ _______ _____ _____    ______ ____
ROOT
ATOM      1  C   UNL     1       0.518   0.198   0.000  0.00  0.00    +0.000 A 
ATOM      2  C   UNL     1       0.604   1.018   0.000  0.00  0.00    +0.000 A 
ATOM      3  N   UNL     1       1.411   1.190   0.000  0.00  0.00    +0.000 NA
ATOM      4  C   UNL     1       1.271  -0.138   0.000  0.00  0.00    +0.000 A 
ATOM      5  C   UNL     1       1.823   0.475   0.000  0.00  0.00    +0.000 A 
ATOM      6  C   UNL     1       2.630   0.304   0.000  0.00  0.00    +0.000 A 
ATOM      7  C   UNL     1       2.885  -0.481   0.000  0.00  0.00    +0.000 A 
ATOM      8  C   UNL     1       2.333  -1.094   0.000  0.00  0.00    +0.000 A 
ATOM      9  C   UNL     1       1.526  -0.922   0.000  0.00  0.00    +0.000 A 
ENDROOT
BRANCH   1  10
ATOM     10  C   UNL     1      -0.197  -0.215   0.000  0.00  0.00    +0.000 C 
BRANCH  10  12
ATOM     11  N   UNL     1      -1.626  -0.215   0.000  0.00  0.00    +0.000 NA
ATOM     12  C   UNL     1      -0.911   0.198   0.000  0.00  0.00    +0.000 C 
ATOM     13  O   UNL     1      -0.911   1.023   0.000  0.00  0.00    +0.000 OA
BRANCH  11  14
ATOM     14  C   UNL     1      -2.340   0.198   0.000  0.00  0.00    +0.000 C 
BRANCH  14  16
ATOM     15  O   UNL     1      -3.769   0.198   0.000  0.00  0.00    +0.000 OA
ATOM     16  C   UNL     1      -3.055  -0.215   0.000  0.00  0.00    +0.000 C 
ATOM     17  O   UNL     1      -3.055  -1.040   0.000  0.00  0.00    +0.000 OA
ENDBRANCH  14  16
ENDBRANCH  11  14
ENDBRANCH  10  12
ENDBRANCH   1  10
TORSDOF 4
