REMARK  Name = IAP
REMARK  3 active torsions:
REMARK  status: ('A' for Active; 'I' for Inactive)
REMARK    1  A    between atoms: B_1  and  C_4
REMARK    2  A    between atoms: C_8  and  N_10
REMARK    3  A    between atoms: C_11  and  C_13
REMARK                            x       y       z     vdW  Elec       q    Type
REMARK                         _______ _______ _______ _____ _____    ______ ____
ROOT
ATOM      1  C   UNL     1       1.183  -0.104   0.000  0.00  0.00    +0.000 A 
ATOM      2  C   UNL     1       1.183  -0.929   0.000  0.00  0.00    +0.000 A 
ATOM      3  C   UNL     1       0.469  -1.341   0.000  0.00  0.00    +0.000 A 
ATOM      4  C   UNL     1      -0.246  -0.929   0.000  0.00  0.00    +0.000 A 
ATOM      5  C   UNL     1      -0.246  -0.104   0.000  0.00  0.00    +0.000 A 
ATOM      6  C   UNL     1       0.469   0.309   0.000  0.00  0.00    +0.000 A 
ENDROOT
BRANCH   1   7
ATOM      7  B   UNL     1       1.898   0.309   0.000  0.00  0.00    +0.000 B 
ATOM      8  O   UNL     1       2.612  -0.104   0.000  0.00  0.00    +0.000 OA
ATOM      9  O   UNL     1       1.898   1.134   0.000  0.00  0.00    +0.000 OA
ENDBRANCH   1   7
BRANCH   5  10
ATOM     10  N   UNL     1      -0.960   0.309   0.000  0.00  0.00    +0.000 NA
ATOM     11  C   UNL     1      -1.675  -0.104   0.000  0.00  0.00    +0.000 C 
ATOM     12  O   UNL     1      -1.675  -0.929   0.000  0.00  0.00    +0.000 OA
BRANCH  11  13
ATOM     13  C   UNL     1      -2.389   0.309   0.000  0.00  0.00    +0.000 C 
ATOM     14  I   UNL     1      -3.104  -0.104   0.000  0.00  0.00    +0.000 I 
ENDBRANCH  11  13
ENDBRANCH   5  10
TORSDOF 3
