REMARK  Name = IBM
REMARK  2 active torsions:
REMARK  status: ('A' for Active; 'I' for Inactive)
REMARK    1  A    between atoms: N_6  and  C_13
REMARK    2  A    between atoms: C_13  and  C_14
REMARK                            x       y       z     vdW  Elec       q    Type
REMARK                         _______ _______ _______ _____ _____    ______ ____
ROOT
ATOM      1  N   UNL     1      -1.716  -0.130   0.000  0.00  0.00    +0.000 NA
ATOM      2  C   UNL     1      -2.200  -0.797   0.000  0.00  0.00    +0.000 A 
ATOM      3  N   UNL     1      -1.716  -1.464   0.000  0.00  0.00    +0.000 NA
ATOM      4  C   UNL     1      -0.931  -1.210   0.000  0.00  0.00    +0.000 A 
ATOM      5  C   UNL     1      -0.931  -0.385   0.000  0.00  0.00    +0.000 A 
ATOM      6  N   UNL     1      -0.216   0.028   0.000  0.00  0.00    +0.000 N 
ATOM      7  C   UNL     1       0.498  -0.385   0.000  0.00  0.00    +0.000 A 
ATOM      8  N   UNL     1       0.498  -1.210   0.000  0.00  0.00    +0.000 N 
ATOM      9  C   UNL     1      -0.216  -1.622   0.000  0.00  0.00    +0.000 A 
ATOM     10  O   UNL     1      -0.216  -2.447   0.000  0.00  0.00    +0.000 OA
ATOM     11  O   UNL     1       1.212   0.028   0.000  0.00  0.00    +0.000 OA
ATOM     12  C   UNL     1       1.212  -1.622   0.000  0.00  0.00    +0.000 C 
ENDROOT
BRANCH   6  13
ATOM     13  C   UNL     1      -0.216   0.853   0.000  0.00  0.00    +0.000 C 
BRANCH  13  14
ATOM     14  C   UNL     1       0.498   1.266   0.000  0.00  0.00    +0.000 C 
ATOM     15  C   UNL     1       0.498   2.091   0.000  0.00  0.00    +0.000 C 
ATOM     16  C   UNL     1       1.212   0.853   0.000  0.00  0.00    +0.000 C 
ENDBRANCH  13  14
ENDBRANCH   6  13
TORSDOF 2
