REMARK  Name = ICL
REMARK  7 active torsions:
REMARK  status: ('A' for Active; 'I' for Inactive)
REMARK    1  A    between atoms: C_1  and  C_3
REMARK    2  A    between atoms: C_9  and  N_10
REMARK    3  A    between atoms: C_11  and  C_13
REMARK    4  A    between atoms: C_13  and  C_14
REMARK    5  A    between atoms: C_13  and  N_17
REMARK    6  A    between atoms: C_18  and  O_20
REMARK    7  A    between atoms: O_20  and  C_21
REMARK                            x       y       z     vdW  Elec       q    Type
REMARK                         _______ _______ _______ _____ _____    ______ ____
ROOT
ATOM      1  N   UNL     1      -1.554   0.092   0.000  0.00  0.00    +0.000 NA
ATOM      2  C   UNL     1      -0.839  -0.321   0.000  0.00  0.00    +0.000 C 
ATOM      3  O   UNL     1      -0.839  -1.145   0.000  0.00  0.00    +0.000 OA
ENDROOT
BRANCH   1  10
ATOM      4  C   UNL     1      -2.268  -1.145   0.000  0.00  0.00    +0.000 A 
ATOM      5  C   UNL     1      -2.982  -1.558   0.000  0.00  0.00    +0.000 A 
ATOM      6 CL   UNL     1      -2.982  -2.383   0.000  0.00  0.00    +0.000 Cl
ATOM      7  C   UNL     1      -3.697  -1.145   0.000  0.00  0.00    +0.000 A 
ATOM      8  C   UNL     1      -3.697  -0.321   0.000  0.00  0.00    +0.000 A 
ATOM      9  C   UNL     1      -2.982   0.092   0.000  0.00  0.00    +0.000 A 
ATOM     10  C   UNL     1      -2.268  -0.321   0.000  0.00  0.00    +0.000 A 
BRANCH   4  11
ATOM     11  C   UNL     1      -1.554  -1.558   0.000  0.00  0.00    +0.000 C 
ATOM     12  O   UNL     1      -1.554  -2.383   0.000  0.00  0.00    +0.000 OA
ENDBRANCH   4  11
ENDBRANCH   1  10
BRANCH   2  13
ATOM     13  C   UNL     1      -0.124   0.092   0.000  0.00  0.00    +0.000 C 
BRANCH  13  14
ATOM     14  C   UNL     1      -0.124   0.917   0.000  0.00  0.00    +0.000 C 
ATOM     15  C   UNL     1       0.590   1.329   0.000  0.00  0.00    +0.000 C 
ATOM     16  C   UNL     1      -0.839   1.329   0.000  0.00  0.00    +0.000 C 
ENDBRANCH  13  14
BRANCH  13  17
ATOM     17  N   UNL     1       0.590  -0.321   0.000  0.00  0.00    +0.000 NA
ATOM     18  C   UNL     1       1.304   0.092   0.000  0.00  0.00    +0.000 C 
ATOM     19  O   UNL     1       1.304   0.917   0.000  0.00  0.00    +0.000 OA
BRANCH  18  20
ATOM     20  O   UNL     1       2.019  -0.321   0.000  0.00  0.00    +0.000 OA
BRANCH  20  21
ATOM     21  C   UNL     1       2.733   0.092   0.000  0.00  0.00    +0.000 C 
ATOM     22  C   UNL     1       3.448   0.504   0.000  0.00  0.00    +0.000 C 
ATOM     23  C   UNL     1       3.146  -0.623   0.000  0.00  0.00    +0.000 C 
ATOM     24  C   UNL     1       2.321   0.806   0.000  0.00  0.00    +0.000 C 
ENDBRANCH  20  21
ENDBRANCH  18  20
ENDBRANCH  13  17
ENDBRANCH   2  13
TORSDOF 7
