REMARK  Name = ICU
REMARK  6 active torsions:
REMARK  status: ('A' for Active; 'I' for Inactive)
REMARK    1  A    between atoms: C_1  and  C_4
REMARK    2  A    between atoms: C_10  and  C_11
REMARK    3  A    between atoms: C_11  and  O_12
REMARK    4  A    between atoms: C_11  and  C_16
REMARK    5  A    between atoms: O_12  and  C_13
REMARK    6  A    between atoms: C_16  and  O_18
REMARK                            x       y       z     vdW  Elec       q    Type
REMARK                         _______ _______ _______ _____ _____    ______ ____
ROOT
ATOM      1  C   UNL     1       0.582  -0.982   0.000  0.00  0.00    +0.000 A 
ATOM      2  C   UNL     1       0.582  -1.807   0.000  0.00  0.00    +0.000 A 
ATOM      3  C   UNL     1      -0.132  -2.219   0.000  0.00  0.00    +0.000 A 
ATOM      4  N   UNL     1      -0.132  -3.044   0.000  0.00  0.00    +0.000 NA
ATOM      5  C   UNL     1      -0.847  -1.807   0.000  0.00  0.00    +0.000 A 
ATOM      6  C   UNL     1      -0.847  -0.982   0.000  0.00  0.00    +0.000 A 
ATOM      7  C   UNL     1      -0.132  -0.569   0.000  0.00  0.00    +0.000 A 
ENDROOT
BRANCH   1   8
ATOM      8  C   UNL     1       1.297  -0.569   0.000  0.00  0.00    +0.000 C 
ATOM      9  O   UNL     1       1.297   0.256   0.000  0.00  0.00    +0.000 OA
ATOM     10  O   UNL     1       2.011  -0.982   0.000  0.00  0.00    +0.000 OA
ENDBRANCH   1   8
BRANCH   7  11
ATOM     11  C   UNL     1      -0.132   0.256   0.000  0.00  0.00    +0.000 C 
BRANCH  11  12
ATOM     12  C   UNL     1       0.582   0.668   0.000  0.00  0.00    +0.000 C 
ATOM     13  O   UNL     1       1.403   0.755   0.000  0.00  0.00    +0.000 OA
BRANCH  12  14
ATOM     14  O   UNL     1       0.582   1.493   0.000  0.00  0.00    +0.000 OA
ATOM     15  C   UNL     1       1.297   1.906   0.000  0.00  0.00    +0.000 C 
ENDBRANCH  12  14
ENDBRANCH  11  12
BRANCH  11  16
ATOM     16  O   UNL     1      -0.847   0.668   0.000  0.00  0.00    +0.000 OA
BRANCH  16  17
ATOM     17  C   UNL     1      -0.847   1.493   0.000  0.00  0.00    +0.000 C 
ATOM     18  O   UNL     1      -0.132   1.906   0.000  0.00  0.00    +0.000 OA
ATOM     19  C   UNL     1      -1.561   1.906   0.000  0.00  0.00    +0.000 C 
ENDBRANCH  16  17
ENDBRANCH  11  16
ENDBRANCH   7  11
TORSDOF 6
