REMARK  Name = ID5
REMARK  6 active torsions:
REMARK  status: ('A' for Active; 'I' for Inactive)
REMARK    1  A    between atoms: C_3  and  O_12
REMARK    2  A    between atoms: C_6  and  C_9
REMARK    3  A    between atoms: C_10  and  C_14
REMARK    4  A    between atoms: O_12  and  C_15
REMARK    5  A    between atoms: C_14  and  N_28
REMARK    6  A    between atoms: C_15  and  C_25
REMARK                            x       y       z     vdW  Elec       q    Type
REMARK                         _______ _______ _______ _____ _____    ______ ____
ROOT
ATOM      1  C   UNL     1      -0.672   0.038   0.000  0.00  0.00    +0.000 C 
ATOM      2  O   UNL     1      -1.085   0.753   0.000  0.00  0.00    +0.000 OA
ATOM      3  N   UNL     1       0.153   0.038   0.000  0.00  0.00    +0.000 NA
ENDROOT
BRANCH   1   9
ATOM      4  C   UNL     1      -2.322  -1.390   0.000  0.00  0.00    +0.000 A 
ATOM      5  C   UNL     1      -0.672  -1.390   0.000  0.00  0.00    +0.000 A 
ATOM      6  C   UNL     1      -1.910  -0.676   0.000  0.00  0.00    +0.000 A 
ATOM      7  C   UNL     1      -1.910  -2.105   0.000  0.00  0.00    +0.000 A 
ATOM      8  C   UNL     1      -1.085  -2.105   0.000  0.00  0.00    +0.000 A 
ATOM      9  C   UNL     1      -1.085  -0.676   0.000  0.00  0.00    +0.000 A 
ATOM     10  F   UNL     1      -2.322  -2.819   0.000  0.00  0.00    +0.000 F 
BRANCH   6  11
ATOM     11  O   UNL     1      -2.322   0.038   0.000  0.00  0.00    +0.000 OA
BRANCH  11  12
ATOM     12  C   UNL     1      -3.147   0.038   0.000  0.00  0.00    +0.000 C 
BRANCH  12  13
ATOM     13  C   UNL     1      -3.560   0.753   0.000  0.00  0.00    +0.000 C 
ATOM     14  O   UNL     1      -4.385   0.753   0.000  0.00  0.00    +0.000 OA
ATOM     15  O   UNL     1      -3.147   1.468   0.000  0.00  0.00    +0.000 OA
ENDBRANCH  12  13
ENDBRANCH  11  12
ENDBRANCH   6  11
ENDBRANCH   1   9
BRANCH   3  16
ATOM     16  C   UNL     1       0.565   0.753   0.000  0.00  0.00    +0.000 C 
BRANCH  16  18
ATOM     17  F   UNL     1       4.803   1.578   0.000  0.00  0.00    +0.000 F 
ATOM     18  C   UNL     1       1.390   0.753   0.000  0.00  0.00    +0.000 A 
ATOM     19  F   UNL     1       3.374  -0.897   0.000  0.00  0.00    +0.000 F 
ATOM     20  N   UNL     1       1.875   1.420   0.000  0.00  0.00    +0.000 NA
ATOM     21  S   UNL     1       1.875   0.086   0.000  0.00  0.00    +0.000 S 
ATOM     22  F   UNL     1       3.374   2.403   0.000  0.00  0.00    +0.000 F 
ATOM     23  C   UNL     1       2.660   0.341   0.000  0.00  0.00    +0.000 A 
ATOM     24  C   UNL     1       4.089   1.165   0.000  0.00  0.00    +0.000 A 
ATOM     25  C   UNL     1       2.660   1.165   0.000  0.00  0.00    +0.000 A 
ATOM     26  C   UNL     1       3.374  -0.072   0.000  0.00  0.00    +0.000 A 
ATOM     27  C   UNL     1       4.089   0.341   0.000  0.00  0.00    +0.000 A 
ATOM     28  C   UNL     1       3.374   1.578   0.000  0.00  0.00    +0.000 A 
ENDBRANCH  16  18
ENDBRANCH   3  16
TORSDOF 6
