REMARK  Name = IDA
REMARK  6 active torsions:
REMARK  status: ('A' for Active; 'I' for Inactive)
REMARK    1  A    between atoms: C_2  and  C_4
REMARK    2  A    between atoms: C_4  and  C_5
REMARK    3  A    between atoms: C_11  and  C_12
REMARK    4  A    between atoms: C_12  and  C_13
REMARK    5  A    between atoms: C_16  and  C_17
REMARK    6  A    between atoms: C_17  and  C_18
REMARK                            x       y       z     vdW  Elec       q    Type
REMARK                         _______ _______ _______ _____ _____    ______ ____
ROOT
ATOM      1  C   UNL     1      -1.895   0.338   0.000  0.00  0.00    +0.000 A 
ATOM      2  N   UNL     1      -1.411  -0.329   0.000  0.00  0.00    +0.000 NA
ATOM      3  C   UNL     1      -0.626  -0.074   0.000  0.00  0.00    +0.000 A 
ATOM      4  C   UNL     1      -0.626   0.751   0.000  0.00  0.00    +0.000 A 
ATOM      5  C   UNL     1      -1.411   1.006   0.000  0.00  0.00    +0.000 A 
ATOM      6  C   UNL     1       0.088   1.163   0.000  0.00  0.00    +0.000 A 
ATOM      7  C   UNL     1       0.803   0.751   0.000  0.00  0.00    +0.000 A 
ATOM      8  C   UNL     1       0.803  -0.074   0.000  0.00  0.00    +0.000 A 
ATOM      9  C   UNL     1       0.088  -0.487   0.000  0.00  0.00    +0.000 A 
ENDROOT
BRANCH   1  10
ATOM     10  C   UNL     1      -2.720   0.338   0.000  0.00  0.00    +0.000 C 
BRANCH  10  12
ATOM     11  N   UNL     1      -3.958  -0.376   0.000  0.00  0.00    +0.000 NA
ATOM     12  C   UNL     1      -3.133  -0.376   0.000  0.00  0.00    +0.000 C 
ATOM     13  O   UNL     1      -2.720  -1.091   0.000  0.00  0.00    +0.000 OA
ENDBRANCH  10  12
ENDBRANCH   1  10
BRANCH   9  14
ATOM     14  C   UNL     1       0.088  -1.312   0.000  0.00  0.00    +0.000 C 
BRANCH  14  15
ATOM     15  C   UNL     1       0.803  -1.724   0.000  0.00  0.00    +0.000 C 
ATOM     16  O   UNL     1       1.518  -1.312   0.000  0.00  0.00    +0.000 OA
ATOM     17  O   UNL     1       0.803  -2.549   0.000  0.00  0.00    +0.000 OA
ENDBRANCH  14  15
ENDBRANCH   9  14
BRANCH   7  18
ATOM     18  C   UNL     1       1.518   1.163   0.000  0.00  0.00    +0.000 C 
BRANCH  18  19
ATOM     19  C   UNL     1       2.232   0.751   0.000  0.00  0.00    +0.000 C 
ATOM     20  C   UNL     1       2.946   1.163   0.000  0.00  0.00    +0.000 C 
ENDBRANCH  18  19
ENDBRANCH   7  18
TORSDOF 6
