REMARK  Name = IDI
REMARK  0 active torsions:
REMARK  status: ('A' for Active; 'I' for Inactive)
REMARK                            x       y       z     vdW  Elec       q    Type
REMARK                         _______ _______ _______ _____ _____    ______ ____
ROOT
ATOM      1  I   UNL     1      -2.237  -0.816   0.000  0.00  0.00    +0.000 I 
ATOM      2  C   UNL     1      -0.808   0.834   0.000  0.00  0.00    +0.000 A 
ATOM      3  C   UNL     1      -1.522   0.422   0.000  0.00  0.00    +0.000 A 
ATOM      4  C   UNL     1      -1.522  -0.403   0.000  0.00  0.00    +0.000 A 
ATOM      5  C   UNL     1      -0.808  -0.816   0.000  0.00  0.00    +0.000 A 
ATOM      6  C   UNL     1      -0.093  -0.403   0.000  0.00  0.00    +0.000 A 
ATOM      7  C   UNL     1      -0.093   0.422   0.000  0.00  0.00    +0.000 A 
ATOM      8  C   UNL     1       0.621  -0.816   0.000  0.00  0.00    +0.000 C 
ATOM      9  C   UNL     1       1.336   0.422   0.000  0.00  0.00    +0.000 C 
ATOM     10  C   UNL     1       0.621   0.834   0.000  0.00  0.00    +0.000 C 
ATOM     11  N   UNL     1       1.336  -0.403   0.000  0.00  0.00    +0.000 NA
ENDROOT
TORSDOF 0
