REMARK  Name = IDN
REMARK  4 active torsions:
REMARK  status: ('A' for Active; 'I' for Inactive)
REMARK    1  A    between atoms: C_4  and  C_7
REMARK    2  A    between atoms: C_8  and  C_9
REMARK    3  A    between atoms: N_11  and  C_13
REMARK    4  A    between atoms: C_13  and  C_14
REMARK                            x       y       z     vdW  Elec       q    Type
REMARK                         _______ _______ _______ _____ _____    ______ ____
ROOT
ATOM      1  C   UNL     1       0.587   0.842   0.000  0.00  0.00    +0.000 C 
ATOM      2  O   UNL     1       1.139   1.455   0.000  0.00  0.00    +0.000 OA
ATOM      3  N   UNL     1       0.842   0.057   0.000  0.00  0.00    +0.000 N 
ATOM      4  C   UNL     1       0.290  -0.556   0.000  0.00  0.00    +0.000 C 
ENDROOT
BRANCH   1   6
ATOM      5  C   UNL     1      -0.475   1.798   0.000  0.00  0.00    +0.000 C 
ATOM      6  C   UNL     1      -0.220   1.014   0.000  0.00  0.00    +0.000 C 
BRANCH   5  10
ATOM      7  C   UNL     1      -2.896   2.313   0.000  0.00  0.00    +0.000 A 
ATOM      8  C   UNL     1      -2.641   1.528   0.000  0.00  0.00    +0.000 A 
ATOM      9  C   UNL     1      -1.834   1.357   0.000  0.00  0.00    +0.000 A 
ATOM     10  C   UNL     1      -1.282   1.970   0.000  0.00  0.00    +0.000 A 
ATOM     11  C   UNL     1      -1.537   2.754   0.000  0.00  0.00    +0.000 A 
ATOM     12  N   UNL     1      -2.344   2.926   0.000  0.00  0.00    +0.000 NA
ATOM     13  N   UNL     1      -3.703   2.484   0.000  0.00  0.00    +0.000 NA
ATOM     14  C   UNL     1      -3.193   0.915   0.000  0.00  0.00    +0.000 C 
ATOM     15  C   UNL     1      -4.000   1.087   0.000  0.00  0.00    +0.000 C 
ATOM     16  C   UNL     1      -4.255   1.871   0.000  0.00  0.00    +0.000 C 
ATOM     17  O   UNL     1      -5.062   2.043   0.000  0.00  0.00    +0.000 OA
ENDBRANCH   5  10
ENDBRANCH   1   6
BRANCH   3  18
ATOM     18  C   UNL     1       1.649  -0.114   0.000  0.00  0.00    +0.000 C 
BRANCH  18  19
ATOM     19  C   UNL     1       1.904  -0.899   0.000  0.00  0.00    +0.000 A 
ATOM     20  C   UNL     1       1.419  -1.566   0.000  0.00  0.00    +0.000 A 
ATOM     21  N   UNL     1       1.904  -2.234   0.000  0.00  0.00    +0.000 N 
ATOM     22  C   UNL     1       2.688  -1.979   0.000  0.00  0.00    +0.000 A 
ATOM     23  C   UNL     1       2.688  -1.154   0.000  0.00  0.00    +0.000 A 
ATOM     24  C   UNL     1       1.649  -3.018   0.000  0.00  0.00    +0.000 C 
ATOM     25  C   UNL     1       4.117  -1.154   0.000  0.00  0.00    +0.000 A 
ATOM     26  C   UNL     1       4.117  -1.979   0.000  0.00  0.00    +0.000 A 
ATOM     27  C   UNL     1       3.403  -2.391   0.000  0.00  0.00    +0.000 A 
ATOM     28  C   UNL     1       3.403  -0.741   0.000  0.00  0.00    +0.000 A 
ENDBRANCH  18  19
ENDBRANCH   3  18
TORSDOF 4
