REMARK  Name = IDZ
REMARK  1 active torsions:
REMARK  status: ('A' for Active; 'I' for Inactive)
REMARK    1  A    between atoms: C_6  and  C_7
REMARK                            x       y       z     vdW  Elec       q    Type
REMARK                         _______ _______ _______ _____ _____    ______ ____
ROOT
ATOM      1  C   UNL     1       1.278   2.405   0.000  0.00  0.00    +0.000 A 
ATOM      2  C   UNL     1       1.992   1.993   0.000  0.00  0.00    +0.000 A 
ATOM      3  C   UNL     1       1.992   1.168   0.000  0.00  0.00    +0.000 A 
ATOM      4  C   UNL     1       1.278   0.755   0.000  0.00  0.00    +0.000 A 
ATOM      5  C   UNL     1       0.563   1.168   0.000  0.00  0.00    +0.000 A 
ATOM      6  C   UNL     1      -0.222   0.913   0.000  0.00  0.00    +0.000 A 
ATOM      7  N   UNL     1      -0.222   2.248   0.000  0.00  0.00    +0.000 NA
ATOM      8  C   UNL     1       0.563   1.993   0.000  0.00  0.00    +0.000 A 
ATOM      9  N   UNL     1      -0.707   1.580   0.000  0.00  0.00    +0.000 NA
ENDROOT
BRANCH   6  10
ATOM     10  C   UNL     1      -0.477   0.128   0.000  0.00  0.00    +0.000 A 
ATOM     11  N   UNL     1       0.008  -0.539   0.000  0.00  0.00    +0.000 NA
ATOM     12  C   UNL     1      -0.477  -1.207   0.000  0.00  0.00    +0.000 A 
ATOM     13  C   UNL     1      -0.305  -2.014   0.000  0.00  0.00    +0.000 A 
ATOM     14  C   UNL     1      -0.918  -2.566   0.000  0.00  0.00    +0.000 A 
ATOM     15  C   UNL     1      -1.703  -2.311   0.000  0.00  0.00    +0.000 A 
ATOM     16  C   UNL     1      -1.874  -1.504   0.000  0.00  0.00    +0.000 A 
ATOM     17  C   UNL     1      -1.261  -0.952   0.000  0.00  0.00    +0.000 A 
ATOM     18  N   UNL     1      -1.261  -0.127   0.000  0.00  0.00    +0.000 NA
ENDBRANCH   6  10
TORSDOF 1
