REMARK  Name = IEM
REMARK  5 active torsions:
REMARK  status: ('A' for Active; 'I' for Inactive)
REMARK    1  A    between atoms: C_1  and  C_2
REMARK    2  A    between atoms: C_5  and  N_14
REMARK    3  A    between atoms: C_6  and  O_7
REMARK    4  A    between atoms: O_7  and  C_8
REMARK    5  A    between atoms: C_8  and  C_9
REMARK                            x       y       z     vdW  Elec       q    Type
REMARK                         _______ _______ _______ _____ _____    ______ ____
ROOT
ATOM      1  C   UNL     1       0.985  -0.992   0.000  0.00  0.00    +0.000 C 
ATOM      2  C   UNL     1       0.271  -1.404   0.000  0.00  0.00    +0.000 C 
ATOM      3  C   UNL     1      -0.444  -0.992   0.000  0.00  0.00    +0.000 C 
ATOM      4  C   UNL     1      -0.444  -0.167   0.000  0.00  0.00    +0.000 C 
ATOM      5  C   UNL     1       0.271   0.246   0.000  0.00  0.00    +0.000 C 
ATOM      6  O   UNL     1      -1.158  -1.404   0.000  0.00  0.00    +0.000 OA
ATOM      7  O   UNL     1       0.985  -0.167   0.000  0.00  0.00    +0.000 OA
ENDROOT
BRANCH   4  10
ATOM      8  C   UNL     1      -1.873  -0.167   0.000  0.00  0.00    +0.000 C 
ATOM      9  C   UNL     1      -1.873  -0.992   0.000  0.00  0.00    +0.000 C 
ATOM     10  N   UNL     1      -1.158   0.246   0.000  0.00  0.00    +0.000 NA
ATOM     11  O   UNL     1      -2.587   0.246   0.000  0.00  0.00    +0.000 OA
ENDBRANCH   4  10
BRANCH   1  12
ATOM     12  C   UNL     1       1.700  -1.404   0.000  0.00  0.00    +0.000 C 
ATOM     13  O   UNL     1       2.414  -0.992   0.000  0.00  0.00    +0.000 OA
ATOM     14  O   UNL     1       1.700  -2.229   0.000  0.00  0.00    +0.000 OA
ENDBRANCH   1  12
BRANCH   5  15
ATOM     15  O   UNL     1       0.271   1.071   0.000  0.00  0.00    +0.000 OA
BRANCH  15  16
ATOM     16  C   UNL     1       0.985   1.484   0.000  0.00  0.00    +0.000 C 
BRANCH  16  17
ATOM     17  C   UNL     1       0.985   2.308   0.000  0.00  0.00    +0.000 C 
ATOM     18  C   UNL     1       1.700   2.721   0.000  0.00  0.00    +0.000 C 
ATOM     19  C   UNL     1       0.271   2.721   0.000  0.00  0.00    +0.000 C 
ENDBRANCH  16  17
ENDBRANCH  15  16
ENDBRANCH   5  15
TORSDOF 5
