REMARK  Name = IFA
REMARK  6 active torsions:
REMARK  status: ('A' for Active; 'I' for Inactive)
REMARK    1  A    between atoms: C_8  and  C_9
REMARK    2  A    between atoms: C_16  and  C_17
REMARK    3  A    between atoms: N_19  and  C_20
REMARK    4  A    between atoms: C_20  and  C_21
REMARK    5  A    between atoms: C_21  and  C_22
REMARK    6  A    between atoms: C_22  and  O_24
REMARK                            x       y       z     vdW  Elec       q    Type
REMARK                         _______ _______ _______ _____ _____    ______ ____
ROOT
ATOM      1  C   UNL     1      -0.762   0.206   0.000  0.00  0.00    +0.000 A 
ATOM      2  C   UNL     1      -0.048   0.619   0.000  0.00  0.00    +0.000 A 
ATOM      3  C   UNL     1      -0.762  -0.619   0.000  0.00  0.00    +0.000 A 
ATOM      4  C   UNL     1      -0.048  -1.031   0.000  0.00  0.00    +0.000 A 
ATOM      5  I   UNL     1      -0.048  -1.856   0.000  0.00  0.00    +0.000 I 
ATOM      6  C   UNL     1       0.667  -0.619   0.000  0.00  0.00    +0.000 A 
ATOM      7  O   UNL     1       1.381  -1.031   0.000  0.00  0.00    +0.000 OA
ATOM      8  C   UNL     1       0.667   0.206   0.000  0.00  0.00    +0.000 A 
ENDROOT
BRANCH   1  16
ATOM      9  F   UNL     1      -2.191  -0.619   0.000  0.00  0.00    +0.000 F 
ATOM     10  C   UNL     1      -2.191   0.206   0.000  0.00  0.00    +0.000 A 
ATOM     11  C   UNL     1      -2.905   0.619   0.000  0.00  0.00    +0.000 A 
ATOM     12  C   UNL     1      -2.905   1.444   0.000  0.00  0.00    +0.000 A 
ATOM     13  F   UNL     1      -3.620   1.856   0.000  0.00  0.00    +0.000 F 
ATOM     14  C   UNL     1      -2.191   1.856   0.000  0.00  0.00    +0.000 A 
ATOM     15  C   UNL     1      -1.476   1.444   0.000  0.00  0.00    +0.000 A 
ATOM     16  C   UNL     1      -1.476   0.619   0.000  0.00  0.00    +0.000 A 
ENDBRANCH   1  16
BRANCH   8  17
ATOM     17  C   UNL     1       1.381   0.619   0.000  0.00  0.00    +0.000 C 
ATOM     18  O   UNL     1       1.381   1.444   0.000  0.00  0.00    +0.000 OA
ATOM     19  N   UNL     1       2.096   0.206   0.000  0.00  0.00    +0.000 NA
BRANCH  19  20
ATOM     20  C   UNL     1       2.810   0.619   0.000  0.00  0.00    +0.000 C 
BRANCH  20  21
ATOM     21  C   UNL     1       3.525   0.206   0.000  0.00  0.00    +0.000 C 
BRANCH  21  22
ATOM     22  C   UNL     1       4.239   0.619   0.000  0.00  0.00    +0.000 C 
ATOM     23  O   UNL     1       4.239   1.444   0.000  0.00  0.00    +0.000 OA
BRANCH  22  24
ATOM     24  O   UNL     1       4.954   0.206   0.000  0.00  0.00    +0.000 OA
ATOM     25  C   UNL     1       5.668   0.619   0.000  0.00  0.00    +0.000 C 
ENDBRANCH  22  24
ENDBRANCH  21  22
ENDBRANCH  20  21
ENDBRANCH  19  20
ENDBRANCH   8  17
TORSDOF 6
