REMARK  Name = IFB
REMARK  5 active torsions:
REMARK  status: ('A' for Active; 'I' for Inactive)
REMARK    1  A    between atoms: C_2  and  C_4
REMARK    2  A    between atoms: C_4  and  C_5
REMARK    3  A    between atoms: C_5  and  N_6
REMARK    4  A    between atoms: C_7  and  C_9
REMARK    5  A    between atoms: C_16  and  C_17
REMARK                            x       y       z     vdW  Elec       q    Type
REMARK                         _______ _______ _______ _____ _____    ______ ____
ROOT
ATOM      1  C   UNL     1      -0.917   0.209   0.000  0.00  0.00    +0.000 A 
ATOM      2  C   UNL     1      -0.203   0.621   0.000  0.00  0.00    +0.000 A 
ATOM      3  C   UNL     1      -0.917  -0.616   0.000  0.00  0.00    +0.000 A 
ATOM      4  O   UNL     1      -1.632  -1.029   0.000  0.00  0.00    +0.000 OA
ATOM      5  C   UNL     1      -0.203  -1.029   0.000  0.00  0.00    +0.000 A 
ATOM      6  I   UNL     1      -0.203  -1.854   0.000  0.00  0.00    +0.000 I 
ATOM      7  C   UNL     1       0.512  -0.616   0.000  0.00  0.00    +0.000 A 
ATOM      8  C   UNL     1       0.512   0.209   0.000  0.00  0.00    +0.000 A 
ENDROOT
BRANCH   8   9
ATOM      9  C   UNL     1       1.226   0.621   0.000  0.00  0.00    +0.000 A 
ATOM     10  C   UNL     1       1.226   1.446   0.000  0.00  0.00    +0.000 A 
ATOM     11  F   UNL     1       0.512   1.859   0.000  0.00  0.00    +0.000 F 
ATOM     12  C   UNL     1       1.941   0.209   0.000  0.00  0.00    +0.000 A 
ATOM     13  C   UNL     1       2.655   0.621   0.000  0.00  0.00    +0.000 A 
ATOM     14  C   UNL     1       2.655   1.446   0.000  0.00  0.00    +0.000 A 
ATOM     15  F   UNL     1       3.370   1.859   0.000  0.00  0.00    +0.000 F 
ATOM     16  C   UNL     1       1.941   1.859   0.000  0.00  0.00    +0.000 A 
ENDBRANCH   8   9
BRANCH   1  18
ATOM     17  N   UNL     1      -2.346   0.209   0.000  0.00  0.00    +0.000 NA
ATOM     18  C   UNL     1      -1.632   0.621   0.000  0.00  0.00    +0.000 C 
ATOM     19  O   UNL     1      -1.632   1.446   0.000  0.00  0.00    +0.000 OA
BRANCH  17  20
ATOM     20  C   UNL     1      -3.061   0.621   0.000  0.00  0.00    +0.000 C 
BRANCH  20  21
ATOM     21  C   UNL     1      -3.775   0.209   0.000  0.00  0.00    +0.000 C 
BRANCH  21  23
ATOM     22  O   UNL     1      -5.204   0.209   0.000  0.00  0.00    +0.000 OA
ATOM     23  C   UNL     1      -4.489   0.621   0.000  0.00  0.00    +0.000 C 
ATOM     24  O   UNL     1      -4.489   1.446   0.000  0.00  0.00    +0.000 OA
ENDBRANCH  21  23
ENDBRANCH  20  21
ENDBRANCH  17  20
ENDBRANCH   1  18
TORSDOF 5
