REMARK  Name = IGP
REMARK  5 active torsions:
REMARK  status: ('A' for Active; 'I' for Inactive)
REMARK    1  A    between atoms: C_1  and  O_6
REMARK    2  A    between atoms: C_1  and  C_7
REMARK    3  A    between atoms: P_2  and  O_6
REMARK    4  A    between atoms: C_7  and  C_9
REMARK    5  A    between atoms: C_9  and  C_11
REMARK                            x       y       z     vdW  Elec       q    Type
REMARK                         _______ _______ _______ _____ _____    ______ ____
ROOT
ATOM      1  C   UNL     1      -0.052  -0.114   0.000  0.00  0.00    +0.000 C 
ATOM      2  O   UNL     1      -0.052  -0.939   0.000  0.00  0.00    +0.000 OA
ENDROOT
BRANCH   1   3
ATOM      3  C   UNL     1       0.662   0.299   0.000  0.00  0.00    +0.000 A 
ATOM      4  C   UNL     1       1.416  -0.037   0.000  0.00  0.00    +0.000 A 
ATOM      5  C   UNL     1       1.968   0.576   0.000  0.00  0.00    +0.000 A 
ATOM      6  C   UNL     1       1.671  -0.822   0.000  0.00  0.00    +0.000 A 
ATOM      7  C   UNL     1       0.749   1.119   0.000  0.00  0.00    +0.000 A 
ATOM      8  N   UNL     1       1.556   1.291   0.000  0.00  0.00    +0.000 NA
ATOM      9  C   UNL     1       2.775   0.405   0.000  0.00  0.00    +0.000 A 
ATOM     10  C   UNL     1       2.478  -0.993   0.000  0.00  0.00    +0.000 A 
ATOM     11  C   UNL     1       3.030  -0.380   0.000  0.00  0.00    +0.000 A 
ENDBRANCH   1   3
BRANCH   1  12
ATOM     12  C   UNL     1      -0.766   0.299   0.000  0.00  0.00    +0.000 C 
ATOM     13  O   UNL     1      -0.766   1.124   0.000  0.00  0.00    +0.000 OA
BRANCH  12  14
ATOM     14  C   UNL     1      -1.481  -0.114   0.000  0.00  0.00    +0.000 C 
BRANCH  14  15
ATOM     15  O   UNL     1      -2.195   0.299   0.000  0.00  0.00    +0.000 OA
BRANCH  15  16
ATOM     16  P   UNL     1      -2.910  -0.114   0.000  0.00  0.00    +0.000 P 
ATOM     17  O   UNL     1      -3.624  -0.526   0.000  0.00  0.00    +0.000 OA
ATOM     18  O   UNL     1      -2.497  -0.828   0.000  0.00  0.00    +0.000 OA
ATOM     19  O   UNL     1      -3.322   0.601   0.000  0.00  0.00    +0.000 OA
ENDBRANCH  15  16
ENDBRANCH  14  15
ENDBRANCH  12  14
ENDBRANCH   1  12
TORSDOF 5
