REMARK  Name = IH6
REMARK  6 active torsions:
REMARK  status: ('A' for Active; 'I' for Inactive)
REMARK    1  A    between atoms: C_3  and  C_4
REMARK    2  A    between atoms: C_4  and  O_5
REMARK    3  A    between atoms: O_5  and  C_6
REMARK    4  A    between atoms: C_9  and  S_12
REMARK    5  A    between atoms: S_12  and  N_15
REMARK    6  A    between atoms: C_20  and  C_21
REMARK                            x       y       z     vdW  Elec       q    Type
REMARK                         _______ _______ _______ _____ _____    ______ ____
ROOT
ATOM      1  S   UNL     1       0.653  -0.650   0.000  0.00  0.00    +0.000 S 
ATOM      2  O   UNL     1      -0.172  -0.650   0.000  0.00  0.00    +0.000 OA
ATOM      3  O   UNL     1       1.478  -0.650   0.000  0.00  0.00    +0.000 OA
ENDROOT
BRANCH   1   4
ATOM      4  N   UNL     1       0.653  -1.475   0.000  0.00  0.00    +0.000 NA
ATOM      5  C   UNL     1       1.367  -1.887   0.000  0.00  0.00    +0.000 C 
ATOM      6  C   UNL     1       1.367  -2.712   0.000  0.00  0.00    +0.000 C 
ATOM      7  S   UNL     1       0.653  -3.125   0.000  0.00  0.00    +0.000 S 
ATOM      8  C   UNL     1      -0.062  -2.712   0.000  0.00  0.00    +0.000 C 
ATOM      9  C   UNL     1      -0.062  -1.887   0.000  0.00  0.00    +0.000 C 
ATOM     10  C   UNL     1      -0.499  -3.412   0.000  0.00  0.00    +0.000 C 
ATOM     11  C   UNL     1      -0.886  -2.741   0.000  0.00  0.00    +0.000 C 
BRANCH   9  12
ATOM     12  C   UNL     1      -0.776  -1.475   0.000  0.00  0.00    +0.000 C 
ATOM     13  O   UNL     1      -1.490  -1.887   0.000  0.00  0.00    +0.000 OA
ATOM     14  N   UNL     1      -0.776  -0.650   0.000  0.00  0.00    +0.000 NA
ATOM     15  O   UNL     1      -1.490  -0.237   0.000  0.00  0.00    +0.000 OA
ENDBRANCH   9  12
ENDBRANCH   1   4
BRANCH   1  19
ATOM     16  C   UNL     1       0.653   1.825   0.000  0.00  0.00    +0.000 A 
ATOM     17  C   UNL     1       1.367   1.413   0.000  0.00  0.00    +0.000 A 
ATOM     18  C   UNL     1       1.367   0.588   0.000  0.00  0.00    +0.000 A 
ATOM     19  C   UNL     1       0.653   0.175   0.000  0.00  0.00    +0.000 A 
ATOM     20  C   UNL     1      -0.062   0.588   0.000  0.00  0.00    +0.000 A 
ATOM     21  C   UNL     1      -0.062   1.413   0.000  0.00  0.00    +0.000 A 
BRANCH  16  22
ATOM     22  O   UNL     1       0.653   2.650   0.000  0.00  0.00    +0.000 OA
BRANCH  22  23
ATOM     23  C   UNL     1      -0.062   3.063   0.000  0.00  0.00    +0.000 C 
BRANCH  23  26
ATOM     24  C   UNL     1      -0.062   5.538   0.000  0.00  0.00    +0.000 C 
ATOM     25  C   UNL     1      -0.062   4.713   0.000  0.00  0.00    +0.000 C 
ATOM     26  C   UNL     1      -0.062   3.888   0.000  0.00  0.00    +0.000 C 
ENDBRANCH  23  26
ENDBRANCH  22  23
ENDBRANCH  16  22
ENDBRANCH   1  19
TORSDOF 6
