REMARK  Name = IHE
REMARK  6 active torsions:
REMARK  status: ('A' for Active; 'I' for Inactive)
REMARK    1  A    between atoms: N_6  and  C_8
REMARK    2  A    between atoms: C_8  and  C_9
REMARK    3  A    between atoms: C_9  and  N_10
REMARK    4  A    between atoms: C_15  and  C_27
REMARK    5  A    between atoms: C_17  and  N_19
REMARK    6  A    between atoms: N_19  and  C_20
REMARK                            x       y       z     vdW  Elec       q    Type
REMARK                         _______ _______ _______ _____ _____    ______ ____
ROOT
ATOM      1  N   UNL     1       0.379   0.181   0.000  0.00  0.00    +0.000 N 
ATOM      2  C   UNL     1      -0.106  -0.487   0.000  0.00  0.00    +0.000 A 
ATOM      3  N   UNL     1       0.379  -1.154   0.000  0.00  0.00    +0.000 NA
ATOM      4  C   UNL     1       1.163  -0.074   0.000  0.00  0.00    +0.000 A 
ATOM      5  N   UNL     1       1.878   0.338   0.000  0.00  0.00    +0.000 NA
ATOM      6  C   UNL     1       2.592  -0.074   0.000  0.00  0.00    +0.000 A 
ATOM      7  N   UNL     1       2.592  -0.899   0.000  0.00  0.00    +0.000 NA
ATOM      8  C   UNL     1       1.878  -1.312   0.000  0.00  0.00    +0.000 A 
ATOM      9  C   UNL     1       1.163  -0.899   0.000  0.00  0.00    +0.000 A 
ENDROOT
BRANCH   6  11
ATOM     10  N   UNL     1       4.021   0.751   0.000  0.00  0.00    +0.000 NA
ATOM     11  C   UNL     1       3.307   0.338   0.000  0.00  0.00    +0.000 C 
ENDBRANCH   6  11
BRANCH   1  12
ATOM     12  C   UNL     1       0.124   0.965   0.000  0.00  0.00    +0.000 C 
BRANCH  12  13
ATOM     13  C   UNL     1      -0.683   1.137   0.000  0.00  0.00    +0.000 C 
BRANCH  13  19
ATOM     14  C   UNL     1      -1.745   2.093   0.000  0.00  0.00    +0.000 C 
ATOM     15  C   UNL     1      -0.641   3.319   0.000  0.00  0.00    +0.000 C 
ATOM     16  N   UNL     1      -1.448   3.491   0.000  0.00  0.00    +0.000 NA
ATOM     17  C   UNL     1      -2.000   2.877   0.000  0.00  0.00    +0.000 C 
ATOM     18  C   UNL     1      -0.386   2.534   0.000  0.00  0.00    +0.000 C 
ATOM     19  N   UNL     1      -0.938   1.921   0.000  0.00  0.00    +0.000 NA
ATOM     20  C   UNL     1      -1.703   4.275   0.000  0.00  0.00    +0.000 C 
ENDBRANCH  13  19
ENDBRANCH  12  13
ENDBRANCH   1  12
BRANCH   8  21
ATOM     21  N   UNL     1       1.878  -2.137   0.000  0.00  0.00    +0.000 NA
BRANCH  21  22
ATOM     22  C   UNL     1       1.163  -2.549   0.000  0.00  0.00    +0.000 C 
ATOM     23  C   UNL     1       1.163  -3.374   0.000  0.00  0.00    +0.000 C 
ATOM     24  C   UNL     1       0.449  -3.787   0.000  0.00  0.00    +0.000 C 
ATOM     25  C   UNL     1      -0.266  -3.374   0.000  0.00  0.00    +0.000 C 
ATOM     26  C   UNL     1      -0.266  -2.549   0.000  0.00  0.00    +0.000 C 
ATOM     27  C   UNL     1       0.449  -2.137   0.000  0.00  0.00    +0.000 C 
ENDBRANCH  21  22
ENDBRANCH   8  21
TORSDOF 6
