REMARK  Name = IHH
REMARK  4 active torsions:
REMARK  status: ('A' for Active; 'I' for Inactive)
REMARK    1  A    between atoms: C_9  and  N_24
REMARK    2  A    between atoms: C_12  and  C_27
REMARK    3  A    between atoms: C_15  and  C_16
REMARK    4  A    between atoms: C_27  and  C_28
REMARK                            x       y       z     vdW  Elec       q    Type
REMARK                         _______ _______ _______ _____ _____    ______ ____
ROOT
ATOM      1  C   UNL     1      -2.094   0.548   0.000  0.00  0.00    +0.000 A 
ATOM      2  C   UNL     1      -2.094   1.373   0.000  0.00  0.00    +0.000 A 
ATOM      3  C   UNL     1      -1.379   1.785   0.000  0.00  0.00    +0.000 A 
ATOM      4  C   UNL     1      -1.379   0.135   0.000  0.00  0.00    +0.000 A 
ATOM      5  C   UNL     1      -0.665   0.548   0.000  0.00  0.00    +0.000 A 
ATOM      6  C   UNL     1      -0.665   1.373   0.000  0.00  0.00    +0.000 A 
ATOM      7  C   UNL     1       0.764   1.373   0.000  0.00  0.00    +0.000 A 
ATOM      8  C   UNL     1       0.050   0.135   0.000  0.00  0.00    +0.000 A 
ATOM      9  C   UNL     1      -1.971  -1.380   0.000  0.00  0.00    +0.000 A 
ATOM     10  C   UNL     1      -1.419  -0.767   0.000  0.00  0.00    +0.000 A 
ATOM     11  N   UNL     1      -1.558  -2.095   0.000  0.00  0.00    +0.000 NA
ATOM     12  N   UNL     1      -0.751  -1.923   0.000  0.00  0.00    +0.000 NA
ATOM     13  C   UNL     1      -0.665  -1.102   0.000  0.00  0.00    +0.000 A 
ATOM     14  N   UNL     1       0.050  -0.690   0.000  0.00  0.00    +0.000 NA
ATOM     15  N   UNL     1       0.764   0.548   0.000  0.00  0.00    +0.000 NA
ATOM     16  N   UNL     1       0.050   1.785   0.000  0.00  0.00    +0.000 NA
ATOM     17  N   UNL     1       1.478   1.785   0.000  0.00  0.00    +0.000 NA
ENDROOT
BRANCH  17  18
ATOM     18  C   UNL     1       2.193   1.373   0.000  0.00  0.00    +0.000 A 
ATOM     19  C   UNL     1       2.907   1.785   0.000  0.00  0.00    +0.000 A 
ATOM     20  C   UNL     1       3.622   1.373   0.000  0.00  0.00    +0.000 A 
ATOM     21  C   UNL     1       3.622   0.548   0.000  0.00  0.00    +0.000 A 
ATOM     22  C   UNL     1       2.193   0.548   0.000  0.00  0.00    +0.000 A 
ATOM     23  C   UNL     1       2.907   0.135   0.000  0.00  0.00    +0.000 A 
BRANCH  21  24
ATOM     24  C   UNL     1       4.336   0.135   0.000  0.00  0.00    +0.000 C 
BRANCH  24  25
ATOM     25  C   UNL     1       5.051   0.548   0.000  0.00  0.00    +0.000 C 
ATOM     26  N   UNL     1       5.765   0.960   0.000  0.00  0.00    +0.000 NA
ENDBRANCH  24  25
ENDBRANCH  21  24
ENDBRANCH  17  18
BRANCH   9  29
ATOM     27  C   UNL     1      -3.545  -1.629   0.000  0.00  0.00    +0.000 C 
ATOM     28  C   UNL     1      -3.459  -0.809   0.000  0.00  0.00    +0.000 C 
ATOM     29  C   UNL     1      -2.791  -1.294   0.000  0.00  0.00    +0.000 C 
ENDBRANCH   9  29
TORSDOF 4
