REMARK  Name = IHI
REMARK  8 active torsions:
REMARK  status: ('A' for Active; 'I' for Inactive)
REMARK    1  A    between atoms: N_5  and  C_11
REMARK    2  A    between atoms: C_9  and  C_25
REMARK    3  A    between atoms: N_10  and  C_17
REMARK    4  A    between atoms: C_22  and  O_23
REMARK    5  A    between atoms: O_23  and  C_24
REMARK    6  A    between atoms: C_24  and  C_26
REMARK    7  A    between atoms: C_26  and  C_27
REMARK    8  A    between atoms: C_27  and  N_28
REMARK                            x       y       z     vdW  Elec       q    Type
REMARK                         _______ _______ _______ _____ _____    ______ ____
ROOT
ATOM      1  C   UNL     1       3.290  -0.629   0.000  0.00  0.00    +0.000 A 
ATOM      2  N   UNL     1       3.775  -1.296   0.000  0.00  0.00    +0.000 NA
ATOM      3  C   UNL     1       4.560  -1.041   0.000  0.00  0.00    +0.000 A 
ATOM      4  C   UNL     1       4.560  -0.216   0.000  0.00  0.00    +0.000 A 
ATOM      5  N   UNL     1       3.775   0.039   0.000  0.00  0.00    +0.000 N 
ATOM      6  C   UNL     1       5.274  -1.454   0.000  0.00  0.00    +0.000 A 
ATOM      7  N   UNL     1       5.274   0.196   0.000  0.00  0.00    +0.000 NA
ATOM      8  N   UNL     1       5.989  -1.041   0.000  0.00  0.00    +0.000 NA
ATOM      9  C   UNL     1       5.989  -0.216   0.000  0.00  0.00    +0.000 A 
ATOM     10  N   UNL     1       5.274  -2.279   0.000  0.00  0.00    +0.000 NA
ENDROOT
BRANCH  10  11
ATOM     11  C   UNL     1       5.989  -2.691   0.000  0.00  0.00    +0.000 A 
ATOM     12  C   UNL     1       6.703  -2.279   0.000  0.00  0.00    +0.000 A 
ATOM     13  C   UNL     1       7.418  -2.691   0.000  0.00  0.00    +0.000 A 
ATOM     14  C   UNL     1       7.418  -3.516   0.000  0.00  0.00    +0.000 A 
ATOM     15  C   UNL     1       6.703  -3.929   0.000  0.00  0.00    +0.000 A 
ATOM     16  C   UNL     1       5.989  -3.516   0.000  0.00  0.00    +0.000 A 
BRANCH  16  17
ATOM     17  O   UNL     1       5.274  -3.929   0.000  0.00  0.00    +0.000 OA
BRANCH  17  18
ATOM     18  C   UNL     1       5.274  -4.754   0.000  0.00  0.00    +0.000 C 
BRANCH  18  19
ATOM     19  C   UNL     1       4.560  -5.166   0.000  0.00  0.00    +0.000 C 
BRANCH  19  20
ATOM     20  C   UNL     1       4.560  -5.991   0.000  0.00  0.00    +0.000 C 
BRANCH  20  21
ATOM     21  N   UNL     1       3.845  -6.404   0.000  0.00  0.00    +0.000 N 
ATOM     22  C   UNL     1       3.759  -7.224   0.000  0.00  0.00    +0.000 A 
ATOM     23  N   UNL     1       2.952  -7.396   0.000  0.00  0.00    +0.000 NA
ATOM     24  C   UNL     1       2.539  -6.681   0.000  0.00  0.00    +0.000 A 
ATOM     25  C   UNL     1       3.091  -6.068   0.000  0.00  0.00    +0.000 A 
ENDBRANCH  20  21
ENDBRANCH  19  20
ENDBRANCH  18  19
ENDBRANCH  17  18
ENDBRANCH  16  17
ENDBRANCH  10  11
BRANCH   5  26
ATOM     26  C   UNL     1       3.520   0.824   0.000  0.00  0.00    +0.000 C 
ATOM     27  C   UNL     1       2.736   1.078   0.000  0.00  0.00    +0.000 C 
ATOM     28  C   UNL     1       2.736   1.903   0.000  0.00  0.00    +0.000 C 
ATOM     29  C   UNL     1       3.520   2.158   0.000  0.00  0.00    +0.000 C 
ATOM     30  C   UNL     1       4.005   1.491   0.000  0.00  0.00    +0.000 C 
ENDBRANCH   5  26
BRANCH   9  32
ATOM     31  N   UNL     1       7.418   0.609   0.000  0.00  0.00    +0.000 NA
ATOM     32  C   UNL     1       6.703   0.196   0.000  0.00  0.00    +0.000 C 
ENDBRANCH   9  32
TORSDOF 8
