REMARK  Name = IHU
REMARK  3 active torsions:
REMARK  status: ('A' for Active; 'I' for Inactive)
REMARK    1  A    between atoms: O_2  and  C_3
REMARK    2  A    between atoms: C_9  and  N_10
REMARK    3  A    between atoms: C_14  and  C_16
REMARK                            x       y       z     vdW  Elec       q    Type
REMARK                         _______ _______ _______ _____ _____    ______ ____
ROOT
ATOM      1  N   UNL     1      -0.145  -0.355   0.000  0.00  0.00    +0.000 NA
ATOM      2  C   UNL     1       0.569   0.058   0.000  0.00  0.00    +0.000 C 
ATOM      3  O   UNL     1       0.569   0.883   0.000  0.00  0.00    +0.000 OA
ATOM      4  N   UNL     1       1.284  -0.355   0.000  0.00  0.00    +0.000 NA
ATOM      5  C   UNL     1       1.998   0.058   0.000  0.00  0.00    +0.000 C 
ATOM      6  O   UNL     1       1.998   0.883   0.000  0.00  0.00    +0.000 OA
ENDROOT
BRANCH   5   7
ATOM      7  C   UNL     1       2.713  -0.355   0.000  0.00  0.00    +0.000 A 
ATOM      8  C   UNL     1       3.427   0.058   0.000  0.00  0.00    +0.000 A 
ATOM      9  C   UNL     1       4.141  -0.355   0.000  0.00  0.00    +0.000 A 
ATOM     10  C   UNL     1       4.141  -1.180   0.000  0.00  0.00    +0.000 A 
ATOM     11  F   UNL     1       4.856  -1.592   0.000  0.00  0.00    +0.000 F 
ATOM     12  C   UNL     1       3.427  -1.592   0.000  0.00  0.00    +0.000 A 
ATOM     13  C   UNL     1       2.713  -1.180   0.000  0.00  0.00    +0.000 A 
ATOM     14 CL   UNL     1       1.998  -1.592   0.000  0.00  0.00    +0.000 Cl
ENDBRANCH   5   7
BRANCH   1  21
ATOM     15  C   UNL     1      -1.574  -0.355   0.000  0.00  0.00    +0.000 A 
ATOM     16  C   UNL     1      -2.289   0.058   0.000  0.00  0.00    +0.000 A 
ATOM     17  C   UNL     1      -2.289   0.883   0.000  0.00  0.00    +0.000 A 
ATOM     18  C   UNL     1      -1.574   1.295   0.000  0.00  0.00    +0.000 A 
ATOM     19  O   UNL     1      -1.574   2.120   0.000  0.00  0.00    +0.000 OA
ATOM     20  C   UNL     1      -0.860   0.883   0.000  0.00  0.00    +0.000 A 
ATOM     21  C   UNL     1      -0.860   0.058   0.000  0.00  0.00    +0.000 A 
BRANCH  15  23
ATOM     22  C   UNL     1      -2.289  -1.592   0.000  0.00  0.00    +0.000 C 
ATOM     23  O   UNL     1      -1.574  -1.180   0.000  0.00  0.00    +0.000 OA
ENDBRANCH  15  23
ENDBRANCH   1  21
TORSDOF 3
