REMARK  Name = IHX
REMARK  2 active torsions:
REMARK  status: ('A' for Active; 'I' for Inactive)
REMARK    1  A    between atoms: C_4  and  C_7
REMARK    2  A    between atoms: C_10  and  C_17
REMARK                            x       y       z     vdW  Elec       q    Type
REMARK                         _______ _______ _______ _____ _____    ______ ____
ROOT
ATOM      1  C   UNL     1      -2.221   0.414   0.000  0.00  0.00    +0.000 A 
ATOM      2  C   UNL     1      -1.506   0.826   0.000  0.00  0.00    +0.000 A 
ATOM      3  C   UNL     1      -2.935   0.826   0.000  0.00  0.00    +0.000 A 
ATOM      4  C   UNL     1      -2.935   1.651   0.000  0.00  0.00    +0.000 A 
ATOM      5  C   UNL     1      -0.077   0.826   0.000  0.00  0.00    +0.000 A 
ATOM      6  C   UNL     1      -0.077   1.651   0.000  0.00  0.00    +0.000 A 
ATOM      7  N   UNL     1       0.637   0.414   0.000  0.00  0.00    +0.000 N 
ATOM      8  C   UNL     1       1.351  -0.824   0.000  0.00  0.00    +0.000 C 
ATOM      9  C   UNL     1       1.351   0.826   0.000  0.00  0.00    +0.000 C 
ATOM     10  C   UNL     1      -2.221   2.064   0.000  0.00  0.00    +0.000 A 
ATOM     11  C   UNL     1      -1.506   1.651   0.000  0.00  0.00    +0.000 A 
ATOM     12  N   UNL     1      -0.792   2.064   0.000  0.00  0.00    +0.000 NA
ATOM     13  N   UNL     1      -0.792   0.414   0.000  0.00  0.00    +0.000 NA
ATOM     14  C   UNL     1       2.066   0.414   0.000  0.00  0.00    +0.000 C 
ATOM     15  N   UNL     1       2.066  -0.411   0.000  0.00  0.00    +0.000 NA
ATOM     16  C   UNL     1       2.780  -0.824   0.000  0.00  0.00    +0.000 C 
ATOM     17  C   UNL     1       0.637  -0.411   0.000  0.00  0.00    +0.000 C 
ENDROOT
BRANCH   1  21
ATOM     18  C   UNL     1      -2.935  -1.649   0.000  0.00  0.00    +0.000 A 
ATOM     19  C   UNL     1      -2.935  -0.824   0.000  0.00  0.00    +0.000 A 
ATOM     20  C   UNL     1      -2.221  -2.061   0.000  0.00  0.00    +0.000 A 
ATOM     21  C   UNL     1      -2.221  -0.411   0.000  0.00  0.00    +0.000 A 
ATOM     22  C   UNL     1      -1.506  -1.649   0.000  0.00  0.00    +0.000 A 
ATOM     23  C   UNL     1      -1.506  -0.824   0.000  0.00  0.00    +0.000 A 
ATOM     24  O   UNL     1      -0.792  -2.061   0.000  0.00  0.00    +0.000 OA
ENDBRANCH   1  21
BRANCH   4  26
ATOM     25  F   UNL     1      -4.364   2.476   0.000  0.00  0.00    +0.000 F 
ATOM     26  C   UNL     1      -3.650   2.064   0.000  0.00  0.00    +0.000 C 
ATOM     27  F   UNL     1      -3.237   2.778   0.000  0.00  0.00    +0.000 F 
ATOM     28  F   UNL     1      -4.062   1.349   0.000  0.00  0.00    +0.000 F 
ENDBRANCH   4  26
TORSDOF 2
