REMARK  Name = IHZ
REMARK  6 active torsions:
REMARK  status: ('A' for Active; 'I' for Inactive)
REMARK    1  A    between atoms: C_2  and  C_5
REMARK    2  A    between atoms: C_10  and  N_11
REMARK    3  A    between atoms: C_12  and  C_14
REMARK    4  A    between atoms: C_20  and  N_21
REMARK    5  A    between atoms: N_21  and  C_22
REMARK    6  A    between atoms: C_27  and  C_28
REMARK                            x       y       z     vdW  Elec       q    Type
REMARK                         _______ _______ _______ _____ _____    ______ ____
ROOT
ATOM      1  C   UNL     1      -0.324  -0.058   0.000  0.00  0.00    +0.000 A 
ATOM      2  C   UNL     1       0.391   0.354   0.000  0.00  0.00    +0.000 A 
ATOM      3  C   UNL     1      -0.324  -0.883   0.000  0.00  0.00    +0.000 A 
ATOM      4  C   UNL     1       0.391  -1.296   0.000  0.00  0.00    +0.000 A 
ATOM      5  C   UNL     1       1.105  -0.883   0.000  0.00  0.00    +0.000 A 
ATOM      6  C   UNL     1       1.819  -1.296   0.000  0.00  0.00    +0.000 C 
ATOM      7  C   UNL     1       1.105  -0.058   0.000  0.00  0.00    +0.000 A 
ENDROOT
BRANCH   1   9
ATOM      8  N   UNL     1      -1.753  -0.058   0.000  0.00  0.00    +0.000 NA
ATOM      9  C   UNL     1      -1.038   0.354   0.000  0.00  0.00    +0.000 C 
ATOM     10  O   UNL     1      -1.038   1.179   0.000  0.00  0.00    +0.000 OA
BRANCH   8  16
ATOM     11  C   UNL     1      -3.182   1.592   0.000  0.00  0.00    +0.000 A 
ATOM     12  C   UNL     1      -2.467   1.179   0.000  0.00  0.00    +0.000 A 
ATOM     13  C   UNL     1      -3.896   1.179   0.000  0.00  0.00    +0.000 A 
ATOM     14  C   UNL     1      -3.896   0.354   0.000  0.00  0.00    +0.000 A 
ATOM     15  C   UNL     1      -3.182  -0.058   0.000  0.00  0.00    +0.000 A 
ATOM     16  C   UNL     1      -2.467   0.354   0.000  0.00  0.00    +0.000 A 
BRANCH  11  18
ATOM     17  F   UNL     1      -3.182   3.242   0.000  0.00  0.00    +0.000 F 
ATOM     18  C   UNL     1      -3.182   2.417   0.000  0.00  0.00    +0.000 C 
ATOM     19  F   UNL     1      -4.007   2.417   0.000  0.00  0.00    +0.000 F 
ATOM     20  F   UNL     1      -2.357   2.417   0.000  0.00  0.00    +0.000 F 
ENDBRANCH  11  18
ENDBRANCH   8  16
ENDBRANCH   1   9
BRANCH   7  21
ATOM     21  N   UNL     1       1.819   0.354   0.000  0.00  0.00    +0.000 NA
BRANCH  21  22
ATOM     22  C   UNL     1       2.534  -0.058   0.000  0.00  0.00    +0.000 A 
ATOM     23  C   UNL     1       3.248   0.354   0.000  0.00  0.00    +0.000 A 
ATOM     24  C   UNL     1       2.534  -0.883   0.000  0.00  0.00    +0.000 A 
ATOM     25  N   UNL     1       3.248  -1.296   0.000  0.00  0.00    +0.000 NA
ATOM     26  C   UNL     1       3.963  -0.883   0.000  0.00  0.00    +0.000 A 
ATOM     27  C   UNL     1       3.963  -0.058   0.000  0.00  0.00    +0.000 A 
BRANCH  27  28
ATOM     28  C   UNL     1       4.677   0.354   0.000  0.00  0.00    +0.000 C 
ATOM     29  O   UNL     1       4.677   1.179   0.000  0.00  0.00    +0.000 OA
ATOM     30  N   UNL     1       5.392  -0.058   0.000  0.00  0.00    +0.000 NA
ENDBRANCH  27  28
ENDBRANCH  21  22
ENDBRANCH   7  21
TORSDOF 6
