REMARK  Name = II2
REMARK  3 active torsions:
REMARK  status: ('A' for Active; 'I' for Inactive)
REMARK    1  A    between atoms: N_10  and  C_13
REMARK    2  A    between atoms: C_16  and  S_19
REMARK    3  A    between atoms: S_19  and  C_20
REMARK                            x       y       z     vdW  Elec       q    Type
REMARK                         _______ _______ _______ _____ _____    ______ ____
ROOT
ATOM      1  C   UNL     1       0.276  -0.467   0.000  0.00  0.00    +0.000 A 
ATOM      2  C   UNL     1      -0.137  -1.182   0.000  0.00  0.00    +0.000 A 
ATOM      3  C   UNL     1      -0.962  -1.182   0.000  0.00  0.00    +0.000 A 
ATOM      4  C   UNL     1      -1.374  -0.467   0.000  0.00  0.00    +0.000 A 
ATOM      5  C   UNL     1      -0.962   0.247   0.000  0.00  0.00    +0.000 A 
ATOM      6  C   UNL     1      -0.137   0.247   0.000  0.00  0.00    +0.000 A 
ENDROOT
BRANCH   1  16
ATOM      7  O   UNL     1       1.331   0.985   0.000  0.00  0.00    +0.000 OA
ATOM      8  C   UNL     1       1.586   0.200   0.000  0.00  0.00    +0.000 C 
ATOM      9  C   UNL     1       2.370  -0.055   0.000  0.00  0.00    +0.000 A 
ATOM     10  C   UNL     1       3.085   0.358   0.000  0.00  0.00    +0.000 A 
ATOM     11  C   UNL     1       3.799  -0.055   0.000  0.00  0.00    +0.000 A 
ATOM     12  N   UNL     1       4.514   0.358   0.000  0.00  0.00    +0.000 NA
ATOM     13  C   UNL     1       3.799  -0.880   0.000  0.00  0.00    +0.000 A 
ATOM     14  C   UNL     1       3.085  -1.292   0.000  0.00  0.00    +0.000 A 
ATOM     15  C   UNL     1       2.370  -0.880   0.000  0.00  0.00    +0.000 A 
ATOM     16  N   UNL     1       1.101  -0.467   0.000  0.00  0.00    +0.000 N 
ATOM     17  C   UNL     1       1.586  -1.135   0.000  0.00  0.00    +0.000 C 
ATOM     18  O   UNL     1       1.331  -1.919   0.000  0.00  0.00    +0.000 OA
ENDBRANCH   1  16
BRANCH   4  19
ATOM     19  S   UNL     1      -2.199  -0.467   0.000  0.00  0.00    +0.000 S 
BRANCH  19  20
ATOM     20  C   UNL     1      -2.612   0.247   0.000  0.00  0.00    +0.000 A 
ATOM     21  C   UNL     1      -3.437   0.247   0.000  0.00  0.00    +0.000 A 
ATOM     22  C   UNL     1      -3.849   0.962   0.000  0.00  0.00    +0.000 A 
ATOM     23  C   UNL     1      -3.437   1.676   0.000  0.00  0.00    +0.000 A 
ATOM     24  N   UNL     1      -3.849   2.391   0.000  0.00  0.00    +0.000 NA
ATOM     25  C   UNL     1      -2.612   1.676   0.000  0.00  0.00    +0.000 A 
ATOM     26  C   UNL     1      -2.199   0.962   0.000  0.00  0.00    +0.000 A 
ENDBRANCH  19  20
ENDBRANCH   4  19
TORSDOF 3
