REMARK  Name = II4
REMARK  1 active torsions:
REMARK  status: ('A' for Active; 'I' for Inactive)
REMARK    1  A    between atoms: N_7  and  C_15
REMARK                            x       y       z     vdW  Elec       q    Type
REMARK                         _______ _______ _______ _____ _____    ______ ____
ROOT
ATOM      1  C   UNL     1       1.437  -1.503   0.000  0.00  0.00    +0.000 A 
ATOM      2  C   UNL     1       0.722  -1.915   0.000  0.00  0.00    +0.000 A 
ATOM      3  C   UNL     1       0.008  -1.503   0.000  0.00  0.00    +0.000 A 
ATOM      4  C   UNL     1       0.008  -0.678   0.000  0.00  0.00    +0.000 A 
ATOM      5  C   UNL     1       0.722  -0.265   0.000  0.00  0.00    +0.000 A 
ATOM      6  N   UNL     1      -0.777  -0.423   0.000  0.00  0.00    +0.000 N 
ATOM      7  C   UNL     1      -1.262  -1.090   0.000  0.00  0.00    +0.000 A 
ATOM      8  N   UNL     1      -0.777  -1.758   0.000  0.00  0.00    +0.000 NA
ATOM      9  N   UNL     1       2.151  -1.915   0.000  0.00  0.00    +0.000 NA
ATOM     10  C   UNL     1       1.437  -0.678   0.000  0.00  0.00    +0.000 A 
ENDROOT
BRANCH   6  15
ATOM     11  C   UNL     1      -0.183   2.373   0.000  0.00  0.00    +0.000 C 
ATOM     12  C   UNL     1      -0.735   1.759   0.000  0.00  0.00    +0.000 A 
ATOM     13  C   UNL     1      -0.480   0.975   0.000  0.00  0.00    +0.000 A 
ATOM     14  C   UNL     1      -1.839   0.533   0.000  0.00  0.00    +0.000 A 
ATOM     15  C   UNL     1      -1.032   0.362   0.000  0.00  0.00    +0.000 A 
ATOM     16  C   UNL     1      -2.094   1.318   0.000  0.00  0.00    +0.000 A 
ATOM     17  C   UNL     1      -1.542   1.931   0.000  0.00  0.00    +0.000 A 
ENDBRANCH   6  15
TORSDOF 1
