REMARK  Name = IID
REMARK  6 active torsions:
REMARK  status: ('A' for Active; 'I' for Inactive)
REMARK    1  A    between atoms: N_7  and  C_14
REMARK    2  A    between atoms: C_8  and  C_10
REMARK    3  A    between atoms: N_11  and  C_12
REMARK    4  A    between atoms: C_14  and  C_15
REMARK    5  A    between atoms: C_19  and  O_22
REMARK    6  A    between atoms: N_27  and  C_28
REMARK                            x       y       z     vdW  Elec       q    Type
REMARK                         _______ _______ _______ _____ _____    ______ ____
ROOT
ATOM      1  C   UNL     1       3.153   0.877   0.000  0.00  0.00    +0.000 A 
ATOM      2  C   UNL     1       2.439   0.464   0.000  0.00  0.00    +0.000 A 
ATOM      3  C   UNL     1       1.724   0.877   0.000  0.00  0.00    +0.000 A 
ATOM      4  C   UNL     1       1.724   1.702   0.000  0.00  0.00    +0.000 A 
ATOM      5  C   UNL     1       2.439   2.114   0.000  0.00  0.00    +0.000 A 
ATOM      6  C   UNL     1       3.153   1.702   0.000  0.00  0.00    +0.000 A 
ATOM      7  N   UNL     1       0.940   0.622   0.000  0.00  0.00    +0.000 N 
ATOM      8  C   UNL     1       0.455   1.289   0.000  0.00  0.00    +0.000 A 
ATOM      9  C   UNL     1       0.940   1.957   0.000  0.00  0.00    +0.000 A 
ENDROOT
BRANCH   8  10
ATOM     10  C   UNL     1      -0.370   1.289   0.000  0.00  0.00    +0.000 C 
ATOM     11  N   UNL     1      -0.783   0.575   0.000  0.00  0.00    +0.000 NA
ATOM     12  O   UNL     1      -0.783   2.004   0.000  0.00  0.00    +0.000 OA
BRANCH  11  13
ATOM     13  C   UNL     1      -1.608   0.575   0.000  0.00  0.00    +0.000 C 
ATOM     14  C   UNL     1      -2.020  -0.140   0.000  0.00  0.00    +0.000 C 
ATOM     15  C   UNL     1      -2.845  -0.140   0.000  0.00  0.00    +0.000 C 
ATOM     16  C   UNL     1      -2.020   1.289   0.000  0.00  0.00    +0.000 C 
ATOM     17  C   UNL     1      -2.845   1.289   0.000  0.00  0.00    +0.000 C 
ATOM     18  N   UNL     1      -3.258   0.575   0.000  0.00  0.00    +0.000 NA
BRANCH  18  19
ATOM     19  C   UNL     1      -4.083   0.575   0.000  0.00  0.00    +0.000 C 
ATOM     20  C   UNL     1      -4.495  -0.140   0.000  0.00  0.00    +0.000 C 
ATOM     21  C   UNL     1      -4.495   1.289   0.000  0.00  0.00    +0.000 C 
ENDBRANCH  18  19
ENDBRANCH  11  13
ENDBRANCH   8  10
BRANCH   7  22
ATOM     22  C   UNL     1       0.684  -0.163   0.000  0.00  0.00    +0.000 C 
BRANCH  22  23
ATOM     23  C   UNL     1       1.237  -0.776   0.000  0.00  0.00    +0.000 A 
ATOM     24  C   UNL     1       2.044  -0.605   0.000  0.00  0.00    +0.000 A 
ATOM     25  C   UNL     1       2.596  -1.218   0.000  0.00  0.00    +0.000 A 
ATOM     26  C   UNL     1       2.341  -2.002   0.000  0.00  0.00    +0.000 A 
ATOM     27  C   UNL     1       1.534  -2.174   0.000  0.00  0.00    +0.000 A 
ATOM     28  C   UNL     1       0.982  -1.561   0.000  0.00  0.00    +0.000 A 
BRANCH  27  29
ATOM     29  O   UNL     1       1.279  -2.958   0.000  0.00  0.00    +0.000 OA
ATOM     30  C   UNL     1       1.831  -3.571   0.000  0.00  0.00    +0.000 C 
ENDBRANCH  27  29
ENDBRANCH  22  23
ENDBRANCH   7  22
TORSDOF 6
