REMARK  Name = IIE
REMARK  6 active torsions:
REMARK  status: ('A' for Active; 'I' for Inactive)
REMARK    1  A    between atoms: N_7  and  C_21
REMARK    2  A    between atoms: C_8  and  C_10
REMARK    3  A    between atoms: N_11  and  C_12
REMARK    4  A    between atoms: N_15  and  C_18
REMARK    5  A    between atoms: C_21  and  C_22
REMARK    6  A    between atoms: C_25  and  N_29
REMARK                            x       y       z     vdW  Elec       q    Type
REMARK                         _______ _______ _______ _____ _____    ______ ____
ROOT
ATOM      1  C   UNL     1       2.887   0.264   0.000  0.00  0.00    +0.000 A 
ATOM      2  C   UNL     1       2.172  -0.148   0.000  0.00  0.00    +0.000 A 
ATOM      3  C   UNL     1       1.458   0.264   0.000  0.00  0.00    +0.000 A 
ATOM      4  C   UNL     1       1.458   1.089   0.000  0.00  0.00    +0.000 A 
ATOM      5  C   UNL     1       2.172   1.502   0.000  0.00  0.00    +0.000 A 
ATOM      6  C   UNL     1       2.887   1.089   0.000  0.00  0.00    +0.000 A 
ATOM      7  N   UNL     1       0.673   0.009   0.000  0.00  0.00    +0.000 N 
ATOM      8  C   UNL     1       0.188   0.677   0.000  0.00  0.00    +0.000 A 
ATOM      9  C   UNL     1       0.673   1.344   0.000  0.00  0.00    +0.000 A 
ENDROOT
BRANCH   8  10
ATOM     10  C   UNL     1      -0.637   0.677   0.000  0.00  0.00    +0.000 C 
ATOM     11  N   UNL     1      -1.049   1.391   0.000  0.00  0.00    +0.000 NA
ATOM     12  O   UNL     1      -1.049  -0.038   0.000  0.00  0.00    +0.000 OA
BRANCH  11  13
ATOM     13  C   UNL     1      -1.874   1.391   0.000  0.00  0.00    +0.000 C 
ATOM     14  C   UNL     1      -2.287   0.677   0.000  0.00  0.00    +0.000 C 
ATOM     15  C   UNL     1      -3.112   0.677   0.000  0.00  0.00    +0.000 C 
ATOM     16  N   UNL     1      -3.524   1.391   0.000  0.00  0.00    +0.000 NA
ATOM     17  C   UNL     1      -3.112   2.106   0.000  0.00  0.00    +0.000 C 
ATOM     18  C   UNL     1      -2.287   2.106   0.000  0.00  0.00    +0.000 C 
BRANCH  16  19
ATOM     19  C   UNL     1      -4.349   1.391   0.000  0.00  0.00    +0.000 C 
ATOM     20  C   UNL     1      -4.762   2.106   0.000  0.00  0.00    +0.000 C 
ATOM     21  C   UNL     1      -4.762   0.677   0.000  0.00  0.00    +0.000 C 
ENDBRANCH  16  19
ENDBRANCH  11  13
ENDBRANCH   8  10
BRANCH   7  22
ATOM     22  C   UNL     1       0.418  -0.775   0.000  0.00  0.00    +0.000 C 
BRANCH  22  23
ATOM     23  C   UNL     1       0.970  -1.388   0.000  0.00  0.00    +0.000 C 
ATOM     24  N   UNL     1       0.715  -2.173   0.000  0.00  0.00    +0.000 NA
ATOM     25  O   UNL     1       1.777  -1.217   0.000  0.00  0.00    +0.000 OA
BRANCH  24  28
ATOM     26  C   UNL     1       2.074  -2.615   0.000  0.00  0.00    +0.000 A 
ATOM     27  C   UNL     1       2.626  -3.228   0.000  0.00  0.00    +0.000 A 
ATOM     28  C   UNL     1       1.267  -2.786   0.000  0.00  0.00    +0.000 A 
ATOM     29  C   UNL     1       2.371  -4.012   0.000  0.00  0.00    +0.000 A 
ATOM     30  C   UNL     1       1.564  -4.184   0.000  0.00  0.00    +0.000 A 
ATOM     31  C   UNL     1       1.012  -3.571   0.000  0.00  0.00    +0.000 A 
ATOM     32 CL   UNL     1       2.923  -4.625   0.000  0.00  0.00    +0.000 Cl
ENDBRANCH  24  28
ENDBRANCH  22  23
ENDBRANCH   7  22
TORSDOF 6
