REMARK  Name = ILB
REMARK  6 active torsions:
REMARK  status: ('A' for Active; 'I' for Inactive)
REMARK    1  A    between atoms: C_3  and  O_27
REMARK    2  A    between atoms: C_7  and  N_20
REMARK    3  A    between atoms: C_10  and  C_22
REMARK    4  A    between atoms: C_11  and  C_24
REMARK    5  A    between atoms: C_15  and  O_27
REMARK    6  A    between atoms: C_17  and  C_18
REMARK                            x       y       z     vdW  Elec       q    Type
REMARK                         _______ _______ _______ _____ _____    ______ ____
ROOT
ATOM      1  C   UNL     1       0.554  -0.383   0.000  0.00  0.00    +0.000 A 
ATOM      2  C   UNL     1      -0.230  -0.638   0.000  0.00  0.00    +0.000 A 
ATOM      3  C   UNL     1      -0.844  -0.086   0.000  0.00  0.00    +0.000 A 
ATOM      4  C   UNL     1      -0.672   0.721   0.000  0.00  0.00    +0.000 A 
ATOM      5  C   UNL     1       0.113   0.976   0.000  0.00  0.00    +0.000 A 
ATOM      6  C   UNL     1       0.726   0.424   0.000  0.00  0.00    +0.000 A 
ATOM      7  F   UNL     1      -0.402  -1.445   0.000  0.00  0.00    +0.000 F 
ATOM      8  F   UNL     1      -1.285   1.273   0.000  0.00  0.00    +0.000 F 
ENDROOT
BRANCH   6  14
ATOM      9  C   UNL     1       2.466   1.741   0.000  0.00  0.00    +0.000 A 
ATOM     10  C   UNL     1       3.080   1.189   0.000  0.00  0.00    +0.000 A 
ATOM     11  C   UNL     1       2.908   0.382   0.000  0.00  0.00    +0.000 A 
ATOM     12  C   UNL     1       1.682   1.486   0.000  0.00  0.00    +0.000 A 
ATOM     13  C   UNL     1       2.123   0.127   0.000  0.00  0.00    +0.000 A 
ATOM     14  C   UNL     1       1.510   0.679   0.000  0.00  0.00    +0.000 A 
BRANCH  11  15
ATOM     15  O   UNL     1       3.521  -0.170   0.000  0.00  0.00    +0.000 OA
BRANCH  15  16
ATOM     16  C   UNL     1       4.306   0.085   0.000  0.00  0.00    +0.000 C 
ATOM     17  F   UNL     1       5.090   0.340   0.000  0.00  0.00    +0.000 F 
ATOM     18  F   UNL     1       4.561  -0.700   0.000  0.00  0.00    +0.000 F 
ATOM     19  F   UNL     1       4.051   0.869   0.000  0.00  0.00    +0.000 F 
ENDBRANCH  15  16
ENDBRANCH  11  15
ENDBRANCH   6  14
BRANCH   3  21
ATOM     20  C   UNL     1      -2.241   0.211   0.000  0.00  0.00    +0.000 C 
ATOM     21  N   UNL     1      -1.628  -0.341   0.000  0.00  0.00    +0.000 NA
ATOM     22  O   UNL     1      -2.070   1.018   0.000  0.00  0.00    +0.000 OA
BRANCH  20  27
ATOM     23  C   UNL     1      -3.281  -0.829   0.000  0.00  0.00    +0.000 C 
ATOM     24  C   UNL     1      -4.106  -0.829   0.000  0.00  0.00    +0.000 C 
ATOM     25  C   UNL     1      -4.361  -0.044   0.000  0.00  0.00    +0.000 C 
ATOM     26  C   UNL     1      -3.693   0.441   0.000  0.00  0.00    +0.000 C 
ATOM     27  C   UNL     1      -3.026  -0.044   0.000  0.00  0.00    +0.000 C 
BRANCH  23  28
ATOM     28  C   UNL     1      -2.796  -1.496   0.000  0.00  0.00    +0.000 C 
ATOM     29  O   UNL     1      -3.131  -2.250   0.000  0.00  0.00    +0.000 OA
ATOM     30  O   UNL     1      -1.975  -1.410   0.000  0.00  0.00    +0.000 OA
ENDBRANCH  23  28
ENDBRANCH  20  27
ENDBRANCH   3  21
TORSDOF 6
