REMARK  Name = ILC
REMARK  5 active torsions:
REMARK  status: ('A' for Active; 'I' for Inactive)
REMARK    1  A    between atoms: C_2  and  O_16
REMARK    2  A    between atoms: C_4  and  C_5
REMARK    3  A    between atoms: C_10  and  N_18
REMARK    4  A    between atoms: C_12  and  C_13
REMARK    5  A    between atoms: C_15  and  C_24
REMARK                            x       y       z     vdW  Elec       q    Type
REMARK                         _______ _______ _______ _____ _____    ______ ____
ROOT
ATOM      1  C   UNL     1       0.797   0.754   0.000  0.00  0.00    +0.000 A 
ATOM      2  C   UNL     1       1.511   0.341   0.000  0.00  0.00    +0.000 A 
ATOM      3  C   UNL     1       1.511  -0.484   0.000  0.00  0.00    +0.000 A 
ATOM      4  C   UNL     1       0.797  -0.896   0.000  0.00  0.00    +0.000 A 
ATOM      5  C   UNL     1       0.082   0.341   0.000  0.00  0.00    +0.000 A 
ATOM      6  C   UNL     1       0.082  -0.484   0.000  0.00  0.00    +0.000 A 
ATOM      7  F   UNL     1      -0.632  -0.896   0.000  0.00  0.00    +0.000 F 
ENDROOT
BRANCH   1  11
ATOM      8  C   UNL     1       0.797   3.229   0.000  0.00  0.00    +0.000 A 
ATOM      9  C   UNL     1       1.511   2.816   0.000  0.00  0.00    +0.000 A 
ATOM     10  C   UNL     1       1.511   1.991   0.000  0.00  0.00    +0.000 A 
ATOM     11  C   UNL     1       0.797   1.579   0.000  0.00  0.00    +0.000 A 
ATOM     12  C   UNL     1       0.082   1.991   0.000  0.00  0.00    +0.000 A 
ATOM     13  C   UNL     1       0.082   2.816   0.000  0.00  0.00    +0.000 A 
BRANCH   9  14
ATOM     14  O   UNL     1       2.226   3.229   0.000  0.00  0.00    +0.000 OA
ATOM     15  C   UNL     1       2.226   4.054   0.000  0.00  0.00    +0.000 C 
ENDBRANCH   9  14
ENDBRANCH   1  11
BRANCH   4  17
ATOM     16  C   UNL     1       0.082  -2.134   0.000  0.00  0.00    +0.000 C 
ATOM     17  N   UNL     1       0.797  -1.721   0.000  0.00  0.00    +0.000 NA
ATOM     18  O   UNL     1      -0.632  -1.721   0.000  0.00  0.00    +0.000 OA
BRANCH  16  19
ATOM     19  C   UNL     1       0.082  -2.959   0.000  0.00  0.00    +0.000 A 
ATOM     20  C   UNL     1       0.750  -3.444   0.000  0.00  0.00    +0.000 A 
ATOM     21  C   UNL     1      -0.585  -3.444   0.000  0.00  0.00    +0.000 A 
ATOM     22  C   UNL     1       0.495  -4.228   0.000  0.00  0.00    +0.000 A 
ATOM     23  S   UNL     1      -0.330  -4.228   0.000  0.00  0.00    +0.000 S 
BRANCH  21  24
ATOM     24  C   UNL     1      -1.370  -3.189   0.000  0.00  0.00    +0.000 C 
ATOM     25  O   UNL     1      -1.983  -3.741   0.000  0.00  0.00    +0.000 OA
ATOM     26  O   UNL     1      -1.541  -2.382   0.000  0.00  0.00    +0.000 OA
ENDBRANCH  21  24
ENDBRANCH  16  19
ENDBRANCH   4  17
TORSDOF 5
