REMARK  Name = ILH
REMARK  6 active torsions:
REMARK  status: ('A' for Active; 'I' for Inactive)
REMARK    1  A    between atoms: C_2  and  C_4
REMARK    2  A    between atoms: C_5  and  C_9
REMARK    3  A    between atoms: N_11  and  C_12
REMARK    4  A    between atoms: C_17  and  C_22
REMARK    5  A    between atoms: C_24  and  O_25
REMARK    6  A    between atoms: O_25  and  C_26
REMARK                            x       y       z     vdW  Elec       q    Type
REMARK                         _______ _______ _______ _____ _____    ______ ____
ROOT
ATOM      1  C   UNL     1      -0.671   0.411   0.000  0.00  0.00    +0.000 A 
ATOM      2  C   UNL     1       0.149   0.497   0.000  0.00  0.00    +0.000 A 
ATOM      3  F   UNL     1       0.485   1.250   0.000  0.00  0.00    +0.000 F 
ATOM      4  C   UNL     1       0.634  -0.171   0.000  0.00  0.00    +0.000 A 
ATOM      5  F   UNL     1       1.454  -0.084   0.000  0.00  0.00    +0.000 F 
ATOM      6  C   UNL     1       0.298  -0.924   0.000  0.00  0.00    +0.000 A 
ATOM      7  C   UNL     1      -0.522  -1.010   0.000  0.00  0.00    +0.000 A 
ATOM      8  F   UNL     1      -0.858  -1.764   0.000  0.00  0.00    +0.000 F 
ATOM      9  C   UNL     1      -1.007  -0.343   0.000  0.00  0.00    +0.000 A 
ATOM     10  F   UNL     1      -1.827  -0.429   0.000  0.00  0.00    +0.000 F 
ENDROOT
BRANCH   6  11
ATOM     11  C   UNL     1       0.783  -1.592   0.000  0.00  0.00    +0.000 A 
ATOM     12  C   UNL     1       1.604  -1.506   0.000  0.00  0.00    +0.000 A 
ATOM     13  C   UNL     1       2.089  -2.173   0.000  0.00  0.00    +0.000 A 
ATOM     14  C   UNL     1       1.753  -2.927   0.000  0.00  0.00    +0.000 A 
ATOM     15  C   UNL     1       0.933  -3.013   0.000  0.00  0.00    +0.000 A 
ATOM     16  C   UNL     1       0.448  -2.345   0.000  0.00  0.00    +0.000 A 
BRANCH  13  17
ATOM     17  O   UNL     1       2.909  -2.087   0.000  0.00  0.00    +0.000 OA
BRANCH  17  18
ATOM     18  C   UNL     1       3.245  -1.333   0.000  0.00  0.00    +0.000 C 
ATOM     19  F   UNL     1       3.580  -0.579   0.000  0.00  0.00    +0.000 F 
ATOM     20  F   UNL     1       3.998  -1.669   0.000  0.00  0.00    +0.000 F 
ATOM     21  F   UNL     1       2.491  -0.998   0.000  0.00  0.00    +0.000 F 
ENDBRANCH  17  18
ENDBRANCH  13  17
ENDBRANCH   6  11
BRANCH   1  24
ATOM     22  C   UNL     1      -1.977   0.992   0.000  0.00  0.00    +0.000 C 
ATOM     23  O   UNL     1      -2.312   0.238   0.000  0.00  0.00    +0.000 OA
ATOM     24  N   UNL     1      -1.156   1.078   0.000  0.00  0.00    +0.000 NA
BRANCH  22  26
ATOM     25  C   UNL     1      -2.207   2.444   0.000  0.00  0.00    +0.000 C 
ATOM     26  C   UNL     1      -2.462   1.659   0.000  0.00  0.00    +0.000 C 
ATOM     27  C   UNL     1      -3.287   1.659   0.000  0.00  0.00    +0.000 C 
ATOM     28  C   UNL     1      -3.542   2.444   0.000  0.00  0.00    +0.000 C 
ATOM     29  C   UNL     1      -2.874   2.929   0.000  0.00  0.00    +0.000 C 
BRANCH  25  31
ATOM     30  O   UNL     1      -1.251   3.506   0.000  0.00  0.00    +0.000 OA
ATOM     31  C   UNL     1      -1.422   2.699   0.000  0.00  0.00    +0.000 C 
ATOM     32  O   UNL     1      -0.809   2.147   0.000  0.00  0.00    +0.000 OA
ENDBRANCH  25  31
ENDBRANCH  22  26
ENDBRANCH   1  24
TORSDOF 6
