REMARK  Name = IM9
REMARK  5 active torsions:
REMARK  status: ('A' for Active; 'I' for Inactive)
REMARK    1  A    between atoms: C_2  and  N_4
REMARK    2  A    between atoms: C_9  and  C_10
REMARK    3  A    between atoms: N_15  and  C_16
REMARK    4  A    between atoms: C_19  and  N_22
REMARK    5  A    between atoms: C_28  and  C_30
REMARK                            x       y       z     vdW  Elec       q    Type
REMARK                         _______ _______ _______ _____ _____    ______ ____
ROOT
ATOM      1  C   UNL     1      -0.318  11.593   0.000  0.00  0.00    +0.000 A 
ATOM      2  C   UNL     1      -0.931  11.041   0.000  0.00  0.00    +0.000 A 
ATOM      3  C   UNL     1      -1.716  11.296   0.000  0.00  0.00    +0.000 A 
ATOM      4  N   UNL     1      -1.887  12.103   0.000  0.00  0.00    +0.000 NA
ATOM      5  C   UNL     1      -1.274  12.655   0.000  0.00  0.00    +0.000 A 
ATOM      6  N   UNL     1      -1.446  13.462   0.000  0.00  0.00    +0.000 NA
ATOM      7  N   UNL     1      -0.489  12.400   0.000  0.00  0.00    +0.000 NA
ENDROOT
BRANCH   1  13
ATOM      8  N   UNL     1       1.134  11.823   0.000  0.00  0.00    +0.000 N 
ATOM      9  C   UNL     1       1.802  11.338   0.000  0.00  0.00    +0.000 A 
ATOM     10  C   UNL     1       2.586  11.593   0.000  0.00  0.00    +0.000 C 
ATOM     11  N   UNL     1       1.547  10.554   0.000  0.00  0.00    +0.000 NA
ATOM     12  C   UNL     1       0.722  10.554   0.000  0.00  0.00    +0.000 A 
ATOM     13  C   UNL     1       0.467  11.338   0.000  0.00  0.00    +0.000 A 
BRANCH   8  15
ATOM     14  C   UNL     1       1.849  13.061   0.000  0.00  0.00    +0.000 C 
ATOM     15  C   UNL     1       1.134  12.648   0.000  0.00  0.00    +0.000 C 
ATOM     16  C   UNL     1       0.420  13.061   0.000  0.00  0.00    +0.000 C 
ENDBRANCH   8  15
ENDBRANCH   1  13
BRANCH   6  17
ATOM     17  C   UNL     1      -0.832  14.014   0.000  0.00  0.00    +0.000 A 
ATOM     18  C   UNL     1      -1.004  14.821   0.000  0.00  0.00    +0.000 A 
ATOM     19  C   UNL     1      -0.391  15.373   0.000  0.00  0.00    +0.000 A 
ATOM     20  C   UNL     1       0.394  15.118   0.000  0.00  0.00    +0.000 A 
ATOM     21  C   UNL     1       0.565  14.311   0.000  0.00  0.00    +0.000 A 
ATOM     22  C   UNL     1      -0.048  13.759   0.000  0.00  0.00    +0.000 A 
BRANCH  20  23
ATOM     23  N   UNL     1       1.007  15.670   0.000  0.00  0.00    +0.000 N 
ATOM     24  C   UNL     1       0.835  16.477   0.000  0.00  0.00    +0.000 C 
ATOM     25  C   UNL     1       1.448  17.029   0.000  0.00  0.00    +0.000 C 
ATOM     26  N   UNL     1       2.233  16.774   0.000  0.00  0.00    +0.000 N 
ATOM     27  C   UNL     1       2.405  15.967   0.000  0.00  0.00    +0.000 C 
ATOM     28  C   UNL     1       1.792  15.415   0.000  0.00  0.00    +0.000 C 
ATOM     29  C   UNL     1       2.846  17.326   0.000  0.00  0.00    +0.000 C 
ATOM     30  O   UNL     1       2.675  18.133   0.000  0.00  0.00    +0.000 OA
BRANCH  29  31
ATOM     31  C   UNL     1       3.631  17.071   0.000  0.00  0.00    +0.000 C 
ATOM     32  O   UNL     1       4.244  17.623   0.000  0.00  0.00    +0.000 OA
ENDBRANCH  29  31
ENDBRANCH  20  23
ENDBRANCH   6  17
TORSDOF 5
