REMARK  Name = IMM
REMARK  4 active torsions:
REMARK  status: ('A' for Active; 'I' for Inactive)
REMARK    1  A    between atoms: C_3  and  C_18
REMARK    2  A    between atoms: C_6  and  O_22
REMARK    3  A    between atoms: C_10  and  C_11
REMARK    4  A    between atoms: C_18  and  C_19
REMARK                            x       y       z     vdW  Elec       q    Type
REMARK                         _______ _______ _______ _____ _____    ______ ____
ROOT
ATOM      1  N   UNL     1       0.057  -0.313   0.000  0.00  0.00    +0.000 N 
ATOM      2  C   UNL     1      -0.428   0.354   0.000  0.00  0.00    +0.000 A 
ATOM      3  C   UNL     1       0.057   1.022   0.000  0.00  0.00    +0.000 A 
ATOM      4  C   UNL     1       0.842   0.767   0.000  0.00  0.00    +0.000 A 
ATOM      5  C   UNL     1       1.556   1.179   0.000  0.00  0.00    +0.000 A 
ATOM      6  C   UNL     1       2.270   0.767   0.000  0.00  0.00    +0.000 A 
ATOM      7  C   UNL     1       2.270  -0.058   0.000  0.00  0.00    +0.000 A 
ATOM      8  C   UNL     1       1.556  -0.471   0.000  0.00  0.00    +0.000 A 
ATOM      9  C   UNL     1       0.842  -0.058   0.000  0.00  0.00    +0.000 A 
ATOM     10  C   UNL     1      -0.198  -1.098   0.000  0.00  0.00    +0.000 C 
ATOM     11  C   UNL     1      -1.253   0.354   0.000  0.00  0.00    +0.000 C 
ATOM     12  O   UNL     1       0.354  -1.711   0.000  0.00  0.00    +0.000 OA
ENDROOT
BRANCH  10  13
ATOM     13  C   UNL     1      -1.005  -1.270   0.000  0.00  0.00    +0.000 A 
ATOM     14  C   UNL     1      -1.260  -2.054   0.000  0.00  0.00    +0.000 A 
ATOM     15  C   UNL     1      -2.067  -2.226   0.000  0.00  0.00    +0.000 A 
ATOM     16  C   UNL     1      -2.619  -1.613   0.000  0.00  0.00    +0.000 A 
ATOM     17  C   UNL     1      -2.364  -0.828   0.000  0.00  0.00    +0.000 A 
ATOM     18  C   UNL     1      -1.557  -0.656   0.000  0.00  0.00    +0.000 A 
ATOM     19  I   UNL     1      -3.426  -1.784   0.000  0.00  0.00    +0.000 I 
ENDBRANCH  10  13
BRANCH   6  21
ATOM     20  C   UNL     1       3.699   0.767   0.000  0.00  0.00    +0.000 C 
ATOM     21  O   UNL     1       2.985   1.179   0.000  0.00  0.00    +0.000 OA
ENDBRANCH   6  21
BRANCH   3  22
ATOM     22  C   UNL     1      -0.198   1.806   0.000  0.00  0.00    +0.000 C 
BRANCH  22  23
ATOM     23  C   UNL     1      -1.005   1.978   0.000  0.00  0.00    +0.000 C 
ATOM     24  O   UNL     1      -1.557   1.365   0.000  0.00  0.00    +0.000 OA
ATOM     25  O   UNL     1      -1.260   2.762   0.000  0.00  0.00    +0.000 OA
ENDBRANCH  22  23
ENDBRANCH   3  22
TORSDOF 4
