REMARK  Name = IN4
REMARK  9 active torsions:
REMARK  status: ('A' for Active; 'I' for Inactive)
REMARK    1  A    between atoms: C_4  and  C_7
REMARK    2  A    between atoms: C_6  and  C_11
REMARK    3  A    between atoms: C_7  and  C_8
REMARK    4  A    between atoms: C_7  and  C_22
REMARK    5  A    between atoms: C_8  and  C_9
REMARK    6  A    between atoms: C_9  and  C_10
REMARK    7  A    between atoms: C_16  and  C_17
REMARK    8  A    between atoms: C_22  and  C_23
REMARK    9  A    between atoms: C_23  and  O_25
REMARK                            x       y       z     vdW  Elec       q    Type
REMARK                         _______ _______ _______ _____ _____    ______ ____
ROOT
ATOM      1  C   UNL     1       0.702   0.193   0.000  0.00  0.00    +0.000 C 
ENDROOT
BRANCH   1   5
ATOM      2  C   UNL     1       0.702  -2.282   0.000  0.00  0.00    +0.000 A 
ATOM      3  C   UNL     1      -0.013  -1.869   0.000  0.00  0.00    +0.000 A 
ATOM      4  C   UNL     1      -0.013  -1.044   0.000  0.00  0.00    +0.000 A 
ATOM      5  C   UNL     1       0.702  -0.632   0.000  0.00  0.00    +0.000 A 
ATOM      6  C   UNL     1       1.416  -1.044   0.000  0.00  0.00    +0.000 A 
ATOM      7  C   UNL     1       1.416  -1.869   0.000  0.00  0.00    +0.000 A 
BRANCH   7   8
ATOM      8  C   UNL     1       2.131  -2.282   0.000  0.00  0.00    +0.000 C 
ATOM      9  N   UNL     1       2.131  -3.107   0.000  0.00  0.00    +0.000 NA
ATOM     10  N   UNL     1       2.845  -1.869   0.000  0.00  0.00    +0.000 NA
ENDBRANCH   7   8
ENDBRANCH   1   5
BRANCH   1  11
ATOM     11  C   UNL     1      -0.013   0.606   0.000  0.00  0.00    +0.000 C 
BRANCH  11  12
ATOM     12  C   UNL     1      -0.727   0.193   0.000  0.00  0.00    +0.000 C 
BRANCH  12  13
ATOM     13  C   UNL     1      -1.442   0.606   0.000  0.00  0.00    +0.000 A 
ATOM     14  C   UNL     1      -2.156   0.193   0.000  0.00  0.00    +0.000 A 
ATOM     15  C   UNL     1      -2.870   0.606   0.000  0.00  0.00    +0.000 A 
ATOM     16  C   UNL     1      -2.870   1.431   0.000  0.00  0.00    +0.000 A 
ATOM     17  C   UNL     1      -2.156   1.843   0.000  0.00  0.00    +0.000 A 
ATOM     18  C   UNL     1      -1.442   1.431   0.000  0.00  0.00    +0.000 A 
BRANCH  16  19
ATOM     19  C   UNL     1      -3.585   1.843   0.000  0.00  0.00    +0.000 C 
ATOM     20  N   UNL     1      -4.299   1.431   0.000  0.00  0.00    +0.000 NA
ATOM     21  N   UNL     1      -3.585   2.668   0.000  0.00  0.00    +0.000 NA
ENDBRANCH  16  19
ENDBRANCH  12  13
ENDBRANCH  11  12
ENDBRANCH   1  11
BRANCH   1  22
ATOM     22  C   UNL     1       1.416   0.606   0.000  0.00  0.00    +0.000 C 
BRANCH  22  23
ATOM     23  C   UNL     1       2.131   0.193   0.000  0.00  0.00    +0.000 C 
ATOM     24  O   UNL     1       2.131  -0.632   0.000  0.00  0.00    +0.000 OA
BRANCH  23  25
ATOM     25  O   UNL     1       2.845   0.606   0.000  0.00  0.00    +0.000 OA
ATOM     26  C   UNL     1       3.560   0.193   0.000  0.00  0.00    +0.000 C 
ENDBRANCH  23  25
ENDBRANCH  22  23
ENDBRANCH   1  22
TORSDOF 9
