REMARK  Name = IN7
REMARK  6 active torsions:
REMARK  status: ('A' for Active; 'I' for Inactive)
REMARK    1  A    between atoms: C_1  and  N_14
REMARK    2  A    between atoms: C_7  and  S_10
REMARK    3  A    between atoms: S_10  and  N_23
REMARK    4  A    between atoms: C_11  and  C_19
REMARK    5  A    between atoms: N_23  and  C_24
REMARK    6  A    between atoms: C_24  and  C_25
REMARK                            x       y       z     vdW  Elec       q    Type
REMARK                         _______ _______ _______ _____ _____    ______ ____
ROOT
ATOM      1  C   UNL     1       0.368   0.349   0.000  0.00  0.00    +0.000 A 
ATOM      2  C   UNL     1       0.368   1.174   0.000  0.00  0.00    +0.000 A 
ATOM      3  C   UNL     1       1.083   1.586   0.000  0.00  0.00    +0.000 A 
ATOM      4  C   UNL     1       1.083  -0.064   0.000  0.00  0.00    +0.000 A 
ATOM      5  C   UNL     1       1.797   1.174   0.000  0.00  0.00    +0.000 A 
ATOM      6  C   UNL     1       1.797   0.349   0.000  0.00  0.00    +0.000 A 
ENDROOT
BRANCH   1  11
ATOM      7  C   UNL     1      -1.061  -1.301   0.000  0.00  0.00    +0.000 C 
ATOM      8  C   UNL     1      -1.775  -0.889   0.000  0.00  0.00    +0.000 C 
ATOM      9  C   UNL     1      -1.775  -0.064   0.000  0.00  0.00    +0.000 C 
ATOM     10  C   UNL     1      -1.061   0.349   0.000  0.00  0.00    +0.000 C 
ATOM     11  N   UNL     1      -0.346  -0.064   0.000  0.00  0.00    +0.000 N 
ATOM     12  C   UNL     1      -0.346  -0.889   0.000  0.00  0.00    +0.000 C 
BRANCH   8  16
ATOM     13  C   UNL     1      -3.919  -2.126   0.000  0.00  0.00    +0.000 A 
ATOM     14  C   UNL     1      -3.919  -1.301   0.000  0.00  0.00    +0.000 A 
ATOM     15  C   UNL     1      -3.204  -0.889   0.000  0.00  0.00    +0.000 A 
ATOM     16  C   UNL     1      -2.490  -1.301   0.000  0.00  0.00    +0.000 A 
ATOM     17  C   UNL     1      -2.490  -2.126   0.000  0.00  0.00    +0.000 A 
ATOM     18  C   UNL     1      -3.204  -2.539   0.000  0.00  0.00    +0.000 A 
ENDBRANCH   8  16
ENDBRANCH   1  11
BRANCH   5  20
ATOM     19  O   UNL     1       2.099   2.301   0.000  0.00  0.00    +0.000 OA
ATOM     20  S   UNL     1       2.512   1.586   0.000  0.00  0.00    +0.000 S 
ATOM     21  O   UNL     1       2.924   0.872   0.000  0.00  0.00    +0.000 OA
BRANCH  20  22
ATOM     22  N   UNL     1       3.226   1.999   0.000  0.00  0.00    +0.000 NA
BRANCH  22  23
ATOM     23  C   UNL     1       3.941   1.586   0.000  0.00  0.00    +0.000 C 
BRANCH  23  25
ATOM     24  O   UNL     1       5.369   1.586   0.000  0.00  0.00    +0.000 OA
ATOM     25  C   UNL     1       4.655   1.999   0.000  0.00  0.00    +0.000 C 
ATOM     26  O   UNL     1       4.655   2.824   0.000  0.00  0.00    +0.000 OA
ENDBRANCH  23  25
ENDBRANCH  22  23
ENDBRANCH  20  22
ENDBRANCH   5  20
TORSDOF 6
