REMARK  Name = INC
REMARK  5 active torsions:
REMARK  status: ('A' for Active; 'I' for Inactive)
REMARK    1  A    between atoms: N_4  and  C_6
REMARK    2  A    between atoms: C_6  and  C_7
REMARK    3  A    between atoms: C_6  and  C_11
REMARK    4  A    between atoms: C_7  and  C_8
REMARK    5  A    between atoms: C_11  and  O_13
REMARK                            x       y       z     vdW  Elec       q    Type
REMARK                         _______ _______ _______ _____ _____    ______ ____
ROOT
ATOM      1  C   UNL     1       0.105  -0.361   0.000  0.00  0.00    +0.000 C 
ENDROOT
BRANCH   1   5
ATOM      2  C   UNL     1       0.819  -2.424   0.000  0.00  0.00    +0.000 C 
ATOM      3  C   UNL     1       0.819  -1.599   0.000  0.00  0.00    +0.000 C 
ATOM      4  O   UNL     1       1.534  -1.186   0.000  0.00  0.00    +0.000 OA
ATOM      5  N   UNL     1       0.105  -1.186   0.000  0.00  0.00    +0.000 N 
ATOM      6  O   UNL     1      -0.610  -1.599   0.000  0.00  0.00    +0.000 OA
ENDBRANCH   1   5
BRANCH   1   7
ATOM      7  C   UNL     1       0.819   0.051   0.000  0.00  0.00    +0.000 C 
ATOM      8  O   UNL     1       1.534  -0.361   0.000  0.00  0.00    +0.000 OA
BRANCH   7   9
ATOM      9  O   UNL     1       0.819   0.876   0.000  0.00  0.00    +0.000 OA
ATOM     10  C   UNL     1       1.534   1.289   0.000  0.00  0.00    +0.000 C 
ENDBRANCH   7   9
ENDBRANCH   1   7
BRANCH   1  11
ATOM     11  C   UNL     1      -0.610   0.051   0.000  0.00  0.00    +0.000 C 
BRANCH  11  12
ATOM     12  C   UNL     1      -0.610   0.876   0.000  0.00  0.00    +0.000 C 
ATOM     13  C   UNL     1      -1.324   1.289   0.000  0.00  0.00    +0.000 C 
ATOM     14  C   UNL     1       0.105   1.289   0.000  0.00  0.00    +0.000 C 
ENDBRANCH  11  12
ENDBRANCH   1  11
TORSDOF 5
