REMARK  Name = Indole-3-acetic acid.mol
REMARK  2 active torsions:
REMARK  status: ('A' for Active; 'I' for Inactive)
REMARK    1  A    between atoms: C_2  and  C_3
REMARK    2  A    between atoms: C_3  and  C_4
REMARK                            x       y       z     vdW  Elec       q    Type
REMARK                         _______ _______ _______ _____ _____    ______ ____
ROOT
ATOM      1  C   UNL     1      -0.206   0.000   0.000  0.00  0.00    +0.000 A 
ATOM      2  C   UNL     1       0.206   0.715   0.000  0.00  0.00    +0.000 A 
ATOM      3  C   UNL     1       1.031   0.715   0.000  0.00  0.00    +0.000 A 
ATOM      4  C   UNL     1       1.444   0.000   0.000  0.00  0.00    +0.000 A 
ATOM      5  O   UNL     1       2.269   0.000   0.000  0.00  0.00    +0.000 OA
ATOM      6  C   UNL     1       1.031  -0.715   0.000  0.00  0.00    +0.000 A 
ATOM      7  C   UNL     1       0.206  -0.715   0.000  0.00  0.00    +0.000 A 
ENDROOT
BRANCH   1   8
ATOM      8  C   UNL     1      -1.031   0.000   0.000  0.00  0.00    +0.000 C 
BRANCH   8  10
ATOM      9  N   UNL     1      -2.269  -0.715   0.000  0.00  0.00    +0.000 NA
ATOM     10  C   UNL     1      -1.444  -0.715   0.000  0.00  0.00    +0.000 C 
ENDBRANCH   8  10
ENDBRANCH   1   8
TORSDOF 2
