REMARK  Name = INK
REMARK  6 active torsions:
REMARK  status: ('A' for Active; 'I' for Inactive)
REMARK    1  A    between atoms: P_1  and  O_5
REMARK    2  A    between atoms: O_5  and  C_6
REMARK    3  A    between atoms: C_6  and  C_7
REMARK    4  A    between atoms: C_6  and  C_9
REMARK    5  A    between atoms: C_9  and  O_10
REMARK    6  A    between atoms: O_10  and  C_15
REMARK                            x       y       z     vdW  Elec       q    Type
REMARK                         _______ _______ _______ _____ _____    ______ ____
ROOT
ATOM      1  C   UNL     1      -0.699   0.074   0.000  0.00  0.00    +0.000 C 
ENDROOT
BRANCH   1   2
ATOM      2  C   UNL     1      -0.699  -0.751   0.000  0.00  0.00    +0.000 C 
ATOM      3  C   UNL     1       0.016  -1.164   0.000  0.00  0.00    +0.000 C 
ENDBRANCH   1   2
BRANCH   1   4
ATOM      4  O   UNL     1      -1.413   0.486   0.000  0.00  0.00    +0.000 OA
BRANCH   4   5
ATOM      5  P   UNL     1      -2.128   0.074   0.000  0.00  0.00    +0.000 P 
ATOM      6 CL   UNL     1      -2.842  -0.339   0.000  0.00  0.00    +0.000 Cl
ATOM      7  C   UNL     1      -1.715  -0.641   0.000  0.00  0.00    +0.000 C 
ATOM      8  O   UNL     1      -2.540   0.788   0.000  0.00  0.00    +0.000 OA
ENDBRANCH   4   5
ENDBRANCH   1   4
BRANCH   1   9
ATOM      9  C   UNL     1       0.016   0.486   0.000  0.00  0.00    +0.000 C 
BRANCH   9  10
ATOM     10  O   UNL     1       0.730   0.074   0.000  0.00  0.00    +0.000 OA
BRANCH  10  15
ATOM     11  C   UNL     1       2.159   1.724   0.000  0.00  0.00    +0.000 A 
ATOM     12  C   UNL     1       2.874   1.311   0.000  0.00  0.00    +0.000 A 
ATOM     13  C   UNL     1       2.874   0.486   0.000  0.00  0.00    +0.000 A 
ATOM     14  C   UNL     1       2.159   0.074   0.000  0.00  0.00    +0.000 A 
ATOM     15  C   UNL     1       1.445   0.486   0.000  0.00  0.00    +0.000 A 
ATOM     16  C   UNL     1       1.445   1.311   0.000  0.00  0.00    +0.000 A 
ENDBRANCH  10  15
ENDBRANCH   9  10
ENDBRANCH   1   9
TORSDOF 6
