REMARK  Name = INL
REMARK  5 active torsions:
REMARK  status: ('A' for Active; 'I' for Inactive)
REMARK    1  A    between atoms: S_1  and  C_5
REMARK    2  A    between atoms: C_11  and  C_16
REMARK    3  A    between atoms: N_12  and  C_24
REMARK    4  A    between atoms: C_16  and  N_22
REMARK    5  A    between atoms: C_28  and  O_29
REMARK                            x       y       z     vdW  Elec       q    Type
REMARK                         _______ _______ _______ _____ _____    ______ ____
ROOT
ATOM      1  C   UNL     1      -3.108   0.360   0.000  0.00  0.00    +0.000 A 
ATOM      2  C   UNL     1      -2.623  -0.308   0.000  0.00  0.00    +0.000 A 
ATOM      3  C   UNL     1      -1.839  -0.053   0.000  0.00  0.00    +0.000 A 
ATOM      4  C   UNL     1      -1.839   0.772   0.000  0.00  0.00    +0.000 A 
ATOM      5  S   UNL     1      -2.623   1.027   0.000  0.00  0.00    +0.000 S 
ATOM      6  C   UNL     1      -1.124  -0.465   0.000  0.00  0.00    +0.000 C 
ATOM      7  C   UNL     1      -0.410  -0.053   0.000  0.00  0.00    +0.000 C 
ATOM      8  N   UNL     1      -0.410   0.772   0.000  0.00  0.00    +0.000 N 
ATOM      9  S   UNL     1      -1.124   1.185   0.000  0.00  0.00    +0.000 S 
ATOM     10  O   UNL     1      -1.512   1.913   0.000  0.00  0.00    +0.000 OA
ATOM     11  O   UNL     1      -0.737   1.913   0.000  0.00  0.00    +0.000 OA
ENDROOT
BRANCH   8  13
ATOM     12  C   UNL     1       1.019   0.772   0.000  0.00  0.00    +0.000 A 
ATOM     13  C   UNL     1       0.304   1.185   0.000  0.00  0.00    +0.000 A 
ATOM     14  C   UNL     1       0.304   2.010   0.000  0.00  0.00    +0.000 A 
ATOM     15  C   UNL     1       1.019   2.422   0.000  0.00  0.00    +0.000 A 
ATOM     16  C   UNL     1       1.734   2.010   0.000  0.00  0.00    +0.000 A 
ATOM     17  C   UNL     1       1.734   1.185   0.000  0.00  0.00    +0.000 A 
BRANCH  17  18
ATOM     18  O   UNL     1       2.448   0.772   0.000  0.00  0.00    +0.000 OA
ATOM     19  C   UNL     1       3.162   1.185   0.000  0.00  0.00    +0.000 C 
ENDBRANCH  17  18
ENDBRANCH   8  13
BRANCH   1  20
ATOM     20  S   UNL     1      -3.933   0.360   0.000  0.00  0.00    +0.000 S 
ATOM     21  O   UNL     1      -4.758   0.360   0.000  0.00  0.00    +0.000 OA
ATOM     22  O   UNL     1      -3.933  -0.465   0.000  0.00  0.00    +0.000 OA
ATOM     23  N   UNL     1      -3.933   1.185   0.000  0.00  0.00    +0.000 NA
ENDBRANCH   1  20
BRANCH   7  24
ATOM     24  C   UNL     1       0.304  -0.465   0.000  0.00  0.00    +0.000 C 
BRANCH  24  30
ATOM     25  C   UNL     1       1.019  -1.703   0.000  0.00  0.00    +0.000 C 
ATOM     26  C   UNL     1       1.019  -2.528   0.000  0.00  0.00    +0.000 C 
ATOM     27  O   UNL     1       0.304  -2.940   0.000  0.00  0.00    +0.000 OA
ATOM     28  C   UNL     1      -0.410  -2.528   0.000  0.00  0.00    +0.000 C 
ATOM     29  C   UNL     1      -0.410  -1.703   0.000  0.00  0.00    +0.000 C 
ATOM     30  N   UNL     1       0.304  -1.290   0.000  0.00  0.00    +0.000 NA
ENDBRANCH  24  30
ENDBRANCH   7  24
TORSDOF 5
