REMARK  Name = INQ
REMARK  4 active torsions:
REMARK  status: ('A' for Active; 'I' for Inactive)
REMARK    1  A    between atoms: S_1  and  C_4
REMARK    2  A    between atoms: C_10  and  C_15
REMARK    3  A    between atoms: N_11  and  C_23
REMARK    4  A    between atoms: C_15  and  N_21
REMARK                            x       y       z     vdW  Elec       q    Type
REMARK                         _______ _______ _______ _____ _____    ______ ____
ROOT
ATOM      1  C   UNL     1      -2.856   0.511   0.000  0.00  0.00    +0.000 A 
ATOM      2  C   UNL     1      -2.371  -0.157   0.000  0.00  0.00    +0.000 A 
ATOM      3  C   UNL     1      -1.586   0.098   0.000  0.00  0.00    +0.000 A 
ATOM      4  C   UNL     1      -1.586   0.923   0.000  0.00  0.00    +0.000 A 
ATOM      5  S   UNL     1      -2.371   1.178   0.000  0.00  0.00    +0.000 S 
ATOM      6  C   UNL     1      -0.872  -0.314   0.000  0.00  0.00    +0.000 C 
ATOM      7  C   UNL     1      -0.157   0.098   0.000  0.00  0.00    +0.000 C 
ATOM      8  N   UNL     1      -0.157   0.923   0.000  0.00  0.00    +0.000 N 
ATOM      9  S   UNL     1      -0.872   1.336   0.000  0.00  0.00    +0.000 S 
ATOM     10  O   UNL     1      -1.259   2.064   0.000  0.00  0.00    +0.000 OA
ATOM     11  O   UNL     1      -0.484   2.064   0.000  0.00  0.00    +0.000 OA
ENDROOT
BRANCH   8  13
ATOM     12  C   UNL     1       1.272   0.923   0.000  0.00  0.00    +0.000 A 
ATOM     13  C   UNL     1       0.557   1.336   0.000  0.00  0.00    +0.000 A 
ATOM     14  C   UNL     1       0.557   2.161   0.000  0.00  0.00    +0.000 A 
ATOM     15  C   UNL     1       1.272   2.573   0.000  0.00  0.00    +0.000 A 
ATOM     16  C   UNL     1       1.986   2.161   0.000  0.00  0.00    +0.000 A 
ATOM     17  C   UNL     1       1.986   1.336   0.000  0.00  0.00    +0.000 A 
ATOM     18  O   UNL     1       2.701   0.923   0.000  0.00  0.00    +0.000 OA
ENDBRANCH   8  13
BRANCH   1  19
ATOM     19  S   UNL     1      -3.681   0.511   0.000  0.00  0.00    +0.000 S 
ATOM     20  O   UNL     1      -4.506   0.511   0.000  0.00  0.00    +0.000 OA
ATOM     21  N   UNL     1      -3.681  -0.314   0.000  0.00  0.00    +0.000 NA
ATOM     22  O   UNL     1      -3.681   1.336   0.000  0.00  0.00    +0.000 OA
ENDBRANCH   1  19
BRANCH   7  23
ATOM     23  C   UNL     1       0.557  -0.314   0.000  0.00  0.00    +0.000 C 
BRANCH  23  29
ATOM     24  C   UNL     1       1.272  -1.552   0.000  0.00  0.00    +0.000 C 
ATOM     25  C   UNL     1       1.272  -2.377   0.000  0.00  0.00    +0.000 C 
ATOM     26  O   UNL     1       0.557  -2.789   0.000  0.00  0.00    +0.000 OA
ATOM     27  C   UNL     1      -0.157  -2.377   0.000  0.00  0.00    +0.000 C 
ATOM     28  C   UNL     1      -0.157  -1.552   0.000  0.00  0.00    +0.000 C 
ATOM     29  N   UNL     1       0.557  -1.139   0.000  0.00  0.00    +0.000 NA
ENDBRANCH  23  29
ENDBRANCH   7  23
TORSDOF 4
