REMARK  Name = INT
REMARK  12 active torsions:
REMARK  status: ('A' for Active; 'I' for Inactive)
REMARK    1  A    between atoms: CA_1  and  C_2
REMARK    2  A    between atoms: CA_1  and  CB_4
REMARK    3  A    between atoms: CA_1  and  N_11
REMARK    4  A    between atoms: CB_4  and  CG_5
REMARK    5  A    between atoms: CA_12  and  C_13
REMARK    6  A    between atoms: CA_12  and  CB_15
REMARK    7  A    between atoms: CA_12  and  N_18
REMARK    8  A    between atoms: C_19  and  CA_21
REMARK    9  A    between atoms: CA_21  and  N_23
REMARK   10  A    between atoms: C_24  and  O_26
REMARK   11  A    between atoms: O_26  and  C_27
REMARK   12  A    between atoms: C_27  and  C_28
REMARK                            x       y       z     vdW  Elec       q    Type
REMARK                         _______ _______ _______ _____ _____    ______ ____
ROOT
ATOM      1  CA  ALA A   1      -0.635  -0.197   0.000  0.00  0.00    +0.000 C 
ENDROOT
BRANCH   1   2
ATOM      2  CB  ALA A   1      -0.635  -1.022   0.000  0.00  0.00    +0.000 C 
ATOM      3  CG1 ALA A   1       0.079  -1.435   0.000  0.00  0.00    +0.000 C 
ATOM      4  CG2 ALA A   1      -1.350  -1.435   0.000  0.00  0.00    +0.000 C 
ENDBRANCH   1   2
BRANCH   1   6
ATOM      5  N   ALA A   1      -2.064  -0.197   0.000  0.00  0.00    +0.000 NA
ATOM      6  C   ALA A   1      -1.350   0.215   0.000  0.00  0.00    +0.000 C 
ATOM      7  O   ALA A   1      -1.350   1.040   0.000  0.00  0.00    +0.000 OA
BRANCH   5   8
ATOM      8  CA  ALA A   1      -2.779   0.215   0.000  0.00  0.00    +0.000 C 
BRANCH   8   9
ATOM      9  C   ALA A   1      -2.779   1.040   0.000  0.00  0.00    +0.000 C 
ATOM     10  O   ALA A   1      -2.064   1.453   0.000  0.00  0.00    +0.000 OA
ENDBRANCH   8   9
BRANCH   8  11
ATOM     11  CB  ALA A   1      -3.493  -0.197   0.000  0.00  0.00    +0.000 C 
BRANCH  11  12
ATOM     12  CG  ALA A   1      -4.208   0.215   0.000  0.00  0.00    +0.000 A 
ATOM     13  CD1 ALA A   1      -4.922  -0.197   0.000  0.00  0.00    +0.000 A 
ATOM     14  CE1 ALA A   1      -5.637   0.215   0.000  0.00  0.00    +0.000 A 
ATOM     15  CZ  ALA A   1      -5.637   1.040   0.000  0.00  0.00    +0.000 A 
ATOM     16  CE2 ALA A   1      -4.922   1.453   0.000  0.00  0.00    +0.000 A 
ATOM     17  CD2 ALA A   1      -4.208   1.040   0.000  0.00  0.00    +0.000 A 
ENDBRANCH  11  12
ENDBRANCH   8  11
ENDBRANCH   5   8
ENDBRANCH   1   6
BRANCH   1  18
ATOM     18  N   ALA A   1       0.079   0.215   0.000  0.00  0.00    +0.000 NA
ATOM     19  C   ALA A   1       0.793  -0.197   0.000  0.00  0.00    +0.000 C 
ATOM     20  O   ALA A   1       0.793  -1.022   0.000  0.00  0.00    +0.000 OA
BRANCH  19  21
ATOM     21  CA  ALA A   1       1.508   0.215   0.000  0.00  0.00    +0.000 C 
ATOM     22  CB  ALA A   1       1.508   1.040   0.000  0.00  0.00    +0.000 C 
BRANCH  21  23
ATOM     23  N   ALA A   1       2.222  -0.197   0.000  0.00  0.00    +0.000 NA
ATOM     24  C   UNK A   0       2.937   0.215   0.000  0.00  0.00    +0.000 C 
ATOM     25  O   UNK A   0       2.937   1.040   0.000  0.00  0.00    +0.000 OA
BRANCH  24  26
ATOM     26  O   UNK A   0       3.651  -0.197   0.000  0.00  0.00    +0.000 OA
BRANCH  26  27
ATOM     27  C   UNK A   0       4.366   0.215   0.000  0.00  0.00    +0.000 C 
BRANCH  27  28
ATOM     28  C   UNK A   0       5.080  -0.197   0.000  0.00  0.00    +0.000 A 
ATOM     29  C   UNK A   0       5.795   0.215   0.000  0.00  0.00    +0.000 A 
ATOM     30  C   UNK A   0       6.509  -0.197   0.000  0.00  0.00    +0.000 A 
ATOM     31  C   UNK A   0       6.509  -1.022   0.000  0.00  0.00    +0.000 A 
ATOM     32  C   UNK A   0       5.795  -1.435   0.000  0.00  0.00    +0.000 A 
ATOM     33  C   UNK A   0       5.080  -1.022   0.000  0.00  0.00    +0.000 A 
ENDBRANCH  27  28
ENDBRANCH  26  27
ENDBRANCH  24  26
ENDBRANCH  21  23
ENDBRANCH  19  21
ENDBRANCH   1  18
TORSDOF 12
