REMARK  Name = IOC
REMARK  4 active torsions:
REMARK  status: ('A' for Active; 'I' for Inactive)
REMARK    1  A    between atoms: C_3  and  S_11
REMARK    2  A    between atoms: C_6  and  C_7
REMARK    3  A    between atoms: N_9  and  C_10
REMARK    4  A    between atoms: C_10  and  C_15
REMARK                            x       y       z     vdW  Elec       q    Type
REMARK                         _______ _______ _______ _____ _____    ______ ____
ROOT
ATOM      1  C   UNL     1      -0.836  -0.681   0.000  0.00  0.00    +0.000 C 
ATOM      2  O   UNL     1      -1.551  -1.093   0.000  0.00  0.00    +0.000 OA
ATOM      3  N   UNL     1      -0.836   0.144   0.000  0.00  0.00    +0.000 NA
ENDROOT
BRANCH   1   9
ATOM      4  C   UNL     1       0.593  -0.681   0.000  0.00  0.00    +0.000 A 
ATOM      5  C   UNL     1       1.307  -1.093   0.000  0.00  0.00    +0.000 A 
ATOM      6  C   UNL     1       1.307  -1.918   0.000  0.00  0.00    +0.000 A 
ATOM      7  C   UNL     1       0.593  -2.331   0.000  0.00  0.00    +0.000 A 
ATOM      8  C   UNL     1      -0.122  -1.918   0.000  0.00  0.00    +0.000 A 
ATOM      9  C   UNL     1      -0.122  -1.093   0.000  0.00  0.00    +0.000 A 
BRANCH   6  10
ATOM     10  S   UNL     1       2.022  -2.331   0.000  0.00  0.00    +0.000 S 
ATOM     11  N   UNL     1       2.736  -2.743   0.000  0.00  0.00    +0.000 NA
ATOM     12  O   UNL     1       2.434  -1.616   0.000  0.00  0.00    +0.000 OA
ATOM     13  O   UNL     1       1.609  -3.045   0.000  0.00  0.00    +0.000 OA
ENDBRANCH   6  10
ENDBRANCH   1   9
BRANCH   3  14
ATOM     14  C   UNL     1      -1.551   0.557   0.000  0.00  0.00    +0.000 C 
BRANCH  14  15
ATOM     15  C   UNL     1      -1.551   1.382   0.000  0.00  0.00    +0.000 A 
ATOM     16  C   UNL     1      -2.265   1.794   0.000  0.00  0.00    +0.000 A 
ATOM     17  C   UNL     1      -2.265   2.619   0.000  0.00  0.00    +0.000 A 
ATOM     18  C   UNL     1      -1.551   3.032   0.000  0.00  0.00    +0.000 A 
ATOM     19  C   UNL     1      -0.836   2.619   0.000  0.00  0.00    +0.000 A 
ATOM     20  C   UNL     1      -0.836   1.794   0.000  0.00  0.00    +0.000 A 
ATOM     21  F   UNL     1      -1.551   3.857   0.000  0.00  0.00    +0.000 F 
ATOM     22  F   UNL     1      -2.980   1.382   0.000  0.00  0.00    +0.000 F 
ATOM     23  F   UNL     1      -2.980   3.032   0.000  0.00  0.00    +0.000 F 
ENDBRANCH  14  15
ENDBRANCH   3  14
TORSDOF 4
