REMARK  Name = IOF
REMARK  4 active torsions:
REMARK  status: ('A' for Active; 'I' for Inactive)
REMARK    1  A    between atoms: C_3  and  S_11
REMARK    2  A    between atoms: C_6  and  C_7
REMARK    3  A    between atoms: N_9  and  C_10
REMARK    4  A    between atoms: C_10  and  C_15
REMARK                            x       y       z     vdW  Elec       q    Type
REMARK                         _______ _______ _______ _____ _____    ______ ____
ROOT
ATOM      1  C   UNL     1      -0.820  -0.613   0.000  0.00  0.00    +0.000 C 
ATOM      2  O   UNL     1      -1.534  -1.026   0.000  0.00  0.00    +0.000 OA
ATOM      3  N   UNL     1      -0.820   0.212   0.000  0.00  0.00    +0.000 NA
ENDROOT
BRANCH   1   9
ATOM      4  C   UNL     1       0.609  -0.613   0.000  0.00  0.00    +0.000 A 
ATOM      5  C   UNL     1       1.324  -1.026   0.000  0.00  0.00    +0.000 A 
ATOM      6  C   UNL     1       1.324  -1.851   0.000  0.00  0.00    +0.000 A 
ATOM      7  C   UNL     1       0.609  -2.263   0.000  0.00  0.00    +0.000 A 
ATOM      8  C   UNL     1      -0.105  -1.851   0.000  0.00  0.00    +0.000 A 
ATOM      9  C   UNL     1      -0.105  -1.026   0.000  0.00  0.00    +0.000 A 
BRANCH   6  10
ATOM     10  S   UNL     1       2.038  -2.263   0.000  0.00  0.00    +0.000 S 
ATOM     11  N   UNL     1       2.753  -2.676   0.000  0.00  0.00    +0.000 NA
ATOM     12  O   UNL     1       2.451  -1.549   0.000  0.00  0.00    +0.000 OA
ATOM     13  O   UNL     1       1.626  -2.978   0.000  0.00  0.00    +0.000 OA
ENDBRANCH   6  10
ENDBRANCH   1   9
BRANCH   3  14
ATOM     14  C   UNL     1      -1.534   0.624   0.000  0.00  0.00    +0.000 C 
BRANCH  14  15
ATOM     15  C   UNL     1      -1.534   1.449   0.000  0.00  0.00    +0.000 A 
ATOM     16  C   UNL     1      -2.249   1.862   0.000  0.00  0.00    +0.000 A 
ATOM     17  C   UNL     1      -2.249   2.687   0.000  0.00  0.00    +0.000 A 
ATOM     18  C   UNL     1      -1.534   3.099   0.000  0.00  0.00    +0.000 A 
ATOM     19  C   UNL     1      -0.820   2.687   0.000  0.00  0.00    +0.000 A 
ATOM     20  C   UNL     1      -0.820   1.862   0.000  0.00  0.00    +0.000 A 
ATOM     21  F   UNL     1      -2.963   3.099   0.000  0.00  0.00    +0.000 F 
ATOM     22  F   UNL     1      -1.534   3.924   0.000  0.00  0.00    +0.000 F 
ATOM     23  F   UNL     1      -0.105   3.099   0.000  0.00  0.00    +0.000 F 
ENDBRANCH  14  15
ENDBRANCH   3  14
TORSDOF 4
