REMARK  Name = IOK
REMARK  7 active torsions:
REMARK  status: ('A' for Active; 'I' for Inactive)
REMARK    1  A    between atoms: C_1  and  C_8
REMARK    2  A    between atoms: C_8  and  C_9
REMARK    3  A    between atoms: C_9  and  C_10
REMARK    4  A    between atoms: C_10  and  N_12
REMARK    5  A    between atoms: C_13  and  C_15
REMARK    6  A    between atoms: C_15  and  C_16
REMARK    7  A    between atoms: C_17  and  C_25
REMARK                            x       y       z     vdW  Elec       q    Type
REMARK                         _______ _______ _______ _____ _____    ______ ____
ROOT
ATOM      1  C   UNL     1      -0.962   3.880   0.000  0.00  0.00    +0.000 C 
ENDROOT
BRANCH   1   2
ATOM      2  C   UNL     1      -0.247   4.292   0.000  0.00  0.00    +0.000 A 
ATOM      3  C   UNL     1       0.506   3.957   0.000  0.00  0.00    +0.000 A 
ATOM      4  N   UNL     1       1.058   4.570   0.000  0.00  0.00    +0.000 NA
ATOM      5  C   UNL     1       0.646   5.284   0.000  0.00  0.00    +0.000 A 
ATOM      6  C   UNL     1       0.901   6.069   0.000  0.00  0.00    +0.000 A 
ATOM      7  C   UNL     1       0.349   6.682   0.000  0.00  0.00    +0.000 A 
ATOM      8  C   UNL     1      -0.458   6.510   0.000  0.00  0.00    +0.000 A 
ATOM      9  C   UNL     1      -0.713   5.726   0.000  0.00  0.00    +0.000 A 
ATOM     10  C   UNL     1      -0.161   5.113   0.000  0.00  0.00    +0.000 A 
BRANCH   3  11
ATOM     11  C   UNL     1       0.678   3.150   0.000  0.00  0.00    +0.000 A 
ATOM     12  C   UNL     1       1.463   2.895   0.000  0.00  0.00    +0.000 A 
ATOM     13  C   UNL     1       1.634   2.088   0.000  0.00  0.00    +0.000 A 
ATOM     14  C   UNL     1       1.021   1.536   0.000  0.00  0.00    +0.000 A 
ATOM     15  C   UNL     1       0.236   1.791   0.000  0.00  0.00    +0.000 A 
ATOM     16  C   UNL     1       0.065   2.598   0.000  0.00  0.00    +0.000 A 
ENDBRANCH   3  11
ENDBRANCH   1   2
BRANCH   1  18
ATOM     17  N   UNL     1      -2.391   3.880   0.000  0.00  0.00    +0.000 NA
ATOM     18  C   UNL     1      -1.676   4.292   0.000  0.00  0.00    +0.000 C 
ATOM     19  O   UNL     1      -1.676   5.117   0.000  0.00  0.00    +0.000 OA
BRANCH  17  20
ATOM     20  C   UNL     1      -3.105   4.292   0.000  0.00  0.00    +0.000 C 
ATOM     21  C   UNL     1      -3.105   5.117   0.000  0.00  0.00    +0.000 C 
BRANCH  20  22
ATOM     22  C   UNL     1      -3.820   3.880   0.000  0.00  0.00    +0.000 C 
BRANCH  22  23
ATOM     23  C   UNL     1      -4.534   4.292   0.000  0.00  0.00    +0.000 C 
BRANCH  23  24
ATOM     24  C   UNL     1      -5.248   3.880   0.000  0.00  0.00    +0.000 A 
ATOM     25  C   UNL     1      -5.963   4.292   0.000  0.00  0.00    +0.000 A 
ATOM     26  C   UNL     1      -6.677   3.880   0.000  0.00  0.00    +0.000 A 
ATOM     27  C   UNL     1      -6.677   3.055   0.000  0.00  0.00    +0.000 A 
ATOM     28  O   UNL     1      -7.392   2.642   0.000  0.00  0.00    +0.000 OA
ATOM     29  C   UNL     1      -5.963   2.642   0.000  0.00  0.00    +0.000 A 
ATOM     30  C   UNL     1      -5.248   3.055   0.000  0.00  0.00    +0.000 A 
ENDBRANCH  23  24
ENDBRANCH  22  23
ENDBRANCH  20  22
ENDBRANCH  17  20
ENDBRANCH   1  18
TORSDOF 7
