REMARK  Name = IP6
REMARK  4 active torsions:
REMARK  status: ('A' for Active; 'I' for Inactive)
REMARK    1  A    between atoms: C_7  and  N_8
REMARK    2  A    between atoms: N_8  and  C_9
REMARK    3  A    between atoms: C_9  and  C_10
REMARK    4  A    between atoms: C_14  and  C_16
REMARK                            x       y       z     vdW  Elec       q    Type
REMARK                         _______ _______ _______ _____ _____    ______ ____
ROOT
ATOM      1  C   UNL     1       0.814   0.789   0.000  0.00  0.00    +0.000 A 
ATOM      2  C   UNL     1       1.528   1.201   0.000  0.00  0.00    +0.000 A 
ATOM      3  C   UNL     1       1.528   2.026   0.000  0.00  0.00    +0.000 A 
ATOM      4  C   UNL     1       0.814   2.439   0.000  0.00  0.00    +0.000 A 
ATOM      5  C   UNL     1       0.100   2.026   0.000  0.00  0.00    +0.000 A 
ATOM      6  C   UNL     1       0.100   1.201   0.000  0.00  0.00    +0.000 A 
ENDROOT
BRANCH   5   7
ATOM      7  C   UNL     1      -0.615   2.439   0.000  0.00  0.00    +0.000 A 
ATOM      8  C   UNL     1      -0.615   3.264   0.000  0.00  0.00    +0.000 A 
ATOM      9  C   UNL     1      -1.329   3.676   0.000  0.00  0.00    +0.000 A 
ATOM     10  C   UNL     1      -2.044   3.264   0.000  0.00  0.00    +0.000 A 
ATOM     11  C   UNL     1      -2.829   3.518   0.000  0.00  0.00    +0.000 A 
ATOM     12  C   UNL     1      -3.313   2.851   0.000  0.00  0.00    +0.000 A 
ATOM     13  N   UNL     1      -2.829   2.184   0.000  0.00  0.00    +0.000 NA
ATOM     14  C   UNL     1      -2.044   2.439   0.000  0.00  0.00    +0.000 A 
ATOM     15  C   UNL     1      -1.329   2.026   0.000  0.00  0.00    +0.000 A 
ENDBRANCH   5   7
BRANCH   1  16
ATOM     16  C   UNL     1       0.814  -0.036   0.000  0.00  0.00    +0.000 C 
BRANCH  16  17
ATOM     17  N   UNL     1       1.528  -0.449   0.000  0.00  0.00    +0.000 NA
BRANCH  17  24
ATOM     18  N   UNL     1       2.957  -1.274   0.000  0.00  0.00    +0.000 NA
ATOM     19  C   UNL     1       2.243  -1.686   0.000  0.00  0.00    +0.000 A 
ATOM     20  N   UNL     1       2.243  -2.511   0.000  0.00  0.00    +0.000 NA
ATOM     21  C   UNL     1       1.528  -2.924   0.000  0.00  0.00    +0.000 A 
ATOM     22  C   UNL     1       0.814  -2.511   0.000  0.00  0.00    +0.000 A 
ATOM     23  C   UNL     1       0.814  -1.686   0.000  0.00  0.00    +0.000 A 
ATOM     24  C   UNL     1       1.528  -1.274   0.000  0.00  0.00    +0.000 A 
ENDBRANCH  17  24
ENDBRANCH  16  17
ENDBRANCH   1  16
TORSDOF 4
