REMARK  Name = IP7
REMARK  7 active torsions:
REMARK  status: ('A' for Active; 'I' for Inactive)
REMARK    1  A    between atoms: C_7  and  N_8
REMARK    2  A    between atoms: N_8  and  C_9
REMARK    3  A    between atoms: C_9  and  C_10
REMARK    4  A    between atoms: C_12  and  C_24
REMARK    5  A    between atoms: C_15  and  O_16
REMARK    6  A    between atoms: O_16  and  C_17
REMARK    7  A    between atoms: C_17  and  C_18
REMARK                            x       y       z     vdW  Elec       q    Type
REMARK                         _______ _______ _______ _____ _____    ______ ____
ROOT
ATOM      1  C   UNL     1       0.099  -0.729   0.000  0.00  0.00    +0.000 A 
ATOM      2  C   UNL     1      -0.616  -0.316   0.000  0.00  0.00    +0.000 A 
ATOM      3  C   UNL     1      -0.616   0.509   0.000  0.00  0.00    +0.000 A 
ATOM      4  C   UNL     1       0.099   0.921   0.000  0.00  0.00    +0.000 A 
ATOM      5  C   UNL     1       0.813   0.509   0.000  0.00  0.00    +0.000 A 
ATOM      6  C   UNL     1       0.813  -0.316   0.000  0.00  0.00    +0.000 A 
ENDROOT
BRANCH   3   7
ATOM      7  C   UNL     1      -1.330   0.921   0.000  0.00  0.00    +0.000 A 
ATOM      8  C   UNL     1      -1.330   1.746   0.000  0.00  0.00    +0.000 A 
ATOM      9  C   UNL     1      -2.045   2.159   0.000  0.00  0.00    +0.000 A 
ATOM     10  C   UNL     1      -2.759   1.746   0.000  0.00  0.00    +0.000 A 
ATOM     11  C   UNL     1      -3.544   2.001   0.000  0.00  0.00    +0.000 A 
ATOM     12  C   UNL     1      -4.029   1.334   0.000  0.00  0.00    +0.000 A 
ATOM     13  N   UNL     1      -3.544   0.666   0.000  0.00  0.00    +0.000 NA
ATOM     14  C   UNL     1      -2.759   0.921   0.000  0.00  0.00    +0.000 A 
ATOM     15  C   UNL     1      -2.045   0.509   0.000  0.00  0.00    +0.000 A 
ENDBRANCH   3   7
BRANCH   1  16
ATOM     16  C   UNL     1       0.099  -1.554   0.000  0.00  0.00    +0.000 C 
BRANCH  16  17
ATOM     17  N   UNL     1       0.813  -1.966   0.000  0.00  0.00    +0.000 NA
BRANCH  17  24
ATOM     18  N   UNL     1       2.242  -2.791   0.000  0.00  0.00    +0.000 NA
ATOM     19  C   UNL     1       1.528  -3.204   0.000  0.00  0.00    +0.000 A 
ATOM     20  N   UNL     1       1.528  -4.029   0.000  0.00  0.00    +0.000 NA
ATOM     21  C   UNL     1       0.813  -4.441   0.000  0.00  0.00    +0.000 A 
ATOM     22  C   UNL     1       0.099  -4.029   0.000  0.00  0.00    +0.000 A 
ATOM     23  C   UNL     1       0.099  -3.204   0.000  0.00  0.00    +0.000 A 
ATOM     24  C   UNL     1       0.813  -2.791   0.000  0.00  0.00    +0.000 A 
ENDBRANCH  17  24
ENDBRANCH  16  17
ENDBRANCH   1  16
BRANCH   6  25
ATOM     25  O   UNL     1       1.528  -0.729   0.000  0.00  0.00    +0.000 OA
BRANCH  25  26
ATOM     26  C   UNL     1       2.242  -0.316   0.000  0.00  0.00    +0.000 C 
BRANCH  26  27
ATOM     27  C   UNL     1       2.957  -0.729   0.000  0.00  0.00    +0.000 A 
ATOM     28  C   UNL     1       2.957  -1.554   0.000  0.00  0.00    +0.000 A 
ATOM     29  C   UNL     1       3.671  -1.966   0.000  0.00  0.00    +0.000 A 
ATOM     30  C   UNL     1       4.386  -1.554   0.000  0.00  0.00    +0.000 A 
ATOM     31  C   UNL     1       4.386  -0.729   0.000  0.00  0.00    +0.000 A 
ATOM     32  N   UNL     1       3.671  -0.316   0.000  0.00  0.00    +0.000 NA
ENDBRANCH  26  27
ENDBRANCH  25  26
ENDBRANCH   6  25
TORSDOF 7
