REMARK  Name = IPC
REMARK  5 active torsions:
REMARK  status: ('A' for Active; 'I' for Inactive)
REMARK    1  A    between atoms: N_1  and  C_2
REMARK    2  A    between atoms: N_1  and  C_14
REMARK    3  A    between atoms: C_5  and  C_7
REMARK    4  A    between atoms: C_15  and  C_19
REMARK    5  A    between atoms: C_17  and  C_22
REMARK                            x       y       z     vdW  Elec       q    Type
REMARK                         _______ _______ _______ _____ _____    ______ ____
ROOT
ATOM      1  C   UNL     1       0.290  -0.523   0.000  0.00  0.00    +0.000 A 
ATOM      2  C   UNL     1       0.958  -1.008   0.000  0.00  0.00    +0.000 A 
ATOM      3  S   UNL     1       0.703  -1.793   0.000  0.00  0.00    +0.000 S 
ATOM      4  C   UNL     1      -0.122  -1.793   0.000  0.00  0.00    +0.000 A 
ATOM      5  C   UNL     1      -0.377  -1.008   0.000  0.00  0.00    +0.000 A 
ENDROOT
BRANCH   4   6
ATOM      6  C   UNL     1      -0.607  -2.461   0.000  0.00  0.00    +0.000 A 
ATOM      7  C   UNL     1      -0.272  -3.214   0.000  0.00  0.00    +0.000 A 
ATOM      8  C   UNL     1      -0.756  -3.882   0.000  0.00  0.00    +0.000 A 
ATOM      9  C   UNL     1      -1.577  -3.795   0.000  0.00  0.00    +0.000 A 
ATOM     10  C   UNL     1      -1.913  -3.042   0.000  0.00  0.00    +0.000 A 
ATOM     11  C   UNL     1      -1.428  -2.374   0.000  0.00  0.00    +0.000 A 
ENDBRANCH   4   6
BRANCH   1  12
ATOM     12  N   UNL     1       0.290   0.301   0.000  0.00  0.00    +0.000 N 
ATOM     13  C   UNL     1      -0.424   0.714   0.000  0.00  0.00    +0.000 C 
ATOM     14  O   UNL     1      -1.139   0.301   0.000  0.00  0.00    +0.000 OA
BRANCH  13  15
ATOM     15  C   UNL     1      -0.424   1.539   0.000  0.00  0.00    +0.000 A 
ATOM     16  C   UNL     1      -1.139   1.952   0.000  0.00  0.00    +0.000 A 
ATOM     17  C   UNL     1      -1.139   2.776   0.000  0.00  0.00    +0.000 A 
ATOM     18  C   UNL     1      -0.424   3.189   0.000  0.00  0.00    +0.000 A 
ATOM     19  C   UNL     1       0.290   2.776   0.000  0.00  0.00    +0.000 A 
ATOM     20  C   UNL     1       0.290   1.952   0.000  0.00  0.00    +0.000 A 
ATOM     21  C   UNL     1      -0.424   4.014   0.000  0.00  0.00    +0.000 C 
ENDBRANCH  13  15
BRANCH  12  22
ATOM     22  C   UNL     1       1.005   0.714   0.000  0.00  0.00    +0.000 C 
ATOM     23  C   UNL     1       1.005   1.539   0.000  0.00  0.00    +0.000 C 
ATOM     24  C   UNL     1       1.719   0.301   0.000  0.00  0.00    +0.000 C 
ENDBRANCH  12  22
ENDBRANCH   1  12
BRANCH   2  25
ATOM     25  C   UNL     1       1.742  -0.753   0.000  0.00  0.00    +0.000 C 
ATOM     26  O   UNL     1       1.914   0.053   0.000  0.00  0.00    +0.000 OA
ATOM     27  O   UNL     1       2.355  -1.306   0.000  0.00  0.00    +0.000 OA
ENDBRANCH   2  25
TORSDOF 5
