REMARK  Name = IPE
REMARK  6 active torsions:
REMARK  status: ('A' for Active; 'I' for Inactive)
REMARK    1  A    between atoms: C_1  and  O_2
REMARK    2  A    between atoms: C_1  and  C_3
REMARK    3  A    between atoms: O_2  and  P_7
REMARK    4  A    between atoms: C_3  and  C_4
REMARK    5  A    between atoms: P_7  and  O_10
REMARK    6  A    between atoms: O_10  and  P_11
REMARK                            x       y       z     vdW  Elec       q    Type
REMARK                         _______ _______ _______ _____ _____    ______ ____
ROOT
ATOM      1  P   UNL     1      -0.236   0.126   0.000  0.00  0.00    +0.000 P 
ATOM      2  O   UNL     1       0.176   0.840   0.000  0.00  0.00    +0.000 OA
ATOM      3  O   UNL     1      -0.649  -0.589   0.000  0.00  0.00    +0.000 OA
ENDROOT
BRANCH   1   4
ATOM      4  O   UNL     1       0.478  -0.287   0.000  0.00  0.00    +0.000 OA
BRANCH   4   5
ATOM      5  C   UNL     1       1.193   0.126   0.000  0.00  0.00    +0.000 C 
BRANCH   5   6
ATOM      6  C   UNL     1       1.907  -0.287   0.000  0.00  0.00    +0.000 C 
BRANCH   6   7
ATOM      7  C   UNL     1       2.622   0.126   0.000  0.00  0.00    +0.000 C 
ATOM      8  C   UNL     1       3.336  -0.287   0.000  0.00  0.00    +0.000 C 
ATOM      9  C   UNL     1       2.622   0.951   0.000  0.00  0.00    +0.000 C 
ENDBRANCH   6   7
ENDBRANCH   5   6
ENDBRANCH   4   5
ENDBRANCH   1   4
BRANCH   1  10
ATOM     10  O   UNL     1      -0.951   0.538   0.000  0.00  0.00    +0.000 OA
BRANCH  10  11
ATOM     11  P   UNL     1      -1.665   0.126   0.000  0.00  0.00    +0.000 P 
ATOM     12  O   UNL     1      -2.380  -0.287   0.000  0.00  0.00    +0.000 OA
ATOM     13  O   UNL     1      -2.078   0.840   0.000  0.00  0.00    +0.000 OA
ATOM     14  O   UNL     1      -1.253  -0.589   0.000  0.00  0.00    +0.000 OA
ENDBRANCH  10  11
ENDBRANCH   1  10
TORSDOF 6
