REMARK  Name = IPL
REMARK  5 active torsions:
REMARK  status: ('A' for Active; 'I' for Inactive)
REMARK    1  A    between atoms: C_3  and  C_12
REMARK    2  A    between atoms: C_10  and  C_11
REMARK    3  A    between atoms: C_10  and  O_17
REMARK    4  A    between atoms: C_11  and  C_12
REMARK    5  A    between atoms: P_13  and  O_17
REMARK                            x       y       z     vdW  Elec       q    Type
REMARK                         _______ _______ _______ _____ _____    ______ ____
ROOT
ATOM      1  N   UNL     1      -2.325   0.119   0.000  0.00  0.00    +0.000 NA
ATOM      2  C   UNL     1      -1.773   0.732   0.000  0.00  0.00    +0.000 A 
ATOM      3  C   UNL     1      -1.019   0.397   0.000  0.00  0.00    +0.000 A 
ATOM      4  C   UNL     1      -0.554  -1.037   0.000  0.00  0.00    +0.000 A 
ATOM      5  C   UNL     1      -0.808  -1.821   0.000  0.00  0.00    +0.000 A 
ATOM      6  C   UNL     1      -1.615  -1.993   0.000  0.00  0.00    +0.000 A 
ATOM      7  C   UNL     1      -2.167  -1.380   0.000  0.00  0.00    +0.000 A 
ATOM      8  C   UNL     1      -1.913  -0.595   0.000  0.00  0.00    +0.000 A 
ATOM      9  C   UNL     1      -1.106  -0.424   0.000  0.00  0.00    +0.000 A 
ENDROOT
BRANCH   3  10
ATOM     10  C   UNL     1      -0.305   0.809   0.000  0.00  0.00    +0.000 C 
BRANCH  10  11
ATOM     11  C   UNL     1       0.409   0.397   0.000  0.00  0.00    +0.000 C 
BRANCH  11  12
ATOM     12  C   UNL     1       1.124   0.809   0.000  0.00  0.00    +0.000 C 
BRANCH  12  13
ATOM     13  O   UNL     1       1.839   0.397   0.000  0.00  0.00    +0.000 OA
BRANCH  13  14
ATOM     14  P   UNL     1       2.553   0.809   0.000  0.00  0.00    +0.000 P 
ATOM     15  O   UNL     1       3.267   1.222   0.000  0.00  0.00    +0.000 OA
ATOM     16  O   UNL     1       2.966   0.095   0.000  0.00  0.00    +0.000 OA
ATOM     17  O   UNL     1       2.140   1.524   0.000  0.00  0.00    +0.000 OA
ENDBRANCH  13  14
ENDBRANCH  12  13
ENDBRANCH  11  12
ENDBRANCH  10  11
ENDBRANCH   3  10
TORSDOF 5
