REMARK  Name = IPO
REMARK  3 active torsions:
REMARK  status: ('A' for Active; 'I' for Inactive)
REMARK    1  A    between atoms: C_1  and  C_8
REMARK    2  A    between atoms: C_8  and  C_9
REMARK    3  A    between atoms: C_9  and  C_11
REMARK                            x       y       z     vdW  Elec       q    Type
REMARK                         _______ _______ _______ _____ _____    ______ ____
ROOT
ATOM      1  C   UNL     1      -0.700   0.144   0.000  0.00  0.00    +0.000 A 
ATOM      2  C   UNL     1      -0.700  -0.681   0.000  0.00  0.00    +0.000 A 
ATOM      3  C   UNL     1      -1.415  -1.094   0.000  0.00  0.00    +0.000 A 
ATOM      4  C   UNL     1      -2.129  -0.681   0.000  0.00  0.00    +0.000 A 
ATOM      5  I   UNL     1      -2.843  -1.094   0.000  0.00  0.00    +0.000 I 
ATOM      6  C   UNL     1      -2.129   0.144   0.000  0.00  0.00    +0.000 A 
ATOM      7  C   UNL     1      -1.415   0.556   0.000  0.00  0.00    +0.000 A 
ENDROOT
BRANCH   1   8
ATOM      8  C   UNL     1       0.015   0.556   0.000  0.00  0.00    +0.000 C 
BRANCH   8   9
ATOM      9  C   UNL     1       0.729   0.144   0.000  0.00  0.00    +0.000 C 
ATOM     10  N   UNL     1       0.729  -0.681   0.000  0.00  0.00    +0.000 NA
BRANCH   9  11
ATOM     11  C   UNL     1       1.443   0.556   0.000  0.00  0.00    +0.000 C 
ATOM     12  O   UNL     1       1.443   1.381   0.000  0.00  0.00    +0.000 OA
ATOM     13  N   UNL     1       2.158   0.144   0.000  0.00  0.00    +0.000 NA
ATOM     14  O   UNL     1       2.872   0.556   0.000  0.00  0.00    +0.000 OA
ENDBRANCH   9  11
ENDBRANCH   8   9
ENDBRANCH   1   8
TORSDOF 3
