REMARK  Name = IPP
REMARK  4 active torsions:
REMARK  status: ('A' for Active; 'I' for Inactive)
REMARK    1  A    between atoms: P_1  and  C_4
REMARK    2  A    between atoms: C_4  and  N_5
REMARK    3  A    between atoms: C_6  and  C_8
REMARK    4  A    between atoms: C_8  and  C_9
REMARK                            x       y       z     vdW  Elec       q    Type
REMARK                         _______ _______ _______ _____ _____    ______ ____
ROOT
ATOM      1  N   UNL     1      -0.953  -0.368   0.000  0.00  0.00    +0.000 NA
ATOM      2  C   UNL     1      -0.239  -0.780   0.000  0.00  0.00    +0.000 C 
ATOM      3  O   UNL     1      -0.239  -1.605   0.000  0.00  0.00    +0.000 OA
ENDROOT
BRANCH   1   4
ATOM      4  C   UNL     1      -1.668  -0.780   0.000  0.00  0.00    +0.000 C 
BRANCH   4   5
ATOM      5  P   UNL     1      -2.382  -0.368   0.000  0.00  0.00    +0.000 P 
ATOM      6  O   UNL     1      -3.097  -0.780   0.000  0.00  0.00    +0.000 OA
ATOM      7  O   UNL     1      -2.382   0.457   0.000  0.00  0.00    +0.000 OA
ATOM      8  H   UNL     1      -3.013  -0.003   0.000  0.00  0.00    +0.000 HD
ENDBRANCH   4   5
ENDBRANCH   1   4
BRANCH   2   9
ATOM      9  C   UNL     1       0.476  -0.368   0.000  0.00  0.00    +0.000 C 
BRANCH   9  10
ATOM     10  C   UNL     1       1.190  -0.780   0.000  0.00  0.00    +0.000 A 
ATOM     11  C   UNL     1       1.905  -0.368   0.000  0.00  0.00    +0.000 A 
ATOM     12  C   UNL     1       2.619  -0.780   0.000  0.00  0.00    +0.000 A 
ATOM     13  C   UNL     1       2.619  -1.605   0.000  0.00  0.00    +0.000 A 
ATOM     14  I   UNL     1       3.334  -2.018   0.000  0.00  0.00    +0.000 I 
ATOM     15  C   UNL     1       1.905  -2.018   0.000  0.00  0.00    +0.000 A 
ATOM     16  C   UNL     1       1.190  -1.605   0.000  0.00  0.00    +0.000 A 
ENDBRANCH   9  10
ENDBRANCH   2   9
TORSDOF 4
