REMARK  Name = IPR
REMARK  6 active torsions:
REMARK  status: ('A' for Active; 'I' for Inactive)
REMARK    1  A    between atoms: P_1  and  O_5
REMARK    2  A    between atoms: O_5  and  P_6
REMARK    3  A    between atoms: P_6  and  O_9
REMARK    4  A    between atoms: O_9  and  C_10
REMARK    5  A    between atoms: C_10  and  C_11
REMARK    6  A    between atoms: C_11  and  C_12
REMARK                            x       y       z     vdW  Elec       q    Type
REMARK                         _______ _______ _______ _____ _____    ______ ____
ROOT
ATOM      1  P   UNL     1      -1.114   0.025   0.000  0.00  0.00    +0.000 P 
ATOM      2  O   UNL     1      -0.702  -0.689   0.000  0.00  0.00    +0.000 OA
ATOM      3  O   UNL     1      -1.527   0.740   0.000  0.00  0.00    +0.000 OA
ENDROOT
BRANCH   1   4
ATOM      4  O   UNL     1      -1.829  -0.387   0.000  0.00  0.00    +0.000 OA
BRANCH   4   5
ATOM      5  P   UNL     1      -2.543   0.025   0.000  0.00  0.00    +0.000 P 
ATOM      6  O   UNL     1      -3.258   0.438   0.000  0.00  0.00    +0.000 OA
ATOM      7  O   UNL     1      -2.956  -0.689   0.000  0.00  0.00    +0.000 OA
ATOM      8  O   UNL     1      -2.131   0.740   0.000  0.00  0.00    +0.000 OA
ENDBRANCH   4   5
ENDBRANCH   1   4
BRANCH   1   9
ATOM      9  O   UNL     1      -0.400   0.438   0.000  0.00  0.00    +0.000 OA
BRANCH   9  10
ATOM     10  C   UNL     1       0.315   0.025   0.000  0.00  0.00    +0.000 C 
BRANCH  10  11
ATOM     11  C   UNL     1       1.029   0.438   0.000  0.00  0.00    +0.000 C 
BRANCH  11  12
ATOM     12  C   UNL     1       1.743   0.025   0.000  0.00  0.00    +0.000 C 
ATOM     13  C   UNL     1       2.458   0.438   0.000  0.00  0.00    +0.000 C 
ATOM     14  C   UNL     1       1.743  -0.799   0.000  0.00  0.00    +0.000 C 
ENDBRANCH  11  12
ENDBRANCH  10  11
ENDBRANCH   9  10
ENDBRANCH   1   9
TORSDOF 6
