REMARK  Name = IQA
REMARK  2 active torsions:
REMARK  status: ('A' for Active; 'I' for Inactive)
REMARK    1  A    between atoms: C_2  and  C_4
REMARK    2  A    between atoms: C_4  and  C_5
REMARK                            x       y       z     vdW  Elec       q    Type
REMARK                         _______ _______ _______ _____ _____    ______ ____
ROOT
ATOM      1  C   UNL     1      -0.793  -0.792   0.000  0.00  0.00    +0.000 A 
ATOM      2  C   UNL     1       0.022  -0.664   0.000  0.00  0.00    +0.000 A 
ATOM      3  N   UNL     1       0.663  -1.184   0.000  0.00  0.00    +0.000 NA
ATOM      4  C   UNL     1       1.433  -0.889   0.000  0.00  0.00    +0.000 A 
ATOM      5  O   UNL     1       2.074  -1.409   0.000  0.00  0.00    +0.000 OA
ATOM      6  C   UNL     1       1.563  -0.074   0.000  0.00  0.00    +0.000 A 
ATOM      7  C   UNL     1       2.334   0.220   0.000  0.00  0.00    +0.000 A 
ATOM      8  C   UNL     1       2.464   1.035   0.000  0.00  0.00    +0.000 A 
ATOM      9  C   UNL     1       1.823   1.555   0.000  0.00  0.00    +0.000 A 
ATOM     10  C   UNL     1       1.053   1.260   0.000  0.00  0.00    +0.000 A 
ATOM     11  C   UNL     1       0.923   0.446   0.000  0.00  0.00    +0.000 A 
ATOM     12  N   UNL     1       0.152   0.151   0.000  0.00  0.00    +0.000 N 
ATOM     13  C   UNL     1      -0.583   0.526   0.000  0.00  0.00    +0.000 A 
ATOM     14  C   UNL     1      -1.166  -0.057   0.000  0.00  0.00    +0.000 A 
ATOM     15  C   UNL     1      -1.963   0.158   0.000  0.00  0.00    +0.000 A 
ATOM     16  C   UNL     1      -2.176   0.955   0.000  0.00  0.00    +0.000 A 
ATOM     17  C   UNL     1      -1.592   1.537   0.000  0.00  0.00    +0.000 A 
ATOM     18  C   UNL     1      -0.795   1.323   0.000  0.00  0.00    +0.000 A 
ENDROOT
BRANCH   1  19
ATOM     19  C   UNL     1      -1.168  -1.527   0.000  0.00  0.00    +0.000 C 
BRANCH  19  21
ATOM     20  O   UNL     1      -2.367  -2.304   0.000  0.00  0.00    +0.000 OA
ATOM     21  C   UNL     1      -1.992  -1.569   0.000  0.00  0.00    +0.000 C 
ATOM     22  O   UNL     1      -2.441  -0.877   0.000  0.00  0.00    +0.000 OA
ENDBRANCH  19  21
ENDBRANCH   1  19
TORSDOF 2
