REMARK  Name = IQS
REMARK  5 active torsions:
REMARK  status: ('A' for Active; 'I' for Inactive)
REMARK    1  A    between atoms: C_1  and  S_11
REMARK    2  A    between atoms: S_11  and  N_14
REMARK    3  A    between atoms: N_14  and  C_15
REMARK    4  A    between atoms: C_15  and  C_16
REMARK    5  A    between atoms: C_16  and  N_17
REMARK                            x       y       z     vdW  Elec       q    Type
REMARK                         _______ _______ _______ _____ _____    ______ ____
ROOT
ATOM      1  C   UNL     1      -0.615  -0.273   0.000  0.00  0.00    +0.000 A 
ATOM      2  C   UNL     1      -0.615  -1.098   0.000  0.00  0.00    +0.000 A 
ATOM      3  C   UNL     1      -1.329  -1.511   0.000  0.00  0.00    +0.000 A 
ATOM      4  C   UNL     1      -2.043  -1.098   0.000  0.00  0.00    +0.000 A 
ATOM      5  C   UNL     1      -2.043  -0.273   0.000  0.00  0.00    +0.000 A 
ATOM      6  C   UNL     1      -2.758   0.139   0.000  0.00  0.00    +0.000 A 
ATOM      7  N   UNL     1      -2.758   0.964   0.000  0.00  0.00    +0.000 NA
ATOM      8  C   UNL     1      -2.043   1.377   0.000  0.00  0.00    +0.000 A 
ATOM      9  C   UNL     1      -1.329   0.964   0.000  0.00  0.00    +0.000 A 
ATOM     10  C   UNL     1      -1.329   0.139   0.000  0.00  0.00    +0.000 A 
ENDROOT
BRANCH   1  11
ATOM     11  S   UNL     1       0.100   0.139   0.000  0.00  0.00    +0.000 S 
ATOM     12  O   UNL     1       0.512  -0.575   0.000  0.00  0.00    +0.000 OA
ATOM     13  O   UNL     1      -0.313   0.854   0.000  0.00  0.00    +0.000 OA
BRANCH  11  14
ATOM     14  N   UNL     1       0.814   0.552   0.000  0.00  0.00    +0.000 NA
BRANCH  14  15
ATOM     15  C   UNL     1       1.529   0.139   0.000  0.00  0.00    +0.000 C 
BRANCH  15  16
ATOM     16  C   UNL     1       2.243   0.552   0.000  0.00  0.00    +0.000 C 
BRANCH  16  17
ATOM     17  N   UNL     1       2.958   0.139   0.000  0.00  0.00    +0.000 NA
ATOM     18  C   UNL     1       3.672   0.552   0.000  0.00  0.00    +0.000 C 
ENDBRANCH  16  17
ENDBRANCH  15  16
ENDBRANCH  14  15
ENDBRANCH  11  14
ENDBRANCH   1  11
TORSDOF 5
