REMARK  Name = IQZ
REMARK  0 active torsions:
REMARK  status: ('A' for Active; 'I' for Inactive)
REMARK                            x       y       z     vdW  Elec       q    Type
REMARK                         _______ _______ _______ _____ _____    ______ ____
ROOT
ATOM      1  C   UNL     1       1.956   0.835   0.000  0.00  0.00    +0.000 A 
ATOM      2  C   UNL     1       1.222   0.457   0.000  0.00  0.00    +0.000 A 
ATOM      3  C   UNL     1       1.183  -0.367   0.000  0.00  0.00    +0.000 A 
ATOM      4  C   UNL     1       1.877  -0.813   0.000  0.00  0.00    +0.000 A 
ATOM      5  C   UNL     1       2.611  -0.435   0.000  0.00  0.00    +0.000 A 
ATOM      6  C   UNL     1       2.650   0.389   0.000  0.00  0.00    +0.000 A 
ATOM      7  N   UNL     1       0.451   0.749   0.000  0.00  0.00    +0.000 NA
ATOM      8  C   UNL     1      -0.065   0.105   0.000  0.00  0.00    +0.000 A 
ATOM      9  C   UNL     1       0.387  -0.584   0.000  0.00  0.00    +0.000 A 
ATOM     10  C   UNL     1      -0.889   0.058   0.000  0.00  0.00    +0.000 C 
ATOM     11  N   UNL     1      -1.260  -0.679   0.000  0.00  0.00    +0.000 NA
ATOM     12  C   UNL     1      -0.807  -1.368   0.000  0.00  0.00    +0.000 C 
ATOM     13  C   UNL     1       0.016  -1.321   0.000  0.00  0.00    +0.000 C 
ATOM     14  C   UNL     1      -1.341   0.748   0.000  0.00  0.00    +0.000 C 
ATOM     15  C   UNL     1      -2.165   0.701   0.000  0.00  0.00    +0.000 C 
ATOM     16  C   UNL     1      -2.536  -0.036   0.000  0.00  0.00    +0.000 C 
ATOM     17  C   UNL     1      -2.083  -0.726   0.000  0.00  0.00    +0.000 C 
ATOM     18  O   UNL     1       0.469  -2.011   0.000  0.00  0.00    +0.000 OA
ENDROOT
TORSDOF 0
