REMARK  Name = IS2
REMARK  3 active torsions:
REMARK  status: ('A' for Active; 'I' for Inactive)
REMARK    1  A    between atoms: C_1  and  C_14
REMARK    2  A    between atoms: C_4  and  N_7
REMARK    3  A    between atoms: C_8  and  P_10
REMARK                            x       y       z     vdW  Elec       q    Type
REMARK                         _______ _______ _______ _____ _____    ______ ____
ROOT
ATOM      1  C   UNL     1       1.254   0.421   0.000  0.00  0.00    +0.000 A 
ATOM      2  C   UNL     1       1.254  -0.404   0.000  0.00  0.00    +0.000 A 
ATOM      3  C   UNL     1       0.540  -0.816   0.000  0.00  0.00    +0.000 A 
ATOM      4  C   UNL     1      -0.175  -0.404   0.000  0.00  0.00    +0.000 A 
ATOM      5  C   UNL     1      -0.175   0.421   0.000  0.00  0.00    +0.000 A 
ATOM      6  C   UNL     1       0.540   0.834   0.000  0.00  0.00    +0.000 A 
ENDROOT
BRANCH   4   7
ATOM      7  N   UNL     1      -0.889  -0.816   0.000  0.00  0.00    +0.000 NA
ATOM      8  C   UNL     1      -1.604  -0.404   0.000  0.00  0.00    +0.000 C 
ATOM      9  O   UNL     1      -1.604   0.421   0.000  0.00  0.00    +0.000 OA
BRANCH   8  10
ATOM     10  P   UNL     1      -2.318  -0.816   0.000  0.00  0.00    +0.000 P 
ATOM     11  O   UNL     1      -3.033  -1.229   0.000  0.00  0.00    +0.000 OA
ATOM     12  O   UNL     1      -1.906  -1.531   0.000  0.00  0.00    +0.000 OA
ATOM     13  O   UNL     1      -2.731  -0.102   0.000  0.00  0.00    +0.000 OA
ENDBRANCH   8  10
ENDBRANCH   4   7
BRANCH   1  14
ATOM     14  C   UNL     1       1.969   0.834   0.000  0.00  0.00    +0.000 C 
ATOM     15  C   UNL     1       1.969   1.659   0.000  0.00  0.00    +0.000 C 
ENDBRANCH   1  14
TORSDOF 3
