REMARK  Name = ISA
REMARK  3 active torsions:
REMARK  status: ('A' for Active; 'I' for Inactive)
REMARK    1  A    between atoms: C_7  and  C_8
REMARK    2  A    between atoms: C_8  and  C_9
REMARK    3  A    between atoms: C_9  and  C_11
REMARK                            x       y       z     vdW  Elec       q    Type
REMARK                         _______ _______ _______ _____ _____    ______ ____
ROOT
ATOM      1  I   UNL     1       2.367   1.687   0.000  0.00  0.00    +0.000 I 
ATOM      2  C   UNL     1       1.652   1.274   0.000  0.00  0.00    +0.000 A 
ATOM      3  C   UNL     1       1.652   0.449   0.000  0.00  0.00    +0.000 A 
ATOM      4  C   UNL     1       0.938   0.037   0.000  0.00  0.00    +0.000 A 
ATOM      5  C   UNL     1       0.938   1.687   0.000  0.00  0.00    +0.000 A 
ATOM      6  C   UNL     1       0.223   1.274   0.000  0.00  0.00    +0.000 A 
ATOM      7  C   UNL     1       0.223   0.449   0.000  0.00  0.00    +0.000 A 
ENDROOT
BRANCH   7   8
ATOM      8  C   UNL     1      -0.491   0.037   0.000  0.00  0.00    +0.000 C 
BRANCH   8   9
ATOM      9  C   UNL     1      -0.491  -0.788   0.000  0.00  0.00    +0.000 C 
ATOM     10  S   UNL     1       0.223  -1.201   0.000  0.00  0.00    +0.000 S 
BRANCH   9  11
ATOM     11  C   UNL     1      -1.206  -1.201   0.000  0.00  0.00    +0.000 C 
ATOM     12  O   UNL     1      -1.206  -2.026   0.000  0.00  0.00    +0.000 OA
ATOM     13  O   UNL     1      -1.920  -0.788   0.000  0.00  0.00    +0.000 OA
ENDBRANCH   9  11
ENDBRANCH   8   9
ENDBRANCH   7   8
TORSDOF 3
