REMARK  Name = ISF
REMARK  4 active torsions:
REMARK  status: ('A' for Active; 'I' for Inactive)
REMARK    1  A    between atoms: C_2  and  C_7
REMARK    2  A    between atoms: C_7  and  C_9
REMARK    3  A    between atoms: C_12  and  C_15
REMARK    4  A    between atoms: C_15  and  C_17
REMARK                            x       y       z     vdW  Elec       q    Type
REMARK                         _______ _______ _______ _____ _____    ______ ____
ROOT
ATOM      1  C   UNL     1       0.450   0.363   0.000  0.00  0.00    +0.000 A 
ATOM      2  C   UNL     1       0.935  -0.304   0.000  0.00  0.00    +0.000 A 
ATOM      3  C   UNL     1       0.600  -1.058   0.000  0.00  0.00    +0.000 A 
ATOM      4  C   UNL     1      -0.221  -1.144   0.000  0.00  0.00    +0.000 A 
ATOM      5  C   UNL     1      -0.706  -0.476   0.000  0.00  0.00    +0.000 A 
ATOM      6  C   UNL     1      -0.370   0.277   0.000  0.00  0.00    +0.000 A 
ENDROOT
BRANCH   1   7
ATOM      7  C   UNL     1       0.786   1.117   0.000  0.00  0.00    +0.000 C 
ATOM      8  O   UNL     1       1.606   1.203   0.000  0.00  0.00    +0.000 OA
BRANCH   7  10
ATOM      9  S   UNL     1       0.556   2.569   0.000  0.00  0.00    +0.000 S 
ATOM     10  C   UNL     1       0.301   1.785   0.000  0.00  0.00    +0.000 A 
ATOM     11  C   UNL     1      -0.524   1.785   0.000  0.00  0.00    +0.000 A 
ATOM     12  C   UNL     1      -0.779   2.569   0.000  0.00  0.00    +0.000 A 
ATOM     13  C   UNL     1      -0.112   3.054   0.000  0.00  0.00    +0.000 A 
ATOM     14  I   UNL     1      -0.112   3.879   0.000  0.00  0.00    +0.000 I 
ENDBRANCH   7  10
ENDBRANCH   1   7
BRANCH   4  15
ATOM     15  C   UNL     1      -0.556  -1.897   0.000  0.00  0.00    +0.000 C 
ATOM     16  C   UNL     1      -0.072  -2.565   0.000  0.00  0.00    +0.000 C 
BRANCH  15  17
ATOM     17  C   UNL     1      -1.377  -1.984   0.000  0.00  0.00    +0.000 C 
ATOM     18  O   UNL     1      -1.712  -2.737   0.000  0.00  0.00    +0.000 OA
ATOM     19  O   UNL     1      -1.862  -1.316   0.000  0.00  0.00    +0.000 OA
ENDBRANCH  15  17
ENDBRANCH   4  15
TORSDOF 4
