REMARK  Name = ITA
REMARK  6 active torsions:
REMARK  status: ('A' for Active; 'I' for Inactive)
REMARK    1  A    between atoms: N_9  and  C_10
REMARK    2  A    between atoms: C_10  and  C_11
REMARK    3  A    between atoms: C_18  and  C_19
REMARK    4  A    between atoms: C_19  and  O_20
REMARK    5  A    between atoms: O_20  and  C_21
REMARK    6  A    between atoms: C_21  and  C_22
REMARK                            x       y       z     vdW  Elec       q    Type
REMARK                         _______ _______ _______ _____ _____    ______ ____
ROOT
ATOM      1  C   UNL     1       1.364   0.649   0.000  0.00  0.00    +0.000 A 
ATOM      2  C   UNL     1       0.650   1.061   0.000  0.00  0.00    +0.000 A 
ATOM      3  C   UNL     1      -0.065   0.649   0.000  0.00  0.00    +0.000 A 
ATOM      4  C   UNL     1      -0.065  -0.176   0.000  0.00  0.00    +0.000 A 
ATOM      5  C   UNL     1       0.650  -0.589   0.000  0.00  0.00    +0.000 A 
ATOM      6  C   UNL     1       1.364  -0.176   0.000  0.00  0.00    +0.000 A 
ATOM      7  C   UNL     1       2.079  -0.589   0.000  0.00  0.00    +0.000 A 
ATOM      8  C   UNL     1       2.250  -1.396   0.000  0.00  0.00    +0.000 C 
ATOM      9  N   UNL     1       3.071  -1.482   0.000  0.00  0.00    +0.000 N 
ATOM     10  S   UNL     1       3.406  -0.728   0.000  0.00  0.00    +0.000 S 
ATOM     11  O   UNL     1       4.121  -1.141   0.000  0.00  0.00    +0.000 OA
ATOM     12  O   UNL     1       3.891  -0.061   0.000  0.00  0.00    +0.000 OA
ATOM     13  C   UNL     1       2.793  -0.176   0.000  0.00  0.00    +0.000 A 
ATOM     14  C   UNL     1       2.793   0.649   0.000  0.00  0.00    +0.000 A 
ATOM     15  C   UNL     1       2.079   1.061   0.000  0.00  0.00    +0.000 A 
ATOM     16  O   UNL     1       1.698  -2.009   0.000  0.00  0.00    +0.000 OA
ENDROOT
BRANCH  14  17
ATOM     17  C   UNL     1       3.508   1.061   0.000  0.00  0.00    +0.000 C 
ATOM     18  O   UNL     1       3.508   1.886   0.000  0.00  0.00    +0.000 OA
BRANCH  17  19
ATOM     19  O   UNL     1       4.222   0.649   0.000  0.00  0.00    +0.000 OA
BRANCH  19  20
ATOM     20  C   UNL     1       4.937   1.061   0.000  0.00  0.00    +0.000 C 
BRANCH  20  21
ATOM     21  C   UNL     1       5.651   0.649   0.000  0.00  0.00    +0.000 C 
ATOM     22  O   UNL     1       6.365   1.061   0.000  0.00  0.00    +0.000 OA
ATOM     23  O   UNL     1       5.651  -0.176   0.000  0.00  0.00    +0.000 OA
ENDBRANCH  20  21
ENDBRANCH  19  20
ENDBRANCH  17  19
ENDBRANCH  14  17
BRANCH   9  24
ATOM     24  C   UNL     1       3.483  -2.196   0.000  0.00  0.00    +0.000 C 
BRANCH  24  25
ATOM     25  C   UNL     1       3.071  -2.911   0.000  0.00  0.00    +0.000 C 
ATOM     26  O   UNL     1       3.483  -3.625   0.000  0.00  0.00    +0.000 OA
ATOM     27  O   UNL     1       2.246  -2.911   0.000  0.00  0.00    +0.000 OA
ENDBRANCH  24  25
ENDBRANCH   9  24
TORSDOF 6
