REMARK  Name = ITB
REMARK  3 active torsions:
REMARK  status: ('A' for Active; 'I' for Inactive)
REMARK    1  A    between atoms: N_5  and  C_6
REMARK    2  A    between atoms: C_6  and  C_7
REMARK    3  A    between atoms: C_14  and  C_15
REMARK                            x       y       z     vdW  Elec       q    Type
REMARK                         _______ _______ _______ _____ _____    ______ ____
ROOT
ATOM      1  C   UNL     1       1.368  -0.036   0.000  0.00  0.00    +0.000 A 
ATOM      2  C   UNL     1       2.192  -0.062   0.000  0.00  0.00    +0.000 A 
ATOM      3  C   UNL     1       2.725  -0.692   0.000  0.00  0.00    +0.000 C 
ATOM      4  O   UNL     1       2.528  -1.493   0.000  0.00  0.00    +0.000 OA
ATOM      5  N   UNL     1       3.489  -0.380   0.000  0.00  0.00    +0.000 N 
ATOM      6  S   UNL     1       3.428   0.443   0.000  0.00  0.00    +0.000 S 
ATOM      7  O   UNL     1       4.253   0.417   0.000  0.00  0.00    +0.000 OA
ATOM      8  O   UNL     1       3.540   1.260   0.000  0.00  0.00    +0.000 OA
ATOM      9  C   UNL     1       2.627   0.639   0.000  0.00  0.00    +0.000 A 
ATOM     10  C   UNL     1       2.237   1.367   0.000  0.00  0.00    +0.000 A 
ATOM     11  C   UNL     1       1.412   1.392   0.000  0.00  0.00    +0.000 A 
ATOM     12  C   UNL     1       0.978   0.691   0.000  0.00  0.00    +0.000 A 
ATOM     13  C   UNL     1       0.153   0.717   0.000  0.00  0.00    +0.000 A 
ATOM     14  C   UNL     1      -0.282   0.016   0.000  0.00  0.00    +0.000 A 
ATOM     15  C   UNL     1       0.108  -0.711   0.000  0.00  0.00    +0.000 A 
ATOM     16  C   UNL     1       0.933  -0.737   0.000  0.00  0.00    +0.000 A 
ENDROOT
BRANCH  10  17
ATOM     17  C   UNL     1       2.671   2.068   0.000  0.00  0.00    +0.000 C 
ATOM     18  O   UNL     1       2.281   2.795   0.000  0.00  0.00    +0.000 OA
ATOM     19  O   UNL     1       3.496   2.042   0.000  0.00  0.00    +0.000 OA
ENDBRANCH  10  17
BRANCH   5  20
ATOM     20  C   UNL     1       4.190  -0.815   0.000  0.00  0.00    +0.000 C 
BRANCH  20  21
ATOM     21  C   UNL     1       4.917  -0.424   0.000  0.00  0.00    +0.000 C 
ATOM     22  O   UNL     1       5.618  -0.859   0.000  0.00  0.00    +0.000 OA
ATOM     23  O   UNL     1       4.943   0.400   0.000  0.00  0.00    +0.000 OA
ENDBRANCH  20  21
ENDBRANCH   5  20
TORSDOF 3
