REMARK  Name = IYZ
REMARK  4 active torsions:
REMARK  status: ('A' for Active; 'I' for Inactive)
REMARK    1  A    between atoms: C_3  and  C_4
REMARK    2  A    between atoms: C_4  and  N_5
REMARK    3  A    between atoms: C_14  and  C_15
REMARK    4  A    between atoms: C_20  and  C_21
REMARK                            x       y       z     vdW  Elec       q    Type
REMARK                         _______ _______ _______ _____ _____    ______ ____
ROOT
ATOM      1  N   UNL     1       1.599  -0.032   0.000  0.00  0.00    +0.000 NA
ATOM      2  C   UNL     1       0.884  -0.444   0.000  0.00  0.00    +0.000 A 
ATOM      3  C   UNL     1       0.884  -1.269   0.000  0.00  0.00    +0.000 A 
ATOM      4  C   UNL     1       0.170  -1.682   0.000  0.00  0.00    +0.000 A 
ATOM      5  N   UNL     1       0.170  -0.032   0.000  0.00  0.00    +0.000 NA
ATOM      6  N   UNL     1      -0.545  -0.444   0.000  0.00  0.00    +0.000 N 
ATOM      7  C   UNL     1      -0.545  -1.269   0.000  0.00  0.00    +0.000 A 
ATOM      8  N   UNL     1      -1.329  -1.524   0.000  0.00  0.00    +0.000 NA
ATOM      9  C   UNL     1      -1.814  -0.857   0.000  0.00  0.00    +0.000 A 
ATOM     10  C   UNL     1      -1.329  -0.189   0.000  0.00  0.00    +0.000 A 
ENDROOT
BRANCH  10  11
ATOM     11  C   UNL     1      -1.584   0.595   0.000  0.00  0.00    +0.000 A 
ATOM     12  C   UNL     1      -2.391   0.767   0.000  0.00  0.00    +0.000 A 
ATOM     13  C   UNL     1      -1.032   1.208   0.000  0.00  0.00    +0.000 A 
ATOM     14  C   UNL     1      -1.287   1.993   0.000  0.00  0.00    +0.000 A 
ATOM     15  C   UNL     1      -2.094   2.165   0.000  0.00  0.00    +0.000 A 
ATOM     16  C   UNL     1      -2.646   1.552   0.000  0.00  0.00    +0.000 A 
BRANCH  16  17
ATOM     17  C   UNL     1      -3.453   1.723   0.000  0.00  0.00    +0.000 C 
ATOM     18  C   UNL     1      -4.005   1.110   0.000  0.00  0.00    +0.000 C 
ATOM     19  O   UNL     1      -3.708   2.508   0.000  0.00  0.00    +0.000 OA
ENDBRANCH  16  17
ENDBRANCH  10  11
BRANCH   1  20
ATOM     20  C   UNL     1       2.313  -0.444   0.000  0.00  0.00    +0.000 C 
BRANCH  20  23
ATOM     21  C   UNL     1       3.440   0.683   0.000  0.00  0.00    +0.000 C 
ATOM     22  C   UNL     1       3.853  -0.032   0.000  0.00  0.00    +0.000 C 
ATOM     23  C   UNL     1       3.028  -0.032   0.000  0.00  0.00    +0.000 C 
ENDBRANCH  20  23
ENDBRANCH   1  20
TORSDOF 4
