REMARK  Name = IZD
REMARK  9 active torsions:
REMARK  status: ('A' for Active; 'I' for Inactive)
REMARK    1  A    between atoms: C_1  and  C_9
REMARK    2  A    between atoms: C_12  and  C_15
REMARK    3  A    between atoms: C_15  and  C_16
REMARK    4  A    between atoms: C_16  and  C_17
REMARK    5  A    between atoms: C_16  and  N_20
REMARK    6  A    between atoms: C_21  and  C_22
REMARK    7  A    between atoms: C_22  and  N_24
REMARK    8  A    between atoms: C_22  and  C_25
REMARK    9  A    between atoms: C_25  and  C_26
REMARK                            x       y       z     vdW  Elec       q    Type
REMARK                         _______ _______ _______ _____ _____    ______ ____
ROOT
ATOM      1  C   UNL     1      -2.557   2.662   0.000  0.00  0.00    +0.000 C 
ENDROOT
BRANCH   1   2
ATOM      2  N   UNL     1      -1.842   2.249   0.000  0.00  0.00    +0.000 NA
ATOM      3  C   UNL     1      -1.128   2.662   0.000  0.00  0.00    +0.000 C 
ATOM      4  O   UNL     1      -1.128   3.487   0.000  0.00  0.00    +0.000 OA
BRANCH   3   5
ATOM      5  C   UNL     1      -0.413   2.249   0.000  0.00  0.00    +0.000 C 
BRANCH   5   6
ATOM      6  N   UNL     1       0.301   2.662   0.000  0.00  0.00    +0.000 NA
ATOM      7  C   UNL     1       0.301   3.487   0.000  0.00  0.00    +0.000 C 
ATOM      8  O   UNL     1       1.015   3.899   0.000  0.00  0.00    +0.000 OA
ATOM      9  C   UNL     1      -0.413   3.899   0.000  0.00  0.00    +0.000 C 
ENDBRANCH   5   6
BRANCH   5  10
ATOM     10  C   UNL     1      -0.413   1.424   0.000  0.00  0.00    +0.000 C 
BRANCH  10  11
ATOM     11  C   UNL     1      -1.128   1.012   0.000  0.00  0.00    +0.000 A 
ATOM     12  C   UNL     1      -1.128   0.187   0.000  0.00  0.00    +0.000 A 
ATOM     13  C   UNL     1      -1.842  -0.226   0.000  0.00  0.00    +0.000 A 
ATOM     14  C   UNL     1      -2.557   0.187   0.000  0.00  0.00    +0.000 A 
ATOM     15  C   UNL     1      -2.557   1.012   0.000  0.00  0.00    +0.000 A 
ATOM     16  C   UNL     1      -1.842   1.424   0.000  0.00  0.00    +0.000 A 
ENDBRANCH  10  11
ENDBRANCH   5  10
ENDBRANCH   3   5
ENDBRANCH   1   2
BRANCH   1  17
ATOM     17  C   UNL     1      -2.557   3.487   0.000  0.00  0.00    +0.000 C 
ATOM     18  O   UNL     1      -3.271   3.899   0.000  0.00  0.00    +0.000 OA
ATOM     19  N   UNL     1      -1.842   3.899   0.000  0.00  0.00    +0.000 NA
ENDBRANCH   1  17
BRANCH   1  20
ATOM     20  C   UNL     1      -3.271   2.249   0.000  0.00  0.00    +0.000 C 
BRANCH  20  24
ATOM     21  C   UNL     1      -5.415   3.487   0.000  0.00  0.00    +0.000 A 
ATOM     22  C   UNL     1      -4.700   3.899   0.000  0.00  0.00    +0.000 A 
ATOM     23  C   UNL     1      -3.986   3.487   0.000  0.00  0.00    +0.000 A 
ATOM     24  C   UNL     1      -3.986   2.662   0.000  0.00  0.00    +0.000 A 
ATOM     25  C   UNL     1      -4.700   2.249   0.000  0.00  0.00    +0.000 A 
ATOM     26  C   UNL     1      -5.415   2.662   0.000  0.00  0.00    +0.000 A 
BRANCH  21  27
ATOM     27  C   UNL     1      -6.129   3.899   0.000  0.00  0.00    +0.000 C 
ATOM     28  C   UNL     1      -6.883   3.564   0.000  0.00  0.00    +0.000 C 
ATOM     29  C   UNL     1      -7.435   4.177   0.000  0.00  0.00    +0.000 C 
ATOM     30  N   UNL     1      -7.022   4.891   0.000  0.00  0.00    +0.000 NA
ATOM     31  S   UNL     1      -6.215   4.720   0.000  0.00  0.00    +0.000 S 
ATOM     32  O   UNL     1      -5.410   4.900   0.000  0.00  0.00    +0.000 OA
ATOM     33  O   UNL     1      -5.952   5.502   0.000  0.00  0.00    +0.000 OA
ATOM     34  O   UNL     1      -8.255   4.091   0.000  0.00  0.00    +0.000 OA
ENDBRANCH  21  27
ENDBRANCH  20  24
ENDBRANCH   1  20
TORSDOF 9
