REMARK  Name = IZZ
REMARK  4 active torsions:
REMARK  status: ('A' for Active; 'I' for Inactive)
REMARK    1  A    between atoms: C_2  and  CA_3
REMARK    2  A    between atoms: CA_3  and  CB_4
REMARK    3  A    between atoms: CA_3  and  N_7
REMARK    4  A    between atoms: C_16  and  C_17
REMARK                            x       y       z     vdW  Elec       q    Type
REMARK                         _______ _______ _______ _____ _____    ______ ____
ROOT
ATOM      1  N   VAL A   1       1.484  -0.029   0.000  0.00  0.00    +0.000 NA
ATOM      2  C   UNK A   0       0.769  -0.441   0.000  0.00  0.00    +0.000 A 
ATOM      3  C   UNK A   0       0.769  -1.266   0.000  0.00  0.00    +0.000 A 
ATOM      4  C   UNK A   0       0.055  -1.679   0.000  0.00  0.00    +0.000 A 
ATOM      5  N   UNK A   0       0.055  -0.029   0.000  0.00  0.00    +0.000 NA
ATOM      6  N   UNK A   0      -0.659  -0.441   0.000  0.00  0.00    +0.000 N 
ATOM      7  C   UNK A   0      -0.659  -1.266   0.000  0.00  0.00    +0.000 A 
ATOM      8  N   UNK A   0      -1.444  -1.521   0.000  0.00  0.00    +0.000 NA
ATOM      9  C   UNK A   0      -1.929  -0.854   0.000  0.00  0.00    +0.000 A 
ATOM     10  C   UNK A   0      -1.444  -0.186   0.000  0.00  0.00    +0.000 A 
ENDROOT
BRANCH  10  11
ATOM     11  C   UNK A   0      -1.699   0.598   0.000  0.00  0.00    +0.000 A 
ATOM     12  C   UNK A   0      -2.506   0.770   0.000  0.00  0.00    +0.000 A 
ATOM     13  C   UNK A   0      -1.147   1.211   0.000  0.00  0.00    +0.000 A 
ATOM     14  C   UNK A   0      -1.402   1.996   0.000  0.00  0.00    +0.000 A 
ATOM     15  C   UNK A   0      -2.209   2.167   0.000  0.00  0.00    +0.000 A 
ATOM     16  C   UNK A   0      -2.761   1.554   0.000  0.00  0.00    +0.000 A 
ATOM     17  N   UNK A   0      -3.568   1.726   0.000  0.00  0.00    +0.000 NA
ENDBRANCH  10  11
BRANCH   1  18
ATOM     18  CA  VAL A   1       2.199  -0.441   0.000  0.00  0.00    +0.000 C 
BRANCH  18  19
ATOM     19  CB  VAL A   1       2.199  -1.266   0.000  0.00  0.00    +0.000 C 
ATOM     20  CG1 VAL A   1       1.484  -1.679   0.000  0.00  0.00    +0.000 C 
ATOM     21  CG2 VAL A   1       2.913  -1.679   0.000  0.00  0.00    +0.000 C 
ENDBRANCH  18  19
BRANCH  18  23
ATOM     22  O   VAL A   1       3.627  -0.441   0.000  0.00  0.00    +0.000 OA
ATOM     23  C   VAL A   1       2.913  -0.029   0.000  0.00  0.00    +0.000 C 
ENDBRANCH  18  23
ENDBRANCH   1  18
TORSDOF 4
