REMARK  Name = J07
REMARK  3 active torsions:
REMARK  status: ('A' for Active; 'I' for Inactive)
REMARK    1  A    between atoms: C_2  and  N_3
REMARK    2  A    between atoms: C_9  and  N_12
REMARK    3  A    between atoms: C_15  and  C_20
REMARK                            x       y       z     vdW  Elec       q    Type
REMARK                         _______ _______ _______ _____ _____    ______ ____
ROOT
ATOM      1  N   UNL     1       0.191   0.226   0.000  0.00  0.00    +0.000 NA
ATOM      2  C   UNL     1      -0.361   0.839   0.000  0.00  0.00    +0.000 A 
ATOM      3  N   UNL     1      -0.106   1.624   0.000  0.00  0.00    +0.000 NA
ATOM      4  C   UNL     1      -0.658   2.237   0.000  0.00  0.00    +0.000 A 
ATOM      5  C   UNL     1      -1.465   2.066   0.000  0.00  0.00    +0.000 A 
ATOM      6  C   UNL     1      -1.720   1.281   0.000  0.00  0.00    +0.000 A 
ATOM      7  N   UNL     1      -1.168   0.668   0.000  0.00  0.00    +0.000 NA
ATOM      8 CL   UNL     1      -2.017   2.679   0.000  0.00  0.00    +0.000 Cl
ENDROOT
BRANCH   1  15
ATOM      9  N   UNL     1      -1.636  -3.084   0.000  0.00  0.00    +0.000 NA
ATOM     10  C   UNL     1      -0.829  -2.912   0.000  0.00  0.00    +0.000 C 
ATOM     11  O   UNL     1      -0.277  -3.525   0.000  0.00  0.00    +0.000 OA
ATOM     12  N   UNL     1      -0.574  -2.128   0.000  0.00  0.00    +0.000 N 
ATOM     13  C   UNL     1       0.233  -1.956   0.000  0.00  0.00    +0.000 C 
ATOM     14  C   UNL     1       0.488  -1.171   0.000  0.00  0.00    +0.000 C 
ATOM     15  C   UNL     1      -0.064  -0.558   0.000  0.00  0.00    +0.000 C 
ATOM     16  C   UNL     1      -0.871  -0.730   0.000  0.00  0.00    +0.000 C 
ATOM     17  C   UNL     1      -1.126  -1.514   0.000  0.00  0.00    +0.000 C 
BRANCH   9  19
ATOM     18  C   UNL     1      -2.698  -4.040   0.000  0.00  0.00    +0.000 C 
ATOM     19  C   UNL     1      -1.891  -3.868   0.000  0.00  0.00    +0.000 C 
ENDBRANCH   9  19
ENDBRANCH   1  15
BRANCH   4  20
ATOM     20  C   UNL     1      -0.403   3.022   0.000  0.00  0.00    +0.000 A 
ATOM     21  C   UNL     1       0.381   3.277   0.000  0.00  0.00    +0.000 A 
ATOM     22  C   UNL     1       1.096   2.864   0.000  0.00  0.00    +0.000 A 
ATOM     23  C   UNL     1       1.810   3.277   0.000  0.00  0.00    +0.000 A 
ATOM     24  C   UNL     1       1.810   4.102   0.000  0.00  0.00    +0.000 A 
ATOM     25  C   UNL     1       1.096   4.514   0.000  0.00  0.00    +0.000 A 
ATOM     26  C   UNL     1       0.381   4.102   0.000  0.00  0.00    +0.000 A 
ATOM     27  N   UNL     1      -0.403   4.357   0.000  0.00  0.00    +0.000 NA
ATOM     28  C   UNL     1      -0.888   3.689   0.000  0.00  0.00    +0.000 A 
ENDBRANCH   4  20
TORSDOF 3
