REMARK  Name = J54
REMARK  5 active torsions:
REMARK  status: ('A' for Active; 'I' for Inactive)
REMARK    1  A    between atoms: C_2  and  C_3
REMARK    2  A    between atoms: C_3  and  C_5
REMARK    3  A    between atoms: C_5  and  N_6
REMARK    4  A    between atoms: N_9  and  C_10
REMARK    5  A    between atoms: C_10  and  C_11
REMARK                            x       y       z     vdW  Elec       q    Type
REMARK                         _______ _______ _______ _____ _____    ______ ____
ROOT
ATOM      1  N   UNL     1      -0.817  -0.030   0.000  0.00  0.00    +0.000 NA
ATOM      2  C   UNL     1      -0.102   0.383   0.000  0.00  0.00    +0.000 C 
ATOM      3  O   UNL     1      -0.102   1.208   0.000  0.00  0.00    +0.000 OA
ATOM      4  N   UNL     1       0.612  -0.030   0.000  0.00  0.00    +0.000 NA
ENDROOT
BRANCH   1   5
ATOM      5  C   UNL     1      -1.531   0.383   0.000  0.00  0.00    +0.000 C 
BRANCH   5   6
ATOM      6  C   UNL     1      -2.246  -0.030   0.000  0.00  0.00    +0.000 C 
ATOM      7  O   UNL     1      -2.246  -0.855   0.000  0.00  0.00    +0.000 OA
BRANCH   6   9
ATOM      8  O   UNL     1      -3.675  -0.030   0.000  0.00  0.00    +0.000 OA
ATOM      9  C   UNL     1      -2.960   0.383   0.000  0.00  0.00    +0.000 C 
ATOM     10  O   UNL     1      -2.960   1.208   0.000  0.00  0.00    +0.000 OA
ENDBRANCH   6   9
ENDBRANCH   5   6
ENDBRANCH   1   5
BRANCH   4  11
ATOM     11  C   UNL     1       1.327   0.383   0.000  0.00  0.00    +0.000 C 
BRANCH  11  12
ATOM     12  C   UNL     1       2.041  -0.030   0.000  0.00  0.00    +0.000 A 
ATOM     13  C   UNL     1       2.756   0.383   0.000  0.00  0.00    +0.000 A 
ATOM     14  C   UNL     1       3.470  -0.030   0.000  0.00  0.00    +0.000 A 
ATOM     15  C   UNL     1       3.470  -0.855   0.000  0.00  0.00    +0.000 A 
ATOM     16  C   UNL     1       2.756  -1.267   0.000  0.00  0.00    +0.000 A 
ATOM     17  C   UNL     1       2.041  -0.855   0.000  0.00  0.00    +0.000 A 
ENDBRANCH  11  12
ENDBRANCH   4  11
TORSDOF 5
