REMARK  Name = J5Z
REMARK  3 active torsions:
REMARK  status: ('A' for Active; 'I' for Inactive)
REMARK    1  A    between atoms: N_2  and  C_3
REMARK    2  A    between atoms: N_2  and  C_13
REMARK    3  A    between atoms: C_10  and  C_11
REMARK                            x       y       z     vdW  Elec       q    Type
REMARK                         _______ _______ _______ _____ _____    ______ ____
ROOT
ATOM      1  N   UNL     1       0.485  -0.221   0.000  0.00  0.00    +0.000 NA
ENDROOT
BRANCH   1   6
ATOM      2  N   UNL     1      -0.229   1.017   0.000  0.00  0.00    +0.000 N 
ATOM      3  N   UNL     1      -1.014   0.762   0.000  0.00  0.00    +0.000 NA
ATOM      4  N   UNL     1      -1.014   2.097   0.000  0.00  0.00    +0.000 NA
ATOM      5  N   UNL     1       0.485   2.254   0.000  0.00  0.00    +0.000 NA
ATOM      6  C   UNL     1       0.485   0.604   0.000  0.00  0.00    +0.000 A 
ATOM      7  C   UNL     1       1.200   1.017   0.000  0.00  0.00    +0.000 A 
ATOM      8  C   UNL     1       1.200   1.842   0.000  0.00  0.00    +0.000 A 
ATOM      9  C   UNL     1       1.914   2.254   0.000  0.00  0.00    +0.000 C 
ATOM     10  C   UNL     1      -0.229   1.842   0.000  0.00  0.00    +0.000 A 
ATOM     11  C   UNL     1      -1.499   1.429   0.000  0.00  0.00    +0.000 A 
ENDBRANCH   1   6
BRANCH   1  13
ATOM     12  C   UNL     1      -0.944  -0.221   0.000  0.00  0.00    +0.000 A 
ATOM     13  C   UNL     1      -0.229  -0.633   0.000  0.00  0.00    +0.000 A 
ATOM     14  C   UNL     1      -0.229  -1.458   0.000  0.00  0.00    +0.000 A 
ATOM     15  C   UNL     1      -0.944  -1.871   0.000  0.00  0.00    +0.000 A 
ATOM     16  C   UNL     1      -1.658  -1.458   0.000  0.00  0.00    +0.000 A 
ATOM     17  C   UNL     1      -1.658  -0.633   0.000  0.00  0.00    +0.000 A 
BRANCH  16  18
ATOM     18  C   UNL     1      -2.372  -1.871   0.000  0.00  0.00    +0.000 C 
ATOM     19  F   UNL     1      -3.087  -2.283   0.000  0.00  0.00    +0.000 F 
ATOM     20  F   UNL     1      -1.960  -2.585   0.000  0.00  0.00    +0.000 F 
ATOM     21  F   UNL     1      -2.785  -1.156   0.000  0.00  0.00    +0.000 F 
ENDBRANCH  16  18
ENDBRANCH   1  13
TORSDOF 3
