REMARK  Name = J67
REMARK  4 active torsions:
REMARK  status: ('A' for Active; 'I' for Inactive)
REMARK    1  A    between atoms: N_6  and  C_7
REMARK    2  A    between atoms: C_7  and  C_8
REMARK    3  A    between atoms: C_23  and  C_24
REMARK    4  A    between atoms: C_25  and  C_26
REMARK                            x       y       z     vdW  Elec       q    Type
REMARK                         _______ _______ _______ _____ _____    ______ ____
ROOT
ATOM      1  O   UNL     1      -1.115   1.687   0.000  0.00  0.00    +0.000 OA
ATOM      2  N   UNL     1      -0.307   1.516   0.000  0.00  0.00    +0.000 NA
ATOM      3  C   UNL     1      -0.053   0.731   0.000  0.00  0.00    +0.000 C 
ATOM      4  C   UNL     1      -0.537   0.064   0.000  0.00  0.00    +0.000 C 
ATOM      5  O   UNL     1      -1.363   0.064   0.000  0.00  0.00    +0.000 OA
ATOM      6  N   UNL     1      -0.053  -0.604   0.000  0.00  0.00    +0.000 N 
ATOM      7  C   UNL     1       0.732  -0.349   0.000  0.00  0.00    +0.000 A 
ATOM      8  C   UNL     1       1.446  -0.761   0.000  0.00  0.00    +0.000 A 
ATOM      9  C   UNL     1       2.161  -0.349   0.000  0.00  0.00    +0.000 A 
ATOM     10  C   UNL     1       2.161   0.476   0.000  0.00  0.00    +0.000 A 
ATOM     11  C   UNL     1       1.446   0.889   0.000  0.00  0.00    +0.000 A 
ATOM     12  C   UNL     1       0.732   0.476   0.000  0.00  0.00    +0.000 A 
ENDROOT
BRANCH  11  13
ATOM     13  C   UNL     1       1.446   1.714   0.000  0.00  0.00    +0.000 C 
ATOM     14  C   UNL     1       0.732   2.126   0.000  0.00  0.00    +0.000 C 
BRANCH  14  15
ATOM     15  C   UNL     1       0.732   2.951   0.000  0.00  0.00    +0.000 A 
ATOM     16  C   UNL     1       0.018   3.364   0.000  0.00  0.00    +0.000 A 
ATOM     17  C   UNL     1       0.018   4.189   0.000  0.00  0.00    +0.000 A 
ATOM     18  C   UNL     1       0.732   4.601   0.000  0.00  0.00    +0.000 A 
ATOM     19  C   UNL     1       1.446   4.189   0.000  0.00  0.00    +0.000 A 
ATOM     20  C   UNL     1       1.446   3.364   0.000  0.00  0.00    +0.000 A 
ENDBRANCH  14  15
ENDBRANCH  11  13
BRANCH   6  21
ATOM     21  C   UNL     1      -0.307  -1.389   0.000  0.00  0.00    +0.000 C 
BRANCH  21  22
ATOM     22  C   UNL     1      -1.115  -1.560   0.000  0.00  0.00    +0.000 A 
ATOM     23  C   UNL     1      -1.667  -0.947   0.000  0.00  0.00    +0.000 A 
ATOM     24  C   UNL     1      -2.474  -1.118   0.000  0.00  0.00    +0.000 A 
ATOM     25  F   UNL     1      -3.026  -0.505   0.000  0.00  0.00    +0.000 F 
ATOM     26  C   UNL     1      -2.728  -1.903   0.000  0.00  0.00    +0.000 A 
ATOM     27  C   UNL     1      -2.176  -2.516   0.000  0.00  0.00    +0.000 A 
ATOM     28  C   UNL     1      -2.431  -3.301   0.000  0.00  0.00    +0.000 C 
ATOM     29  O   UNL     1      -1.879  -3.914   0.000  0.00  0.00    +0.000 OA
ATOM     30  C   UNL     1      -1.072  -3.742   0.000  0.00  0.00    +0.000 C 
ATOM     31  O   UNL     1      -0.817  -2.958   0.000  0.00  0.00    +0.000 OA
ATOM     32  C   UNL     1      -1.369  -2.345   0.000  0.00  0.00    +0.000 A 
ENDBRANCH  21  22
ENDBRANCH   6  21
TORSDOF 4
