REMARK  Name = J78
REMARK  8 active torsions:
REMARK  status: ('A' for Active; 'I' for Inactive)
REMARK    1  A    between atoms: C_11  and  C_14
REMARK    2  A    between atoms: C_14  and  C_15
REMARK    3  A    between atoms: C_15  and  C_16
REMARK    4  A    between atoms: C_16  and  O_17
REMARK    5  A    between atoms: O_17  and  C_18
REMARK    6  A    between atoms: C_21  and  C_24
REMARK    7  A    between atoms: C_24  and  O_26
REMARK    8  A    between atoms: O_26  and  C_27
REMARK                            x       y       z     vdW  Elec       q    Type
REMARK                         _______ _______ _______ _____ _____    ______ ____
ROOT
ATOM      1  C   UNL     1      -0.629  -0.488   0.000  0.00  0.00    +0.000 C 
ENDROOT
BRANCH   1  12
ATOM      2  C   UNL     1      -5.630   2.400   0.000  0.00  0.00    +0.000 C 
ATOM      3  C   UNL     1      -4.916   1.987   0.000  0.00  0.00    +0.000 A 
ATOM      4  C   UNL     1      -4.202   2.400   0.000  0.00  0.00    +0.000 A 
ATOM      5  C   UNL     1      -3.487   1.987   0.000  0.00  0.00    +0.000 A 
ATOM      6  C   UNL     1      -3.487   1.162   0.000  0.00  0.00    +0.000 A 
ATOM      7  N   UNL     1      -4.202   0.750   0.000  0.00  0.00    +0.000 NA
ATOM      8  N   UNL     1      -4.916   1.162   0.000  0.00  0.00    +0.000 NA
ATOM      9  N   UNL     1      -2.773   0.750   0.000  0.00  0.00    +0.000 N 
ATOM     10  C   UNL     1      -2.058   1.162   0.000  0.00  0.00    +0.000 C 
ATOM     11  C   UNL     1      -1.344   0.750   0.000  0.00  0.00    +0.000 C 
ATOM     12  C   UNL     1      -1.344  -0.075   0.000  0.00  0.00    +0.000 C 
ATOM     13  C   UNL     1      -2.058  -0.488   0.000  0.00  0.00    +0.000 C 
ATOM     14  C   UNL     1      -2.773  -0.075   0.000  0.00  0.00    +0.000 C 
ENDBRANCH   1  12
BRANCH   1  15
ATOM     15  C   UNL     1       0.085  -0.075   0.000  0.00  0.00    +0.000 C 
BRANCH  15  16
ATOM     16  C   UNL     1       0.800  -0.488   0.000  0.00  0.00    +0.000 C 
BRANCH  16  17
ATOM     17  O   UNL     1       1.514  -0.075   0.000  0.00  0.00    +0.000 OA
BRANCH  17  18
ATOM     18  C   UNL     1       2.229  -0.488   0.000  0.00  0.00    +0.000 A 
ATOM     19  C   UNL     1       2.943  -0.075   0.000  0.00  0.00    +0.000 A 
ATOM     20  C   UNL     1       3.658  -0.488   0.000  0.00  0.00    +0.000 A 
ATOM     21  C   UNL     1       3.658  -1.313   0.000  0.00  0.00    +0.000 A 
ATOM     22  C   UNL     1       2.943  -1.725   0.000  0.00  0.00    +0.000 A 
ATOM     23  C   UNL     1       2.229  -1.313   0.000  0.00  0.00    +0.000 A 
BRANCH  21  24
ATOM     24  C   UNL     1       4.372  -1.725   0.000  0.00  0.00    +0.000 C 
ATOM     25  O   UNL     1       4.372  -2.550   0.000  0.00  0.00    +0.000 OA
BRANCH  24  26
ATOM     26  O   UNL     1       5.087  -1.313   0.000  0.00  0.00    +0.000 OA
BRANCH  26  27
ATOM     27  C   UNL     1       5.801  -1.725   0.000  0.00  0.00    +0.000 C 
ATOM     28  C   UNL     1       6.516  -1.313   0.000  0.00  0.00    +0.000 C 
ENDBRANCH  26  27
ENDBRANCH  24  26
ENDBRANCH  21  24
ENDBRANCH  17  18
ENDBRANCH  16  17
ENDBRANCH  15  16
ENDBRANCH   1  15
TORSDOF 8
