REMARK  Name = J80
REMARK  9 active torsions:
REMARK  status: ('A' for Active; 'I' for Inactive)
REMARK    1  A    between atoms: C_11  and  C_14
REMARK    2  A    between atoms: C_14  and  C_15
REMARK    3  A    between atoms: C_15  and  C_16
REMARK    4  A    between atoms: C_16  and  C_17
REMARK    5  A    between atoms: C_17  and  O_18
REMARK    6  A    between atoms: O_18  and  C_19
REMARK    7  A    between atoms: C_22  and  C_25
REMARK    8  A    between atoms: C_25  and  O_27
REMARK    9  A    between atoms: O_27  and  C_28
REMARK                            x       y       z     vdW  Elec       q    Type
REMARK                         _______ _______ _______ _____ _____    ______ ____
ROOT
ATOM      1  C   UNL     1      -0.219   0.646   0.000  0.00  0.00    +0.000 C 
ENDROOT
BRANCH   1   2
ATOM      2  C   UNL     1      -0.934   1.059   0.000  0.00  0.00    +0.000 C 
BRANCH   2  13
ATOM      3  C   UNL     1      -5.935  -1.829   0.000  0.00  0.00    +0.000 C 
ATOM      4  C   UNL     1      -5.221  -1.416   0.000  0.00  0.00    +0.000 A 
ATOM      5  C   UNL     1      -5.221  -0.591   0.000  0.00  0.00    +0.000 A 
ATOM      6  C   UNL     1      -4.506  -0.178   0.000  0.00  0.00    +0.000 A 
ATOM      7  C   UNL     1      -3.792  -0.591   0.000  0.00  0.00    +0.000 A 
ATOM      8  N   UNL     1      -3.792  -1.416   0.000  0.00  0.00    +0.000 NA
ATOM      9  N   UNL     1      -4.506  -1.829   0.000  0.00  0.00    +0.000 NA
ATOM     10  N   UNL     1      -3.077  -0.178   0.000  0.00  0.00    +0.000 N 
ATOM     11  C   UNL     1      -3.077   0.646   0.000  0.00  0.00    +0.000 C 
ATOM     12  C   UNL     1      -2.363   1.059   0.000  0.00  0.00    +0.000 C 
ATOM     13  C   UNL     1      -1.648   0.646   0.000  0.00  0.00    +0.000 C 
ATOM     14  C   UNL     1      -1.648  -0.178   0.000  0.00  0.00    +0.000 C 
ATOM     15  C   UNL     1      -2.363  -0.591   0.000  0.00  0.00    +0.000 C 
ENDBRANCH   2  13
ENDBRANCH   1   2
BRANCH   1  16
ATOM     16  C   UNL     1       0.495   1.059   0.000  0.00  0.00    +0.000 C 
BRANCH  16  17
ATOM     17  C   UNL     1       1.210   0.646   0.000  0.00  0.00    +0.000 C 
BRANCH  17  18
ATOM     18  O   UNL     1       1.924   1.059   0.000  0.00  0.00    +0.000 OA
BRANCH  18  19
ATOM     19  C   UNL     1       2.639   0.646   0.000  0.00  0.00    +0.000 A 
ATOM     20  C   UNL     1       3.353   1.059   0.000  0.00  0.00    +0.000 A 
ATOM     21  C   UNL     1       4.068   0.646   0.000  0.00  0.00    +0.000 A 
ATOM     22  C   UNL     1       4.068  -0.178   0.000  0.00  0.00    +0.000 A 
ATOM     23  C   UNL     1       3.353  -0.591   0.000  0.00  0.00    +0.000 A 
ATOM     24  C   UNL     1       2.639  -0.178   0.000  0.00  0.00    +0.000 A 
BRANCH  22  25
ATOM     25  C   UNL     1       4.782  -0.591   0.000  0.00  0.00    +0.000 C 
ATOM     26  O   UNL     1       4.782  -1.416   0.000  0.00  0.00    +0.000 OA
BRANCH  25  27
ATOM     27  O   UNL     1       5.497  -0.178   0.000  0.00  0.00    +0.000 OA
BRANCH  27  28
ATOM     28  C   UNL     1       6.211  -0.591   0.000  0.00  0.00    +0.000 C 
ATOM     29  C   UNL     1       6.926  -0.178   0.000  0.00  0.00    +0.000 C 
ENDBRANCH  27  28
ENDBRANCH  25  27
ENDBRANCH  22  25
ENDBRANCH  18  19
ENDBRANCH  17  18
ENDBRANCH  16  17
ENDBRANCH   1  16
TORSDOF 9
