REMARK  Name = J88
REMARK  3 active torsions:
REMARK  status: ('A' for Active; 'I' for Inactive)
REMARK    1  A    between atoms: N_6  and  C_7
REMARK    2  A    between atoms: C_7  and  C_8
REMARK    3  A    between atoms: C_23  and  C_25
REMARK                            x       y       z     vdW  Elec       q    Type
REMARK                         _______ _______ _______ _____ _____    ______ ____
ROOT
ATOM      1  O   UNL     1      -0.872  -2.151   0.000  0.00  0.00    +0.000 OA
ATOM      2  N   UNL     1      -0.065  -1.979   0.000  0.00  0.00    +0.000 NA
ATOM      3  C   UNL     1       0.190  -1.195   0.000  0.00  0.00    +0.000 C 
ATOM      4  C   UNL     1      -0.295  -0.527   0.000  0.00  0.00    +0.000 C 
ATOM      5  O   UNL     1      -1.120  -0.527   0.000  0.00  0.00    +0.000 OA
ATOM      6  N   UNL     1       0.190   0.140   0.000  0.00  0.00    +0.000 N 
ATOM      7  C   UNL     1       0.974  -0.115   0.000  0.00  0.00    +0.000 A 
ATOM      8  C   UNL     1       1.689   0.298   0.000  0.00  0.00    +0.000 A 
ATOM      9  C   UNL     1       2.403  -0.115   0.000  0.00  0.00    +0.000 A 
ATOM     10  C   UNL     1       2.403  -0.940   0.000  0.00  0.00    +0.000 A 
ATOM     11  C   UNL     1       1.689  -1.352   0.000  0.00  0.00    +0.000 A 
ATOM     12  C   UNL     1       0.974  -0.940   0.000  0.00  0.00    +0.000 A 
ENDROOT
BRANCH  11  13
ATOM     13  C   UNL     1       1.689  -2.177   0.000  0.00  0.00    +0.000 A 
ATOM     14  C   UNL     1       2.403  -2.590   0.000  0.00  0.00    +0.000 A 
ATOM     15  C   UNL     1       2.403  -3.415   0.000  0.00  0.00    +0.000 A 
ATOM     16  C   UNL     1       1.689  -3.827   0.000  0.00  0.00    +0.000 A 
ATOM     17  C   UNL     1       0.974  -3.415   0.000  0.00  0.00    +0.000 A 
ATOM     18  C   UNL     1       0.974  -2.590   0.000  0.00  0.00    +0.000 A 
ENDBRANCH  11  13
BRANCH   6  19
ATOM     19  C   UNL     1      -0.065   0.925   0.000  0.00  0.00    +0.000 C 
BRANCH  19  20
ATOM     20  C   UNL     1      -0.872   1.096   0.000  0.00  0.00    +0.000 A 
ATOM     21  C   UNL     1      -1.424   0.483   0.000  0.00  0.00    +0.000 A 
ATOM     22  C   UNL     1      -2.231   0.655   0.000  0.00  0.00    +0.000 A 
ATOM     23  F   UNL     1      -2.783   0.042   0.000  0.00  0.00    +0.000 F 
ATOM     24  C   UNL     1      -2.486   1.440   0.000  0.00  0.00    +0.000 A 
ATOM     25  C   UNL     1      -1.934   2.053   0.000  0.00  0.00    +0.000 A 
ATOM     26  C   UNL     1      -2.189   2.837   0.000  0.00  0.00    +0.000 C 
ATOM     27  O   UNL     1      -1.637   3.450   0.000  0.00  0.00    +0.000 OA
ATOM     28  C   UNL     1      -0.830   3.279   0.000  0.00  0.00    +0.000 C 
ATOM     29  O   UNL     1      -0.575   2.494   0.000  0.00  0.00    +0.000 OA
ATOM     30  C   UNL     1      -1.127   1.881   0.000  0.00  0.00    +0.000 A 
ENDBRANCH  19  20
ENDBRANCH   6  19
TORSDOF 3
