REMARK  Name = JCL
REMARK  6 active torsions:
REMARK  status: ('A' for Active; 'I' for Inactive)
REMARK    1  A    between atoms: C_5  and  C_6
REMARK    2  A    between atoms: C_6  and  C_11
REMARK    3  A    between atoms: C_11  and  C_12
REMARK    4  A    between atoms: C_12  and  C_13
REMARK    5  A    between atoms: C_13  and  O_14
REMARK    6  A    between atoms: O_14  and  P_15
REMARK                            x       y       z     vdW  Elec       q    Type
REMARK                         _______ _______ _______ _____ _____    ______ ____
ROOT
ATOM      1  N   UNL     1      -2.848  -0.168   0.000  0.00  0.00    +0.000 NA
ATOM      2  N   UNL     1      -2.133   1.069   0.000  0.00  0.00    +0.000 NA
ATOM      3  C   UNL     1      -1.419   0.657   0.000  0.00  0.00    +0.000 A 
ATOM      4 CL   UNL     1      -0.705   1.069   0.000  0.00  0.00    +0.000 Cl
ATOM      5  C   UNL     1      -1.419  -0.168   0.000  0.00  0.00    +0.000 A 
ATOM      6  C   UNL     1      -2.848   0.657   0.000  0.00  0.00    +0.000 A 
ATOM      7  C   UNL     1      -2.133  -0.581   0.000  0.00  0.00    +0.000 A 
ATOM      8  O   UNL     1      -3.562   1.069   0.000  0.00  0.00    +0.000 OA
ATOM      9  O   UNL     1      -2.133  -1.406   0.000  0.00  0.00    +0.000 OA
ENDROOT
BRANCH   5  10
ATOM     10  C   UNL     1      -0.705  -0.581   0.000  0.00  0.00    +0.000 C 
BRANCH  10  11
ATOM     11  C   UNL     1       0.010  -0.168   0.000  0.00  0.00    +0.000 C 
BRANCH  11  12
ATOM     12  C   UNL     1       0.725  -0.581   0.000  0.00  0.00    +0.000 C 
BRANCH  12  13
ATOM     13  C   UNL     1       1.439  -0.168   0.000  0.00  0.00    +0.000 C 
BRANCH  13  14
ATOM     14  O   UNL     1       2.153  -0.581   0.000  0.00  0.00    +0.000 OA
BRANCH  14  15
ATOM     15  P   UNL     1       2.868  -0.168   0.000  0.00  0.00    +0.000 P 
ATOM     16  O   UNL     1       3.582   0.244   0.000  0.00  0.00    +0.000 OA
ATOM     17  O   UNL     1       3.280  -0.883   0.000  0.00  0.00    +0.000 OA
ATOM     18  O   UNL     1       2.455   0.546   0.000  0.00  0.00    +0.000 OA
ENDBRANCH  14  15
ENDBRANCH  13  14
ENDBRANCH  12  13
ENDBRANCH  11  12
ENDBRANCH  10  11
ENDBRANCH   5  10
TORSDOF 6
