REMARK  Name = JEN
REMARK  2 active torsions:
REMARK  status: ('A' for Active; 'I' for Inactive)
REMARK    1  A    between atoms: O_2  and  C_3
REMARK    2  A    between atoms: N_12  and  C_15
REMARK                            x       y       z     vdW  Elec       q    Type
REMARK                         _______ _______ _______ _____ _____    ______ ____
ROOT
ATOM      1  C   UNL     1      -0.012   3.235   0.000  0.00  0.00    +0.000 A 
ATOM      2  N   UNL     1       0.703   2.823   0.000  0.00  0.00    +0.000 NA
ATOM      3  N   UNL     1       0.703   1.998   0.000  0.00  0.00    +0.000 NA
ATOM      4  C   UNL     1      -0.012   1.585   0.000  0.00  0.00    +0.000 A 
ATOM      5  C   UNL     1      -0.726   1.998   0.000  0.00  0.00    +0.000 A 
ATOM      6  C   UNL     1      -0.726   2.823   0.000  0.00  0.00    +0.000 A 
ATOM      7  N   UNL     1      -0.012   0.760   0.000  0.00  0.00    +0.000 N 
ATOM      8  C   UNL     1       0.703   0.348   0.000  0.00  0.00    +0.000 C 
ATOM      9  C   UNL     1       0.703  -0.477   0.000  0.00  0.00    +0.000 C 
ATOM     10  N   UNL     1      -0.012  -0.890   0.000  0.00  0.00    +0.000 N 
ATOM     11  C   UNL     1      -0.726  -0.477   0.000  0.00  0.00    +0.000 C 
ATOM     12  C   UNL     1      -0.726   0.348   0.000  0.00  0.00    +0.000 C 
ENDROOT
BRANCH  10  13
ATOM     13  C   UNL     1      -0.012  -1.715   0.000  0.00  0.00    +0.000 A 
ATOM     14  C   UNL     1       0.703  -2.127   0.000  0.00  0.00    +0.000 A 
ATOM     15  C   UNL     1       0.703  -2.952   0.000  0.00  0.00    +0.000 A 
ATOM     16  C   UNL     1      -0.012  -3.365   0.000  0.00  0.00    +0.000 A 
ATOM     17  C   UNL     1      -0.726  -2.952   0.000  0.00  0.00    +0.000 A 
ATOM     18  C   UNL     1      -0.726  -2.127   0.000  0.00  0.00    +0.000 A 
ATOM     19  C   UNL     1       1.417  -3.365   0.000  0.00  0.00    +0.000 C 
ENDBRANCH  10  13
BRANCH   1  21
ATOM     20  C   UNL     1      -0.726   4.473   0.000  0.00  0.00    +0.000 C 
ATOM     21  O   UNL     1      -0.012   4.060   0.000  0.00  0.00    +0.000 OA
ENDBRANCH   1  21
TORSDOF 2
