REMARK  Name = JI3
REMARK  8 active torsions:
REMARK  status: ('A' for Active; 'I' for Inactive)
REMARK    1  A    between atoms: C_7  and  C_26
REMARK    2  A    between atoms: C_13  and  C_20
REMARK    3  A    between atoms: C_17  and  N_22
REMARK    4  A    between atoms: C_18  and  C_20
REMARK    5  A    between atoms: N_22  and  C_23
REMARK    6  A    between atoms: C_23  and  C_24
REMARK    7  A    between atoms: C_24  and  N_25
REMARK    8  A    between atoms: N_25  and  C_26
REMARK                            x       y       z     vdW  Elec       q    Type
REMARK                         _______ _______ _______ _____ _____    ______ ____
ROOT
ATOM      1  N   UNL     1      -1.025   3.432   0.000  0.00  0.00    +0.000 NA
ATOM      2  C   UNL     1      -0.218   3.260   0.000  0.00  0.00    +0.000 C 
ATOM      3  C   UNL     1      -0.131   2.440   0.000  0.00  0.00    +0.000 C 
ATOM      4  C   UNL     1      -0.885   2.104   0.000  0.00  0.00    +0.000 C 
ATOM      5  C   UNL     1      -1.437   2.717   0.000  0.00  0.00    +0.000 C 
ENDROOT
BRANCH   4   6
ATOM      6  C   UNL     1      -1.057   1.297   0.000  0.00  0.00    +0.000 C 
BRANCH   6  12
ATOM      7  C   UNL     1      -3.239   1.339   0.000  0.00  0.00    +0.000 A 
ATOM      8  N   UNL     1      -3.852   1.891   0.000  0.00  0.00    +0.000 NA
ATOM      9  C   UNL     1      -3.410   0.532   0.000  0.00  0.00    +0.000 A 
ATOM     10  C   UNL     1      -2.797  -0.020   0.000  0.00  0.00    +0.000 A 
ATOM     11  C   UNL     1      -2.013   0.235   0.000  0.00  0.00    +0.000 A 
ATOM     12  C   UNL     1      -1.841   1.042   0.000  0.00  0.00    +0.000 A 
ATOM     13  N   UNL     1      -2.454   1.594   0.000  0.00  0.00    +0.000 NA
ATOM     14  C   UNL     1      -2.969  -0.827   0.000  0.00  0.00    +0.000 C 
ENDBRANCH   6  12
ENDBRANCH   4   6
BRANCH   3  15
ATOM     15  N   UNL     1       0.583   2.027   0.000  0.00  0.00    +0.000 NA
BRANCH  15  16
ATOM     16  C   UNL     1       1.298   2.440   0.000  0.00  0.00    +0.000 C 
BRANCH  16  17
ATOM     17  C   UNL     1       2.012   2.027   0.000  0.00  0.00    +0.000 C 
BRANCH  17  18
ATOM     18  N   UNL     1       2.727   2.440   0.000  0.00  0.00    +0.000 NA
BRANCH  18  19
ATOM     19  C   UNL     1       3.441   2.027   0.000  0.00  0.00    +0.000 C 
BRANCH  19  26
ATOM     20  C   UNL     1       4.870   2.027   0.000  0.00  0.00    +0.000 A 
ATOM     21  C   UNL     1       5.584   2.440   0.000  0.00  0.00    +0.000 A 
ATOM     22  C   UNL     1       5.584   3.265   0.000  0.00  0.00    +0.000 A 
ATOM     23 CL   UNL     1       6.299   3.677   0.000  0.00  0.00    +0.000 Cl
ATOM     24  C   UNL     1       4.870   3.677   0.000  0.00  0.00    +0.000 A 
ATOM     25  C   UNL     1       4.155   3.265   0.000  0.00  0.00    +0.000 A 
ATOM     26  C   UNL     1       4.155   2.440   0.000  0.00  0.00    +0.000 A 
ENDBRANCH  19  26
ENDBRANCH  18  19
ENDBRANCH  17  18
ENDBRANCH  16  17
ENDBRANCH  15  16
ENDBRANCH   3  15
TORSDOF 8
