REMARK  Name = JI7
REMARK  8 active torsions:
REMARK  status: ('A' for Active; 'I' for Inactive)
REMARK    1  A    between atoms: C_4  and  C_7
REMARK    2  A    between atoms: C_7  and  C_8
REMARK    3  A    between atoms: C_9  and  N_13
REMARK    4  A    between atoms: N_13  and  C_14
REMARK    5  A    between atoms: C_14  and  C_15
REMARK    6  A    between atoms: C_15  and  N_16
REMARK    7  A    between atoms: N_16  and  C_17
REMARK    8  A    between atoms: C_17  and  C_18
REMARK                            x       y       z     vdW  Elec       q    Type
REMARK                         _______ _______ _______ _____ _____    ______ ____
ROOT
ATOM      1  C   UNL     1      -1.070   0.397   0.000  0.00  0.00    +0.000 C 
ATOM      2  C   UNL     1      -0.983   1.218   0.000  0.00  0.00    +0.000 C 
ATOM      3  C   UNL     1      -1.737   1.553   0.000  0.00  0.00    +0.000 C 
ATOM      4  N   UNL     1      -2.289   0.940   0.000  0.00  0.00    +0.000 NA
ATOM      5  C   UNL     1      -1.877   0.226   0.000  0.00  0.00    +0.000 C 
ENDROOT
BRANCH   2   6
ATOM      6  N   UNL     1      -0.269   1.630   0.000  0.00  0.00    +0.000 NA
BRANCH   6   7
ATOM      7  C   UNL     1       0.446   1.218   0.000  0.00  0.00    +0.000 C 
BRANCH   7   8
ATOM      8  C   UNL     1       1.160   1.630   0.000  0.00  0.00    +0.000 C 
BRANCH   8   9
ATOM      9  N   UNL     1       1.875   1.218   0.000  0.00  0.00    +0.000 NA
BRANCH   9  10
ATOM     10  C   UNL     1       2.589   1.630   0.000  0.00  0.00    +0.000 C 
BRANCH  10  11
ATOM     11  C   UNL     1       3.304   1.218   0.000  0.00  0.00    +0.000 A 
ATOM     12  C   UNL     1       4.018   1.630   0.000  0.00  0.00    +0.000 A 
ATOM     13  C   UNL     1       4.732   1.218   0.000  0.00  0.00    +0.000 A 
ATOM     14  C   UNL     1       4.732   0.393   0.000  0.00  0.00    +0.000 A 
ATOM     15  C   UNL     1       4.018  -0.020   0.000  0.00  0.00    +0.000 A 
ATOM     16  C   UNL     1       3.304   0.393   0.000  0.00  0.00    +0.000 A 
ATOM     17 CL   UNL     1       4.018  -0.845   0.000  0.00  0.00    +0.000 Cl
ENDBRANCH  10  11
ENDBRANCH   9  10
ENDBRANCH   8   9
ENDBRANCH   7   8
ENDBRANCH   6   7
ENDBRANCH   2   6
BRANCH   1  18
ATOM     18  C   UNL     1      -0.457  -0.155   0.000  0.00  0.00    +0.000 C 
BRANCH  18  22
ATOM     19  C   UNL     1      -0.971  -2.576   0.000  0.00  0.00    +0.000 A 
ATOM     20  C   UNL     1      -1.584  -2.024   0.000  0.00  0.00    +0.000 A 
ATOM     21  C   UNL     1      -1.413  -1.217   0.000  0.00  0.00    +0.000 A 
ATOM     22  C   UNL     1      -0.628  -0.962   0.000  0.00  0.00    +0.000 A 
ATOM     23  N   UNL     1      -0.015  -1.514   0.000  0.00  0.00    +0.000 NA
ATOM     24  C   UNL     1      -0.186  -2.321   0.000  0.00  0.00    +0.000 A 
ATOM     25  C   UNL     1      -2.369  -2.279   0.000  0.00  0.00    +0.000 C 
ATOM     26  N   UNL     1       0.427  -2.873   0.000  0.00  0.00    +0.000 NA
ENDBRANCH  18  22
ENDBRANCH   1  18
TORSDOF 8
