REMARK  Name = JJ3
REMARK  3 active torsions:
REMARK  status: ('A' for Active; 'I' for Inactive)
REMARK    1  A    between atoms: C_3  and  C_21
REMARK    2  A    between atoms: C_6  and  C_14
REMARK    3  A    between atoms: C_21  and  O_22
REMARK                            x       y       z     vdW  Elec       q    Type
REMARK                         _______ _______ _______ _____ _____    ______ ____
ROOT
ATOM      1  C   UNL     1      -1.746  -1.843   0.000  0.00  0.00    +0.000 A 
ATOM      2  C   UNL     1      -2.136  -1.116   0.000  0.00  0.00    +0.000 A 
ATOM      3  C   UNL     1      -1.702  -0.415   0.000  0.00  0.00    +0.000 A 
ATOM      4  C   UNL     1      -0.877  -0.441   0.000  0.00  0.00    +0.000 A 
ATOM      5  O   UNL     1      -0.443   0.260   0.000  0.00  0.00    +0.000 OA
ATOM      6  C   UNL     1       0.382   0.234   0.000  0.00  0.00    +0.000 C 
ATOM      7  C   UNL     1       0.772  -0.492   0.000  0.00  0.00    +0.000 C 
ATOM      8  C   UNL     1       1.573  -0.689   0.000  0.00  0.00    +0.000 C 
ATOM      9  C   UNL     1       1.634  -1.512   0.000  0.00  0.00    +0.000 C 
ATOM     10  C   UNL     1       0.870  -1.824   0.000  0.00  0.00    +0.000 C 
ATOM     11  C   UNL     1       0.337  -1.194   0.000  0.00  0.00    +0.000 C 
ATOM     12  C   UNL     1      -0.487  -1.168   0.000  0.00  0.00    +0.000 A 
ATOM     13  C   UNL     1      -0.922  -1.869   0.000  0.00  0.00    +0.000 A 
ATOM     14  O   UNL     1      -2.181  -2.545   0.000  0.00  0.00    +0.000 OA
ENDROOT
BRANCH   6  15
ATOM     15  C   UNL     1       0.817   0.936   0.000  0.00  0.00    +0.000 A 
ATOM     16  C   UNL     1       0.426   1.663   0.000  0.00  0.00    +0.000 A 
ATOM     17  C   UNL     1       0.861   2.364   0.000  0.00  0.00    +0.000 A 
ATOM     18  C   UNL     1       1.686   2.338   0.000  0.00  0.00    +0.000 A 
ATOM     19  O   UNL     1       2.120   3.039   0.000  0.00  0.00    +0.000 OA
ATOM     20  C   UNL     1       2.076   1.611   0.000  0.00  0.00    +0.000 A 
ATOM     21  C   UNL     1       1.641   0.910   0.000  0.00  0.00    +0.000 A 
ENDBRANCH   6  15
BRANCH   3  22
ATOM     22  C   UNL     1      -2.092   0.312   0.000  0.00  0.00    +0.000 C 
BRANCH  22  23
ATOM     23  O   UNL     1      -1.657   1.013   0.000  0.00  0.00    +0.000 OA
ATOM     24  C   UNL     1      -2.047   1.740   0.000  0.00  0.00    +0.000 C 
ENDBRANCH  22  23
ENDBRANCH   3  22
TORSDOF 3
