REMARK  Name = JK3
REMARK  5 active torsions:
REMARK  status: ('A' for Active; 'I' for Inactive)
REMARK    1  A    between atoms: C_6  and  C_7
REMARK    2  A    between atoms: N_9  and  C_10
REMARK    3  A    between atoms: C_15  and  N_16
REMARK    4  A    between atoms: N_21  and  C_22
REMARK    5  A    between atoms: C_22  and  C_23
REMARK                            x       y       z     vdW  Elec       q    Type
REMARK                         _______ _______ _______ _____ _____    ______ ____
ROOT
ATOM      1 CL   UNL     1       1.556   0.995   0.000  0.00  0.00    +0.000 Cl
ATOM      2  C   UNL     1       0.428  -0.874   0.000  0.00  0.00    +0.000 A 
ATOM      3  C   UNL     1       1.041  -1.426   0.000  0.00  0.00    +0.000 A 
ATOM      4  C   UNL     1       1.826  -1.171   0.000  0.00  0.00    +0.000 A 
ATOM      5  C   UNL     1       1.998  -0.364   0.000  0.00  0.00    +0.000 A 
ATOM      6  C   UNL     1       1.385   0.188   0.000  0.00  0.00    +0.000 A 
ATOM      7  C   UNL     1       0.600  -0.067   0.000  0.00  0.00    +0.000 A 
ENDROOT
BRANCH   7   8
ATOM      8  N   UNL     1      -0.013   0.485   0.000  0.00  0.00    +0.000 N 
ATOM      9  C   UNL     1      -0.798   0.230   0.000  0.00  0.00    +0.000 C 
ATOM     10  C   UNL     1      -1.411   0.782   0.000  0.00  0.00    +0.000 C 
ATOM     11  C   UNL     1       0.158   1.292   0.000  0.00  0.00    +0.000 C 
ATOM     12  C   UNL     1      -0.455   1.844   0.000  0.00  0.00    +0.000 C 
ATOM     13  N   UNL     1      -1.240   1.589   0.000  0.00  0.00    +0.000 NA
BRANCH  13  14
ATOM     14  C   UNL     1      -1.853   2.141   0.000  0.00  0.00    +0.000 C 
BRANCH  14  15
ATOM     15  C   UNL     1      -1.681   2.948   0.000  0.00  0.00    +0.000 C 
ATOM     16  C   UNL     1      -1.510   3.755   0.000  0.00  0.00    +0.000 C 
ENDBRANCH  14  15
ENDBRANCH  13  14
ENDBRANCH   7   8
BRANCH   2  19
ATOM     17  C   UNL     1      -0.528  -1.936   0.000  0.00  0.00    +0.000 C 
ATOM     18  O   UNL     1       0.085  -2.488   0.000  0.00  0.00    +0.000 OA
ATOM     19  N   UNL     1      -0.356  -1.129   0.000  0.00  0.00    +0.000 NA
BRANCH  17  24
ATOM     20  C   UNL     1      -1.980  -1.706   0.000  0.00  0.00    +0.000 A 
ATOM     21  C   UNL     1      -2.647  -2.191   0.000  0.00  0.00    +0.000 A 
ATOM     22  C   UNL     1      -2.392  -2.975   0.000  0.00  0.00    +0.000 A 
ATOM     23  O   UNL     1      -1.567  -2.975   0.000  0.00  0.00    +0.000 OA
ATOM     24  C   UNL     1      -1.312  -2.191   0.000  0.00  0.00    +0.000 A 
ATOM     25 BR   UNL     1      -2.877  -3.643   0.000  0.00  0.00    +0.000 Br
ENDBRANCH  17  24
ENDBRANCH   2  19
TORSDOF 5
