REMARK  Name = JN5
REMARK  6 active torsions:
REMARK  status: ('A' for Active; 'I' for Inactive)
REMARK    1  A    between atoms: C_6  and  C_7
REMARK    2  A    between atoms: C_7  and  C_8
REMARK    3  A    between atoms: C_8  and  N_9
REMARK    4  A    between atoms: C_15  and  C_16
REMARK    5  A    between atoms: C_16  and  C_17
REMARK    6  A    between atoms: C_16  and  C_19
REMARK                            x       y       z     vdW  Elec       q    Type
REMARK                         _______ _______ _______ _____ _____    ______ ____
ROOT
ATOM      1  N   UNL     1      -1.819   0.201   0.000  0.00  0.00    +0.000 NA
ATOM      2  C   UNL     1      -0.994   0.201   0.000  0.00  0.00    +0.000 A 
ATOM      3  N   UNL     1      -0.582   0.915   0.000  0.00  0.00    +0.000 NA
ATOM      4  N   UNL     1      -0.582  -0.513   0.000  0.00  0.00    +0.000 NA
ATOM      5  C   UNL     1       0.243  -0.513   0.000  0.00  0.00    +0.000 A 
ATOM      6  C   UNL     1       0.656   0.201   0.000  0.00  0.00    +0.000 A 
ATOM      7  C   UNL     1       0.243   0.915   0.000  0.00  0.00    +0.000 A 
ENDROOT
BRANCH   1   8
ATOM      8  C   UNL     1      -2.232  -0.513   0.000  0.00  0.00    +0.000 C 
BRANCH   8   9
ATOM      9  C   UNL     1      -3.057  -0.513   0.000  0.00  0.00    +0.000 C 
BRANCH   9  15
ATOM     10  C   UNL     1      -3.057  -1.942   0.000  0.00  0.00    +0.000 A 
ATOM     11  C   UNL     1      -3.469  -2.657   0.000  0.00  0.00    +0.000 A 
ATOM     12  C   UNL     1      -4.294  -2.657   0.000  0.00  0.00    +0.000 A 
ATOM     13  N   UNL     1      -4.707  -1.942   0.000  0.00  0.00    +0.000 NA
ATOM     14  C   UNL     1      -4.294  -1.228   0.000  0.00  0.00    +0.000 A 
ATOM     15  C   UNL     1      -3.469  -1.228   0.000  0.00  0.00    +0.000 A 
ENDBRANCH   9  15
ENDBRANCH   8   9
ENDBRANCH   1   8
BRANCH   7  16
ATOM     16  C   UNL     1       0.656   1.630   0.000  0.00  0.00    +0.000 C 
BRANCH  16  17
ATOM     17  C   UNL     1       1.481   1.630   0.000  0.00  0.00    +0.000 A 
ATOM     18  N   UNL     1       1.966   2.297   0.000  0.00  0.00    +0.000 NA
ATOM     19  C   UNL     1       2.750   2.042   0.000  0.00  0.00    +0.000 A 
ATOM     20  C   UNL     1       3.465   2.455   0.000  0.00  0.00    +0.000 A 
ATOM     21  C   UNL     1       4.179   2.042   0.000  0.00  0.00    +0.000 A 
ATOM     22  C   UNL     1       4.179   1.217   0.000  0.00  0.00    +0.000 A 
ATOM     23  C   UNL     1       3.465   0.805   0.000  0.00  0.00    +0.000 A 
ATOM     24  C   UNL     1       2.750   1.217   0.000  0.00  0.00    +0.000 A 
ATOM     25  S   UNL     1       1.966   0.962   0.000  0.00  0.00    +0.000 S 
ENDBRANCH  16  17
BRANCH  16  26
ATOM     26  C   UNL     1       0.243   2.344   0.000  0.00  0.00    +0.000 C 
ATOM     27  N   UNL     1      -0.169   3.059   0.000  0.00  0.00    +0.000 NA
ENDBRANCH  16  26
ENDBRANCH   7  16
TORSDOF 6
