REMARK  Name = JNF
REMARK  2 active torsions:
REMARK  status: ('A' for Active; 'I' for Inactive)
REMARK    1  A    between atoms: N_2  and  C_18
REMARK    2  A    between atoms: C_5  and  C_6
REMARK                            x       y       z     vdW  Elec       q    Type
REMARK                         _______ _______ _______ _____ _____    ______ ____
ROOT
ATOM      1  C   UNL     1      -1.598  -2.071   0.000  0.00  0.00    +0.000 C 
ATOM      2  N   UNL     1      -1.343  -1.286   0.000  0.00  0.00    +0.000 N 
ATOM      3  C   UNL     1      -0.536  -1.115   0.000  0.00  0.00    +0.000 A 
ATOM      4  N   UNL     1      -0.281  -0.330   0.000  0.00  0.00    +0.000 NA
ATOM      5  C   UNL     1       0.526  -0.159   0.000  0.00  0.00    +0.000 A 
ATOM      6  C   UNL     1       1.078  -0.772   0.000  0.00  0.00    +0.000 A 
ATOM      7  C   UNL     1       0.823  -1.557   0.000  0.00  0.00    +0.000 A 
ATOM      8  N   UNL     1       0.016  -1.728   0.000  0.00  0.00    +0.000 NA
ENDROOT
BRANCH   5   9
ATOM      9  C   UNL     1       0.781   0.626   0.000  0.00  0.00    +0.000 A 
ATOM     10  N   UNL     1       1.566   0.881   0.000  0.00  0.00    +0.000 N 
ATOM     11  C   UNL     1       1.566   1.706   0.000  0.00  0.00    +0.000 A 
ATOM     12  C   UNL     1       2.280   2.118   0.000  0.00  0.00    +0.000 A 
ATOM     13  C   UNL     1       2.995   1.706   0.000  0.00  0.00    +0.000 A 
ATOM     14  C   UNL     1       2.995   0.881   0.000  0.00  0.00    +0.000 A 
ATOM     15  C   UNL     1       2.280   0.468   0.000  0.00  0.00    +0.000 A 
ATOM     16  N   UNL     1       0.781   1.961   0.000  0.00  0.00    +0.000 NA
ATOM     17  C   UNL     1       0.296   1.293   0.000  0.00  0.00    +0.000 A 
ENDBRANCH   5   9
BRANCH   2  18
ATOM     18  C   UNL     1      -1.895  -0.673   0.000  0.00  0.00    +0.000 C 
ATOM     19  C   UNL     1      -2.702  -0.845   0.000  0.00  0.00    +0.000 C 
ATOM     20  C   UNL     1      -3.254  -0.232   0.000  0.00  0.00    +0.000 C 
ATOM     21  C   UNL     1      -2.999   0.553   0.000  0.00  0.00    +0.000 C 
ATOM     22  C   UNL     1      -2.192   0.724   0.000  0.00  0.00    +0.000 C 
ATOM     23  C   UNL     1      -1.640   0.111   0.000  0.00  0.00    +0.000 C 
ENDBRANCH   2  18
TORSDOF 2
