REMARK  Name = JNH
REMARK  5 active torsions:
REMARK  status: ('A' for Active; 'I' for Inactive)
REMARK    1  A    between atoms: C_2  and  C_23
REMARK    2  A    between atoms: C_6  and  C_7
REMARK    3  A    between atoms: C_7  and  C_10
REMARK    4  A    between atoms: C_10  and  C_14
REMARK    5  A    between atoms: C_11  and  C_20
REMARK                            x       y       z     vdW  Elec       q    Type
REMARK                         _______ _______ _______ _____ _____    ______ ____
ROOT
ATOM      1  C   UNL     1       0.490  -0.571   0.000  0.00  0.00    +0.000 C 
ENDROOT
BRANCH   1   5
ATOM      2  C   UNL     1       1.004   1.850   0.000  0.00  0.00    +0.000 A 
ATOM      3  C   UNL     1       1.617   1.298   0.000  0.00  0.00    +0.000 A 
ATOM      4  C   UNL     1       1.446   0.491   0.000  0.00  0.00    +0.000 A 
ATOM      5  C   UNL     1       0.661   0.236   0.000  0.00  0.00    +0.000 A 
ATOM      6  C   UNL     1       0.048   0.788   0.000  0.00  0.00    +0.000 A 
ATOM      7  C   UNL     1       0.220   1.595   0.000  0.00  0.00    +0.000 A 
BRANCH   2  11
ATOM      8  C   UNL     1       1.519   4.271   0.000  0.00  0.00    +0.000 A 
ATOM      9  C   UNL     1       2.132   3.719   0.000  0.00  0.00    +0.000 A 
ATOM     10  C   UNL     1       1.960   2.912   0.000  0.00  0.00    +0.000 A 
ATOM     11  C   UNL     1       1.176   2.657   0.000  0.00  0.00    +0.000 A 
ATOM     12  C   UNL     1       0.563   3.209   0.000  0.00  0.00    +0.000 A 
ATOM     13  C   UNL     1       0.734   4.016   0.000  0.00  0.00    +0.000 A 
ENDBRANCH   2  11
ENDBRANCH   1   5
BRANCH   1  14
ATOM     14  C   UNL     1      -0.295  -0.826   0.000  0.00  0.00    +0.000 C 
ATOM     15  N   UNL     1      -0.908  -0.274   0.000  0.00  0.00    +0.000 NA
BRANCH  14  21
ATOM     16  N   UNL     1      -1.251  -1.888   0.000  0.00  0.00    +0.000 N 
ATOM     17  C   UNL     1      -1.506  -2.672   0.000  0.00  0.00    +0.000 C 
ATOM     18  C   UNL     1      -2.331  -2.672   0.000  0.00  0.00    +0.000 C 
ATOM     19  C   UNL     1      -2.586  -1.888   0.000  0.00  0.00    +0.000 C 
ATOM     20  C   UNL     1      -1.918  -1.403   0.000  0.00  0.00    +0.000 C 
ATOM     21  C   UNL     1      -0.466  -1.633   0.000  0.00  0.00    +0.000 C 
ATOM     22  O   UNL     1       0.147  -2.185   0.000  0.00  0.00    +0.000 OA
BRANCH  17  23
ATOM     23  C   UNL     1      -1.021  -3.340   0.000  0.00  0.00    +0.000 C 
ATOM     24  N   UNL     1      -0.201  -3.254   0.000  0.00  0.00    +0.000 NA
ENDBRANCH  17  23
ENDBRANCH  14  21
ENDBRANCH   1  14
TORSDOF 5
