REMARK  Name = JNK
REMARK  5 active torsions:
REMARK  status: ('A' for Active; 'I' for Inactive)
REMARK    1  A    between atoms: C_1  and  C_2
REMARK    2  A    between atoms: C_9  and  N_13
REMARK    3  A    between atoms: N_11  and  C_15
REMARK    4  A    between atoms: C_16  and  C_19
REMARK    5  A    between atoms: C_28  and  O_29
REMARK                            x       y       z     vdW  Elec       q    Type
REMARK                         _______ _______ _______ _____ _____    ______ ____
ROOT
ATOM      1  C   UNL     1      -1.497   0.526   0.000  0.00  0.00    +0.000 A 
ATOM      2  C   UNL     1      -0.783   0.114   0.000  0.00  0.00    +0.000 A 
ATOM      3  C   UNL     1      -2.212   0.114   0.000  0.00  0.00    +0.000 A 
ATOM      4  C   UNL     1      -0.783  -0.712   0.000  0.00  0.00    +0.000 A 
ATOM      5  C   UNL     1      -2.212  -0.712   0.000  0.00  0.00    +0.000 A 
ATOM      6  N   UNL     1      -1.497  -1.124   0.000  0.00  0.00    +0.000 NA
ENDROOT
BRANCH   1   7
ATOM      7  C   UNL     1      -1.497   1.351   0.000  0.00  0.00    +0.000 A 
ATOM      8  C   UNL     1      -2.212   1.764   0.000  0.00  0.00    +0.000 A 
ATOM      9  C   UNL     1      -0.783   1.764   0.000  0.00  0.00    +0.000 A 
ATOM     10  C   UNL     1      -2.212   2.588   0.000  0.00  0.00    +0.000 A 
ATOM     11  C   UNL     1      -0.783   2.588   0.000  0.00  0.00    +0.000 A 
ATOM     12  N   UNL     1      -2.926   3.001   0.000  0.00  0.00    +0.000 NA
ATOM     13  N   UNL     1      -1.497   3.001   0.000  0.00  0.00    +0.000 NA
BRANCH  12  14
ATOM     14  C   UNL     1      -2.926   3.826   0.000  0.00  0.00    +0.000 A 
ATOM     15  C   UNL     1      -3.640   4.239   0.000  0.00  0.00    +0.000 A 
ATOM     16  C   UNL     1      -2.212   4.239   0.000  0.00  0.00    +0.000 A 
ATOM     17  C   UNL     1      -3.640   5.064   0.000  0.00  0.00    +0.000 A 
ATOM     18  C   UNL     1      -2.212   5.064   0.000  0.00  0.00    +0.000 A 
ATOM     19  C   UNL     1      -2.926   5.476   0.000  0.00  0.00    +0.000 A 
ATOM     20  F   UNL     1      -2.926   6.301   0.000  0.00  0.00    +0.000 F 
ENDBRANCH  12  14
ENDBRANCH   1   7
BRANCH   4  21
ATOM     21  N   UNL     1      -0.068  -1.124   0.000  0.00  0.00    +0.000 NA
ATOM     22  C   UNL     1      -0.068  -1.949   0.000  0.00  0.00    +0.000 C 
ATOM     23  O   UNL     1      -0.783  -2.361   0.000  0.00  0.00    +0.000 OA
BRANCH  22  24
ATOM     24  C   UNL     1       0.646  -2.361   0.000  0.00  0.00    +0.000 C 
ATOM     25  C   UNL     1       1.361  -1.949   0.000  0.00  0.00    +0.000 C 
ATOM     26  C   UNL     1       0.646  -3.187   0.000  0.00  0.00    +0.000 C 
ATOM     27  C   UNL     1       2.075  -2.361   0.000  0.00  0.00    +0.000 C 
ATOM     28  C   UNL     1       1.361  -3.599   0.000  0.00  0.00    +0.000 C 
ATOM     29  C   UNL     1       2.075  -3.187   0.000  0.00  0.00    +0.000 C 
BRANCH  29  30
ATOM     30  O   UNL     1       2.790  -3.599   0.000  0.00  0.00    +0.000 OA
ATOM     31  C   UNL     1       2.790  -4.424   0.000  0.00  0.00    +0.000 C 
ENDBRANCH  29  30
ENDBRANCH  22  24
ENDBRANCH   4  21
TORSDOF 5
