REMARK  Name = JNO
REMARK  4 active torsions:
REMARK  status: ('A' for Active; 'I' for Inactive)
REMARK    1  A    between atoms: C_3  and  C_5
REMARK    2  A    between atoms: C_5  and  N_6
REMARK    3  A    between atoms: C_9  and  N_12
REMARK    4  A    between atoms: C_15  and  C_19
REMARK                            x       y       z     vdW  Elec       q    Type
REMARK                         _______ _______ _______ _____ _____    ______ ____
ROOT
ATOM      1  N   UNL     1       0.273  -0.067   0.000  0.00  0.00    +0.000 NA
ATOM      2  C   UNL     1      -0.279  -0.680   0.000  0.00  0.00    +0.000 A 
ATOM      3  N   UNL     1      -0.024  -1.465   0.000  0.00  0.00    +0.000 NA
ATOM      4  C   UNL     1      -0.576  -2.078   0.000  0.00  0.00    +0.000 A 
ATOM      5  C   UNL     1      -1.383  -1.906   0.000  0.00  0.00    +0.000 A 
ATOM      6  C   UNL     1      -1.638  -1.122   0.000  0.00  0.00    +0.000 A 
ATOM      7  N   UNL     1      -1.086  -0.509   0.000  0.00  0.00    +0.000 NA
ENDROOT
BRANCH   4   8
ATOM      8  C   UNL     1      -0.321  -2.863   0.000  0.00  0.00    +0.000 A 
ATOM      9  N   UNL     1       0.464  -3.118   0.000  0.00  0.00    +0.000 N 
ATOM     10  C   UNL     1       1.178  -2.705   0.000  0.00  0.00    +0.000 A 
ATOM     11  C   UNL     1       1.893  -3.118   0.000  0.00  0.00    +0.000 A 
ATOM     12  C   UNL     1       1.893  -3.942   0.000  0.00  0.00    +0.000 A 
ATOM     13  C   UNL     1       1.178  -4.355   0.000  0.00  0.00    +0.000 A 
ATOM     14  C   UNL     1       0.464  -3.942   0.000  0.00  0.00    +0.000 A 
ATOM     15  N   UNL     1      -0.321  -4.197   0.000  0.00  0.00    +0.000 NA
ATOM     16  C   UNL     1      -0.806  -3.530   0.000  0.00  0.00    +0.000 A 
ENDBRANCH   4   8
BRANCH   1  20
ATOM     17  N   UNL     1      -0.492   2.287   0.000  0.00  0.00    +0.000 NA
ATOM     18  C   UNL     1       0.315   2.115   0.000  0.00  0.00    +0.000 C 
ATOM     19  C   UNL     1       0.570   1.331   0.000  0.00  0.00    +0.000 C 
ATOM     20  C   UNL     1       0.018   0.718   0.000  0.00  0.00    +0.000 C 
ATOM     21  C   UNL     1      -0.789   0.889   0.000  0.00  0.00    +0.000 C 
ATOM     22  C   UNL     1      -1.044   1.674   0.000  0.00  0.00    +0.000 C 
BRANCH  17  23
ATOM     23  C   UNL     1      -0.747   3.071   0.000  0.00  0.00    +0.000 C 
BRANCH  23  26
ATOM     24  C   UNL     1      -2.615   4.199   0.000  0.00  0.00    +0.000 C 
ATOM     25  N   UNL     1      -1.808   4.027   0.000  0.00  0.00    +0.000 NA
ATOM     26  C   UNL     1      -1.554   3.243   0.000  0.00  0.00    +0.000 C 
ATOM     27  O   UNL     1      -2.106   2.630   0.000  0.00  0.00    +0.000 OA
ENDBRANCH  23  26
ENDBRANCH  17  23
ENDBRANCH   1  20
TORSDOF 4
