REMARK  Name = JST
REMARK  4 active torsions:
REMARK  status: ('A' for Active; 'I' for Inactive)
REMARK    1  A    between atoms: N_5  and  C_15
REMARK    2  A    between atoms: C_11  and  C_12
REMARK    3  A    between atoms: C_15  and  C_16
REMARK    4  A    between atoms: C_16  and  C_17
REMARK                            x       y       z     vdW  Elec       q    Type
REMARK                         _______ _______ _______ _____ _____    ______ ____
ROOT
ATOM      1  S   UNL     1      -0.202  -0.067   0.000  0.00  0.00    +0.000 S 
ATOM      2  N   UNL     1       1.227  -0.892   0.000  0.00  0.00    +0.000 NA
ATOM      3  N   UNL     1       0.512  -1.305   0.000  0.00  0.00    +0.000 NA
ATOM      4  N   UNL     1      -0.917  -1.305   0.000  0.00  0.00    +0.000 NA
ATOM      5  C   UNL     1       1.227  -0.067   0.000  0.00  0.00    +0.000 C 
ATOM      6  C   UNL     1       0.512   0.345   0.000  0.00  0.00    +0.000 C 
ATOM      7  C   UNL     1      -0.202  -0.892   0.000  0.00  0.00    +0.000 C 
ENDROOT
BRANCH   5  14
ATOM      8 CL   UNL     1       4.085   1.583   0.000  0.00  0.00    +0.000 Cl
ATOM      9  C   UNL     1       1.941   1.170   0.000  0.00  0.00    +0.000 A 
ATOM     10  C   UNL     1       2.656   1.583   0.000  0.00  0.00    +0.000 A 
ATOM     11  C   UNL     1       3.370   1.170   0.000  0.00  0.00    +0.000 A 
ATOM     12  C   UNL     1       3.370   0.345   0.000  0.00  0.00    +0.000 A 
ATOM     13  C   UNL     1       2.656  -0.067   0.000  0.00  0.00    +0.000 A 
ATOM     14  C   UNL     1       1.941   0.345   0.000  0.00  0.00    +0.000 A 
ENDBRANCH   5  14
BRANCH   4  15
ATOM     15  C   UNL     1      -1.631  -0.892   0.000  0.00  0.00    +0.000 C 
BRANCH  15  16
ATOM     16  C   UNL     1      -2.345  -1.305   0.000  0.00  0.00    +0.000 C 
BRANCH  16  17
ATOM     17  C   UNL     1      -3.060  -0.892   0.000  0.00  0.00    +0.000 C 
ATOM     18  C   UNL     1      -3.775  -1.305   0.000  0.00  0.00    +0.000 C 
ENDBRANCH  16  17
ENDBRANCH  15  16
ENDBRANCH   4  15
TORSDOF 4
