REMARK  Name = JT5
REMARK  7 active torsions:
REMARK  status: ('A' for Active; 'I' for Inactive)
REMARK    1  A    between atoms: C_1  and  C_2
REMARK    2  A    between atoms: C_2  and  N_7
REMARK    3  A    between atoms: C_3  and  N_7
REMARK    4  A    between atoms: C_3  and  C_9
REMARK    5  A    between atoms: N_7  and  S_8
REMARK    6  A    between atoms: S_8  and  C_12
REMARK    7  A    between atoms: C_16  and  C_19
REMARK                            x       y       z     vdW  Elec       q    Type
REMARK                         _______ _______ _______ _____ _____    ______ ____
ROOT
ATOM      1  S   UNL     1       0.524   0.753   0.000  0.00  0.00    +0.000 S 
ATOM      2  O   UNL     1      -0.190   1.165   0.000  0.00  0.00    +0.000 OA
ATOM      3  O   UNL     1       1.238   0.340   0.000  0.00  0.00    +0.000 OA
ENDROOT
BRANCH   1   4
ATOM      4  C   UNL     1       0.112   0.038   0.000  0.00  0.00    +0.000 A 
ATOM      5  C   UNL     1      -0.713   0.038   0.000  0.00  0.00    +0.000 A 
ATOM      6  C   UNL     1      -1.126  -0.676   0.000  0.00  0.00    +0.000 A 
ATOM      7  C   UNL     1      -0.713  -1.391   0.000  0.00  0.00    +0.000 A 
ATOM      8  C   UNL     1       0.112  -1.391   0.000  0.00  0.00    +0.000 A 
ATOM      9  C   UNL     1       0.524  -0.676   0.000  0.00  0.00    +0.000 A 
BRANCH   7  10
ATOM     10  C   UNL     1      -1.126  -2.105   0.000  0.00  0.00    +0.000 A 
ATOM     11  C   UNL     1      -1.951  -2.105   0.000  0.00  0.00    +0.000 A 
ATOM     12  C   UNL     1      -2.363  -2.820   0.000  0.00  0.00    +0.000 A 
ATOM     13  C   UNL     1      -1.951  -3.534   0.000  0.00  0.00    +0.000 A 
ATOM     14  C   UNL     1      -1.126  -3.534   0.000  0.00  0.00    +0.000 A 
ATOM     15  C   UNL     1      -0.713  -2.820   0.000  0.00  0.00    +0.000 A 
ENDBRANCH   7  10
ENDBRANCH   1   4
BRANCH   1  16
ATOM     16  N   UNL     1       0.937   1.467   0.000  0.00  0.00    +0.000 NA
BRANCH  16  17
ATOM     17  C   UNL     1       0.524   2.182   0.000  0.00  0.00    +0.000 C 
BRANCH  17  18
ATOM     18  C   UNL     1      -0.301   2.182   0.000  0.00  0.00    +0.000 C 
ATOM     19  O   UNL     1      -0.713   2.896   0.000  0.00  0.00    +0.000 OA
ENDBRANCH  17  18
ENDBRANCH  16  17
BRANCH  16  20
ATOM     20  C   UNL     1       1.762   1.467   0.000  0.00  0.00    +0.000 C 
BRANCH  20  21
ATOM     21  C   UNL     1       2.174   2.182   0.000  0.00  0.00    +0.000 C 
ATOM     22  N   UNL     1       2.999   2.182   0.000  0.00  0.00    +0.000 NA
ATOM     23  O   UNL     1       3.412   2.896   0.000  0.00  0.00    +0.000 OA
ATOM     24  O   UNL     1       1.762   2.896   0.000  0.00  0.00    +0.000 OA
ENDBRANCH  20  21
ENDBRANCH  16  20
ENDBRANCH   1  16
TORSDOF 7
