REMARK  Name = JT6
REMARK  6 active torsions:
REMARK  status: ('A' for Active; 'I' for Inactive)
REMARK    1  A    between atoms: C_1  and  C_20
REMARK    2  A    between atoms: C_4  and  C_19
REMARK    3  A    between atoms: C_10  and  O_18
REMARK    4  A    between atoms: C_12  and  C_14
REMARK    5  A    between atoms: C_13  and  C_14
REMARK    6  A    between atoms: C_13  and  O_18
REMARK                            x       y       z     vdW  Elec       q    Type
REMARK                         _______ _______ _______ _____ _____    ______ ____
ROOT
ATOM      1  C   UNL     1      -0.245   1.172   0.000  0.00  0.00    +0.000 A 
ATOM      2  C   UNL     1      -0.959   0.760   0.000  0.00  0.00    +0.000 A 
ATOM      3  C   UNL     1      -0.245  -0.478   0.000  0.00  0.00    +0.000 A 
ATOM      4  C   UNL     1       0.470  -0.065   0.000  0.00  0.00    +0.000 A 
ATOM      5  C   UNL     1       0.470   0.760   0.000  0.00  0.00    +0.000 A 
ATOM      6  C   UNL     1      -0.959  -0.065   0.000  0.00  0.00    +0.000 A 
ENDROOT
BRANCH   6  10
ATOM      7  C   UNL     1      -3.103  -1.303   0.000  0.00  0.00    +0.000 A 
ATOM      8  C   UNL     1      -2.388  -1.715   0.000  0.00  0.00    +0.000 A 
ATOM      9  C   UNL     1      -1.674  -1.303   0.000  0.00  0.00    +0.000 A 
ATOM     10  C   UNL     1      -1.674  -0.478   0.000  0.00  0.00    +0.000 A 
ATOM     11  C   UNL     1      -3.103  -0.478   0.000  0.00  0.00    +0.000 A 
ATOM     12  C   UNL     1      -2.388  -0.065   0.000  0.00  0.00    +0.000 A 
BRANCH   7  13
ATOM     13  C   UNL     1      -3.817  -1.715   0.000  0.00  0.00    +0.000 C 
ATOM     14  N   UNL     1      -4.532  -2.128   0.000  0.00  0.00    +0.000 NA
ENDBRANCH   7  13
ENDBRANCH   6  10
BRANCH   5  15
ATOM     15  O   UNL     1       1.184   1.172   0.000  0.00  0.00    +0.000 OA
BRANCH  15  16
ATOM     16  C   UNL     1       1.899   0.760   0.000  0.00  0.00    +0.000 C 
BRANCH  16  17
ATOM     17  C   UNL     1       2.613   1.172   0.000  0.00  0.00    +0.000 C 
BRANCH  17  18
ATOM     18  C   UNL     1       3.328   0.760   0.000  0.00  0.00    +0.000 C 
ATOM     19  N   UNL     1       4.042   1.172   0.000  0.00  0.00    +0.000 NA
ATOM     20  O   UNL     1       3.328  -0.065   0.000  0.00  0.00    +0.000 OA
ATOM     21  O   UNL     1       4.756   0.760   0.000  0.00  0.00    +0.000 OA
ENDBRANCH  17  18
ENDBRANCH  16  17
ENDBRANCH  15  16
ENDBRANCH   5  15
TORSDOF 6
