REMARK  Name = JTP
REMARK  4 active torsions:
REMARK  status: ('A' for Active; 'I' for Inactive)
REMARK    1  A    between atoms: C_2  and  N_3
REMARK    2  A    between atoms: C_2  and  C_30
REMARK    3  A    between atoms: C_4  and  C_5
REMARK    4  A    between atoms: C_21  and  C_22
REMARK                            x       y       z     vdW  Elec       q    Type
REMARK                         _______ _______ _______ _____ _____    ______ ____
ROOT
ATOM      1  C   UNL     1       4.088  -1.086   0.000  0.00  0.00    +0.000 A 
ATOM      2  C   UNL     1       4.044  -0.262   0.000  0.00  0.00    +0.000 A 
ATOM      3  C   UNL     1       3.308   0.111   0.000  0.00  0.00    +0.000 A 
ATOM      4  C   UNL     1       2.617  -0.339   0.000  0.00  0.00    +0.000 A 
ATOM      5  C   UNL     1       2.662  -1.163   0.000  0.00  0.00    +0.000 A 
ATOM      6  N   UNL     1       1.892  -1.460   0.000  0.00  0.00    +0.000 N 
ATOM      7  C   UNL     1       1.371  -0.820   0.000  0.00  0.00    +0.000 A 
ATOM      8  C   UNL     1       0.546  -0.828   0.000  0.00  0.00    +0.000 A 
ATOM      9  C   UNL     1       0.038  -1.478   0.000  0.00  0.00    +0.000 A 
ATOM     10  C   UNL     1      -0.779  -1.362   0.000  0.00  0.00    +0.000 A 
ATOM     11  C   UNL     1      -1.087  -0.597   0.000  0.00  0.00    +0.000 A 
ATOM     12  C   UNL     1      -0.579   0.053   0.000  0.00  0.00    +0.000 A 
ATOM     13  C   UNL     1       0.238  -0.063   0.000  0.00  0.00    +0.000 A 
ATOM     14  O   UNL     1       0.229  -2.280   0.000  0.00  0.00    +0.000 OA
ATOM     15  C   UNL     1       0.976  -2.631   0.000  0.00  0.00    +0.000 C 
ATOM     16  C   UNL     1       1.716  -2.266   0.000  0.00  0.00    +0.000 C 
ATOM     17  C   UNL     1       1.819  -0.127   0.000  0.00  0.00    +0.000 A 
ATOM     18  C   UNL     1       3.397  -1.536   0.000  0.00  0.00    +0.000 A 
ENDROOT
BRANCH  17  19
ATOM     19  C   UNL     1       1.522   0.642   0.000  0.00  0.00    +0.000 C 
ATOM     20  C   UNL     1       2.040   1.284   0.000  0.00  0.00    +0.000 C 
ATOM     21  C   UNL     1       1.743   2.054   0.000  0.00  0.00    +0.000 C 
ATOM     22  C   UNL     1       0.928   2.182   0.000  0.00  0.00    +0.000 C 
ATOM     23  C   UNL     1       0.410   1.540   0.000  0.00  0.00    +0.000 C 
ATOM     24  C   UNL     1       0.707   0.770   0.000  0.00  0.00    +0.000 C 
ENDBRANCH  17  19
BRANCH   1  26
ATOM     25  N   UNL     1       5.515  -1.008   0.000  0.00  0.00    +0.000 NA
ATOM     26  C   UNL     1       4.824  -1.459   0.000  0.00  0.00    +0.000 C 
ATOM     27  O   UNL     1       4.869  -2.283   0.000  0.00  0.00    +0.000 OA
BRANCH  25  29
ATOM     28  C   UNL     1       5.878  -2.117   0.000  0.00  0.00    +0.000 C 
ATOM     29  C   UNL     1       6.251  -1.381   0.000  0.00  0.00    +0.000 C 
ATOM     30  C   UNL     1       6.624  -0.645   0.000  0.00  0.00    +0.000 C 
BRANCH  29  31
ATOM     31  C   UNL     1       6.987  -1.754   0.000  0.00  0.00    +0.000 C 
ATOM     32  O   UNL     1       7.678  -1.304   0.000  0.00  0.00    +0.000 OA
ATOM     33  O   UNL     1       7.032  -2.578   0.000  0.00  0.00    +0.000 OA
ENDBRANCH  29  31
ENDBRANCH  25  29
ENDBRANCH   1  26
TORSDOF 4
