REMARK  Name = K01
REMARK  5 active torsions:
REMARK  status: ('A' for Active; 'I' for Inactive)
REMARK    1  A    between atoms: C_2  and  C_3
REMARK    2  A    between atoms: N_8  and  C_9
REMARK    3  A    between atoms: C_17  and  C_18
REMARK    4  A    between atoms: N_20  and  C_21
REMARK    5  A    between atoms: N_20  and  C_23
REMARK                            x       y       z     vdW  Elec       q    Type
REMARK                         _______ _______ _______ _____ _____    ______ ____
ROOT
ATOM      1  C   UNL     1      -0.183  -0.313   0.000  0.00  0.00    +0.000 A 
ATOM      2  S   UNL     1       0.302  -0.980   0.000  0.00  0.00    +0.000 S 
ATOM      3  C   UNL     1       1.087  -0.725   0.000  0.00  0.00    +0.000 A 
ATOM      4  C   UNL     1       1.087   0.100   0.000  0.00  0.00    +0.000 A 
ATOM      5  C   UNL     1       1.801   0.512   0.000  0.00  0.00    +0.000 C 
ATOM      6  C   UNL     1       2.516   0.100   0.000  0.00  0.00    +0.000 C 
ATOM      7  C   UNL     1       2.516  -0.725   0.000  0.00  0.00    +0.000 C 
ATOM      8  C   UNL     1       1.801  -1.138   0.000  0.00  0.00    +0.000 C 
ATOM      9  C   UNL     1       0.302   0.355   0.000  0.00  0.00    +0.000 A 
ENDROOT
BRANCH   1  12
ATOM     10  O   UNL     1      -1.008  -1.742   0.000  0.00  0.00    +0.000 OA
ATOM     11  C   UNL     1      -1.420  -1.027   0.000  0.00  0.00    +0.000 C 
ATOM     12  N   UNL     1      -1.008  -0.313   0.000  0.00  0.00    +0.000 NA
BRANCH  11  13
ATOM     13  C   UNL     1      -2.245  -1.027   0.000  0.00  0.00    +0.000 A 
ATOM     14  S   UNL     1      -2.730  -0.360   0.000  0.00  0.00    +0.000 S 
ATOM     15  C   UNL     1      -3.515  -0.615   0.000  0.00  0.00    +0.000 A 
ATOM     16  C   UNL     1      -3.515  -1.440   0.000  0.00  0.00    +0.000 A 
ATOM     17  C   UNL     1      -2.730  -1.694   0.000  0.00  0.00    +0.000 A 
ENDBRANCH  11  13
ENDBRANCH   1  12
BRANCH   9  18
ATOM     18  C   UNL     1       0.047   1.139   0.000  0.00  0.00    +0.000 C 
ATOM     19  O   UNL     1       0.599   1.753   0.000  0.00  0.00    +0.000 OA
ATOM     20  N   UNL     1      -0.760   1.311   0.000  0.00  0.00    +0.000 N 
BRANCH  20  21
ATOM     21  C   UNL     1      -1.015   2.096   0.000  0.00  0.00    +0.000 C 
ATOM     22  C   UNL     1      -0.463   2.709   0.000  0.00  0.00    +0.000 C 
ENDBRANCH  20  21
BRANCH  20  23
ATOM     23  C   UNL     1      -1.312   0.698   0.000  0.00  0.00    +0.000 C 
ATOM     24  C   UNL     1      -2.119   0.869   0.000  0.00  0.00    +0.000 C 
ENDBRANCH  20  23
ENDBRANCH   9  18
TORSDOF 5
