REMARK  Name = K02
REMARK  5 active torsions:
REMARK  status: ('A' for Active; 'I' for Inactive)
REMARK    1  A    between atoms: C_2  and  C_3
REMARK    2  A    between atoms: N_8  and  C_9
REMARK    3  A    between atoms: C_18  and  C_19
REMARK    4  A    between atoms: N_21  and  C_22
REMARK    5  A    between atoms: N_21  and  C_24
REMARK                            x       y       z     vdW  Elec       q    Type
REMARK                         _______ _______ _______ _____ _____    ______ ____
ROOT
ATOM      1  C   UNL     1      -0.331  -1.633   0.000  0.00  0.00    +0.000 A 
ATOM      2  S   UNL     1       0.153  -2.300   0.000  0.00  0.00    +0.000 S 
ATOM      3  C   UNL     1       0.938  -2.045   0.000  0.00  0.00    +0.000 A 
ATOM      4  C   UNL     1       0.938  -1.220   0.000  0.00  0.00    +0.000 A 
ATOM      5  C   UNL     1       1.653  -0.808   0.000  0.00  0.00    +0.000 C 
ATOM      6  C   UNL     1       2.367  -1.220   0.000  0.00  0.00    +0.000 C 
ATOM      7  C   UNL     1       3.082  -0.808   0.000  0.00  0.00    +0.000 C 
ATOM      8  C   UNL     1       2.367  -2.045   0.000  0.00  0.00    +0.000 C 
ATOM      9  C   UNL     1       1.653  -2.458   0.000  0.00  0.00    +0.000 C 
ATOM     10  C   UNL     1       0.153  -0.965   0.000  0.00  0.00    +0.000 A 
ENDROOT
BRANCH   1  13
ATOM     11  O   UNL     1      -1.156  -3.062   0.000  0.00  0.00    +0.000 OA
ATOM     12  C   UNL     1      -1.569  -2.347   0.000  0.00  0.00    +0.000 C 
ATOM     13  N   UNL     1      -1.156  -1.633   0.000  0.00  0.00    +0.000 NA
BRANCH  12  14
ATOM     14  C   UNL     1      -2.394  -2.347   0.000  0.00  0.00    +0.000 A 
ATOM     15  S   UNL     1      -2.879  -3.014   0.000  0.00  0.00    +0.000 S 
ATOM     16  C   UNL     1      -3.663  -2.760   0.000  0.00  0.00    +0.000 A 
ATOM     17  C   UNL     1      -3.663  -1.935   0.000  0.00  0.00    +0.000 A 
ATOM     18  C   UNL     1      -2.879  -1.680   0.000  0.00  0.00    +0.000 A 
ENDBRANCH  12  14
ENDBRANCH   1  13
BRANCH  10  19
ATOM     19  C   UNL     1      -0.101  -0.180   0.000  0.00  0.00    +0.000 C 
ATOM     20  O   UNL     1       0.451   0.433   0.000  0.00  0.00    +0.000 OA
ATOM     21  N   UNL     1      -0.908  -0.009   0.000  0.00  0.00    +0.000 N 
BRANCH  21  22
ATOM     22  C   UNL     1      -1.460  -0.622   0.000  0.00  0.00    +0.000 C 
ATOM     23  C   UNL     1      -2.267  -0.451   0.000  0.00  0.00    +0.000 C 
ENDBRANCH  21  22
BRANCH  21  24
ATOM     24  C   UNL     1      -1.163   0.776   0.000  0.00  0.00    +0.000 C 
ATOM     25  C   UNL     1      -0.611   1.389   0.000  0.00  0.00    +0.000 C 
ENDBRANCH  21  24
ENDBRANCH  10  19
TORSDOF 5
