REMARK  Name = K05
REMARK  4 active torsions:
REMARK  status: ('A' for Active; 'I' for Inactive)
REMARK    1  A    between atoms: N_1  and  N_2
REMARK    2  A    between atoms: C_3  and  C_5
REMARK    3  A    between atoms: C_13  and  C_14
REMARK    4  A    between atoms: C_15  and  O_16
REMARK                            x       y       z     vdW  Elec       q    Type
REMARK                         _______ _______ _______ _____ _____    ______ ____
ROOT
ATOM      1  N   UNL     1       2.508  -0.823   0.000  0.00  0.00    +0.000 NA
ATOM      2  C   UNL     1       3.222  -0.410   0.000  0.00  0.00    +0.000 C 
ENDROOT
BRANCH   2   3
ATOM      3  C   UNL     1       3.222   0.414   0.000  0.00  0.00    +0.000 A 
ATOM      4  C   UNL     1       2.508   0.827   0.000  0.00  0.00    +0.000 A 
ATOM      5  C   UNL     1       2.508   1.652   0.000  0.00  0.00    +0.000 A 
ATOM      6  C   UNL     1       3.222   2.064   0.000  0.00  0.00    +0.000 A 
ATOM      7  C   UNL     1       3.937   1.652   0.000  0.00  0.00    +0.000 A 
ATOM      8  C   UNL     1       4.651   2.064   0.000  0.00  0.00    +0.000 A 
ATOM      9  C   UNL     1       5.366   1.652   0.000  0.00  0.00    +0.000 A 
ATOM     10  C   UNL     1       5.366   0.827   0.000  0.00  0.00    +0.000 A 
ATOM     11  C   UNL     1       4.651   0.414   0.000  0.00  0.00    +0.000 A 
ATOM     12  C   UNL     1       3.937   0.827   0.000  0.00  0.00    +0.000 A 
BRANCH   4  13
ATOM     13  O   UNL     1       1.793   0.414   0.000  0.00  0.00    +0.000 OA
ATOM     14  C   UNL     1       1.079   0.827   0.000  0.00  0.00    +0.000 C 
ENDBRANCH   4  13
ENDBRANCH   2   3
BRANCH   1  15
ATOM     15  N   UNL     1       2.508  -1.648   0.000  0.00  0.00    +0.000 NA
ATOM     16  C   UNL     1       1.793  -2.061   0.000  0.00  0.00    +0.000 C 
ATOM     17  O   UNL     1       1.079  -1.648   0.000  0.00  0.00    +0.000 OA
BRANCH  16  18
ATOM     18  C   UNL     1       1.793  -2.885   0.000  0.00  0.00    +0.000 A 
ATOM     19  C   UNL     1       2.508  -3.298   0.000  0.00  0.00    +0.000 A 
ATOM     20  C   UNL     1       2.508  -4.123   0.000  0.00  0.00    +0.000 A 
ATOM     21  C   UNL     1       1.793  -4.535   0.000  0.00  0.00    +0.000 A 
ATOM     22  C   UNL     1       1.079  -4.123   0.000  0.00  0.00    +0.000 A 
ATOM     23  C   UNL     1       1.079  -3.298   0.000  0.00  0.00    +0.000 A 
ATOM     24  O   UNL     1       1.793  -5.361   0.000  0.00  0.00    +0.000 OA
ATOM     25  O   UNL     1       3.222  -4.535   0.000  0.00  0.00    +0.000 OA
ENDBRANCH  16  18
ENDBRANCH   1  15
TORSDOF 4
