REMARK  Name = K10
REMARK  3 active torsions:
REMARK  status: ('A' for Active; 'I' for Inactive)
REMARK    1  A    between atoms: C_8  and  C_15
REMARK    2  A    between atoms: N_10  and  C_11
REMARK    3  A    between atoms: C_15  and  C_16
REMARK                            x       y       z     vdW  Elec       q    Type
REMARK                         _______ _______ _______ _____ _____    ______ ____
ROOT
ATOM      1  N   UNL     1       0.970   1.098   0.000  0.00  0.00    +0.000 NA
ATOM      2  C   UNL     1       0.970   0.273   0.000  0.00  0.00    +0.000 A 
ATOM      3  N   UNL     1       1.685  -0.140   0.000  0.00  0.00    +0.000 NA
ATOM      4  C   UNL     1       1.685  -0.965   0.000  0.00  0.00    +0.000 A 
ATOM      5  N   UNL     1       0.970  -1.377   0.000  0.00  0.00    +0.000 NA
ATOM      6  C   UNL     1       0.256  -0.965   0.000  0.00  0.00    +0.000 A 
ATOM      7  C   UNL     1       0.256  -0.140   0.000  0.00  0.00    +0.000 A 
ATOM      8  C   UNL     1      -0.529   0.115   0.000  0.00  0.00    +0.000 A 
ATOM      9  N   UNL     1      -1.014  -0.552   0.000  0.00  0.00    +0.000 NA
ATOM     10  N   UNL     1      -0.529  -1.220   0.000  0.00  0.00    +0.000 N 
ENDROOT
BRANCH  10  11
ATOM     11  C   UNL     1      -0.784  -2.005   0.000  0.00  0.00    +0.000 C 
ATOM     12  C   UNL     1      -1.039  -2.789   0.000  0.00  0.00    +0.000 C 
ATOM     13  C   UNL     1      -1.569  -1.750   0.000  0.00  0.00    +0.000 C 
ATOM     14  C   UNL     1       0.001  -2.259   0.000  0.00  0.00    +0.000 C 
ENDBRANCH  10  11
BRANCH   8  15
ATOM     15  C   UNL     1      -0.784   0.900   0.000  0.00  0.00    +0.000 C 
BRANCH  15  16
ATOM     16  C   UNL     1      -0.232   1.513   0.000  0.00  0.00    +0.000 A 
ATOM     17  C   UNL     1       0.575   1.341   0.000  0.00  0.00    +0.000 A 
ATOM     18  C   UNL     1       1.127   1.954   0.000  0.00  0.00    +0.000 A 
ATOM     19  C   UNL     1       0.872   2.739   0.000  0.00  0.00    +0.000 A 
ATOM     20  C   UNL     1       0.065   2.910   0.000  0.00  0.00    +0.000 A 
ATOM     21  C   UNL     1      -0.487   2.297   0.000  0.00  0.00    +0.000 A 
ATOM     22  C   UNL     1      -1.294   2.469   0.000  0.00  0.00    +0.000 C 
ATOM     23  C   UNL     1       1.934   1.783   0.000  0.00  0.00    +0.000 C 
ENDBRANCH  15  16
ENDBRANCH   8  15
TORSDOF 3
