REMARK  Name = K25
REMARK  0 active torsions:
REMARK  status: ('A' for Active; 'I' for Inactive)
REMARK                            x       y       z     vdW  Elec       q    Type
REMARK                         _______ _______ _______ _____ _____    ______ ____
ROOT
ATOM      1  C   UNL     1       3.542   0.530   0.000  0.00  0.00    +0.000 A 
ATOM      2  C   UNL     1       3.542  -0.295   0.000  0.00  0.00    +0.000 A 
ATOM      3  C   UNL     1       2.828  -0.707   0.000  0.00  0.00    +0.000 A 
ATOM      4  C   UNL     1       2.828   0.943   0.000  0.00  0.00    +0.000 A 
ATOM      5  N   UNL     1       1.328  -0.550   0.000  0.00  0.00    +0.000 NA
ATOM      6  C   UNL     1       2.113   0.530   0.000  0.00  0.00    +0.000 A 
ATOM      7  C   UNL     1       2.113  -0.295   0.000  0.00  0.00    +0.000 A 
ATOM      8  C   UNL     1       0.844   0.118   0.000  0.00  0.00    +0.000 A 
ATOM      9  N   UNL     1       1.328   0.785   0.000  0.00  0.00    +0.000 NA
ATOM     10  N   UNL     1       0.018   0.118   0.000  0.00  0.00    +0.000 N 
ATOM     11  C   UNL     1      -0.394  -0.597   0.000  0.00  0.00    +0.000 C 
ATOM     12  C   UNL     1      -0.394   0.832   0.000  0.00  0.00    +0.000 C 
ATOM     13 BR   UNL     1       4.256   0.943   0.000  0.00  0.00    +0.000 Br
ATOM     14 BR   UNL     1       4.256  -0.707   0.000  0.00  0.00    +0.000 Br
ATOM     15 BR   UNL     1       2.828  -1.532   0.000  0.00  0.00    +0.000 Br
ATOM     16 BR   UNL     1       2.828   1.768   0.000  0.00  0.00    +0.000 Br
ENDROOT
TORSDOF 0
