REMARK  Name = K2C
REMARK  0 active torsions:
REMARK  status: ('A' for Active; 'I' for Inactive)
REMARK                            x       y       z     vdW  Elec       q    Type
REMARK                         _______ _______ _______ _____ _____    ______ ____
ROOT
ATOM      1  C   UNL     1       0.719   1.563   0.000  0.00  0.00    +0.000 C 
ATOM      2  N   UNL     1       0.052   2.047   0.000  0.00  0.00    +0.000 NA
ATOM      3  C   UNL     1       0.464   0.778   0.000  0.00  0.00    +0.000 A 
ATOM      4  C   UNL     1       0.877   0.064   0.000  0.00  0.00    +0.000 A 
ATOM      5  C   UNL     1       0.464  -0.651   0.000  0.00  0.00    +0.000 A 
ATOM      6  N   UNL     1       1.016  -1.264   0.000  0.00  0.00    +0.000 NA
ATOM      7  C   UNL     1       1.770  -0.928   0.000  0.00  0.00    +0.000 A 
ATOM      8  C   UNL     1       1.684  -0.108   0.000  0.00  0.00    +0.000 A 
ATOM      9  C   UNL     1       2.351   0.377   0.000  0.00  0.00    +0.000 A 
ATOM     10  C   UNL     1       3.105   0.041   0.000  0.00  0.00    +0.000 A 
ATOM     11  C   UNL     1       3.191  -0.779   0.000  0.00  0.00    +0.000 A 
ATOM     12  C   UNL     1       2.524  -1.264   0.000  0.00  0.00    +0.000 A 
ATOM     13  O   UNL     1      -1.400   1.817   0.000  0.00  0.00    +0.000 OA
ATOM     14  C   UNL     1      -0.616   1.563   0.000  0.00  0.00    +0.000 C 
ATOM     15  C   UNL     1      -0.361   0.778   0.000  0.00  0.00    +0.000 A 
ATOM     16  C   UNL     1      -0.773   0.064   0.000  0.00  0.00    +0.000 A 
ATOM     17  C   UNL     1      -0.361  -0.651   0.000  0.00  0.00    +0.000 A 
ATOM     18  N   UNL     1      -0.913  -1.264   0.000  0.00  0.00    +0.000 NA
ATOM     19  C   UNL     1      -1.666  -0.928   0.000  0.00  0.00    +0.000 A 
ATOM     20  C   UNL     1      -1.580  -0.108   0.000  0.00  0.00    +0.000 A 
ATOM     21  C   UNL     1      -2.248   0.377   0.000  0.00  0.00    +0.000 A 
ATOM     22  C   UNL     1      -3.001   0.041   0.000  0.00  0.00    +0.000 A 
ATOM     23  C   UNL     1      -3.087  -0.779   0.000  0.00  0.00    +0.000 A 
ATOM     24  C   UNL     1      -2.420  -1.264   0.000  0.00  0.00    +0.000 A 
ENDROOT
TORSDOF 0
