REMARK  Name = K44
REMARK  0 active torsions:
REMARK  status: ('A' for Active; 'I' for Inactive)
REMARK                            x       y       z     vdW  Elec       q    Type
REMARK                         _______ _______ _______ _____ _____    ______ ____
ROOT
ATOM      1  C   UNL     1       3.539  -0.180   0.000  0.00  0.00    +0.000 A 
ATOM      2  C   UNL     1       3.300  -0.970   0.000  0.00  0.00    +0.000 A 
ATOM      3  C   UNL     1       2.496  -1.157   0.000  0.00  0.00    +0.000 A 
ATOM      4  C   UNL     1       2.975   0.422   0.000  0.00  0.00    +0.000 A 
ATOM      5  N   UNL     1       1.495   0.706   0.000  0.00  0.00    +0.000 NA
ATOM      6  C   UNL     1       2.172   0.234   0.000  0.00  0.00    +0.000 A 
ATOM      7  C   UNL     1       1.932  -0.555   0.000  0.00  0.00    +0.000 A 
ATOM      8  N   UNL     1       1.107  -0.571   0.000  0.00  0.00    +0.000 N 
ATOM      9  C   UNL     1       0.837   0.208   0.000  0.00  0.00    +0.000 A 
ATOM     10  N   UNL     1       0.012   0.192   0.000  0.00  0.00    +0.000 N 
ATOM     11  C   UNL     1      -0.486   0.850   0.000  0.00  0.00    +0.000 C 
ATOM     12  C   UNL     1       0.450  -1.069   0.000  0.00  0.00    +0.000 C 
ATOM     13  C   UNL     1      -0.227  -0.598   0.000  0.00  0.00    +0.000 C 
ATOM     14 BR   UNL     1       3.215   1.211   0.000  0.00  0.00    +0.000 Br
ATOM     15 BR   UNL     1       4.343   0.007   0.000  0.00  0.00    +0.000 Br
ATOM     16 BR   UNL     1       3.864  -1.572   0.000  0.00  0.00    +0.000 Br
ATOM     17 BR   UNL     1       2.257  -1.947   0.000  0.00  0.00    +0.000 Br
ENDROOT
TORSDOF 0
