REMARK  Name = K7I
REMARK  7 active torsions:
REMARK  status: ('A' for Active; 'I' for Inactive)
REMARK    1  A    between atoms: C_6  and  C_7
REMARK    2  A    between atoms: C_7  and  C_8
REMARK    3  A    between atoms: C_8  and  N_10
REMARK    4  A    between atoms: C_8  and  C_21
REMARK    5  A    between atoms: C_11  and  C_13
REMARK    6  A    between atoms: C_13  and  N_15
REMARK    7  A    between atoms: C_16  and  C_18
REMARK                            x       y       z     vdW  Elec       q    Type
REMARK                         _______ _______ _______ _____ _____    ______ ____
ROOT
ATOM      1  C   UNL     1       0.893  -0.329   0.000  0.00  0.00    +0.000 C 
ENDROOT
BRANCH   1   2
ATOM      2  N   UNL     1       0.083  -0.485   0.000  0.00  0.00    +0.000 NA
ATOM      3  C   UNL     1      -0.457   0.138   0.000  0.00  0.00    +0.000 C 
ATOM      4  O   UNL     1      -0.187   0.918   0.000  0.00  0.00    +0.000 OA
BRANCH   3   5
ATOM      5  C   UNL     1      -1.267  -0.018   0.000  0.00  0.00    +0.000 C 
ATOM      6  C   UNL     1      -1.537  -0.797   0.000  0.00  0.00    +0.000 C 
BRANCH   5   7
ATOM      7  N   UNL     1      -1.807   0.606   0.000  0.00  0.00    +0.000 NA
ATOM      8  C   UNL     1      -2.618   0.450   0.000  0.00  0.00    +0.000 C 
ATOM      9  O   UNL     1      -2.888  -0.329   0.000  0.00  0.00    +0.000 OA
BRANCH   8  10
ATOM     10  C   UNL     1      -3.158   1.074   0.000  0.00  0.00    +0.000 C 
ATOM     11  C   UNL     1      -3.968   0.918   0.000  0.00  0.00    +0.000 C 
ATOM     12  N   UNL     1      -2.888   1.853   0.000  0.00  0.00    +0.000 NA
ENDBRANCH   8  10
ENDBRANCH   5   7
ENDBRANCH   3   5
ENDBRANCH   1   2
BRANCH   1  14
ATOM     13  O   UNL     1       0.623   1.074   0.000  0.00  0.00    +0.000 OA
ATOM     14  C   UNL     1       1.163   0.450   0.000  0.00  0.00    +0.000 C 
ATOM     15  C   UNL     1       1.973   0.606   0.000  0.00  0.00    +0.000 C 
ENDBRANCH   1  14
BRANCH   1  16
ATOM     16  C   UNL     1       1.433  -0.953   0.000  0.00  0.00    +0.000 C 
BRANCH  16  22
ATOM     17  C   UNL     1       2.513  -0.018   0.000  0.00  0.00    +0.000 A 
ATOM     18  C   UNL     1       3.323   0.138   0.000  0.00  0.00    +0.000 A 
ATOM     19  C   UNL     1       3.864  -0.485   0.000  0.00  0.00    +0.000 A 
ATOM     20  C   UNL     1       3.593  -1.265   0.000  0.00  0.00    +0.000 A 
ATOM     21  C   UNL     1       2.783  -1.421   0.000  0.00  0.00    +0.000 A 
ATOM     22  C   UNL     1       2.243  -0.797   0.000  0.00  0.00    +0.000 A 
ENDBRANCH  16  22
ENDBRANCH   1  16
TORSDOF 7
