REMARK  Name = K88
REMARK  3 active torsions:
REMARK  status: ('A' for Active; 'I' for Inactive)
REMARK    1  A    between atoms: N_2  and  S_4
REMARK    2  A    between atoms: S_4  and  C_7
REMARK    3  A    between atoms: C_17  and  C_18
REMARK                            x       y       z     vdW  Elec       q    Type
REMARK                         _______ _______ _______ _____ _____    ______ ____
ROOT
ATOM      1  C   UNL     1      -1.898  -0.391   0.000  0.00  0.00    +0.000 A 
ATOM      2  C   UNL     1      -1.114  -0.136   0.000  0.00  0.00    +0.000 A 
ATOM      3  C   UNL     1      -0.500  -0.688   0.000  0.00  0.00    +0.000 A 
ATOM      4  C   UNL     1      -2.070  -1.197   0.000  0.00  0.00    +0.000 A 
ATOM      5  C   UNL     1      -1.457  -1.750   0.000  0.00  0.00    +0.000 A 
ATOM      6  C   UNL     1      -0.672  -1.494   0.000  0.00  0.00    +0.000 A 
ATOM      7  N   UNL     1       0.042  -1.907   0.000  0.00  0.00    +0.000 NA
ATOM      8  C   UNL     1       0.655  -1.355   0.000  0.00  0.00    +0.000 C 
ATOM      9  O   UNL     1       1.462  -1.526   0.000  0.00  0.00    +0.000 OA
ATOM     10  C   UNL     1       0.320  -0.601   0.000  0.00  0.00    +0.000 C 
ATOM     11  C   UNL     1       0.732   0.113   0.000  0.00  0.00    +0.000 C 
ENDROOT
BRANCH  11  12
ATOM     12  C   UNL     1       1.557   0.113   0.000  0.00  0.00    +0.000 A 
ATOM     13  C   UNL     1       2.042   0.781   0.000  0.00  0.00    +0.000 A 
ATOM     14  C   UNL     1       2.827   0.526   0.000  0.00  0.00    +0.000 A 
ATOM     15  C   UNL     1       3.541   0.938   0.000  0.00  0.00    +0.000 C 
ATOM     16  C   UNL     1       4.256   0.526   0.000  0.00  0.00    +0.000 C 
ATOM     17  C   UNL     1       4.256  -0.299   0.000  0.00  0.00    +0.000 C 
ATOM     18  C   UNL     1       3.541  -0.712   0.000  0.00  0.00    +0.000 C 
ATOM     19  C   UNL     1       2.827  -0.299   0.000  0.00  0.00    +0.000 A 
ATOM     20  N   UNL     1       2.042  -0.554   0.000  0.00  0.00    +0.000 NA
ENDBRANCH  11  12
BRANCH   1  21
ATOM     21  S   UNL     1      -2.511   0.162   0.000  0.00  0.00    +0.000 S 
ATOM     22  O   UNL     1      -3.063  -0.452   0.000  0.00  0.00    +0.000 OA
ATOM     23  O   UNL     1      -1.959   0.775   0.000  0.00  0.00    +0.000 OA
BRANCH  21  25
ATOM     24  C   UNL     1      -3.909   0.459   0.000  0.00  0.00    +0.000 C 
ATOM     25  N   UNL     1      -3.124   0.714   0.000  0.00  0.00    +0.000 NA
ATOM     26  C   UNL     1      -2.953   1.521   0.000  0.00  0.00    +0.000 C 
ENDBRANCH  21  25
ENDBRANCH   1  21
TORSDOF 3
