REMARK  Name = KCP
REMARK  6 active torsions:
REMARK  status: ('A' for Active; 'I' for Inactive)
REMARK    1  A    between atoms: CA_5  and  C_6
REMARK    2  A    between atoms: C_10  and  CA_11
REMARK    3  A    between atoms: CA_11  and  C_12
REMARK    4  A    between atoms: CA_11  and  N_15
REMARK    5  A    between atoms: C_16  and  C_18
REMARK    6  A    between atoms: C_18  and  C_19
REMARK                            x       y       z     vdW  Elec       q    Type
REMARK                         _______ _______ _______ _____ _____    ______ ____
ROOT
ATOM      1  CA  UNL     1      -0.429  -0.240   0.000  0.00  0.00    +0.000 C 
ENDROOT
BRANCH   1   8
ATOM      2  S   UNL     1      -1.667   0.474   0.000  0.00  0.00    +0.000 S 
ATOM      3  C   UNL     1      -2.079   1.189   0.000  0.00  0.00    +0.000 C 
ATOM      4  C   UNL     1      -1.667   1.903   0.000  0.00  0.00    +0.000 C 
ATOM      5  C   UNL     1      -2.079   2.618   0.000  0.00  0.00    +0.000 C 
ATOM      6  CA  UNL     1      -0.842   1.903   0.000  0.00  0.00    +0.000 C 
ATOM      7  N   UNL     1      -0.429   1.189   0.000  0.00  0.00    +0.000 NA
ATOM      8  C   UNL     1      -0.842   0.474   0.000  0.00  0.00    +0.000 C 
BRANCH   6   9
ATOM      9  C   UNL     1      -0.429   2.618   0.000  0.00  0.00    +0.000 C 
ATOM     10  O   UNL     1       0.396   2.618   0.000  0.00  0.00    +0.000 OA
ATOM     11  OXT UNL     1      -0.842   3.332   0.000  0.00  0.00    +0.000 OA
ENDBRANCH   6   9
ENDBRANCH   1   8
BRANCH   1  12
ATOM     12  N   UNL     1       0.396  -0.240   0.000  0.00  0.00    +0.000 NA
ATOM     13  C   UNL     1       0.808  -0.955   0.000  0.00  0.00    +0.000 C 
ATOM     14  O   UNL     1       0.396  -1.669   0.000  0.00  0.00    +0.000 OA
BRANCH  13  15
ATOM     15  C   UNL     1       1.633  -0.955   0.000  0.00  0.00    +0.000 C 
BRANCH  15  16
ATOM     16  C   UNL     1       2.046  -1.669   0.000  0.00  0.00    +0.000 A 
ATOM     17  C   UNL     1       2.866  -1.756   0.000  0.00  0.00    +0.000 A 
ATOM     18  C   UNL     1       3.038  -2.562   0.000  0.00  0.00    +0.000 A 
ATOM     19  C   UNL     1       2.323  -2.975   0.000  0.00  0.00    +0.000 A 
ATOM     20  S   UNL     1       1.710  -2.423   0.000  0.00  0.00    +0.000 S 
ENDBRANCH  15  16
ENDBRANCH  13  15
ENDBRANCH   1  12
BRANCH   1  21
ATOM     21  C   UNL     1      -0.842  -0.955   0.000  0.00  0.00    +0.000 C 
ATOM     22  O   UNL     1      -0.429  -1.669   0.000  0.00  0.00    +0.000 OA
ATOM     23  OXT UNL     1      -1.667  -0.955   0.000  0.00  0.00    +0.000 OA
ENDBRANCH   1  21
TORSDOF 6
