REMARK  Name = KHP
REMARK  4 active torsions:
REMARK  status: ('A' for Active; 'I' for Inactive)
REMARK    1  A    between atoms: C_2  and  C_3
REMARK    2  A    between atoms: C_5  and  O_10
REMARK    3  A    between atoms: O_10  and  C_11
REMARK    4  A    between atoms: C_14  and  N_15
REMARK                            x       y       z     vdW  Elec       q    Type
REMARK                         _______ _______ _______ _____ _____    ______ ____
ROOT
ATOM      1  O   UNL     1       0.707  -0.178   0.000  0.00  0.00    +0.000 OA
ENDROOT
BRANCH   1   4
ATOM      2  C   UNL     1      -0.191   1.759   0.000  0.00  0.00    +0.000 C 
ATOM      3  O   UNL     1       0.477   1.274   0.000  0.00  0.00    +0.000 OA
ATOM      4  C   UNL     1       0.222   0.489   0.000  0.00  0.00    +0.000 C 
ATOM      5  C   UNL     1      -0.603   0.489   0.000  0.00  0.00    +0.000 C 
ATOM      6  O   UNL     1      -1.088  -0.178   0.000  0.00  0.00    +0.000 OA
ATOM      7  C   UNL     1      -0.858   1.274   0.000  0.00  0.00    +0.000 C 
ATOM      8  O   UNL     1      -1.643   1.529   0.000  0.00  0.00    +0.000 OA
BRANCH   2  10
ATOM      9  O   UNL     1      -0.905   2.996   0.000  0.00  0.00    +0.000 OA
ATOM     10  C   UNL     1      -0.191   2.584   0.000  0.00  0.00    +0.000 C 
ENDBRANCH   2  10
ENDBRANCH   1   4
BRANCH   1  11
ATOM     11  C   UNL     1       0.371  -0.932   0.000  0.00  0.00    +0.000 A 
ATOM     12  C   UNL     1       0.856  -1.599   0.000  0.00  0.00    +0.000 A 
ATOM     13  C   UNL     1       0.521  -2.353   0.000  0.00  0.00    +0.000 A 
ATOM     14  C   UNL     1      -0.300  -2.439   0.000  0.00  0.00    +0.000 A 
ATOM     15  C   UNL     1      -0.785  -1.772   0.000  0.00  0.00    +0.000 A 
ATOM     16  C   UNL     1      -0.449  -1.018   0.000  0.00  0.00    +0.000 A 
BRANCH  14  17
ATOM     17  N   UNL     1      -0.635  -3.193   0.000  0.00  0.00    +0.000 N 
ATOM     18  O   UNL     1      -0.151  -3.861   0.000  0.00  0.00    +0.000 OA
ATOM     19  O   UNL     1      -1.456  -3.279   0.000  0.00  0.00    +0.000 OA
ENDBRANCH  14  17
ENDBRANCH   1  11
TORSDOF 4
