REMARK  Name = KI2
REMARK  8 active torsions:
REMARK  status: ('A' for Active; 'I' for Inactive)
REMARK    1  A    between atoms: O_1  and  C_8
REMARK    2  A    between atoms: O_1  and  C_19
REMARK    3  A    between atoms: C_5  and  C_19
REMARK    4  A    between atoms: N_10  and  C_11
REMARK    5  A    between atoms: C_11  and  C_12
REMARK    6  A    between atoms: C_11  and  C_20
REMARK    7  A    between atoms: C_12  and  C_13
REMARK    8  A    between atoms: C_20  and  C_22
REMARK                            x       y       z     vdW  Elec       q    Type
REMARK                         _______ _______ _______ _____ _____    ______ ____
ROOT
ATOM      1  C   UNL     1      -2.154  -1.178   0.000  0.00  0.00    +0.000 C 
ENDROOT
BRANCH   1   4
ATOM      2  C   UNL     1      -0.804  -1.646   0.000  0.00  0.00    +0.000 C 
ATOM      3  O   UNL     1      -0.534  -0.866   0.000  0.00  0.00    +0.000 OA
ATOM      4  N   UNL     1      -1.614  -1.802   0.000  0.00  0.00    +0.000 NA
BRANCH   2   5
ATOM      5  O   UNL     1      -0.264  -2.269   0.000  0.00  0.00    +0.000 OA
BRANCH   5   6
ATOM      6  C   UNL     1       0.546  -2.113   0.000  0.00  0.00    +0.000 C 
BRANCH   6  10
ATOM      7  C   UNL     1       2.167  -3.984   0.000  0.00  0.00    +0.000 A 
ATOM      8  C   UNL     1       1.356  -4.140   0.000  0.00  0.00    +0.000 A 
ATOM      9  C   UNL     1       0.816  -3.517   0.000  0.00  0.00    +0.000 A 
ATOM     10  C   UNL     1       1.086  -2.737   0.000  0.00  0.00    +0.000 A 
ATOM     11  C   UNL     1       1.896  -2.581   0.000  0.00  0.00    +0.000 A 
ATOM     12  C   UNL     1       2.437  -3.205   0.000  0.00  0.00    +0.000 A 
ENDBRANCH   6  10
ENDBRANCH   5   6
ENDBRANCH   2   5
ENDBRANCH   1   4
BRANCH   1  13
ATOM     13  C   UNL     1      -2.964  -1.334   0.000  0.00  0.00    +0.000 C 
ATOM     14  O   UNL     1      -3.505  -0.710   0.000  0.00  0.00    +0.000 OA
BRANCH  13  15
ATOM     15  C   UNL     1      -3.234  -2.113   0.000  0.00  0.00    +0.000 C 
ATOM     16  O   UNL     1      -2.694  -2.737   0.000  0.00  0.00    +0.000 OA
ATOM     17  O   UNL     1      -4.045  -2.269   0.000  0.00  0.00    +0.000 OA
ENDBRANCH  13  15
ENDBRANCH   1  13
BRANCH   1  18
ATOM     18  C   UNL     1      -1.884  -0.398   0.000  0.00  0.00    +0.000 C 
BRANCH  18  19
ATOM     19  C   UNL     1      -2.424   0.225   0.000  0.00  0.00    +0.000 A 
ATOM     20  C   UNL     1      -3.234   0.069   0.000  0.00  0.00    +0.000 A 
ATOM     21  C   UNL     1      -3.775   0.693   0.000  0.00  0.00    +0.000 A 
ATOM     22  C   UNL     1      -3.505   1.473   0.000  0.00  0.00    +0.000 A 
ATOM     23  C   UNL     1      -2.694   1.629   0.000  0.00  0.00    +0.000 A 
ATOM     24  C   UNL     1      -2.154   1.005   0.000  0.00  0.00    +0.000 A 
ENDBRANCH  18  19
ENDBRANCH   1  18
TORSDOF 8
