REMARK  Name = KIM
REMARK  6 active torsions:
REMARK  status: ('A' for Active; 'I' for Inactive)
REMARK    1  A    between atoms: N_1  and  C_3
REMARK    2  A    between atoms: C_7  and  N_20
REMARK    3  A    between atoms: C_8  and  N_20
REMARK    4  A    between atoms: C_13  and  O_31
REMARK    5  A    between atoms: O_16  and  C_17
REMARK    6  A    between atoms: C_29  and  O_30
REMARK                            x       y       z     vdW  Elec       q    Type
REMARK                         _______ _______ _______ _____ _____    ______ ____
ROOT
ATOM      1  N   UNL     1       1.411  -0.563   0.000  0.00  0.00    +0.000 NA
ATOM      2  N   UNL     1       0.697   0.674   0.000  0.00  0.00    +0.000 NA
ATOM      3  C   UNL     1       0.697  -0.151   0.000  0.00  0.00    +0.000 A 
ATOM      4  C   UNL     1      -0.732  -0.151   0.000  0.00  0.00    +0.000 A 
ATOM      5  C   UNL     1      -0.732   0.674   0.000  0.00  0.00    +0.000 A 
ATOM      6  C   UNL     1      -0.018   1.087   0.000  0.00  0.00    +0.000 A 
ATOM      7  N   UNL     1      -0.018  -0.563   0.000  0.00  0.00    +0.000 NA
ENDROOT
BRANCH   1   8
ATOM      8  C   UNL     1       1.411  -1.388   0.000  0.00  0.00    +0.000 A 
ATOM      9  C   UNL     1       1.411  -3.038   0.000  0.00  0.00    +0.000 A 
ATOM     10  C   UNL     1       2.126  -2.626   0.000  0.00  0.00    +0.000 A 
ATOM     11  C   UNL     1       2.126  -1.801   0.000  0.00  0.00    +0.000 A 
ATOM     12  C   UNL     1       0.697  -1.801   0.000  0.00  0.00    +0.000 A 
ATOM     13  C   UNL     1       0.697  -2.626   0.000  0.00  0.00    +0.000 A 
BRANCH  13  15
ATOM     14  C   UNL     1      -0.732  -2.626   0.000  0.00  0.00    +0.000 C 
ATOM     15  O   UNL     1      -0.018  -3.038   0.000  0.00  0.00    +0.000 OA
ENDBRANCH  13  15
BRANCH   9  17
ATOM     16  C   UNL     1       2.126  -4.276   0.000  0.00  0.00    +0.000 C 
ATOM     17  O   UNL     1       1.411  -3.863   0.000  0.00  0.00    +0.000 OA
ENDBRANCH   9  17
BRANCH  10  19
ATOM     18  C   UNL     1       3.554  -2.626   0.000  0.00  0.00    +0.000 C 
ATOM     19  O   UNL     1       2.840  -3.038   0.000  0.00  0.00    +0.000 OA
ENDBRANCH  10  19
ENDBRANCH   1   8
BRANCH   6  20
ATOM     20  N   UNL     1      -0.018   1.912   0.000  0.00  0.00    +0.000 N 
ATOM     21  C   UNL     1       0.697   2.324   0.000  0.00  0.00    +0.000 C 
BRANCH  20  22
ATOM     22  C   UNL     1      -0.732   2.324   0.000  0.00  0.00    +0.000 A 
ATOM     23  C   UNL     1      -2.161   3.149   0.000  0.00  0.00    +0.000 A 
ATOM     24  C   UNL     1      -3.201   4.189   0.000  0.00  0.00    +0.000 C 
ATOM     25  C   UNL     1      -1.447   1.912   0.000  0.00  0.00    +0.000 A 
ATOM     26  C   UNL     1      -0.732   3.149   0.000  0.00  0.00    +0.000 A 
ATOM     27  C   UNL     1      -1.447   3.562   0.000  0.00  0.00    +0.000 A 
ATOM     28  C   UNL     1      -2.946   3.404   0.000  0.00  0.00    +0.000 A 
ATOM     29  N   UNL     1      -3.431   2.737   0.000  0.00  0.00    +0.000 NA
ATOM     30  N   UNL     1      -2.946   2.069   0.000  0.00  0.00    +0.000 NA
ATOM     31  C   UNL     1      -2.161   2.324   0.000  0.00  0.00    +0.000 A 
ENDBRANCH  20  22
ENDBRANCH   6  20
TORSDOF 6
