REMARK  Name = KIN
REMARK  5 active torsions:
REMARK  status: ('A' for Active; 'I' for Inactive)
REMARK    1  A    between atoms: C_3  and  N_21
REMARK    2  A    between atoms: C_7  and  O_24
REMARK    3  A    between atoms: C_11  and  C_14
REMARK    4  A    between atoms: C_16  and  N_18
REMARK    5  A    between atoms: C_22  and  O_24
REMARK                            x       y       z     vdW  Elec       q    Type
REMARK                         _______ _______ _______ _____ _____    ______ ____
ROOT
ATOM      1  N   UNL     1       3.246  -1.858   0.000  0.00  0.00    +0.000 NA
ATOM      2  C   UNL     1       2.531  -1.446   0.000  0.00  0.00    +0.000 C 
ATOM      3  O   UNL     1       2.531  -0.621   0.000  0.00  0.00    +0.000 OA
ATOM      4  N   UNL     1       1.817  -1.858   0.000  0.00  0.00    +0.000 NA
ENDROOT
BRANCH   1   9
ATOM      5  C   UNL     1       4.675  -0.208   0.000  0.00  0.00    +0.000 A 
ATOM      6  C   UNL     1       5.389  -0.621   0.000  0.00  0.00    +0.000 A 
ATOM      7  C   UNL     1       5.389  -1.446   0.000  0.00  0.00    +0.000 A 
ATOM      8  C   UNL     1       4.675  -1.858   0.000  0.00  0.00    +0.000 A 
ATOM      9  C   UNL     1       3.960  -1.446   0.000  0.00  0.00    +0.000 A 
ATOM     10  C   UNL     1       3.960  -0.621   0.000  0.00  0.00    +0.000 A 
BRANCH   7  12
ATOM     11  F   UNL     1       6.818  -2.271   0.000  0.00  0.00    +0.000 F 
ATOM     12  C   UNL     1       6.104  -1.858   0.000  0.00  0.00    +0.000 C 
ATOM     13  F   UNL     1       5.691  -2.573   0.000  0.00  0.00    +0.000 F 
ATOM     14  F   UNL     1       6.516  -1.144   0.000  0.00  0.00    +0.000 F 
ENDBRANCH   7  12
ENDBRANCH   1   9
BRANCH   4  15
ATOM     15  C   UNL     1       1.102  -1.446   0.000  0.00  0.00    +0.000 A 
ATOM     16  C   UNL     1       0.388  -1.858   0.000  0.00  0.00    +0.000 A 
ATOM     17  C   UNL     1      -0.327  -1.446   0.000  0.00  0.00    +0.000 A 
ATOM     18  C   UNL     1       0.388  -0.208   0.000  0.00  0.00    +0.000 A 
ATOM     19  C   UNL     1      -0.327  -0.621   0.000  0.00  0.00    +0.000 A 
ATOM     20  C   UNL     1       1.102  -0.621   0.000  0.00  0.00    +0.000 A 
BRANCH  19  21
ATOM     21  O   UNL     1      -1.041  -0.208   0.000  0.00  0.00    +0.000 OA
BRANCH  21  22
ATOM     22  C   UNL     1      -1.041   0.617   0.000  0.00  0.00    +0.000 A 
ATOM     23  C   UNL     1      -1.756   1.029   0.000  0.00  0.00    +0.000 A 
ATOM     24  C   UNL     1      -1.756   1.854   0.000  0.00  0.00    +0.000 A 
ATOM     25  N   UNL     1      -1.041   2.267   0.000  0.00  0.00    +0.000 NA
ATOM     26  C   UNL     1      -0.327   1.854   0.000  0.00  0.00    +0.000 A 
ATOM     27  C   UNL     1      -0.327   1.029   0.000  0.00  0.00    +0.000 A 
ENDBRANCH  21  22
ENDBRANCH  19  21
ENDBRANCH   4  15
TORSDOF 5
