REMARK  Name = KIQ
REMARK  3 active torsions:
REMARK  status: ('A' for Active; 'I' for Inactive)
REMARK    1  A    between atoms: C_1  and  C_2
REMARK    2  A    between atoms: C_4  and  C_26
REMARK    3  A    between atoms: C_7  and  C_16
REMARK                            x       y       z     vdW  Elec       q    Type
REMARK                         _______ _______ _______ _____ _____    ______ ____
ROOT
ATOM      1  C   UNL     1      -1.038   0.703   0.000  0.00  0.00    +0.000 C 
ATOM      2  C   UNL     1      -0.323   1.115   0.000  0.00  0.00    +0.000 C 
ATOM      3  C   UNL     1       0.391   0.703   0.000  0.00  0.00    +0.000 C 
ATOM      4  C   UNL     1       0.391  -0.122   0.000  0.00  0.00    +0.000 C 
ATOM      5  C   UNL     1      -0.323  -0.535   0.000  0.00  0.00    +0.000 C 
ATOM      6  N   UNL     1      -0.323  -1.360   0.000  0.00  0.00    +0.000 NA
ATOM      7  C   UNL     1      -1.038  -0.122   0.000  0.00  0.00    +0.000 C 
ENDROOT
BRANCH   1   8
ATOM      8  C   UNL     1      -1.752   1.115   0.000  0.00  0.00    +0.000 C 
ATOM      9  C   UNL     1      -2.467  -0.122   0.000  0.00  0.00    +0.000 C 
ATOM     10  C   UNL     1      -4.680  -0.377   0.000  0.00  0.00    +0.000 A 
ATOM     11  O   UNL     1      -1.752   1.940   0.000  0.00  0.00    +0.000 OA
ATOM     12  N   UNL     1      -2.467   0.703   0.000  0.00  0.00    +0.000 N 
ATOM     13  C   UNL     1      -3.181   1.115   0.000  0.00  0.00    +0.000 C 
ATOM     14  C   UNL     1      -3.896   0.703   0.000  0.00  0.00    +0.000 A 
ATOM     15  N   UNL     1      -4.680   0.958   0.000  0.00  0.00    +0.000 NA
ATOM     16  N   UNL     1      -5.165   0.290   0.000  0.00  0.00    +0.000 NA
ATOM     17  N   UNL     1      -3.896  -0.122   0.000  0.00  0.00    +0.000 N 
ATOM     18  C   UNL     1      -3.181  -0.535   0.000  0.00  0.00    +0.000 C 
BRANCH  10  19
ATOM     19  C   UNL     1      -4.935  -1.162   0.000  0.00  0.00    +0.000 C 
ATOM     20  F   UNL     1      -5.190  -1.947   0.000  0.00  0.00    +0.000 F 
ATOM     21  F   UNL     1      -5.720  -0.907   0.000  0.00  0.00    +0.000 F 
ATOM     22  F   UNL     1      -4.151  -1.417   0.000  0.00  0.00    +0.000 F 
ENDBRANCH  10  19
ENDBRANCH   1   8
BRANCH   4  31
ATOM     23  C   UNL     1       1.820  -0.122   0.000  0.00  0.00    +0.000 A 
ATOM     24  F   UNL     1       0.391  -1.772   0.000  0.00  0.00    +0.000 F 
ATOM     25  C   UNL     1       1.105  -1.360   0.000  0.00  0.00    +0.000 A 
ATOM     26  C   UNL     1       1.820  -1.772   0.000  0.00  0.00    +0.000 A 
ATOM     27  C   UNL     1       2.534  -1.360   0.000  0.00  0.00    +0.000 A 
ATOM     28  F   UNL     1       3.249  -1.772   0.000  0.00  0.00    +0.000 F 
ATOM     29  C   UNL     1       2.534  -0.535   0.000  0.00  0.00    +0.000 A 
ATOM     30  F   UNL     1       3.249  -0.122   0.000  0.00  0.00    +0.000 F 
ATOM     31  C   UNL     1       1.105  -0.535   0.000  0.00  0.00    +0.000 A 
ENDBRANCH   4  31
TORSDOF 3
