REMARK  Name = KJ2
REMARK  6 active torsions:
REMARK  status: ('A' for Active; 'I' for Inactive)
REMARK    1  A    between atoms: C_5  and  C_10
REMARK    2  A    between atoms: C_11  and  C_15
REMARK    3  A    between atoms: C_20  and  O_21
REMARK    4  A    between atoms: O_21  and  C_22
REMARK    5  A    between atoms: C_22  and  C_23
REMARK    6  A    between atoms: C_23  and  C_24
REMARK                            x       y       z     vdW  Elec       q    Type
REMARK                         _______ _______ _______ _____ _____    ______ ____
ROOT
ATOM      1  C   UNL     1      -2.008  -0.841   0.000  0.00  0.00    +0.000 A 
ATOM      2  C   UNL     1      -1.254  -1.176   0.000  0.00  0.00    +0.000 A 
ATOM      3  N   UNL     1      -2.148  -2.168   0.000  0.00  0.00    +0.000 NA
ATOM      4  C   UNL     1      -1.341  -1.997   0.000  0.00  0.00    +0.000 A 
ATOM      5  N   UNL     1      -2.560  -1.454   0.000  0.00  0.00    +0.000 NA
ENDROOT
BRANCH   1  10
ATOM      6  C   UNL     1      -2.523   1.580   0.000  0.00  0.00    +0.000 A 
ATOM      7  C   UNL     1      -1.738   1.325   0.000  0.00  0.00    +0.000 A 
ATOM      8  C   UNL     1      -3.136   1.028   0.000  0.00  0.00    +0.000 A 
ATOM      9  C   UNL     1      -2.964   0.221   0.000  0.00  0.00    +0.000 A 
ATOM     10  C   UNL     1      -2.180  -0.034   0.000  0.00  0.00    +0.000 A 
ATOM     11  C   UNL     1      -1.567   0.518   0.000  0.00  0.00    +0.000 A 
ATOM     12  O   UNL     1      -3.577  -0.331   0.000  0.00  0.00    +0.000 OA
ATOM     13  O   UNL     1      -2.694   2.387   0.000  0.00  0.00    +0.000 OA
ATOM     14 CL   UNL     1      -1.125   1.877   0.000  0.00  0.00    +0.000 Cl
ENDBRANCH   1  10
BRANCH   2  15
ATOM     15  C   UNL     1      -0.540  -0.764   0.000  0.00  0.00    +0.000 A 
ATOM     16  C   UNL     1      -0.540   0.061   0.000  0.00  0.00    +0.000 A 
ATOM     17  C   UNL     1       0.174   0.474   0.000  0.00  0.00    +0.000 A 
ATOM     18  C   UNL     1       0.889  -0.764   0.000  0.00  0.00    +0.000 A 
ATOM     19  C   UNL     1       0.174  -1.176   0.000  0.00  0.00    +0.000 A 
ATOM     20  C   UNL     1       0.889   0.061   0.000  0.00  0.00    +0.000 A 
BRANCH  20  21
ATOM     21  O   UNL     1       1.603   0.474   0.000  0.00  0.00    +0.000 OA
BRANCH  21  22
ATOM     22  C   UNL     1       2.318   0.061   0.000  0.00  0.00    +0.000 C 
BRANCH  22  23
ATOM     23  C   UNL     1       3.032   0.474   0.000  0.00  0.00    +0.000 C 
BRANCH  23  24
ATOM     24  C   UNL     1       3.747   0.061   0.000  0.00  0.00    +0.000 C 
ATOM     25  N   UNL     1       4.461   0.474   0.000  0.00  0.00    +0.000 NA
ENDBRANCH  23  24
ENDBRANCH  22  23
ENDBRANCH  21  22
ENDBRANCH  20  21
ENDBRANCH   2  15
TORSDOF 6
