REMARK  Name = KMB
REMARK  4 active torsions:
REMARK  status: ('A' for Active; 'I' for Inactive)
REMARK    1  A    between atoms: C_1  and  C_3
REMARK    2  A    between atoms: C_5  and  C_15
REMARK    3  A    between atoms: C_15  and  S_16
REMARK    4  A    between atoms: S_16  and  C_17
REMARK                            x       y       z     vdW  Elec       q    Type
REMARK                         _______ _______ _______ _____ _____    ______ ____
ROOT
ATOM      1  C   UNL     1      -0.634  -1.437   0.000  0.00  0.00    +0.000 A 
ATOM      2  C   UNL     1      -0.634  -0.612   0.000  0.00  0.00    +0.000 A 
ATOM      3  C   UNL     1       0.080  -0.199   0.000  0.00  0.00    +0.000 A 
ATOM      4  C   UNL     1       0.795  -0.612   0.000  0.00  0.00    +0.000 A 
ATOM      5  N   UNL     1       1.509  -0.199   0.000  0.00  0.00    +0.000 NA
ATOM      6  C   UNL     1       2.224  -0.612   0.000  0.00  0.00    +0.000 A 
ATOM      7  N   UNL     1       2.938  -0.199   0.000  0.00  0.00    +0.000 NA
ATOM      8  N   UNL     1       2.224  -1.437   0.000  0.00  0.00    +0.000 NA
ATOM      9  C   UNL     1       1.509  -1.849   0.000  0.00  0.00    +0.000 A 
ATOM     10  O   UNL     1       1.509  -2.674   0.000  0.00  0.00    +0.000 OA
ATOM     11  C   UNL     1       0.795  -1.437   0.000  0.00  0.00    +0.000 A 
ATOM     12  C   UNL     1       0.080  -1.849   0.000  0.00  0.00    +0.000 A 
ENDROOT
BRANCH   1  13
ATOM     13  C   UNL     1      -1.349  -1.849   0.000  0.00  0.00    +0.000 C 
ATOM     14  N   UNL     1      -1.349  -2.674   0.000  0.00  0.00    +0.000 NA
ENDBRANCH   1  13
BRANCH   3  15
ATOM     15  C   UNL     1       0.080   0.626   0.000  0.00  0.00    +0.000 C 
BRANCH  15  16
ATOM     16  S   UNL     1      -0.634   1.038   0.000  0.00  0.00    +0.000 S 
BRANCH  16  17
ATOM     17  C   UNL     1      -0.634   1.863   0.000  0.00  0.00    +0.000 A 
ATOM     18  C   UNL     1      -1.349   2.276   0.000  0.00  0.00    +0.000 A 
ATOM     19  C   UNL     1      -1.349   3.101   0.000  0.00  0.00    +0.000 A 
ATOM     20  C   UNL     1      -0.634   3.514   0.000  0.00  0.00    +0.000 A 
ATOM     21  C   UNL     1       0.080   3.101   0.000  0.00  0.00    +0.000 A 
ATOM     22  C   UNL     1       0.080   2.276   0.000  0.00  0.00    +0.000 A 
ENDBRANCH  16  17
ENDBRANCH  15  16
ENDBRANCH   3  15
TORSDOF 4
