REMARK  Name = KMP
REMARK  1 active torsions:
REMARK  status: ('A' for Active; 'I' for Inactive)
REMARK    1  A    between atoms: C_9  and  C_10
REMARK                            x       y       z     vdW  Elec       q    Type
REMARK                         _______ _______ _______ _____ _____    ______ ____
ROOT
ATOM      1  C   UNL     1      -2.463  -0.768   0.000  0.00  0.00    +0.000 A 
ATOM      2  C   UNL     1      -1.749  -1.181   0.000  0.00  0.00    +0.000 A 
ATOM      3  C   UNL     1      -1.034  -0.768   0.000  0.00  0.00    +0.000 A 
ATOM      4  C   UNL     1      -1.034   0.057   0.000  0.00  0.00    +0.000 A 
ATOM      5  C   UNL     1      -1.749   0.469   0.000  0.00  0.00    +0.000 A 
ATOM      6  C   UNL     1      -2.463   0.057   0.000  0.00  0.00    +0.000 A 
ATOM      7  C   UNL     1      -0.320  -1.181   0.000  0.00  0.00    +0.000 A 
ATOM      8  C   UNL     1       0.395  -0.768   0.000  0.00  0.00    +0.000 A 
ATOM      9  C   UNL     1       0.395   0.057   0.000  0.00  0.00    +0.000 A 
ATOM     10  O   UNL     1      -0.320   0.469   0.000  0.00  0.00    +0.000 OA
ATOM     11  O   UNL     1      -0.320  -2.006   0.000  0.00  0.00    +0.000 OA
ATOM     12  O   UNL     1       1.109  -1.181   0.000  0.00  0.00    +0.000 OA
ATOM     13  O   UNL     1      -3.178   0.469   0.000  0.00  0.00    +0.000 OA
ATOM     14  O   UNL     1      -1.749  -2.006   0.000  0.00  0.00    +0.000 OA
ENDROOT
BRANCH   9  15
ATOM     15  C   UNL     1       1.109   0.469   0.000  0.00  0.00    +0.000 A 
ATOM     16  C   UNL     1       1.109   1.294   0.000  0.00  0.00    +0.000 A 
ATOM     17  C   UNL     1       1.823   1.707   0.000  0.00  0.00    +0.000 A 
ATOM     18  C   UNL     1       2.538   1.294   0.000  0.00  0.00    +0.000 A 
ATOM     19  C   UNL     1       2.538   0.469   0.000  0.00  0.00    +0.000 A 
ATOM     20  C   UNL     1       1.823   0.057   0.000  0.00  0.00    +0.000 A 
ATOM     21  O   UNL     1       3.252   1.707   0.000  0.00  0.00    +0.000 OA
ENDBRANCH   9  15
TORSDOF 1
