REMARK  Name = KN1
REMARK  4 active torsions:
REMARK  status: ('A' for Active; 'I' for Inactive)
REMARK    1  A    between atoms: C_2  and  C_3
REMARK    2  A    between atoms: C_3  and  N_4
REMARK    3  A    between atoms: C_7  and  C_8
REMARK    4  A    between atoms: C_16  and  C_17
REMARK                            x       y       z     vdW  Elec       q    Type
REMARK                         _______ _______ _______ _____ _____    ______ ____
ROOT
ATOM      1  N   UNL     1      -0.563   0.961   0.000  0.00  0.00    +0.000 N 
ATOM      2  N   UNL     1      -1.048   0.294   0.000  0.00  0.00    +0.000 NA
ATOM      3  C   UNL     1       0.221   0.707   0.000  0.00  0.00    +0.000 A 
ATOM      4  C   UNL     1       0.936   1.119   0.000  0.00  0.00    +0.000 A 
ATOM      5  C   UNL     1       1.650   0.707   0.000  0.00  0.00    +0.000 A 
ATOM      6  C   UNL     1       1.650  -0.118   0.000  0.00  0.00    +0.000 A 
ATOM      7  C   UNL     1       0.936  -0.531   0.000  0.00  0.00    +0.000 A 
ATOM      8  C   UNL     1       0.221  -0.118   0.000  0.00  0.00    +0.000 A 
ATOM      9  C   UNL     1      -0.563  -0.373   0.000  0.00  0.00    +0.000 A 
ENDROOT
BRANCH   9  10
ATOM     10  C   UNL     1      -0.818  -1.158   0.000  0.00  0.00    +0.000 A 
ATOM     11  C   UNL     1      -1.625  -1.330   0.000  0.00  0.00    +0.000 A 
ATOM     12  C   UNL     1      -1.880  -2.114   0.000  0.00  0.00    +0.000 A 
ATOM     13  C   UNL     1      -1.328  -2.727   0.000  0.00  0.00    +0.000 A 
ATOM     14  O   UNL     1      -1.583  -3.512   0.000  0.00  0.00    +0.000 OA
ATOM     15  C   UNL     1      -0.521  -2.556   0.000  0.00  0.00    +0.000 A 
ATOM     16  C   UNL     1      -0.266  -1.771   0.000  0.00  0.00    +0.000 A 
ATOM     17  O   UNL     1       0.541  -1.600   0.000  0.00  0.00    +0.000 OA
ENDBRANCH   9  10
BRANCH   4  18
ATOM     18  C   UNL     1       0.936   1.944   0.000  0.00  0.00    +0.000 C 
ATOM     19  F   UNL     1       1.761   1.944   0.000  0.00  0.00    +0.000 F 
ATOM     20  F   UNL     1       0.111   1.944   0.000  0.00  0.00    +0.000 F 
ATOM     21  F   UNL     1       0.936   2.769   0.000  0.00  0.00    +0.000 F 
ENDBRANCH   4  18
BRANCH   1  22
ATOM     22  C   UNL     1      -0.818   1.746   0.000  0.00  0.00    +0.000 C 
BRANCH  22  24
ATOM     23  C   UNL     1      -0.521   3.144   0.000  0.00  0.00    +0.000 C 
ATOM     24  C   UNL     1      -0.266   2.359   0.000  0.00  0.00    +0.000 C 
ENDBRANCH  22  24
ENDBRANCH   1  22
TORSDOF 4
