REMARK  Name = KN2
REMARK  1 active torsions:
REMARK  status: ('A' for Active; 'I' for Inactive)
REMARK    1  A    between atoms: C_8  and  C_9
REMARK                            x       y       z     vdW  Elec       q    Type
REMARK                         _______ _______ _______ _____ _____    ______ ____
ROOT
ATOM      1  C   UNL     1      -0.399  -0.436   0.000  0.00  0.00    +0.000 A 
ATOM      2  C   UNL     1       0.386  -0.691   0.000  0.00  0.00    +0.000 A 
ATOM      3  C   UNL     1       1.101  -0.279   0.000  0.00  0.00    +0.000 A 
ATOM      4  C   UNL     1       1.815  -0.691   0.000  0.00  0.00    +0.000 A 
ATOM      5  C   UNL     1       1.815  -1.516   0.000  0.00  0.00    +0.000 A 
ATOM      6  O   UNL     1       2.530  -1.929   0.000  0.00  0.00    +0.000 OA
ATOM      7  C   UNL     1       1.101  -1.929   0.000  0.00  0.00    +0.000 A 
ATOM      8  C   UNL     1       0.386  -1.516   0.000  0.00  0.00    +0.000 A 
ATOM      9  N   UNL     1      -0.399  -1.771   0.000  0.00  0.00    +0.000 NA
ATOM     10  N   UNL     1      -0.883  -1.104   0.000  0.00  0.00    +0.000 NA
ENDROOT
BRANCH   1  18
ATOM     11  O   UNL     1      -2.012  -0.093   0.000  0.00  0.00    +0.000 OA
ATOM     12  C   UNL     1      -1.460   0.520   0.000  0.00  0.00    +0.000 A 
ATOM     13  C   UNL     1      -1.715   1.304   0.000  0.00  0.00    +0.000 A 
ATOM     14  C   UNL     1      -1.163   1.917   0.000  0.00  0.00    +0.000 A 
ATOM     15  O   UNL     1      -1.418   2.702   0.000  0.00  0.00    +0.000 OA
ATOM     16  C   UNL     1      -0.356   1.746   0.000  0.00  0.00    +0.000 A 
ATOM     17  C   UNL     1      -0.101   0.961   0.000  0.00  0.00    +0.000 A 
ATOM     18  C   UNL     1      -0.653   0.348   0.000  0.00  0.00    +0.000 A 
ENDBRANCH   1  18
TORSDOF 1
