REMARK  Name = KOM
REMARK  1 active torsions:
REMARK  status: ('A' for Active; 'I' for Inactive)
REMARK    1  A    between atoms: C_11  and  C_14
REMARK                            x       y       z     vdW  Elec       q    Type
REMARK                         _______ _______ _______ _____ _____    ______ ____
ROOT
ATOM      1  O   UNL     1      -2.317   1.880   0.000  0.00  0.00    +0.000 OA
ATOM      2  C   UNL     1      -1.603   1.467   0.000  0.00  0.00    +0.000 A 
ATOM      3  O   UNL     1      -0.888   1.880   0.000  0.00  0.00    +0.000 OA
ATOM      4  C   UNL     1      -0.174   1.467   0.000  0.00  0.00    +0.000 A 
ATOM      5  C   UNL     1       0.540   1.880   0.000  0.00  0.00    +0.000 A 
ATOM      6  O   UNL     1       0.540   2.705   0.000  0.00  0.00    +0.000 OA
ATOM      7  C   UNL     1       1.255   1.467   0.000  0.00  0.00    +0.000 A 
ATOM      8  O   UNL     1       1.969   1.880   0.000  0.00  0.00    +0.000 OA
ATOM      9  C   UNL     1       1.255   0.642   0.000  0.00  0.00    +0.000 A 
ATOM     10  C   UNL     1      -1.603   0.642   0.000  0.00  0.00    +0.000 A 
ATOM     11  C   UNL     1      -0.888   0.230   0.000  0.00  0.00    +0.000 A 
ATOM     12  C   UNL     1      -0.174   0.642   0.000  0.00  0.00    +0.000 A 
ATOM     13  C   UNL     1       0.540   0.230   0.000  0.00  0.00    +0.000 A 
ENDROOT
BRANCH  11  14
ATOM     14  C   UNL     1      -0.888  -0.595   0.000  0.00  0.00    +0.000 A 
ATOM     15  C   UNL     1      -0.174  -1.008   0.000  0.00  0.00    +0.000 A 
ATOM     16  C   UNL     1      -0.174  -1.833   0.000  0.00  0.00    +0.000 A 
ATOM     17  C   UNL     1      -0.888  -2.245   0.000  0.00  0.00    +0.000 A 
ATOM     18  C   UNL     1      -1.603  -1.833   0.000  0.00  0.00    +0.000 A 
ATOM     19  C   UNL     1      -1.603  -1.008   0.000  0.00  0.00    +0.000 A 
ENDBRANCH  11  14
TORSDOF 1
