REMARK  Name = KPV
REMARK  5 active torsions:
REMARK  status: ('A' for Active; 'I' for Inactive)
REMARK    1  A    between atoms: C_1  and  C_7
REMARK    2  A    between atoms: C_7  and  C_8
REMARK    3  A    between atoms: C_8  and  C_9
REMARK    4  A    between atoms: C_9  and  C_10
REMARK    5  A    between atoms: C_10  and  C_11
REMARK                            x       y       z     vdW  Elec       q    Type
REMARK                         _______ _______ _______ _____ _____    ______ ____
ROOT
ATOM      1  C   UNL     1       0.108  -0.459   0.000  0.00  0.00    +0.000 C 
ENDROOT
BRANCH   1   2
ATOM      2  C   UNL     1      -0.606  -0.047   0.000  0.00  0.00    +0.000 A 
ATOM      3  C   UNL     1      -0.606   0.778   0.000  0.00  0.00    +0.000 A 
ATOM      4  C   UNL     1      -1.321   1.191   0.000  0.00  0.00    +0.000 A 
ATOM      5  C   UNL     1      -2.035   0.778   0.000  0.00  0.00    +0.000 A 
ATOM      6  C   UNL     1      -2.035  -0.047   0.000  0.00  0.00    +0.000 A 
ATOM      7  C   UNL     1      -1.321  -0.459   0.000  0.00  0.00    +0.000 A 
ENDBRANCH   1   2
BRANCH   1   8
ATOM      8  C   UNL     1       0.823  -0.047   0.000  0.00  0.00    +0.000 C 
BRANCH   8   9
ATOM      9  C   UNL     1       1.537  -0.459   0.000  0.00  0.00    +0.000 C 
BRANCH   9  10
ATOM     10  C   UNL     1       2.252  -0.047   0.000  0.00  0.00    +0.000 C 
ATOM     11  O   UNL     1       2.252   0.778   0.000  0.00  0.00    +0.000 OA
BRANCH  10  12
ATOM     12  C   UNL     1       2.966  -0.459   0.000  0.00  0.00    +0.000 C 
ATOM     13  O   UNL     1       3.681  -0.047   0.000  0.00  0.00    +0.000 OA
ATOM     14  O   UNL     1       2.966  -1.284   0.000  0.00  0.00    +0.000 OA
ENDBRANCH  10  12
ENDBRANCH   9  10
ENDBRANCH   8   9
ENDBRANCH   1   8
TORSDOF 5
