REMARK  Name = KR2
REMARK  5 active torsions:
REMARK  status: ('A' for Active; 'I' for Inactive)
REMARK    1  A    between atoms: C_6  and  C_7
REMARK    2  A    between atoms: C_16  and  C_18
REMARK    3  A    between atoms: C_18  and  C_19
REMARK    4  A    between atoms: C_19  and  C_21
REMARK    5  A    between atoms: C_21  and  C_22
REMARK                            x       y       z     vdW  Elec       q    Type
REMARK                         _______ _______ _______ _____ _____    ______ ____
ROOT
ATOM      1  C   UNL     1      -3.318  -0.835   0.000  0.00  0.00    +0.000 C 
ATOM      2  O   UNL     1      -3.195  -0.019   0.000  0.00  0.00    +0.000 OA
ATOM      3  N   UNL     1      -2.673  -1.349   0.000  0.00  0.00    +0.000 N 
ATOM      4  C   UNL     1      -2.856  -2.154   0.000  0.00  0.00    +0.000 C 
ATOM      5  C   UNL     1      -2.342  -2.799   0.000  0.00  0.00    +0.000 C 
ATOM      6  C   UNL     1      -1.517  -2.799   0.000  0.00  0.00    +0.000 C 
ATOM      7  C   UNL     1      -1.003  -2.154   0.000  0.00  0.00    +0.000 C 
ATOM      8  C   UNL     1      -1.186  -1.349   0.000  0.00  0.00    +0.000 C 
ATOM      9  N   UNL     1      -1.930  -0.992   0.000  0.00  0.00    +0.000 N 
ATOM     10  C   UNL     1      -1.930  -0.167   0.000  0.00  0.00    +0.000 C 
ATOM     11  O   UNL     1      -2.644   0.246   0.000  0.00  0.00    +0.000 OA
ENDROOT
BRANCH   1  17
ATOM     12  C   UNL     1      -4.209  -1.952   0.000  0.00  0.00    +0.000 A 
ATOM     13  C   UNL     1      -4.977  -2.254   0.000  0.00  0.00    +0.000 A 
ATOM     14  C   UNL     1      -5.622  -1.739   0.000  0.00  0.00    +0.000 A 
ATOM     15  C   UNL     1      -5.499  -0.923   0.000  0.00  0.00    +0.000 A 
ATOM     16  C   UNL     1      -4.731  -0.622   0.000  0.00  0.00    +0.000 A 
ATOM     17  C   UNL     1      -4.086  -1.137   0.000  0.00  0.00    +0.000 A 
ENDBRANCH   1  17
BRANCH  10  18
ATOM     18  C   UNL     1      -1.215   0.246   0.000  0.00  0.00    +0.000 C 
BRANCH  18  19
ATOM     19  C   UNL     1      -0.501  -0.167   0.000  0.00  0.00    +0.000 C 
ATOM     20  N   UNL     1      -0.501  -0.992   0.000  0.00  0.00    +0.000 NA
BRANCH  19  21
ATOM     21  C   UNL     1       0.214   0.246   0.000  0.00  0.00    +0.000 C 
BRANCH  21  22
ATOM     22  C   UNL     1       0.928  -0.167   0.000  0.00  0.00    +0.000 A 
ATOM     23  C   UNL     1       1.643   0.246   0.000  0.00  0.00    +0.000 A 
ATOM     24  C   UNL     1       2.357  -0.167   0.000  0.00  0.00    +0.000 A 
ATOM     25  F   UNL     1       3.072   0.246   0.000  0.00  0.00    +0.000 F 
ATOM     26  C   UNL     1       2.357  -0.992   0.000  0.00  0.00    +0.000 A 
ATOM     27  F   UNL     1       3.072  -1.404   0.000  0.00  0.00    +0.000 F 
ATOM     28  C   UNL     1       1.643  -1.404   0.000  0.00  0.00    +0.000 A 
ATOM     29  C   UNL     1       0.928  -0.992   0.000  0.00  0.00    +0.000 A 
ATOM     30  F   UNL     1       0.214  -1.404   0.000  0.00  0.00    +0.000 F 
ENDBRANCH  21  22
ENDBRANCH  19  21
ENDBRANCH  18  19
ENDBRANCH  10  18
TORSDOF 5
