REMARK  Name = KS4
REMARK  4 active torsions:
REMARK  status: ('A' for Active; 'I' for Inactive)
REMARK    1  A    between atoms: C_4  and  N_5
REMARK    2  A    between atoms: C_14  and  C_15
REMARK    3  A    between atoms: C_19  and  O_20
REMARK    4  A    between atoms: C_22  and  O_23
REMARK                            x       y       z     vdW  Elec       q    Type
REMARK                         _______ _______ _______ _____ _____    ______ ____
ROOT
ATOM      1  N   UNL     1      -0.124   1.553   0.000  0.00  0.00    +0.000 N 
ATOM      2  N   UNL     1      -0.609   0.886   0.000  0.00  0.00    +0.000 NA
ATOM      3  C   UNL     1       0.661   1.298   0.000  0.00  0.00    +0.000 A 
ATOM      4  N   UNL     1       1.375   1.711   0.000  0.00  0.00    +0.000 NA
ATOM      5  C   UNL     1       2.090   1.298   0.000  0.00  0.00    +0.000 A 
ATOM      6  N   UNL     1       2.090   0.473   0.000  0.00  0.00    +0.000 NA
ATOM      7  C   UNL     1       1.375   0.061   0.000  0.00  0.00    +0.000 A 
ATOM      8  N   UNL     1       1.375  -0.764   0.000  0.00  0.00    +0.000 NA
ATOM      9  C   UNL     1       0.661   0.473   0.000  0.00  0.00    +0.000 A 
ATOM     10  C   UNL     1      -0.124   0.218   0.000  0.00  0.00    +0.000 A 
ENDROOT
BRANCH  10  11
ATOM     11  C   UNL     1      -0.379  -0.566   0.000  0.00  0.00    +0.000 A 
ATOM     12  C   UNL     1       0.173  -1.179   0.000  0.00  0.00    +0.000 A 
ATOM     13  C   UNL     1      -1.186  -0.738   0.000  0.00  0.00    +0.000 A 
ATOM     14  C   UNL     1      -1.441  -1.522   0.000  0.00  0.00    +0.000 A 
ATOM     15  C   UNL     1      -0.888  -2.135   0.000  0.00  0.00    +0.000 A 
ATOM     16  C   UNL     1      -0.082  -1.964   0.000  0.00  0.00    +0.000 A 
BRANCH  15  17
ATOM     17  O   UNL     1      -1.143  -2.920   0.000  0.00  0.00    +0.000 OA
ATOM     18  C   UNL     1      -0.591  -3.533   0.000  0.00  0.00    +0.000 C 
ENDBRANCH  15  17
BRANCH  16  19
ATOM     19  O   UNL     1       0.470  -2.577   0.000  0.00  0.00    +0.000 OA
ATOM     20  C   UNL     1       0.215  -3.362   0.000  0.00  0.00    +0.000 C 
ENDBRANCH  16  19
ENDBRANCH  10  11
BRANCH   1  24
ATOM     21  C   UNL     1      -1.114   2.712   0.000  0.00  0.00    +0.000 C 
ATOM     22  C   UNL     1      -0.739   3.447   0.000  0.00  0.00    +0.000 C 
ATOM     23  C   UNL     1      -0.004   3.073   0.000  0.00  0.00    +0.000 C 
ATOM     24  C   UNL     1      -0.379   2.338   0.000  0.00  0.00    +0.000 C 
ENDBRANCH   1  24
TORSDOF 4
