REMARK  Name = KS5
REMARK  2 active torsions:
REMARK  status: ('A' for Active; 'I' for Inactive)
REMARK    1  A    between atoms: C_2  and  N_4
REMARK    2  A    between atoms: C_13  and  C_14
REMARK                            x       y       z     vdW  Elec       q    Type
REMARK                         _______ _______ _______ _____ _____    ______ ____
ROOT
ATOM      1  N   UNL     1      -1.427   0.269   0.000  0.00  0.00    +0.000 N 
ATOM      2  N   UNL     1      -0.875  -0.344   0.000  0.00  0.00    +0.000 NA
ATOM      3  C   UNL     1      -1.014   0.983   0.000  0.00  0.00    +0.000 A 
ATOM      4  N   UNL     1      -1.269   1.768   0.000  0.00  0.00    +0.000 NA
ATOM      5  C   UNL     1      -0.717   2.381   0.000  0.00  0.00    +0.000 A 
ATOM      6  N   UNL     1       0.090   2.209   0.000  0.00  0.00    +0.000 NA
ATOM      7  C   UNL     1       0.345   1.425   0.000  0.00  0.00    +0.000 A 
ATOM      8  N   UNL     1       1.152   1.253   0.000  0.00  0.00    +0.000 NA
ATOM      9  C   UNL     1      -0.207   0.811   0.000  0.00  0.00    +0.000 A 
ATOM     10  C   UNL     1      -0.121  -0.009   0.000  0.00  0.00    +0.000 A 
ENDROOT
BRANCH  10  11
ATOM     11  C   UNL     1       0.593  -0.421   0.000  0.00  0.00    +0.000 A 
ATOM     12  C   UNL     1       1.308  -0.009   0.000  0.00  0.00    +0.000 A 
ATOM     13  C   UNL     1       2.022  -0.421   0.000  0.00  0.00    +0.000 A 
ATOM     14  C   UNL     1       2.737  -0.009   0.000  0.00  0.00    +0.000 A 
ATOM     15  C   UNL     1       3.451  -0.421   0.000  0.00  0.00    +0.000 A 
ATOM     16  C   UNL     1       3.451  -1.246   0.000  0.00  0.00    +0.000 A 
ATOM     17  N   UNL     1       2.737  -1.659   0.000  0.00  0.00    +0.000 NA
ATOM     18  C   UNL     1       2.022  -1.246   0.000  0.00  0.00    +0.000 A 
ATOM     19  C   UNL     1       1.308  -1.659   0.000  0.00  0.00    +0.000 A 
ATOM     20  C   UNL     1       0.593  -1.246   0.000  0.00  0.00    +0.000 A 
ENDBRANCH  10  11
BRANCH   1  22
ATOM     21  C   UNL     1      -2.732   0.850   0.000  0.00  0.00    +0.000 C 
ATOM     22  C   UNL     1      -2.247   0.182   0.000  0.00  0.00    +0.000 C 
ATOM     23  C   UNL     1      -2.583  -0.571   0.000  0.00  0.00    +0.000 C 
ENDBRANCH   1  22
TORSDOF 2
