REMARK  Name = KSA
REMARK  2 active torsions:
REMARK  status: ('A' for Active; 'I' for Inactive)
REMARK    1  A    between atoms: C_2  and  O_3
REMARK    2  A    between atoms: C_2  and  C_5
REMARK                            x       y       z     vdW  Elec       q    Type
REMARK                         _______ _______ _______ _____ _____    ______ ____
ROOT
ATOM      1  C   UNL     1       0.379  -1.882   0.000  0.00  0.00    +0.000 C 
ATOM      2  O   UNL     1       1.183  -2.070   0.000  0.00  0.00    +0.000 OA
ATOM      3  C   UNL     1       0.674  -1.053   0.000  0.00  0.00    +0.000 C 
ATOM      4  O   UNL     1      -0.055  -0.971   0.000  0.00  0.00    +0.000 OA
ATOM      5  C   UNL     1       1.463  -1.295   0.000  0.00  0.00    +0.000 C 
ATOM      6  N   UNL     1       0.896  -0.192   0.000  0.00  0.00    +0.000 N 
ATOM      7  C   UNL     1       0.371   0.489   0.000  0.00  0.00    +0.000 A 
ATOM      8  C   UNL     1      -0.479   0.491   0.000  0.00  0.00    +0.000 A 
ATOM      9  N   UNL     1      -1.003  -0.191   0.000  0.00  0.00    +0.000 N 
ATOM     10  C   UNL     1      -0.781  -1.053   0.000  0.00  0.00    +0.000 C 
ATOM     11  C   UNL     1      -0.490  -1.876   0.000  0.00  0.00    +0.000 C 
ATOM     12  C   UNL     1      -1.773   0.160   0.000  0.00  0.00    +0.000 A 
ATOM     13  C   UNL     1      -2.517  -0.198   0.000  0.00  0.00    +0.000 A 
ATOM     14  C   UNL     1      -3.198   0.268   0.000  0.00  0.00    +0.000 A 
ATOM     15  C   UNL     1      -3.135   1.091   0.000  0.00  0.00    +0.000 A 
ATOM     16  C   UNL     1      -2.392   1.448   0.000  0.00  0.00    +0.000 A 
ATOM     17  C   UNL     1      -1.710   0.982   0.000  0.00  0.00    +0.000 A 
ATOM     18  C   UNL     1      -0.901   1.212   0.000  0.00  0.00    +0.000 A 
ATOM     19  C   UNL     1      -0.458   1.928   0.000  0.00  0.00    +0.000 A 
ATOM     20  C   UNL     1      -0.709   2.714   0.000  0.00  0.00    +0.000 C 
ATOM     21  O   UNL     1      -1.493   2.972   0.000  0.00  0.00    +0.000 OA
ATOM     22  C   UNL     1       0.367   1.925   0.000  0.00  0.00    +0.000 A 
ATOM     23  C   UNL     1       0.625   2.708   0.000  0.00  0.00    +0.000 C 
ATOM     24  N   UNL     1      -0.040   3.196   0.000  0.00  0.00    +0.000 NA
ATOM     25  C   UNL     1       0.802   1.203   0.000  0.00  0.00    +0.000 A 
ATOM     26  C   UNL     1       1.613   0.981   0.000  0.00  0.00    +0.000 A 
ATOM     27  C   UNL     1       1.677   0.159   0.000  0.00  0.00    +0.000 A 
ATOM     28  C   UNL     1       2.421  -0.198   0.000  0.00  0.00    +0.000 A 
ATOM     29  C   UNL     1       2.294   1.448   0.000  0.00  0.00    +0.000 A 
ATOM     30  C   UNL     1       3.038   1.091   0.000  0.00  0.00    +0.000 A 
ATOM     31  C   UNL     1       3.101   0.269   0.000  0.00  0.00    +0.000 A 
ENDROOT
BRANCH   1  33
ATOM     32  O   UNL     1       0.943  -3.195   0.000  0.00  0.00    +0.000 OA
ATOM     33  C   UNL     1       0.282  -2.701   0.000  0.00  0.00    +0.000 C 
BRANCH  33  34
ATOM     34  O   UNL     1      -0.476  -3.026   0.000  0.00  0.00    +0.000 OA
ATOM     35  C   UNL     1      -1.137  -2.533   0.000  0.00  0.00    +0.000 C 
ENDBRANCH  33  34
ENDBRANCH   1  33
TORSDOF 2
