REMARK  Name = KSF
REMARK  2 active torsions:
REMARK  status: ('A' for Active; 'I' for Inactive)
REMARK    1  A    between atoms: C_3  and  N_8
REMARK    2  A    between atoms: C_12  and  C_18
REMARK                            x       y       z     vdW  Elec       q    Type
REMARK                         _______ _______ _______ _____ _____    ______ ____
ROOT
ATOM      1  N   UNL     1       0.951   1.767   0.000  0.00  0.00    +0.000 NA
ATOM      2  C   UNL     1       0.951   0.942   0.000  0.00  0.00    +0.000 A 
ATOM      3  N   UNL     1       1.665   0.529   0.000  0.00  0.00    +0.000 NA
ATOM      4  C   UNL     1       1.665  -0.296   0.000  0.00  0.00    +0.000 A 
ATOM      5  C   UNL     1       0.951  -0.708   0.000  0.00  0.00    +0.000 A 
ATOM      6  N   UNL     1       0.236  -0.296   0.000  0.00  0.00    +0.000 N 
ATOM      7  C   UNL     1      -0.548  -0.551   0.000  0.00  0.00    +0.000 A 
ATOM      8  N   UNL     1      -1.033   0.117   0.000  0.00  0.00    +0.000 NA
ATOM      9  C   UNL     1      -0.548   0.784   0.000  0.00  0.00    +0.000 A 
ATOM     10  C   UNL     1       0.236   0.529   0.000  0.00  0.00    +0.000 A 
ENDROOT
BRANCH   1  13
ATOM     11 CL   UNL     1       0.951   3.417   0.000  0.00  0.00    +0.000 Cl
ATOM     12  C   UNL     1       0.236   3.004   0.000  0.00  0.00    +0.000 A 
ATOM     13  C   UNL     1       0.236   2.179   0.000  0.00  0.00    +0.000 A 
ATOM     14  C   UNL     1      -0.478   1.767   0.000  0.00  0.00    +0.000 A 
ATOM     15  C   UNL     1      -1.193   2.179   0.000  0.00  0.00    +0.000 A 
ATOM     16  C   UNL     1      -1.193   3.004   0.000  0.00  0.00    +0.000 A 
ATOM     17  C   UNL     1      -0.478   3.417   0.000  0.00  0.00    +0.000 A 
ENDBRANCH   1  13
BRANCH   5  18
ATOM     18  C   UNL     1       0.951  -1.533   0.000  0.00  0.00    +0.000 A 
ATOM     19  C   UNL     1       1.665  -1.946   0.000  0.00  0.00    +0.000 A 
ATOM     20  C   UNL     1       1.665  -2.771   0.000  0.00  0.00    +0.000 A 
ATOM     21  C   UNL     1       0.951  -3.183   0.000  0.00  0.00    +0.000 A 
ATOM     22  C   UNL     1       0.236  -2.771   0.000  0.00  0.00    +0.000 A 
ATOM     23  C   UNL     1       0.236  -1.946   0.000  0.00  0.00    +0.000 A 
ENDBRANCH   5  18
TORSDOF 2
