REMARK  Name = KSM
REMARK  2 active torsions:
REMARK  status: ('A' for Active; 'I' for Inactive)
REMARK    1  A    between atoms: C_8  and  N_9
REMARK    2  A    between atoms: C_18  and  N_23
REMARK                            x       y       z     vdW  Elec       q    Type
REMARK                         _______ _______ _______ _____ _____    ______ ____
ROOT
ATOM      1  N   UNL     1      -2.101   1.963   0.000  0.00  0.00    +0.000 NA
ATOM      2  C   UNL     1      -1.666   1.262   0.000  0.00  0.00    +0.000 A 
ATOM      3  C   UNL     1      -2.056   0.535   0.000  0.00  0.00    +0.000 A 
ATOM      4  C   UNL     1      -2.858   0.338   0.000  0.00  0.00    +0.000 A 
ATOM      5  N   UNL     1      -2.918  -0.484   0.000  0.00  0.00    +0.000 NA
ATOM      6  N   UNL     1      -0.842   1.288   0.000  0.00  0.00    +0.000 NA
ATOM      7  C   UNL     1      -0.407   0.586   0.000  0.00  0.00    +0.000 A 
ATOM      8  C   UNL     1       0.417   0.612   0.000  0.00  0.00    +0.000 A 
ATOM      9  C   UNL     1       0.852  -0.089   0.000  0.00  0.00    +0.000 A 
ATOM     10  C   UNL     1       0.462  -0.816   0.000  0.00  0.00    +0.000 A 
ATOM     11  C   UNL     1      -0.363  -0.842   0.000  0.00  0.00    +0.000 A 
ATOM     12  C   UNL     1      -0.797  -0.141   0.000  0.00  0.00    +0.000 A 
ATOM     13  N   UNL     1      -1.622  -0.166   0.000  0.00  0.00    +0.000 N 
ATOM     14  C   UNL     1      -2.154  -0.796   0.000  0.00  0.00    +0.000 A 
ENDROOT
BRANCH   1  22
ATOM     15 CL   UNL     1      -0.452   2.015   0.000  0.00  0.00    +0.000 Cl
ATOM     16  C   UNL     1      -0.886   2.716   0.000  0.00  0.00    +0.000 A 
ATOM     17  C   UNL     1      -0.496   3.443   0.000  0.00  0.00    +0.000 A 
ATOM     18  C   UNL     1      -0.931   4.144   0.000  0.00  0.00    +0.000 A 
ATOM     19  C   UNL     1      -1.756   4.118   0.000  0.00  0.00    +0.000 A 
ATOM     20  C   UNL     1      -2.146   3.391   0.000  0.00  0.00    +0.000 A 
ATOM     21  C   UNL     1      -2.970   3.366   0.000  0.00  0.00    +0.000 C 
ATOM     22  C   UNL     1      -1.711   2.690   0.000  0.00  0.00    +0.000 A 
ENDBRANCH   1  22
BRANCH  10  23
ATOM     23  N   UNL     1       0.897  -1.517   0.000  0.00  0.00    +0.000 N 
ATOM     24  C   UNL     1       1.721  -1.492   0.000  0.00  0.00    +0.000 C 
ATOM     25  C   UNL     1       2.156  -2.193   0.000  0.00  0.00    +0.000 C 
ATOM     26  N   UNL     1       1.766  -2.920   0.000  0.00  0.00    +0.000 NA
ATOM     27  C   UNL     1       0.941  -2.946   0.000  0.00  0.00    +0.000 C 
ATOM     28  C   UNL     1       0.551  -3.672   0.000  0.00  0.00    +0.000 C 
ATOM     29  C   UNL     1       0.507  -2.244   0.000  0.00  0.00    +0.000 C 
ENDBRANCH  10  23
TORSDOF 2
