REMARK  Name = KTP
REMARK  4 active torsions:
REMARK  status: ('A' for Active; 'I' for Inactive)
REMARK    1  A    between atoms: P_1  and  C_4
REMARK    2  A    between atoms: C_4  and  C_5
REMARK    3  A    between atoms: C_4  and  C_19
REMARK    4  A    between atoms: C_5  and  C_8
REMARK                            x       y       z     vdW  Elec       q    Type
REMARK                         _______ _______ _______ _____ _____    ______ ____
ROOT
ATOM      1  C   UNL     1      -0.475  -0.560   0.000  0.00  0.00    +0.000 C 
ENDROOT
BRANCH   1   3
ATOM      2  C   UNL     1      -1.190  -1.798   0.000  0.00  0.00    +0.000 A 
ATOM      3  C   UNL     1      -0.475  -1.385   0.000  0.00  0.00    +0.000 A 
ATOM      4  C   UNL     1       0.239  -1.798   0.000  0.00  0.00    +0.000 A 
ATOM      5  C   UNL     1       0.954  -1.385   0.000  0.00  0.00    +0.000 A 
ATOM      6  C   UNL     1       1.668  -1.798   0.000  0.00  0.00    +0.000 A 
ATOM      7  C   UNL     1       1.668  -2.623   0.000  0.00  0.00    +0.000 A 
ATOM      8  C   UNL     1       0.954  -3.035   0.000  0.00  0.00    +0.000 A 
ATOM      9  C   UNL     1       0.239  -2.623   0.000  0.00  0.00    +0.000 A 
ATOM     10  C   UNL     1      -0.475  -3.035   0.000  0.00  0.00    +0.000 A 
ATOM     11  C   UNL     1      -1.190  -2.623   0.000  0.00  0.00    +0.000 A 
ENDBRANCH   1   3
BRANCH   1  12
ATOM     12  P   UNL     1      -1.190  -0.147   0.000  0.00  0.00    +0.000 P 
ATOM     13  O   UNL     1      -1.602  -0.862   0.000  0.00  0.00    +0.000 OA
ATOM     14  O   UNL     1      -0.777   0.567   0.000  0.00  0.00    +0.000 OA
ATOM     15  O   UNL     1      -1.904   0.265   0.000  0.00  0.00    +0.000 OA
ENDBRANCH   1  12
BRANCH   1  17
ATOM     16  O   UNL     1       0.954  -0.560   0.000  0.00  0.00    +0.000 OA
ATOM     17  C   UNL     1       0.239  -0.147   0.000  0.00  0.00    +0.000 C 
BRANCH  17  18
ATOM     18  C   UNL     1       0.239   0.677   0.000  0.00  0.00    +0.000 A 
ATOM     19  C   UNL     1       0.954   1.090   0.000  0.00  0.00    +0.000 A 
ATOM     20  C   UNL     1       0.954   1.915   0.000  0.00  0.00    +0.000 A 
ATOM     21  C   UNL     1       1.668   2.328   0.000  0.00  0.00    +0.000 A 
ATOM     22  C   UNL     1       1.668   3.152   0.000  0.00  0.00    +0.000 A 
ATOM     23  C   UNL     1       0.954   3.565   0.000  0.00  0.00    +0.000 A 
ATOM     24  C   UNL     1       0.239   3.152   0.000  0.00  0.00    +0.000 A 
ATOM     25  C   UNL     1       0.239   2.328   0.000  0.00  0.00    +0.000 A 
ATOM     26  C   UNL     1      -0.475   1.915   0.000  0.00  0.00    +0.000 A 
ATOM     27  C   UNL     1      -0.475   1.090   0.000  0.00  0.00    +0.000 A 
ENDBRANCH  17  18
ENDBRANCH   1  17
TORSDOF 4
