REMARK  Name = KU8
REMARK  3 active torsions:
REMARK  status: ('A' for Active; 'I' for Inactive)
REMARK    1  A    between atoms: C_8  and  C_10
REMARK    2  A    between atoms: C_16  and  C_17
REMARK    3  A    between atoms: C_17  and  C_18
REMARK                            x       y       z     vdW  Elec       q    Type
REMARK                         _______ _______ _______ _____ _____    ______ ____
ROOT
ATOM      1  C   UNL     1      -0.477   0.477   0.000  0.00  0.00    +0.000 A 
ATOM      2  C   UNL     1       0.238   0.064   0.000  0.00  0.00    +0.000 A 
ATOM      3  C   UNL     1      -1.191   0.064   0.000  0.00  0.00    +0.000 A 
ATOM      4  F   UNL     1      -1.906   0.477   0.000  0.00  0.00    +0.000 F 
ATOM      5  C   UNL     1      -1.191  -0.761   0.000  0.00  0.00    +0.000 A 
ATOM      6  C   UNL     1      -0.477  -1.173   0.000  0.00  0.00    +0.000 A 
ATOM      7  C   UNL     1       0.238  -0.761   0.000  0.00  0.00    +0.000 A 
ENDROOT
BRANCH   1  15
ATOM      8  C   UNL     1      -1.873   1.250   0.000  0.00  0.00    +0.000 C 
ATOM      9  C   UNL     1      -2.661   1.493   0.000  0.00  0.00    +0.000 C 
ATOM     10  C   UNL     1      -2.963   2.261   0.000  0.00  0.00    +0.000 C 
ATOM     11  N   UNL     1      -2.550   2.975   0.000  0.00  0.00    +0.000 NA
ATOM     12  C   UNL     1      -1.734   3.098   0.000  0.00  0.00    +0.000 C 
ATOM     13  C   UNL     1      -1.130   2.537   0.000  0.00  0.00    +0.000 C 
ATOM     14  N   UNL     1      -1.191   1.714   0.000  0.00  0.00    +0.000 N 
ATOM     15  C   UNL     1      -0.477   1.302   0.000  0.00  0.00    +0.000 C 
ATOM     16  O   UNL     1       0.238   1.714   0.000  0.00  0.00    +0.000 OA
ENDBRANCH   1  15
BRANCH   7  17
ATOM     17  C   UNL     1       0.952  -1.173   0.000  0.00  0.00    +0.000 C 
BRANCH  17  18
ATOM     18  C   UNL     1       0.952  -1.998   0.000  0.00  0.00    +0.000 A 
ATOM     19  C   UNL     1       1.667  -2.411   0.000  0.00  0.00    +0.000 A 
ATOM     20  C   UNL     1       2.381  -1.998   0.000  0.00  0.00    +0.000 A 
ATOM     21  C   UNL     1       3.096  -2.411   0.000  0.00  0.00    +0.000 A 
ATOM     22  C   UNL     1       3.096  -3.236   0.000  0.00  0.00    +0.000 A 
ATOM     23  C   UNL     1       2.381  -3.648   0.000  0.00  0.00    +0.000 A 
ATOM     24  C   UNL     1       1.667  -3.236   0.000  0.00  0.00    +0.000 A 
ATOM     25  C   UNL     1       0.952  -3.648   0.000  0.00  0.00    +0.000 A 
ATOM     26  O   UNL     1       0.952  -4.473   0.000  0.00  0.00    +0.000 OA
ATOM     27  N   UNL     1       0.238  -3.236   0.000  0.00  0.00    +0.000 NA
ATOM     28  N   UNL     1       0.238  -2.411   0.000  0.00  0.00    +0.000 NA
ENDBRANCH  17  18
ENDBRANCH   7  17
TORSDOF 3
