REMARK  Name = KY1
REMARK  4 active torsions:
REMARK  status: ('A' for Active; 'I' for Inactive)
REMARK    1  A    between atoms: C_1  and  C_2
REMARK    2  A    between atoms: C_1  and  C_9
REMARK    3  A    between atoms: C_2  and  C_12
REMARK    4  A    between atoms: C_8  and  C_12
REMARK                            x       y       z     vdW  Elec       q    Type
REMARK                         _______ _______ _______ _____ _____    ______ ____
ROOT
ATOM      1  C   UNL     1      -0.534  -0.579   0.000  0.00  0.00    +0.000 A 
ATOM      2  C   UNL     1      -1.248  -0.991   0.000  0.00  0.00    +0.000 A 
ATOM      3  C   UNL     1      -1.962  -0.579   0.000  0.00  0.00    +0.000 A 
ATOM      4  C   UNL     1      -1.962   0.246   0.000  0.00  0.00    +0.000 A 
ATOM      5  C   UNL     1      -1.248   0.659   0.000  0.00  0.00    +0.000 A 
ATOM      6  C   UNL     1      -0.534   0.246   0.000  0.00  0.00    +0.000 A 
ATOM      7  N   UNL     1       0.181  -0.991   0.000  0.00  0.00    +0.000 NA
ENDROOT
BRANCH   6   8
ATOM      8  C   UNL     1       0.181   0.659   0.000  0.00  0.00    +0.000 C 
ATOM      9  O   UNL     1       0.181   1.484   0.000  0.00  0.00    +0.000 OA
BRANCH   8  10
ATOM     10  C   UNL     1       0.895   0.246   0.000  0.00  0.00    +0.000 C 
BRANCH  10  11
ATOM     11  C   UNL     1       1.610   0.659   0.000  0.00  0.00    +0.000 C 
BRANCH  11  12
ATOM     12  C   UNL     1       2.324   0.246   0.000  0.00  0.00    +0.000 C 
ATOM     13  O   UNL     1       3.039   0.659   0.000  0.00  0.00    +0.000 OA
ATOM     14  O   UNL     1       2.324  -0.579   0.000  0.00  0.00    +0.000 OA
ENDBRANCH  11  12
ENDBRANCH  10  11
ENDBRANCH   8  10
ENDBRANCH   6   8
TORSDOF 4
