REMARK  Name = L02
REMARK  2 active torsions:
REMARK  status: ('A' for Active; 'I' for Inactive)
REMARK    1  A    between atoms: C_3  and  C_13
REMARK    2  A    between atoms: C_5  and  C_6
REMARK                            x       y       z     vdW  Elec       q    Type
REMARK                         _______ _______ _______ _____ _____    ______ ____
ROOT
ATOM      1  N   UNL     1       0.553   1.014   0.000  0.00  0.00    +0.000 NA
ATOM      2  N   UNL     1       1.221   0.529   0.000  0.00  0.00    +0.000 NA
ATOM      3  C   UNL     1       0.966  -0.256   0.000  0.00  0.00    +0.000 A 
ATOM      4  C   UNL     1       0.141  -0.256   0.000  0.00  0.00    +0.000 A 
ATOM      5  C   UNL     1      -0.114   0.529   0.000  0.00  0.00    +0.000 A 
ENDROOT
BRANCH   3   7
ATOM      6  C   UNL     1       1.115  -1.677   0.000  0.00  0.00    +0.000 A 
ATOM      7  C   UNL     1       1.451  -0.923   0.000  0.00  0.00    +0.000 A 
ATOM      8  C   UNL     1       2.271  -0.837   0.000  0.00  0.00    +0.000 A 
ATOM      9  C   UNL     1       2.756  -1.504   0.000  0.00  0.00    +0.000 A 
ATOM     10  C   UNL     1       2.421  -2.258   0.000  0.00  0.00    +0.000 A 
ATOM     11  C   UNL     1       1.600  -2.344   0.000  0.00  0.00    +0.000 A 
ATOM     12 CL   UNL     1       2.905  -2.925   0.000  0.00  0.00    +0.000 Cl
ENDBRANCH   3   7
BRANCH   5  13
ATOM     13  C   UNL     1      -0.899   0.784   0.000  0.00  0.00    +0.000 C 
ATOM     14  C   UNL     1      -1.512   0.232   0.000  0.00  0.00    +0.000 C 
ATOM     15  C   UNL     1      -2.297   0.487   0.000  0.00  0.00    +0.000 C 
ATOM     16  N   UNL     1      -2.468   1.294   0.000  0.00  0.00    +0.000 NA
ATOM     17  C   UNL     1      -1.855   1.846   0.000  0.00  0.00    +0.000 C 
ATOM     18  C   UNL     1      -1.070   1.591   0.000  0.00  0.00    +0.000 C 
ENDBRANCH   5  13
TORSDOF 2
