REMARK  Name = L03
REMARK  2 active torsions:
REMARK  status: ('A' for Active; 'I' for Inactive)
REMARK    1  A    between atoms: S_2  and  C_3
REMARK    2  A    between atoms: C_6  and  C_8
REMARK                            x       y       z     vdW  Elec       q    Type
REMARK                         _______ _______ _______ _____ _____    ______ ____
ROOT
ATOM      1  C   UNL     1       0.694   1.241   0.000  0.00  0.00    +0.000 A 
ATOM      2  N   UNL     1       1.361   0.756   0.000  0.00  0.00    +0.000 NA
ATOM      3  N   UNL     1       1.106  -0.028   0.000  0.00  0.00    +0.000 NA
ATOM      4  C   UNL     1       0.281  -0.028   0.000  0.00  0.00    +0.000 A 
ATOM      5  N   UNL     1       0.026   0.756   0.000  0.00  0.00    +0.000 NA
ENDROOT
BRANCH   4   6
ATOM      6  C   UNL     1      -0.204  -0.696   0.000  0.00  0.00    +0.000 A 
ATOM      7  C   UNL     1       0.132  -1.449   0.000  0.00  0.00    +0.000 A 
ATOM      8  C   UNL     1      -0.353  -2.117   0.000  0.00  0.00    +0.000 A 
ATOM      9  C   UNL     1      -1.174  -2.030   0.000  0.00  0.00    +0.000 A 
ATOM     10 CL   UNL     1      -1.659  -2.698   0.000  0.00  0.00    +0.000 Cl
ATOM     11  C   UNL     1      -1.509  -1.277   0.000  0.00  0.00    +0.000 A 
ATOM     12  C   UNL     1      -1.024  -0.609   0.000  0.00  0.00    +0.000 A 
ENDBRANCH   4   6
BRANCH   1  14
ATOM     13  C   UNL     1       1.408   2.479   0.000  0.00  0.00    +0.000 C 
ATOM     14  S   UNL     1       0.694   2.066   0.000  0.00  0.00    +0.000 S 
ENDBRANCH   1  14
TORSDOF 2
