REMARK  Name = L05
REMARK  6 active torsions:
REMARK  status: ('A' for Active; 'I' for Inactive)
REMARK    1  A    between atoms: O_2  and  C_3
REMARK    2  A    between atoms: C_6  and  N_7
REMARK    3  A    between atoms: N_7  and  C_8
REMARK    4  A    between atoms: C_9  and  C_22
REMARK    5  A    between atoms: N_12  and  C_13
REMARK    6  A    between atoms: C_13  and  C_14
REMARK                            x       y       z     vdW  Elec       q    Type
REMARK                         _______ _______ _______ _____ _____    ______ ____
ROOT
ATOM      1  C   UNL     1       0.798   0.057   0.000  0.00  0.00    +0.000 C 
ATOM      2  C   UNL     1       1.465  -0.428   0.000  0.00  0.00    +0.000 C 
ATOM      3  C   UNL     1       1.210  -1.213   0.000  0.00  0.00    +0.000 C 
ATOM      4  O   UNL     1       1.695  -1.880   0.000  0.00  0.00    +0.000 OA
ATOM      5  N   UNL     1       0.385  -1.213   0.000  0.00  0.00    +0.000 N 
ATOM      6  C   UNL     1       0.130  -0.428   0.000  0.00  0.00    +0.000 C 
ATOM      7  O   UNL     1      -0.654  -0.173   0.000  0.00  0.00    +0.000 OA
ENDROOT
BRANCH   2   8
ATOM      8  C   UNL     1       2.250  -0.173   0.000  0.00  0.00    +0.000 A 
ATOM      9  C   UNL     1       2.421   0.634   0.000  0.00  0.00    +0.000 A 
ATOM     10  C   UNL     1       3.206   0.888   0.000  0.00  0.00    +0.000 A 
ATOM     11  C   UNL     1       3.819   0.337   0.000  0.00  0.00    +0.000 A 
ATOM     12  C   UNL     1       3.647  -0.470   0.000  0.00  0.00    +0.000 A 
ATOM     13  C   UNL     1       2.863  -0.725   0.000  0.00  0.00    +0.000 A 
ENDBRANCH   2   8
BRANCH   1  14
ATOM     14  N   UNL     1       0.798   0.882   0.000  0.00  0.00    +0.000 NA
BRANCH  14  18
ATOM     15  C   UNL     1      -1.346   2.119   0.000  0.00  0.00    +0.000 A 
ATOM     16  C   UNL     1      -0.631   2.532   0.000  0.00  0.00    +0.000 A 
ATOM     17  C   UNL     1       0.083   2.119   0.000  0.00  0.00    +0.000 A 
ATOM     18  C   UNL     1       0.083   1.294   0.000  0.00  0.00    +0.000 A 
ATOM     19  C   UNL     1      -0.631   0.882   0.000  0.00  0.00    +0.000 A 
ATOM     20  C   UNL     1      -1.346   1.294   0.000  0.00  0.00    +0.000 A 
BRANCH  15  22
ATOM     21  C   UNL     1      -2.775   2.119   0.000  0.00  0.00    +0.000 C 
ATOM     22  O   UNL     1      -2.060   2.532   0.000  0.00  0.00    +0.000 OA
ENDBRANCH  15  22
ENDBRANCH  14  18
ENDBRANCH   1  14
BRANCH   5  23
ATOM     23  C   UNL     1      -0.100  -1.880   0.000  0.00  0.00    +0.000 C 
BRANCH  23  24
ATOM     24  C   UNL     1      -0.920  -1.794   0.000  0.00  0.00    +0.000 A 
ATOM     25  C   UNL     1      -1.405  -2.462   0.000  0.00  0.00    +0.000 A 
ATOM     26  C   UNL     1      -2.226  -2.375   0.000  0.00  0.00    +0.000 A 
ATOM     27  C   UNL     1      -2.561  -1.622   0.000  0.00  0.00    +0.000 A 
ATOM     28  C   UNL     1      -2.076  -0.954   0.000  0.00  0.00    +0.000 A 
ATOM     29  C   UNL     1      -1.256  -1.040   0.000  0.00  0.00    +0.000 A 
ENDBRANCH  23  24
ENDBRANCH   5  23
TORSDOF 6
