REMARK  Name = L09
REMARK  6 active torsions:
REMARK  status: ('A' for Active; 'I' for Inactive)
REMARK    1  A    between atoms: C_2  and  C_5
REMARK    2  A    between atoms: C_7  and  N_8
REMARK    3  A    between atoms: N_11  and  C_12
REMARK    4  A    between atoms: C_17  and  C_18
REMARK    5  A    between atoms: C_18  and  O_19
REMARK    6  A    between atoms: O_19  and  C_20
REMARK                            x       y       z     vdW  Elec       q    Type
REMARK                         _______ _______ _______ _____ _____    ______ ____
ROOT
ATOM      1  C   UNL     1       0.214  -0.530   0.000  0.00  0.00    +0.000 A 
ATOM      2  C   UNL     1       0.550   0.224   0.000  0.00  0.00    +0.000 A 
ATOM      3  C   UNL     1       1.370   0.310   0.000  0.00  0.00    +0.000 A 
ATOM      4  C   UNL     1       1.855  -0.357   0.000  0.00  0.00    +0.000 A 
ATOM      5 CL   UNL     1       2.675  -0.271   0.000  0.00  0.00    +0.000 Cl
ATOM      6  C   UNL     1       1.520  -1.111   0.000  0.00  0.00    +0.000 A 
ATOM      7  C   UNL     1       0.699  -1.197   0.000  0.00  0.00    +0.000 A 
ENDROOT
BRANCH   1  11
ATOM      8  N   UNL     1      -1.912  -0.035   0.000  0.00  0.00    +0.000 NA
ATOM      9  C   UNL     1      -1.091   0.051   0.000  0.00  0.00    +0.000 C 
ATOM     10  O   UNL     1      -0.756   0.805   0.000  0.00  0.00    +0.000 OA
ATOM     11  N   UNL     1      -0.606  -0.616   0.000  0.00  0.00    +0.000 NA
BRANCH   8  14
ATOM     12  C   UNL     1      -2.809   1.902   0.000  0.00  0.00    +0.000 A 
ATOM     13  C   UNL     1      -2.142   1.417   0.000  0.00  0.00    +0.000 A 
ATOM     14  C   UNL     1      -2.397   0.633   0.000  0.00  0.00    +0.000 A 
ATOM     15  N   UNL     1      -3.222   0.633   0.000  0.00  0.00    +0.000 NA
ATOM     16  N   UNL     1      -3.477   1.417   0.000  0.00  0.00    +0.000 NA
BRANCH  12  18
ATOM     17  C   UNL     1      -2.809   3.552   0.000  0.00  0.00    +0.000 C 
ATOM     18  C   UNL     1      -2.809   2.727   0.000  0.00  0.00    +0.000 C 
ATOM     19  C   UNL     1      -3.634   2.727   0.000  0.00  0.00    +0.000 C 
ATOM     20  C   UNL     1      -1.984   2.727   0.000  0.00  0.00    +0.000 C 
ENDBRANCH  12  18
ENDBRANCH   8  14
ENDBRANCH   1  11
BRANCH   6  21
ATOM     21  C   UNL     1       2.004  -1.778   0.000  0.00  0.00    +0.000 C 
BRANCH  21  22
ATOM     22  O   UNL     1       2.825  -1.692   0.000  0.00  0.00    +0.000 OA
BRANCH  22  23
ATOM     23  C   UNL     1       3.310  -2.360   0.000  0.00  0.00    +0.000 A 
ATOM     24  C   UNL     1       4.130  -2.273   0.000  0.00  0.00    +0.000 A 
ATOM     25  C   UNL     1       4.615  -2.941   0.000  0.00  0.00    +0.000 A 
ATOM     26  C   UNL     1       4.280  -3.695   0.000  0.00  0.00    +0.000 A 
ATOM     27  N   UNL     1       3.459  -3.781   0.000  0.00  0.00    +0.000 NA
ATOM     28  C   UNL     1       2.974  -3.113   0.000  0.00  0.00    +0.000 A 
ENDBRANCH  22  23
ENDBRANCH  21  22
ENDBRANCH   6  21
TORSDOF 6
