REMARK  Name = L0D
REMARK  1 active torsions:
REMARK  status: ('A' for Active; 'I' for Inactive)
REMARK    1  A    between atoms: C_3  and  C_6
REMARK                            x       y       z     vdW  Elec       q    Type
REMARK                         _______ _______ _______ _____ _____    ______ ____
ROOT
ATOM      1  C   UNL     1      -0.533  -0.021   0.000  0.00  0.00    +0.000 A 
ATOM      2  N   UNL     1      -0.048   0.647   0.000  0.00  0.00    +0.000 NA
ATOM      3  C   UNL     1       0.736   0.392   0.000  0.00  0.00    +0.000 A 
ATOM      4  C   UNL     1       1.451   0.804   0.000  0.00  0.00    +0.000 A 
ATOM      5  C   UNL     1       2.165   0.392   0.000  0.00  0.00    +0.000 A 
ATOM      6  C   UNL     1       2.165  -0.433   0.000  0.00  0.00    +0.000 A 
ATOM      7  C   UNL     1       1.451  -0.846   0.000  0.00  0.00    +0.000 A 
ATOM      8  C   UNL     1       0.736  -0.433   0.000  0.00  0.00    +0.000 A 
ATOM      9  N   UNL     1      -0.048  -0.688   0.000  0.00  0.00    +0.000 NA
ENDROOT
BRANCH   1  12
ATOM     10  C   UNL     1      -2.628   0.392   0.000  0.00  0.00    +0.000 A 
ATOM     11  C   UNL     1      -1.843   0.647   0.000  0.00  0.00    +0.000 A 
ATOM     12  C   UNL     1      -1.358  -0.021   0.000  0.00  0.00    +0.000 A 
ATOM     13  N   UNL     1      -1.843  -0.688   0.000  0.00  0.00    +0.000 NA
ATOM     14  N   UNL     1      -2.628  -0.433   0.000  0.00  0.00    +0.000 NA
ENDBRANCH   1  12
TORSDOF 1
