REMARK  Name = L0I
REMARK  5 active torsions:
REMARK  status: ('A' for Active; 'I' for Inactive)
REMARK    1  A    between atoms: N_3  and  C_4
REMARK    2  A    between atoms: N_7  and  C_8
REMARK    3  A    between atoms: C_12  and  C_13
REMARK    4  A    between atoms: C_18  and  C_19
REMARK    5  A    between atoms: C_19  and  N_20
REMARK                            x       y       z     vdW  Elec       q    Type
REMARK                         _______ _______ _______ _____ _____    ______ ____
ROOT
ATOM      1  C   UNL     1      -0.975   0.574   0.000  0.00  0.00    +0.000 A 
ATOM      2  N   UNL     1      -0.490  -0.093   0.000  0.00  0.00    +0.000 NA
ATOM      3  C   UNL     1       0.295   0.162   0.000  0.00  0.00    +0.000 A 
ATOM      4  C   UNL     1       1.009  -0.251   0.000  0.00  0.00    +0.000 A 
ATOM      5  C   UNL     1       1.724   0.162   0.000  0.00  0.00    +0.000 A 
ATOM      6  C   UNL     1       1.724   0.987   0.000  0.00  0.00    +0.000 A 
ATOM      7  C   UNL     1       1.009   1.399   0.000  0.00  0.00    +0.000 A 
ATOM      8  C   UNL     1       0.295   0.987   0.000  0.00  0.00    +0.000 A 
ATOM      9  N   UNL     1      -0.490   1.242   0.000  0.00  0.00    +0.000 NA
ENDROOT
BRANCH   1  14
ATOM     10  C   UNL     1      -2.285  -0.093   0.000  0.00  0.00    +0.000 A 
ATOM     11  C   UNL     1      -3.069   0.162   0.000  0.00  0.00    +0.000 A 
ATOM     12  N   UNL     1      -3.069   0.987   0.000  0.00  0.00    +0.000 NA
ATOM     13  N   UNL     1      -2.285   1.242   0.000  0.00  0.00    +0.000 NA
ATOM     14  C   UNL     1      -1.800   0.574   0.000  0.00  0.00    +0.000 A 
BRANCH  10  18
ATOM     15  O   UNL     1      -3.389  -1.319   0.000  0.00  0.00    +0.000 OA
ATOM     16  C   UNL     1      -2.582  -1.491   0.000  0.00  0.00    +0.000 C 
ATOM     17  N   UNL     1      -2.327  -2.276   0.000  0.00  0.00    +0.000 NA
ATOM     18  N   UNL     1      -2.030  -0.878   0.000  0.00  0.00    +0.000 NA
BRANCH  17  19
ATOM     19  C   UNL     1      -2.879  -2.889   0.000  0.00  0.00    +0.000 C 
ATOM     20  C   UNL     1      -3.663  -3.144   0.000  0.00  0.00    +0.000 C 
ATOM     21  C   UNL     1      -3.050  -3.696   0.000  0.00  0.00    +0.000 C 
ENDBRANCH  17  19
ENDBRANCH  10  18
ENDBRANCH   1  14
BRANCH   6  22
ATOM     22  C   UNL     1       2.438   1.399   0.000  0.00  0.00    +0.000 C 
BRANCH  22  23
ATOM     23  N   UNL     1       3.153   0.987   0.000  0.00  0.00    +0.000 NA
ATOM     24  C   UNL     1       3.867   1.399   0.000  0.00  0.00    +0.000 C 
ATOM     25  C   UNL     1       4.582   0.987   0.000  0.00  0.00    +0.000 C 
ATOM     26  O   UNL     1       4.582   0.162   0.000  0.00  0.00    +0.000 OA
ATOM     27  C   UNL     1       3.867  -0.251   0.000  0.00  0.00    +0.000 C 
ATOM     28  C   UNL     1       3.153   0.162   0.000  0.00  0.00    +0.000 C 
ENDBRANCH  22  23
ENDBRANCH   6  22
TORSDOF 5
