REMARK  Name = L11
REMARK  6 active torsions:
REMARK  status: ('A' for Active; 'I' for Inactive)
REMARK    1  A    between atoms: C_5  and  C_6
REMARK    2  A    between atoms: C_6  and  O_7
REMARK    3  A    between atoms: O_7  and  C_8
REMARK    4  A    between atoms: C_15  and  N_16
REMARK    5  A    between atoms: C_17  and  C_19
REMARK    6  A    between atoms: C_24  and  N_26
REMARK                            x       y       z     vdW  Elec       q    Type
REMARK                         _______ _______ _______ _____ _____    ______ ____
ROOT
ATOM      1  N   UNL     1       1.892   0.367   0.000  0.00  0.00    +0.000 NA
ATOM      2  C   UNL     1       1.177  -0.045   0.000  0.00  0.00    +0.000 C 
ATOM      3  O   UNL     1       0.463   0.367   0.000  0.00  0.00    +0.000 OA
ENDROOT
BRANCH   1  10
ATOM      4 CL   UNL     1       1.892   3.667   0.000  0.00  0.00    +0.000 Cl
ATOM      5  C   UNL     1       1.892   2.842   0.000  0.00  0.00    +0.000 A 
ATOM      6  C   UNL     1       2.606   2.430   0.000  0.00  0.00    +0.000 A 
ATOM      7  C   UNL     1       2.606   1.605   0.000  0.00  0.00    +0.000 A 
ATOM      8  C   UNL     1       1.177   2.430   0.000  0.00  0.00    +0.000 A 
ATOM      9  C   UNL     1       1.177   1.605   0.000  0.00  0.00    +0.000 A 
ATOM     10  C   UNL     1       1.892   1.192   0.000  0.00  0.00    +0.000 A 
BRANCH   8  11
ATOM     11  C   UNL     1       0.463   2.842   0.000  0.00  0.00    +0.000 C 
BRANCH  11  12
ATOM     12  O   UNL     1       0.463   3.667   0.000  0.00  0.00    +0.000 OA
BRANCH  12  13
ATOM     13  C   UNL     1      -0.252   4.080   0.000  0.00  0.00    +0.000 A 
ATOM     14  C   UNL     1      -0.966   3.667   0.000  0.00  0.00    +0.000 A 
ATOM     15  N   UNL     1      -1.680   4.080   0.000  0.00  0.00    +0.000 NA
ATOM     16  C   UNL     1      -1.680   4.905   0.000  0.00  0.00    +0.000 A 
ATOM     17  C   UNL     1      -0.966   5.317   0.000  0.00  0.00    +0.000 A 
ATOM     18  C   UNL     1      -0.252   4.905   0.000  0.00  0.00    +0.000 A 
ENDBRANCH  12  13
ENDBRANCH  11  12
ENDBRANCH   8  11
ENDBRANCH   1  10
BRANCH   2  19
ATOM     19  C   UNL     1       1.177  -0.870   0.000  0.00  0.00    +0.000 C 
ATOM     20  C   UNL     1       1.892  -1.283   0.000  0.00  0.00    +0.000 C 
ATOM     21  C   UNL     1       1.892  -2.108   0.000  0.00  0.00    +0.000 C 
ATOM     22  F   UNL     1       2.606  -2.520   0.000  0.00  0.00    +0.000 F 
ATOM     23  C   UNL     1       0.463  -1.283   0.000  0.00  0.00    +0.000 C 
ATOM     24  C   UNL     1       0.463  -2.108   0.000  0.00  0.00    +0.000 C 
ATOM     25  C   UNL     1       1.177  -2.520   0.000  0.00  0.00    +0.000 C 
BRANCH  24  26
ATOM     26  N   UNL     1      -0.252  -2.520   0.000  0.00  0.00    +0.000 NA
ATOM     27  C   UNL     1      -0.252  -3.345   0.000  0.00  0.00    +0.000 C 
ATOM     28  C   UNL     1      -0.966  -3.758   0.000  0.00  0.00    +0.000 C 
ATOM     29  O   UNL     1      -1.680  -3.345   0.000  0.00  0.00    +0.000 OA
ATOM     30  C   UNL     1      -1.680  -2.520   0.000  0.00  0.00    +0.000 C 
ATOM     31  C   UNL     1      -0.966  -2.108   0.000  0.00  0.00    +0.000 C 
ENDBRANCH  24  26
ENDBRANCH   2  19
TORSDOF 6
