REMARK  Name = L12
REMARK  3 active torsions:
REMARK  status: ('A' for Active; 'I' for Inactive)
REMARK    1  A    between atoms: C_1  and  C_2
REMARK    2  A    between atoms: C_2  and  C_3
REMARK    3  A    between atoms: C_3  and  C_4
REMARK                            x       y       z     vdW  Elec       q    Type
REMARK                         _______ _______ _______ _____ _____    ______ ____
ROOT
ATOM      1  C   UNL     1       0.135   0.614   0.000  0.00  0.00    +0.000 A 
ATOM      2  C   UNL     1      -0.350   1.281   0.000  0.00  0.00    +0.000 A 
ATOM      3  C   UNL     1       1.634   0.456   0.000  0.00  0.00    +0.000 A 
ATOM      4  C   UNL     1       0.919   0.869   0.000  0.00  0.00    +0.000 A 
ATOM      5  C   UNL     1       0.919   1.694   0.000  0.00  0.00    +0.000 A 
ATOM      6  C   UNL     1       1.634   2.106   0.000  0.00  0.00    +0.000 A 
ATOM      7  C   UNL     1       2.348   1.694   0.000  0.00  0.00    +0.000 A 
ATOM      8  N   UNL     1       0.135   1.949   0.000  0.00  0.00    +0.000 NA
ATOM      9  C   UNL     1       2.348   0.869   0.000  0.00  0.00    +0.000 A 
ENDROOT
BRANCH   1  10
ATOM     10  C   UNL     1      -0.120  -0.171   0.000  0.00  0.00    +0.000 C 
BRANCH  10  11
ATOM     11  C   UNL     1      -0.927  -0.343   0.000  0.00  0.00    +0.000 C 
BRANCH  11  12
ATOM     12  C   UNL     1      -1.182  -1.127   0.000  0.00  0.00    +0.000 A 
ATOM     13  C   UNL     1      -0.630  -1.740   0.000  0.00  0.00    +0.000 A 
ATOM     14  C   UNL     1      -0.885  -2.525   0.000  0.00  0.00    +0.000 A 
ATOM     15  N   UNL     1      -1.692  -2.696   0.000  0.00  0.00    +0.000 NA
ATOM     16  C   UNL     1      -2.244  -2.083   0.000  0.00  0.00    +0.000 A 
ATOM     17  C   UNL     1      -1.989  -1.299   0.000  0.00  0.00    +0.000 A 
ENDBRANCH  11  12
ENDBRANCH  10  11
ENDBRANCH   1  10
TORSDOF 3
