REMARK  Name = L13
REMARK  1 active torsions:
REMARK  status: ('A' for Active; 'I' for Inactive)
REMARK    1  A    between atoms: C_7  and  C_8
REMARK                            x       y       z     vdW  Elec       q    Type
REMARK                         _______ _______ _______ _____ _____    ______ ____
ROOT
ATOM      1  N   UNL     1       1.529   0.777   0.000  0.00  0.00    +0.000 NA
ATOM      2  N   UNL     1       1.529  -0.048   0.000  0.00  0.00    +0.000 N 
ATOM      3  C   UNL     1       2.196  -0.533   0.000  0.00  0.00    +0.000 A 
ATOM      4  S   UNL     1       2.981  -0.278   0.000  0.00  0.00    +0.000 S 
ATOM      5  N   UNL     1       1.942  -1.318   0.000  0.00  0.00    +0.000 NA
ATOM      6  N   UNL     1       1.117  -1.318   0.000  0.00  0.00    +0.000 NA
ATOM      7  C   UNL     1       0.862  -0.533   0.000  0.00  0.00    +0.000 A 
ENDROOT
BRANCH   7   8
ATOM      8  C   UNL     1       0.077  -0.278   0.000  0.00  0.00    +0.000 A 
ATOM      9  C   UNL     1      -0.536  -0.830   0.000  0.00  0.00    +0.000 A 
ATOM     10  C   UNL     1      -1.321  -0.575   0.000  0.00  0.00    +0.000 A 
ATOM     11  C   UNL     1      -1.492   0.232   0.000  0.00  0.00    +0.000 A 
ATOM     12  C   UNL     1      -0.879   0.784   0.000  0.00  0.00    +0.000 A 
ATOM     13  C   UNL     1      -0.095   0.529   0.000  0.00  0.00    +0.000 A 
ATOM     14  C   UNL     1       0.518   1.081   0.000  0.00  0.00    +0.000 C 
ENDBRANCH   7   8
TORSDOF 1
