REMARK  Name = L15
REMARK  3 active torsions:
REMARK  status: ('A' for Active; 'I' for Inactive)
REMARK    1  A    between atoms: C_6  and  C_7
REMARK    2  A    between atoms: C_10  and  C_11
REMARK    3  A    between atoms: C_11  and  C_12
REMARK                            x       y       z     vdW  Elec       q    Type
REMARK                         _______ _______ _______ _____ _____    ______ ____
ROOT
ATOM      1  C   UNL     1       1.415  -1.300   0.000  0.00  0.00    +0.000 A 
ATOM      2  C   UNL     1       0.802  -1.852   0.000  0.00  0.00    +0.000 A 
ATOM      3  C   UNL     1       0.017  -1.597   0.000  0.00  0.00    +0.000 A 
ATOM      4  C   UNL     1      -0.154  -0.790   0.000  0.00  0.00    +0.000 A 
ATOM      5  C   UNL     1       0.459  -0.238   0.000  0.00  0.00    +0.000 A 
ATOM      6  C   UNL     1       1.244  -0.493   0.000  0.00  0.00    +0.000 A 
ENDROOT
BRANCH   1  12
ATOM      7  C   UNL     1       2.867  -0.245   0.000  0.00  0.00    +0.000 C 
ATOM      8  C   UNL     1       2.867  -1.070   0.000  0.00  0.00    +0.000 A 
ATOM      9  N   UNL     1       3.534  -1.555   0.000  0.00  0.00    +0.000 NA
ATOM     10  N   UNL     1       3.280  -2.340   0.000  0.00  0.00    +0.000 NA
ATOM     11  C   UNL     1       2.454  -2.340   0.000  0.00  0.00    +0.000 A 
ATOM     12  C   UNL     1       2.200  -1.555   0.000  0.00  0.00    +0.000 A 
ENDBRANCH   1  12
BRANCH   4  13
ATOM     13  C   UNL     1      -0.939  -0.535   0.000  0.00  0.00    +0.000 C 
BRANCH  13  14
ATOM     14  C   UNL     1      -1.110   0.272   0.000  0.00  0.00    +0.000 C 
ATOM     15  N   UNL     1      -1.895   0.526   0.000  0.00  0.00    +0.000 NA
ENDBRANCH  13  14
ENDBRANCH   4  13
TORSDOF 3
