REMARK  Name = L18
REMARK  5 active torsions:
REMARK  status: ('A' for Active; 'I' for Inactive)
REMARK    1  A    between atoms: C_1  and  C_3
REMARK    2  A    between atoms: C_1  and  C_17
REMARK    3  A    between atoms: C_3  and  C_4
REMARK    4  A    between atoms: C_4  and  C_11
REMARK    5  A    between atoms: C_16  and  C_17
REMARK                            x       y       z     vdW  Elec       q    Type
REMARK                         _______ _______ _______ _____ _____    ______ ____
ROOT
ATOM      1  C   UNL     1     -15.486 -16.246   0.000  0.00  0.00    +0.000 C 
ATOM      2  C   UNL     1     -15.486 -15.421   0.000  0.00  0.00    +0.000 C 
ENDROOT
BRANCH   1   3
ATOM      3  C   UNL     1     -16.201 -16.659   0.000  0.00  0.00    +0.000 C 
BRANCH   3   4
ATOM      4  C   UNL     1     -16.915 -16.246   0.000  0.00  0.00    +0.000 C 
ATOM      5  C   UNL     1     -16.915 -15.421   0.000  0.00  0.00    +0.000 C 
BRANCH   4  11
ATOM      6  C   UNL     1     -17.630 -17.483   0.000  0.00  0.00    +0.000 A 
ATOM      7  C   UNL     1     -18.344 -17.896   0.000  0.00  0.00    +0.000 A 
ATOM      8  C   UNL     1     -19.058 -17.483   0.000  0.00  0.00    +0.000 A 
ATOM      9  C   UNL     1     -19.058 -16.659   0.000  0.00  0.00    +0.000 A 
ATOM     10  C   UNL     1     -18.344 -16.246   0.000  0.00  0.00    +0.000 A 
ATOM     11  C   UNL     1     -17.630 -16.659   0.000  0.00  0.00    +0.000 A 
ENDBRANCH   4  11
ENDBRANCH   3   4
ENDBRANCH   1   3
BRANCH   1  12
ATOM     12  C   UNL     1     -14.772 -16.659   0.000  0.00  0.00    +0.000 C 
BRANCH  12  17
ATOM     13  C   UNL     1     -13.343 -15.008   0.000  0.00  0.00    +0.000 C 
ATOM     14  C   UNL     1     -12.628 -15.421   0.000  0.00  0.00    +0.000 C 
ATOM     15  C   UNL     1     -12.628 -16.246   0.000  0.00  0.00    +0.000 C 
ATOM     16  C   UNL     1     -13.343 -16.659   0.000  0.00  0.00    +0.000 C 
ATOM     17  C   UNL     1     -14.057 -16.246   0.000  0.00  0.00    +0.000 C 
ATOM     18  C   UNL     1     -14.772 -15.008   0.000  0.00  0.00    +0.000 C 
ATOM     19  N   UNL     1     -14.057 -15.421   0.000  0.00  0.00    +0.000 NA
ENDBRANCH  12  17
ENDBRANCH   1  12
TORSDOF 5
