REMARK  Name = L1R
REMARK  7 active torsions:
REMARK  status: ('A' for Active; 'I' for Inactive)
REMARK    1  A    between atoms: C_2  and  O_4
REMARK    2  A    between atoms: O_4  and  C_5
REMARK    3  A    between atoms: C_9  and  N_10
REMARK    4  A    between atoms: C_11  and  C_13
REMARK    5  A    between atoms: C_17  and  O_18
REMARK    6  A    between atoms: O_18  and  C_19
REMARK    7  A    between atoms: C_19  and  C_20
REMARK                            x       y       z     vdW  Elec       q    Type
REMARK                         _______ _______ _______ _____ _____    ______ ____
ROOT
ATOM      1  N   UNL     1      14.446   5.516   0.000  0.00  0.00    +0.000 NA
ATOM      2  C   UNL     1      14.446   4.691   0.000  0.00  0.00    +0.000 C 
ATOM      3  O   UNL     1      15.160   4.278   0.000  0.00  0.00    +0.000 OA
ENDROOT
BRANCH   2   4
ATOM      4  C   UNL     1      13.731   4.278   0.000  0.00  0.00    +0.000 A 
ATOM      5  C   UNL     1      13.731   3.453   0.000  0.00  0.00    +0.000 A 
ATOM      6  C   UNL     1      13.017   3.041   0.000  0.00  0.00    +0.000 A 
ATOM      7 CL   UNL     1      13.017   2.216   0.000  0.00  0.00    +0.000 Cl
ATOM      8  C   UNL     1      12.303   3.453   0.000  0.00  0.00    +0.000 A 
ATOM      9  C   UNL     1      12.303   4.278   0.000  0.00  0.00    +0.000 A 
ATOM     10 CL   UNL     1      11.588   4.691   0.000  0.00  0.00    +0.000 Cl
ATOM     11  C   UNL     1      13.017   4.691   0.000  0.00  0.00    +0.000 A 
BRANCH   8  12
ATOM     12  O   UNL     1      11.588   3.041   0.000  0.00  0.00    +0.000 OA
BRANCH  12  13
ATOM     13  C   UNL     1      11.588   2.216   0.000  0.00  0.00    +0.000 C 
BRANCH  13  14
ATOM     14  C   UNL     1      10.873   1.803   0.000  0.00  0.00    +0.000 C 
ATOM     15  N   UNL     1      10.873   0.978   0.000  0.00  0.00    +0.000 NA
ENDBRANCH  13  14
ENDBRANCH  12  13
ENDBRANCH   8  12
ENDBRANCH   2   4
BRANCH   1  20
ATOM     16  C   UNL     1      15.875   7.166   0.000  0.00  0.00    +0.000 A 
ATOM     17  C   UNL     1      16.589   6.753   0.000  0.00  0.00    +0.000 A 
ATOM     18  C   UNL     1      16.589   5.928   0.000  0.00  0.00    +0.000 A 
ATOM     19  C   UNL     1      15.875   5.516   0.000  0.00  0.00    +0.000 A 
ATOM     20  C   UNL     1      15.160   5.928   0.000  0.00  0.00    +0.000 A 
ATOM     21  C   UNL     1      15.160   6.753   0.000  0.00  0.00    +0.000 A 
BRANCH  16  22
ATOM     22  O   UNL     1      15.875   7.991   0.000  0.00  0.00    +0.000 OA
BRANCH  22  24
ATOM     23  C   UNL     1      16.589   9.228   0.000  0.00  0.00    +0.000 C 
ATOM     24  C   UNL     1      16.589   8.403   0.000  0.00  0.00    +0.000 C 
ATOM     25  C   UNL     1      17.304   7.991   0.000  0.00  0.00    +0.000 C 
ENDBRANCH  22  24
ENDBRANCH  16  22
ENDBRANCH   1  20
TORSDOF 7
