REMARK  Name = L20
REMARK  6 active torsions:
REMARK  status: ('A' for Active; 'I' for Inactive)
REMARK    1  A    between atoms: C_8  and  C_11
REMARK    2  A    between atoms: C_15  and  O_16
REMARK    3  A    between atoms: O_16  and  C_17
REMARK    4  A    between atoms: C_17  and  C_18
REMARK    5  A    between atoms: C_18  and  C_20
REMARK    6  A    between atoms: C_20  and  C_21
REMARK                            x       y       z     vdW  Elec       q    Type
REMARK                         _______ _______ _______ _____ _____    ______ ____
ROOT
ATOM      1  C   UNL     1      -3.112  -2.594   0.000  0.00  0.00    +0.000 A 
ATOM      2  C   UNL     1      -3.919  -2.765   0.000  0.00  0.00    +0.000 A 
ATOM      3  N   UNL     1      -4.471  -2.152   0.000  0.00  0.00    +0.000 NA
ATOM      4  C   UNL     1      -4.216  -1.367   0.000  0.00  0.00    +0.000 A 
ATOM      5  C   UNL     1      -3.409  -1.196   0.000  0.00  0.00    +0.000 A 
ATOM      6  C   UNL     1      -2.857  -1.809   0.000  0.00  0.00    +0.000 A 
ENDROOT
BRANCH   1  14
ATOM      7  C   UNL     1       0.109  -2.981   0.000  0.00  0.00    +0.000 C 
ATOM      8  C   UNL     1      -0.376  -3.648   0.000  0.00  0.00    +0.000 A 
ATOM      9  N   UNL     1      -0.121  -4.433   0.000  0.00  0.00    +0.000 NA
ATOM     10  N   UNL     1      -0.788  -4.918   0.000  0.00  0.00    +0.000 NA
ATOM     11  C   UNL     1      -1.456  -4.433   0.000  0.00  0.00    +0.000 A 
ATOM     12  C   UNL     1      -2.263  -4.604   0.000  0.00  0.00    +0.000 A 
ATOM     13  C   UNL     1      -2.814  -3.991   0.000  0.00  0.00    +0.000 A 
ATOM     14  C   UNL     1      -2.560  -3.207   0.000  0.00  0.00    +0.000 A 
ATOM     15  C   UNL     1      -1.753  -3.035   0.000  0.00  0.00    +0.000 A 
ATOM     16  C   UNL     1      -1.201  -3.648   0.000  0.00  0.00    +0.000 A 
ENDBRANCH   1  14
BRANCH   5  17
ATOM     17  O   UNL     1      -3.154  -0.411   0.000  0.00  0.00    +0.000 OA
BRANCH  17  18
ATOM     18  C   UNL     1      -2.347  -0.240   0.000  0.00  0.00    +0.000 C 
BRANCH  18  19
ATOM     19  C   UNL     1      -2.092   0.545   0.000  0.00  0.00    +0.000 C 
ATOM     20  N   UNL     1      -2.644   1.158   0.000  0.00  0.00    +0.000 NA
BRANCH  19  21
ATOM     21  C   UNL     1      -1.285   0.716   0.000  0.00  0.00    +0.000 C 
BRANCH  21  22
ATOM     22  C   UNL     1      -1.030   1.501   0.000  0.00  0.00    +0.000 A 
ATOM     23  C   UNL     1      -1.515   2.168   0.000  0.00  0.00    +0.000 A 
ATOM     24  N   UNL     1      -1.030   2.836   0.000  0.00  0.00    +0.000 NA
ATOM     25  C   UNL     1      -0.245   2.581   0.000  0.00  0.00    +0.000 A 
ATOM     26  C   UNL     1       0.469   2.993   0.000  0.00  0.00    +0.000 A 
ATOM     27  C   UNL     1       1.184   2.581   0.000  0.00  0.00    +0.000 A 
ATOM     28  C   UNL     1       1.184   1.756   0.000  0.00  0.00    +0.000 A 
ATOM     29  C   UNL     1       0.469   1.343   0.000  0.00  0.00    +0.000 A 
ATOM     30  C   UNL     1      -0.245   1.756   0.000  0.00  0.00    +0.000 A 
ENDBRANCH  21  22
ENDBRANCH  19  21
ENDBRANCH  18  19
ENDBRANCH  17  18
ENDBRANCH   5  17
TORSDOF 6
