REMARK  Name = L22
REMARK  1 active torsions:
REMARK  status: ('A' for Active; 'I' for Inactive)
REMARK    1  A    between atoms: C_6  and  C_7
REMARK                            x       y       z     vdW  Elec       q    Type
REMARK                         _______ _______ _______ _____ _____    ______ ____
ROOT
ATOM      1  C   UNL     1      -0.186  -0.462   0.000  0.00  0.00    +0.000 A 
ATOM      2  C   UNL     1       0.150  -1.216   0.000  0.00  0.00    +0.000 A 
ATOM      3  C   UNL     1      -0.335  -1.883   0.000  0.00  0.00    +0.000 A 
ATOM      4  N   UNL     1      -1.156  -1.797   0.000  0.00  0.00    +0.000 NA
ATOM      5  C   UNL     1      -1.491  -1.044   0.000  0.00  0.00    +0.000 A 
ATOM      6  N   UNL     1      -1.006  -0.376   0.000  0.00  0.00    +0.000 NA
ATOM      7  N   UNL     1      -2.312  -0.957   0.000  0.00  0.00    +0.000 NA
ENDROOT
BRANCH   1  13
ATOM      8  N   UNL     1       0.712   2.300   0.000  0.00  0.00    +0.000 NA
ATOM      9  C   UNL     1       0.712   1.475   0.000  0.00  0.00    +0.000 A 
ATOM     10  S   UNL     1       1.379   0.990   0.000  0.00  0.00    +0.000 S 
ATOM     11  C   UNL     1       1.124   0.205   0.000  0.00  0.00    +0.000 A 
ATOM     12  N   UNL     1       0.044   0.990   0.000  0.00  0.00    +0.000 NA
ATOM     13  C   UNL     1       0.299   0.205   0.000  0.00  0.00    +0.000 A 
ENDBRANCH   1  13
TORSDOF 1
