REMARK  Name = L23
REMARK  3 active torsions:
REMARK  status: ('A' for Active; 'I' for Inactive)
REMARK    1  A    between atoms: C_8  and  C_9
REMARK    2  A    between atoms: C_9  and  N_10
REMARK    3  A    between atoms: C_15  and  C_16
REMARK                            x       y       z     vdW  Elec       q    Type
REMARK                         _______ _______ _______ _____ _____    ______ ____
ROOT
ATOM      1  N   UNL     1      -0.596   0.470   0.000  0.00  0.00    +0.000 N 
ATOM      2  C   UNL     1       0.072  -0.015   0.000  0.00  0.00    +0.000 A 
ATOM      3  C   UNL     1      -1.263  -0.015   0.000  0.00  0.00    +0.000 A 
ATOM      4  C   UNL     1      -2.048   0.240   0.000  0.00  0.00    +0.000 C 
ATOM      5  N   UNL     1      -1.008  -0.799   0.000  0.00  0.00    +0.000 NA
ATOM      6  C   UNL     1      -0.183  -0.799   0.000  0.00  0.00    +0.000 A 
ENDROOT
BRANCH   6   7
ATOM      7  C   UNL     1       0.302  -1.467   0.000  0.00  0.00    +0.000 A 
ATOM      8  C   UNL     1       1.122  -1.381   0.000  0.00  0.00    +0.000 A 
ATOM      9  C   UNL     1       1.607  -2.048   0.000  0.00  0.00    +0.000 A 
ATOM     10  N   UNL     1       1.272  -2.802   0.000  0.00  0.00    +0.000 NA
ATOM     11  C   UNL     1       0.451  -2.888   0.000  0.00  0.00    +0.000 A 
ATOM     12  N   UNL     1      -0.034  -2.220   0.000  0.00  0.00    +0.000 NA
ATOM     13  N   UNL     1       0.116  -3.642   0.000  0.00  0.00    +0.000 NA
ENDBRANCH   6   7
BRANCH   1  14
ATOM     14  C   UNL     1      -0.596   1.295   0.000  0.00  0.00    +0.000 C 
BRANCH  14  22
ATOM     15 CL   UNL     1      -0.596   2.945   0.000  0.00  0.00    +0.000 Cl
ATOM     16  C   UNL     1       0.119   2.533   0.000  0.00  0.00    +0.000 A 
ATOM     17  C   UNL     1       0.833   2.945   0.000  0.00  0.00    +0.000 A 
ATOM     18  C   UNL     1       1.548   2.533   0.000  0.00  0.00    +0.000 A 
ATOM     19  C   UNL     1       1.548   1.708   0.000  0.00  0.00    +0.000 A 
ATOM     20  C   UNL     1       0.833   1.295   0.000  0.00  0.00    +0.000 A 
ATOM     21 CL   UNL     1       0.833   0.470   0.000  0.00  0.00    +0.000 Cl
ATOM     22  C   UNL     1       0.119   1.708   0.000  0.00  0.00    +0.000 A 
ENDBRANCH  14  22
ENDBRANCH   1  14
TORSDOF 3
