REMARK  Name = L35
REMARK  5 active torsions:
REMARK  status: ('A' for Active; 'I' for Inactive)
REMARK    1  A    between atoms: C_1  and  N_18
REMARK    2  A    between atoms: C_8  and  O_21
REMARK    3  A    between atoms: C_11  and  N_19
REMARK    4  A    between atoms: C_14  and  C_17
REMARK    5  A    between atoms: C_14  and  O_21
REMARK                            x       y       z     vdW  Elec       q    Type
REMARK                         _______ _______ _______ _____ _____    ______ ____
ROOT
ATOM      1  C   UNL     1      -1.669   1.180   0.000  0.00  0.00    +0.000 A 
ATOM      2  C   UNL     1      -0.955   1.592   0.000  0.00  0.00    +0.000 A 
ATOM      3  C   UNL     1      -0.240   1.180   0.000  0.00  0.00    +0.000 A 
ATOM      4  C   UNL     1      -0.240   0.355   0.000  0.00  0.00    +0.000 A 
ATOM      5  C   UNL     1      -0.955  -0.058   0.000  0.00  0.00    +0.000 A 
ATOM      6  C   UNL     1      -1.669   0.355   0.000  0.00  0.00    +0.000 A 
ENDROOT
BRANCH   4   9
ATOM      7  C   UNL     1       0.474  -0.883   0.000  0.00  0.00    +0.000 C 
ATOM      8  N   UNL     1       1.189  -1.295   0.000  0.00  0.00    +0.000 NA
ATOM      9  N   UNL     1       0.474  -0.058   0.000  0.00  0.00    +0.000 NA
ATOM     10  O   UNL     1      -0.240  -1.295   0.000  0.00  0.00    +0.000 OA
BRANCH   8  11
ATOM     11  C   UNL     1       1.189  -2.120   0.000  0.00  0.00    +0.000 A 
ATOM     12  C   UNL     1       1.903  -2.533   0.000  0.00  0.00    +0.000 A 
ATOM     13  C   UNL     1       1.903  -3.358   0.000  0.00  0.00    +0.000 A 
ATOM     14  C   UNL     1       1.189  -3.770   0.000  0.00  0.00    +0.000 A 
ATOM     15  C   UNL     1       0.474  -3.358   0.000  0.00  0.00    +0.000 A 
ATOM     16  C   UNL     1       0.474  -2.533   0.000  0.00  0.00    +0.000 A 
ATOM     17 CL   UNL     1      -0.240  -3.770   0.000  0.00  0.00    +0.000 Cl
ATOM     18 CL   UNL     1       2.618  -3.770   0.000  0.00  0.00    +0.000 Cl
ENDBRANCH   8  11
ENDBRANCH   4   9
BRANCH   1  19
ATOM     19  O   UNL     1      -2.384   1.592   0.000  0.00  0.00    +0.000 OA
BRANCH  19  20
ATOM     20  C   UNL     1      -2.384   2.417   0.000  0.00  0.00    +0.000 C 
ATOM     21  C   UNL     1      -1.559   2.417   0.000  0.00  0.00    +0.000 C 
ATOM     22  C   UNL     1      -3.209   2.417   0.000  0.00  0.00    +0.000 C 
BRANCH  20  23
ATOM     23  C   UNL     1      -2.384   3.242   0.000  0.00  0.00    +0.000 C 
ATOM     24  O   UNL     1      -3.098   3.655   0.000  0.00  0.00    +0.000 OA
ATOM     25  O   UNL     1      -1.669   3.655   0.000  0.00  0.00    +0.000 OA
ENDBRANCH  20  23
ENDBRANCH  19  20
ENDBRANCH   1  19
TORSDOF 5
