REMARK  Name = L41
REMARK  12 active torsions:
REMARK  status: ('A' for Active; 'I' for Inactive)
REMARK    1  A    between atoms: C_1  and  C_4
REMARK    2  A    between atoms: C_2  and  O_6
REMARK    3  A    between atoms: C_4  and  C_9
REMARK    4  A    between atoms: O_6  and  C_11
REMARK    5  A    between atoms: C_7  and  C_12
REMARK    6  A    between atoms: C_11  and  C_14
REMARK    7  A    between atoms: C_14  and  C_17
REMARK    8  A    between atoms: C_17  and  O_18
REMARK    9  A    between atoms: O_18  and  C_19
REMARK   10  A    between atoms: C_24  and  O_25
REMARK   11  A    between atoms: O_25  and  C_26
REMARK   12  A    between atoms: C_26  and  C_27
REMARK                            x       y       z     vdW  Elec       q    Type
REMARK                         _______ _______ _______ _____ _____    ______ ____
ROOT
ATOM      1  C   UNL     1      -0.720  -0.453   0.000  0.00  0.00    +0.000 C 
ENDROOT
BRANCH   1   2
ATOM      2  O   UNL     1      -1.434  -0.866   0.000  0.00  0.00    +0.000 OA
BRANCH   2   4
ATOM      3  C   UNL     1      -2.863  -0.866   0.000  0.00  0.00    +0.000 A 
ATOM      4  C   UNL     1      -2.149  -0.453   0.000  0.00  0.00    +0.000 A 
ATOM      5  C   UNL     1      -3.578  -0.453   0.000  0.00  0.00    +0.000 A 
ATOM      6  C   UNL     1      -2.149   0.372   0.000  0.00  0.00    +0.000 A 
ATOM      7  C   UNL     1      -3.578   0.372   0.000  0.00  0.00    +0.000 A 
ATOM      8  O   UNL     1      -4.292  -0.866   0.000  0.00  0.00    +0.000 OA
ATOM      9  C   UNL     1      -2.863   0.784   0.000  0.00  0.00    +0.000 A 
BRANCH   7  10
ATOM     10  C   UNL     1      -4.292   0.784   0.000  0.00  0.00    +0.000 C 
ATOM     11  C   UNL     1      -4.292   1.609   0.000  0.00  0.00    +0.000 C 
ATOM     12  O   UNL     1      -5.006   0.372   0.000  0.00  0.00    +0.000 OA
ENDBRANCH   7  10
BRANCH   3  13
ATOM     13  C   UNL     1      -2.863  -1.691   0.000  0.00  0.00    +0.000 C 
BRANCH  13  14
ATOM     14  C   UNL     1      -2.149  -2.103   0.000  0.00  0.00    +0.000 C 
ATOM     15  C   UNL     1      -2.149  -2.928   0.000  0.00  0.00    +0.000 C 
ENDBRANCH  13  14
ENDBRANCH   3  13
ENDBRANCH   2   4
ENDBRANCH   1   2
BRANCH   1  16
ATOM     16  C   UNL     1      -0.005  -0.866   0.000  0.00  0.00    +0.000 C 
BRANCH  16  17
ATOM     17  C   UNL     1       0.709  -0.453   0.000  0.00  0.00    +0.000 C 
BRANCH  17  18
ATOM     18  O   UNL     1       1.424  -0.866   0.000  0.00  0.00    +0.000 OA
BRANCH  18  19
ATOM     19  C   UNL     1       2.138  -0.453   0.000  0.00  0.00    +0.000 A 
ATOM     20  C   UNL     1       2.853  -0.866   0.000  0.00  0.00    +0.000 A 
ATOM     21  C   UNL     1       2.138   0.372   0.000  0.00  0.00    +0.000 A 
ATOM     22  C   UNL     1       3.567  -0.453   0.000  0.00  0.00    +0.000 A 
ATOM     23  C   UNL     1       2.853   0.784   0.000  0.00  0.00    +0.000 A 
ATOM     24  C   UNL     1       3.567   0.372   0.000  0.00  0.00    +0.000 A 
BRANCH  24  25
ATOM     25  O   UNL     1       4.282   0.784   0.000  0.00  0.00    +0.000 OA
BRANCH  25  26
ATOM     26  C   UNL     1       4.282   1.609   0.000  0.00  0.00    +0.000 C 
BRANCH  26  27
ATOM     27  C   UNL     1       4.996   2.022   0.000  0.00  0.00    +0.000 C 
ATOM     28  O   UNL     1       4.996   2.847   0.000  0.00  0.00    +0.000 OA
ATOM     29  O   UNL     1       5.711   1.609   0.000  0.00  0.00    +0.000 OA
ENDBRANCH  26  27
ENDBRANCH  25  26
ENDBRANCH  24  25
ENDBRANCH  18  19
ENDBRANCH  17  18
ENDBRANCH  16  17
ENDBRANCH   1  16
TORSDOF 12
