REMARK  Name = L47
REMARK  2 active torsions:
REMARK  status: ('A' for Active; 'I' for Inactive)
REMARK    1  A    between atoms: C_3  and  C_7
REMARK    2  A    between atoms: C_10  and  C_12
REMARK                            x       y       z     vdW  Elec       q    Type
REMARK                         _______ _______ _______ _____ _____    ______ ____
ROOT
ATOM      1  C   UNL     1       1.109  -0.280   0.000  0.00  0.00    +0.000 C 
ATOM      2  N   UNL     1       0.854  -1.064   0.000  0.00  0.00    +0.000 NA
ATOM      3  N   UNL     1       0.029  -1.064   0.000  0.00  0.00    +0.000 N 
ATOM      4  C   UNL     1      -0.226  -0.280   0.000  0.00  0.00    +0.000 C 
ATOM      5  C   UNL     1       0.442   0.205   0.000  0.00  0.00    +0.000 C 
ATOM      6  C   UNL     1      -0.456  -1.732   0.000  0.00  0.00    +0.000 C 
ATOM      7  C   UNL     1      -1.276  -1.646   0.000  0.00  0.00    +0.000 C 
ATOM      8  O   UNL     1      -0.120  -2.486   0.000  0.00  0.00    +0.000 OA
ENDROOT
BRANCH   1  11
ATOM      9  C   UNL     1       3.291  -0.322   0.000  0.00  0.00    +0.000 A 
ATOM     10  C   UNL     1       2.507  -0.577   0.000  0.00  0.00    +0.000 A 
ATOM     11  C   UNL     1       1.894  -0.025   0.000  0.00  0.00    +0.000 A 
ATOM     12  C   UNL     1       2.065   0.782   0.000  0.00  0.00    +0.000 A 
ATOM     13  C   UNL     1       2.850   1.037   0.000  0.00  0.00    +0.000 A 
ATOM     14  C   UNL     1       3.463   0.485   0.000  0.00  0.00    +0.000 A 
ATOM     15 CL   UNL     1       1.452   1.334   0.000  0.00  0.00    +0.000 Cl
ENDBRANCH   1  11
BRANCH   4  16
ATOM     16  C   UNL     1      -1.010  -0.025   0.000  0.00  0.00    +0.000 A 
ATOM     17  C   UNL     1      -1.624  -0.577   0.000  0.00  0.00    +0.000 A 
ATOM     18  C   UNL     1      -2.408  -0.322   0.000  0.00  0.00    +0.000 A 
ATOM     19  C   UNL     1      -2.580   0.485   0.000  0.00  0.00    +0.000 A 
ATOM     20  C   UNL     1      -1.967   1.037   0.000  0.00  0.00    +0.000 A 
ATOM     21  C   UNL     1      -1.182   0.782   0.000  0.00  0.00    +0.000 A 
ATOM     22  O   UNL     1      -2.138   1.844   0.000  0.00  0.00    +0.000 OA
ENDBRANCH   4  16
TORSDOF 2
