REMARK  Name = L5G
REMARK  5 active torsions:
REMARK  status: ('A' for Active; 'I' for Inactive)
REMARK    1  A    between atoms: C_3  and  C_6
REMARK    2  A    between atoms: C_9  and  O_21
REMARK    3  A    between atoms: O_15  and  C_16
REMARK    4  A    between atoms: O_21  and  C_22
REMARK    5  A    between atoms: C_22  and  C_23
REMARK                            x       y       z     vdW  Elec       q    Type
REMARK                         _______ _______ _______ _____ _____    ______ ____
ROOT
ATOM      1  N   UNL     1       0.570  -1.456   0.000  0.00  0.00    +0.000 NA
ATOM      2  N   UNL     1      -0.929  -2.949   0.000  0.00  0.00    +0.000 NA
ATOM      3  C   UNL     1       1.284  -1.869   0.000  0.00  0.00    +0.000 A 
ATOM      4  C   UNL     1       1.284  -2.694   0.000  0.00  0.00    +0.000 A 
ATOM      5  C   UNL     1      -0.144  -2.694   0.000  0.00  0.00    +0.000 A 
ATOM      6  C   UNL     1      -0.929  -1.614   0.000  0.00  0.00    +0.000 A 
ATOM      7  N   UNL     1      -0.144  -1.869   0.000  0.00  0.00    +0.000 N 
ATOM      8  N   UNL     1      -1.414  -2.281   0.000  0.00  0.00    +0.000 NA
ATOM      9  C   UNL     1       0.570  -3.106   0.000  0.00  0.00    +0.000 A 
ENDROOT
BRANCH   3  10
ATOM     10  C   UNL     1       1.999  -1.456   0.000  0.00  0.00    +0.000 A 
ATOM     11  C   UNL     1       1.999  -0.631   0.000  0.00  0.00    +0.000 A 
ATOM     12  C   UNL     1       2.713  -0.219   0.000  0.00  0.00    +0.000 A 
ATOM     13  C   UNL     1       2.713  -1.869   0.000  0.00  0.00    +0.000 A 
ATOM     14  C   UNL     1       3.428  -1.456   0.000  0.00  0.00    +0.000 A 
ATOM     15  C   UNL     1       3.428  -0.631   0.000  0.00  0.00    +0.000 A 
ENDBRANCH   3  10
BRANCH   6  16
ATOM     16  C   UNL     1      -1.184  -0.829   0.000  0.00  0.00    +0.000 C 
BRANCH  16  17
ATOM     17  O   UNL     1      -1.991  -0.658   0.000  0.00  0.00    +0.000 OA
BRANCH  17  18
ATOM     18  C   UNL     1      -2.246   0.127   0.000  0.00  0.00    +0.000 A 
ATOM     19  C   UNL     1      -3.308   1.083   0.000  0.00  0.00    +0.000 A 
ATOM     20  C   UNL     1      -1.949   1.525   0.000  0.00  0.00    +0.000 A 
ATOM     21  C   UNL     1      -0.335   1.182   0.000  0.00  0.00    +0.000 A 
ATOM     22  C   UNL     1      -0.887   0.569   0.000  0.00  0.00    +0.000 A 
ATOM     23  C   UNL     1      -0.590   1.966   0.000  0.00  0.00    +0.000 A 
ATOM     24  C   UNL     1      -1.397   2.138   0.000  0.00  0.00    +0.000 A 
ATOM     25  C   UNL     1      -1.694   0.740   0.000  0.00  0.00    +0.000 A 
ATOM     26  N   UNL     1      -2.756   1.696   0.000  0.00  0.00    +0.000 NA
ATOM     27  C   UNL     1      -3.053   0.298   0.000  0.00  0.00    +0.000 A 
BRANCH  23  29
ATOM     28  C   UNL     1      -0.293   3.364   0.000  0.00  0.00    +0.000 C 
ATOM     29  O   UNL     1      -0.038   2.579   0.000  0.00  0.00    +0.000 OA
ENDBRANCH  23  29
ENDBRANCH  17  18
ENDBRANCH  16  17
ENDBRANCH   6  16
TORSDOF 5
