REMARK  Name = LAE
REMARK  7 active torsions:
REMARK  status: ('A' for Active; 'I' for Inactive)
REMARK    1  A    between atoms: C_1  and  N_7
REMARK    2  A    between atoms: C_8  and  C_9
REMARK    3  A    between atoms: C_9  and  C_10
REMARK    4  A    between atoms: C_10  and  C_11
REMARK    5  A    between atoms: C_11  and  C_12
REMARK    6  A    between atoms: C_12  and  C_13
REMARK    7  A    between atoms: C_13  and  C_14
REMARK                            x       y       z     vdW  Elec       q    Type
REMARK                         _______ _______ _______ _____ _____    ______ ____
ROOT
ATOM      1  N   UNL     1      -1.663   0.249   0.000  0.00  0.00    +0.000 NA
ATOM      2  C   UNL     1      -0.948  -0.164   0.000  0.00  0.00    +0.000 C 
ATOM      3  O   UNL     1      -0.948  -0.989   0.000  0.00  0.00    +0.000 OA
ENDROOT
BRANCH   1   4
ATOM      4  C   UNL     1      -2.377  -0.164   0.000  0.00  0.00    +0.000 C 
ATOM      5  C   UNL     1      -2.463  -0.984   0.000  0.00  0.00    +0.000 C 
ATOM      6  O   UNL     1      -3.270  -1.155   0.000  0.00  0.00    +0.000 OA
ATOM      7  C   UNL     1      -3.683  -0.441   0.000  0.00  0.00    +0.000 C 
ATOM      8  C   UNL     1      -3.131   0.172   0.000  0.00  0.00    +0.000 C 
ATOM      9  O   UNL     1      -1.850  -1.536   0.000  0.00  0.00    +0.000 OA
ENDBRANCH   1   4
BRANCH   2  10
ATOM     10  C   UNL     1      -0.234   0.249   0.000  0.00  0.00    +0.000 C 
BRANCH  10  11
ATOM     11  C   UNL     1       0.481  -0.164   0.000  0.00  0.00    +0.000 C 
ATOM     12  O   UNL     1       0.481  -0.989   0.000  0.00  0.00    +0.000 OA
BRANCH  11  13
ATOM     13  C   UNL     1       1.195   0.249   0.000  0.00  0.00    +0.000 C 
BRANCH  13  14
ATOM     14  C   UNL     1       1.910  -0.164   0.000  0.00  0.00    +0.000 C 
BRANCH  14  15
ATOM     15  C   UNL     1       2.624   0.249   0.000  0.00  0.00    +0.000 C 
BRANCH  15  16
ATOM     16  C   UNL     1       3.339  -0.164   0.000  0.00  0.00    +0.000 C 
ATOM     17  C   UNL     1       4.053   0.249   0.000  0.00  0.00    +0.000 C 
ENDBRANCH  15  16
ENDBRANCH  14  15
ENDBRANCH  13  14
ENDBRANCH  11  13
ENDBRANCH  10  11
ENDBRANCH   2  10
TORSDOF 7
