REMARK  Name = LAZ
REMARK  3 active torsions:
REMARK  status: ('A' for Active; 'I' for Inactive)
REMARK    1  A    between atoms: C_2  and  C_7
REMARK    2  A    between atoms: N_3  and  C_4
REMARK    3  A    between atoms: C_4  and  C_5
REMARK                            x       y       z     vdW  Elec       q    Type
REMARK                         _______ _______ _______ _____ _____    ______ ____
ROOT
ATOM      1  C   UNL     1      -0.723  -0.118   0.000  0.00  0.00    +0.000 A 
ATOM      2  C   UNL     1      -1.437  -0.531   0.000  0.00  0.00    +0.000 A 
ATOM      3  C   UNL     1      -2.151  -0.118   0.000  0.00  0.00    +0.000 A 
ATOM      4  C   UNL     1      -2.151   0.707   0.000  0.00  0.00    +0.000 A 
ATOM      5 CL   UNL     1      -2.866   1.119   0.000  0.00  0.00    +0.000 Cl
ATOM      6  C   UNL     1      -1.437   1.119   0.000  0.00  0.00    +0.000 A 
ATOM      7  C   UNL     1      -0.723   0.707   0.000  0.00  0.00    +0.000 A 
ENDROOT
BRANCH   1   9
ATOM      8  O   UNL     1      -0.008  -1.356   0.000  0.00  0.00    +0.000 OA
ATOM      9  C   UNL     1      -0.008  -0.531   0.000  0.00  0.00    +0.000 C 
ATOM     10  N   UNL     1       0.706  -0.118   0.000  0.00  0.00    +0.000 NA
BRANCH  10  11
ATOM     11  C   UNL     1       1.421  -0.531   0.000  0.00  0.00    +0.000 C 
BRANCH  11  12
ATOM     12  C   UNL     1       2.135  -0.118   0.000  0.00  0.00    +0.000 C 
ATOM     13  O   UNL     1       2.850  -0.531   0.000  0.00  0.00    +0.000 OA
ENDBRANCH  11  12
ENDBRANCH  10  11
ENDBRANCH   1   9
TORSDOF 3
