REMARK  Name = LC1
REMARK  2 active torsions:
REMARK  status: ('A' for Active; 'I' for Inactive)
REMARK    1  A    between atoms: C_5  and  C_6
REMARK    2  A    between atoms: C_11  and  S_12
REMARK                            x       y       z     vdW  Elec       q    Type
REMARK                         _______ _______ _______ _____ _____    ______ ____
ROOT
ATOM      1  C   UNL     1      -1.132   0.205   0.000  0.00  0.00    +0.000 A 
ATOM      2  N   UNL     1      -0.647   0.872   0.000  0.00  0.00    +0.000 NA
ATOM      3  C   UNL     1       0.137   0.617   0.000  0.00  0.00    +0.000 A 
ATOM      4  C   UNL     1       0.852   1.030   0.000  0.00  0.00    +0.000 A 
ATOM      5  C   UNL     1       1.566   0.617   0.000  0.00  0.00    +0.000 A 
ATOM      6  C   UNL     1       1.566  -0.208   0.000  0.00  0.00    +0.000 A 
ATOM      7  C   UNL     1       0.852  -0.620   0.000  0.00  0.00    +0.000 A 
ATOM      8  C   UNL     1       0.137  -0.208   0.000  0.00  0.00    +0.000 A 
ATOM      9  N   UNL     1      -0.647  -0.463   0.000  0.00  0.00    +0.000 NA
ENDROOT
BRANCH   1  14
ATOM     10  C   UNL     1      -2.442  -0.463   0.000  0.00  0.00    +0.000 A 
ATOM     11  S   UNL     1      -3.227  -0.208   0.000  0.00  0.00    +0.000 S 
ATOM     12  C   UNL     1      -3.227   0.617   0.000  0.00  0.00    +0.000 A 
ATOM     13  N   UNL     1      -2.442   0.872   0.000  0.00  0.00    +0.000 NA
ATOM     14  C   UNL     1      -1.957   0.205   0.000  0.00  0.00    +0.000 A 
ENDBRANCH   1  14
BRANCH   6  15
ATOM     15  S   UNL     1       2.281  -0.620   0.000  0.00  0.00    +0.000 S 
ATOM     16  O   UNL     1       2.995  -1.033   0.000  0.00  0.00    +0.000 OA
ATOM     17  O   UNL     1       1.868  -1.335   0.000  0.00  0.00    +0.000 OA
ATOM     18  N   UNL     1       2.693   0.094   0.000  0.00  0.00    +0.000 NA
ENDBRANCH   6  15
TORSDOF 2
