REMARK  Name = LDT
REMARK  7 active torsions:
REMARK  status: ('A' for Active; 'I' for Inactive)
REMARK    1  A    between atoms: C_3  and  O_12
REMARK    2  A    between atoms: C_6  and  C_9
REMARK    3  A    between atoms: C_9  and  N_14
REMARK    4  A    between atoms: C_10  and  N_14
REMARK    5  A    between atoms: C_10  and  C_16
REMARK    6  A    between atoms: O_12  and  C_15
REMARK    7  A    between atoms: C_15  and  C_22
REMARK                            x       y       z     vdW  Elec       q    Type
REMARK                         _______ _______ _______ _____ _____    ______ ____
ROOT
ATOM      1  C   UNL     1      -1.356   1.885   0.000  0.00  0.00    +0.000 A 
ATOM      2  C   UNL     1      -1.356   0.235   0.000  0.00  0.00    +0.000 A 
ATOM      3  C   UNL     1      -0.642   1.473   0.000  0.00  0.00    +0.000 A 
ATOM      4  C   UNL     1      -2.071   1.473   0.000  0.00  0.00    +0.000 A 
ATOM      5  C   UNL     1      -2.071   0.648   0.000  0.00  0.00    +0.000 A 
ATOM      6  C   UNL     1      -0.642   0.648   0.000  0.00  0.00    +0.000 A 
ATOM      7  F   UNL     1      -2.785   1.885   0.000  0.00  0.00    +0.000 F 
ENDROOT
BRANCH   6   8
ATOM      8  C   UNL     1       0.073   0.235   0.000  0.00  0.00    +0.000 C 
ATOM      9  S   UNL     1       0.787   0.648   0.000  0.00  0.00    +0.000 S 
BRANCH   8  10
ATOM     10  N   UNL     1       0.073  -0.590   0.000  0.00  0.00    +0.000 NA
BRANCH  10  11
ATOM     11  C   UNL     1       0.787  -1.002   0.000  0.00  0.00    +0.000 C 
BRANCH  11  14
ATOM     12 BR   UNL     1       0.787  -4.302   0.000  0.00  0.00    +0.000 Br
ATOM     13  F   UNL     1      -0.642  -1.827   0.000  0.00  0.00    +0.000 F 
ATOM     14  C   UNL     1       0.787  -1.827   0.000  0.00  0.00    +0.000 A 
ATOM     15  C   UNL     1       0.787  -3.477   0.000  0.00  0.00    +0.000 A 
ATOM     16  C   UNL     1       1.502  -2.240   0.000  0.00  0.00    +0.000 A 
ATOM     17  C   UNL     1       0.073  -2.240   0.000  0.00  0.00    +0.000 A 
ATOM     18  C   UNL     1       0.073  -3.065   0.000  0.00  0.00    +0.000 A 
ATOM     19  C   UNL     1       1.502  -3.065   0.000  0.00  0.00    +0.000 A 
ENDBRANCH  11  14
ENDBRANCH  10  11
ENDBRANCH   8  10
ENDBRANCH   6   8
BRANCH   3  20
ATOM     20  O   UNL     1       0.073   1.885   0.000  0.00  0.00    +0.000 OA
BRANCH  20  21
ATOM     21  C   UNL     1       0.073   2.710   0.000  0.00  0.00    +0.000 C 
BRANCH  21  22
ATOM     22  C   UNL     1       0.787   3.123   0.000  0.00  0.00    +0.000 C 
ATOM     23  O   UNL     1       0.787   3.948   0.000  0.00  0.00    +0.000 OA
ATOM     24  O   UNL     1       1.502   2.710   0.000  0.00  0.00    +0.000 OA
ENDBRANCH  21  22
ENDBRANCH  20  21
ENDBRANCH   3  20
TORSDOF 7
