REMARK  Name = LEG
REMARK  7 active torsions:
REMARK  status: ('A' for Active; 'I' for Inactive)
REMARK    1  A    between atoms: C_2  and  C_3
REMARK    2  A    between atoms: C_3  and  C_4
REMARK    3  A    between atoms: C_4  and  C_5
REMARK    4  A    between atoms: C_5  and  C_6
REMARK    5  A    between atoms: C_6  and  C_7
REMARK    6  A    between atoms: C_12  and  C_13
REMARK    7  A    between atoms: C_13  and  C_15
REMARK                            x       y       z     vdW  Elec       q    Type
REMARK                         _______ _______ _______ _____ _____    ______ ____
ROOT
ATOM      1  C   UNL     1       0.069  -0.294   0.000  0.00  0.00    +0.000 A 
ATOM      2  C   UNL     1       0.784  -0.706   0.000  0.00  0.00    +0.000 A 
ATOM      3  C   UNL     1       1.498  -0.294   0.000  0.00  0.00    +0.000 A 
ATOM      4  C   UNL     1       0.069   0.531   0.000  0.00  0.00    +0.000 A 
ATOM      5  C   UNL     1       0.784   0.944   0.000  0.00  0.00    +0.000 A 
ATOM      6  C   UNL     1       1.498   0.531   0.000  0.00  0.00    +0.000 A 
ENDROOT
BRANCH   6   7
ATOM      7  C   UNL     1       2.213   0.944   0.000  0.00  0.00    +0.000 C 
ATOM      8  O   UNL     1       2.213   1.769   0.000  0.00  0.00    +0.000 OA
BRANCH   7   9
ATOM      9  C   UNL     1       2.927   0.531   0.000  0.00  0.00    +0.000 C 
ATOM     10  C   UNL     1       3.642   0.944   0.000  0.00  0.00    +0.000 C 
ENDBRANCH   7   9
ENDBRANCH   6   7
BRANCH   1  11
ATOM     11  C   UNL     1      -0.645  -0.706   0.000  0.00  0.00    +0.000 C 
BRANCH  11  12
ATOM     12  C   UNL     1      -1.360  -0.294   0.000  0.00  0.00    +0.000 C 
BRANCH  12  13
ATOM     13  C   UNL     1      -2.074  -0.706   0.000  0.00  0.00    +0.000 C 
BRANCH  13  14
ATOM     14  C   UNL     1      -2.789  -0.294   0.000  0.00  0.00    +0.000 C 
BRANCH  14  16
ATOM     15  C   UNL     1      -4.218  -0.294   0.000  0.00  0.00    +0.000 C 
ATOM     16  C   UNL     1      -3.503  -0.706   0.000  0.00  0.00    +0.000 C 
ENDBRANCH  14  16
ENDBRANCH  13  14
ENDBRANCH  12  13
ENDBRANCH  11  12
ENDBRANCH   1  11
TORSDOF 7
