REMARK  Name = LEH
REMARK  16 active torsions:
REMARK  status: ('A' for Active; 'I' for Inactive)
REMARK    1  A    between atoms: C_2  and  C_12
REMARK    2  A    between atoms: N_3  and  CA_4
REMARK    3  A    between atoms: CA_4  and  CB_5
REMARK    4  A    between atoms: CA_4  and  C_9
REMARK    5  A    between atoms: CB_5  and  CG_6
REMARK    6  A    between atoms: C_12  and  C_13
REMARK    7  A    between atoms: C_13  and  C_14
REMARK    8  A    between atoms: C_14  and  C_15
REMARK    9  A    between atoms: C_15  and  C_16
REMARK   10  A    between atoms: C_16  and  C_17
REMARK   11  A    between atoms: C_17  and  C_18
REMARK   12  A    between atoms: C_18  and  C_19
REMARK   13  A    between atoms: C_19  and  C_20
REMARK   14  A    between atoms: C_20  and  C_21
REMARK   15  A    between atoms: C_21  and  C_22
REMARK   16  A    between atoms: C_22  and  N_23
REMARK                            x       y       z     vdW  Elec       q    Type
REMARK                         _______ _______ _______ _____ _____    ______ ____
ROOT
ATOM      1  C   UNK A   0      -0.438  -0.543   0.000  0.00  0.00    +0.000 C 
ENDROOT
BRANCH   1   2
ATOM      2  C   UNK A   0      -1.152  -0.131   0.000  0.00  0.00    +0.000 C 
BRANCH   2   3
ATOM      3  C   UNK A   0      -1.867  -0.543   0.000  0.00  0.00    +0.000 C 
BRANCH   3   5
ATOM      4  O   UNK A   0      -2.581   0.694   0.000  0.00  0.00    +0.000 OA
ATOM      5  C   UNK A   0      -2.581  -0.131   0.000  0.00  0.00    +0.000 C 
ATOM      6  N   LEU A   1      -3.296  -0.543   0.000  0.00  0.00    +0.000 NA
BRANCH   6   7
ATOM      7  CA  LEU A   1      -4.011  -0.131   0.000  0.00  0.00    +0.000 C 
BRANCH   7   8
ATOM      8  C   LEU A   1      -4.011   0.694   0.000  0.00  0.00    +0.000 C 
ATOM      9  O   LEU A   1      -4.725   1.107   0.000  0.00  0.00    +0.000 OA
ATOM     10  OXT LEU A   1      -3.296   1.107   0.000  0.00  0.00    +0.000 OA
ENDBRANCH   7   8
BRANCH   7  11
ATOM     11  CB  LEU A   1      -4.725  -0.543   0.000  0.00  0.00    +0.000 C 
BRANCH  11  12
ATOM     12  CG  LEU A   1      -5.439  -0.131   0.000  0.00  0.00    +0.000 C 
ATOM     13  CD1 LEU A   1      -6.154  -0.543   0.000  0.00  0.00    +0.000 C 
ATOM     14  CD2 LEU A   1      -5.439   0.694   0.000  0.00  0.00    +0.000 C 
ENDBRANCH  11  12
ENDBRANCH   7  11
ENDBRANCH   6   7
ENDBRANCH   3   5
ENDBRANCH   2   3
ENDBRANCH   1   2
BRANCH   1  15
ATOM     15  C   UNK A   0       0.277  -0.131   0.000  0.00  0.00    +0.000 C 
BRANCH  15  16
ATOM     16  C   UNK A   0       0.991  -0.543   0.000  0.00  0.00    +0.000 C 
BRANCH  16  17
ATOM     17  C   UNK A   0       1.706  -0.131   0.000  0.00  0.00    +0.000 C 
BRANCH  17  18
ATOM     18  C   UNK A   0       2.420  -0.543   0.000  0.00  0.00    +0.000 C 
BRANCH  18  19
ATOM     19  C   UNK A   0       3.135  -0.131   0.000  0.00  0.00    +0.000 C 
BRANCH  19  20
ATOM     20  C   UNK A   0       3.849  -0.543   0.000  0.00  0.00    +0.000 C 
BRANCH  20  21
ATOM     21  C   UNK A   0       4.564  -0.131   0.000  0.00  0.00    +0.000 C 
BRANCH  21  22
ATOM     22  C   UNK A   0       5.278  -0.543   0.000  0.00  0.00    +0.000 C 
BRANCH  22  23
ATOM     23  N   UNK A   0       5.993  -0.131   0.000  0.00  0.00    +0.000 N 
ATOM     24  C   UNK A   0       6.747  -0.467   0.000  0.00  0.00    +0.000 A 
ATOM     25  C   UNK A   0       7.299   0.146   0.000  0.00  0.00    +0.000 A 
ATOM     26  N   UNK A   0       6.886   0.861   0.000  0.00  0.00    +0.000 NA
ATOM     27  C   UNK A   0       6.079   0.690   0.000  0.00  0.00    +0.000 A 
ENDBRANCH  22  23
ENDBRANCH  21  22
ENDBRANCH  20  21
ENDBRANCH  19  20
ENDBRANCH  18  19
ENDBRANCH  17  18
ENDBRANCH  16  17
ENDBRANCH  15  16
ENDBRANCH   1  15
TORSDOF 16
