REMARK  Name = LG7
REMARK  2 active torsions:
REMARK  status: ('A' for Active; 'I' for Inactive)
REMARK    1  A    between atoms: C_5  and  C_9
REMARK    2  A    between atoms: C_10  and  N_19
REMARK                            x       y       z     vdW  Elec       q    Type
REMARK                         _______ _______ _______ _____ _____    ______ ____
ROOT
ATOM      1  C   UNL     1       2.729   2.936   0.000  0.00  0.00    +0.000 A 
ATOM      2  C   UNL     1       3.554   0.078   0.000  0.00  0.00    +0.000 A 
ATOM      3  C   UNL     1       3.967   0.793   0.000  0.00  0.00    +0.000 A 
ATOM      4  C   UNL     1       3.554   1.507   0.000  0.00  0.00    +0.000 A 
ATOM      5  C   UNL     1       3.967   2.222   0.000  0.00  0.00    +0.000 A 
ATOM      6  C   UNL     1       2.729   0.078   0.000  0.00  0.00    +0.000 A 
ATOM      7  C   UNL     1       2.317   0.793   0.000  0.00  0.00    +0.000 A 
ATOM      8  C   UNL     1       2.729   1.507   0.000  0.00  0.00    +0.000 A 
ATOM      9  C   UNL     1       2.317   2.222   0.000  0.00  0.00    +0.000 A 
ATOM     10  C   UNL     1       3.554   2.936   0.000  0.00  0.00    +0.000 A 
ENDROOT
BRANCH   9  19
ATOM     11  O   UNL     1      -0.817   0.769   0.000  0.00  0.00    +0.000 OA
ATOM     12  C   UNL     1      -0.562   1.554   0.000  0.00  0.00    +0.000 C 
ATOM     13  C   UNL     1      -1.047   2.222   0.000  0.00  0.00    +0.000 C 
ATOM     14  C   UNL     1      -0.562   2.889   0.000  0.00  0.00    +0.000 C 
ATOM     15  N   UNL     1       0.222   2.634   0.000  0.00  0.00    +0.000 N 
ATOM     16  C   UNL     1       0.222   1.809   0.000  0.00  0.00    +0.000 C 
ATOM     17  C   UNL     1       1.007   1.554   0.000  0.00  0.00    +0.000 C 
ATOM     18  O   UNL     1       1.262   0.769   0.000  0.00  0.00    +0.000 OA
ATOM     19  N   UNL     1       1.492   2.222   0.000  0.00  0.00    +0.000 N 
ATOM     20  C   UNL     1       1.007   2.889   0.000  0.00  0.00    +0.000 C 
ATOM     21  O   UNL     1       1.262   3.674   0.000  0.00  0.00    +0.000 OA
ENDBRANCH   9  19
BRANCH   5  22
ATOM     22  C   UNL     1       4.792   2.222   0.000  0.00  0.00    +0.000 C 
ATOM     23  N   UNL     1       5.617   2.222   0.000  0.00  0.00    +0.000 NA
ENDBRANCH   5  22
TORSDOF 2
