REMARK  Name = LGB
REMARK  3 active torsions:
REMARK  status: ('A' for Active; 'I' for Inactive)
REMARK    1  A    between atoms: C_8  and  C_21
REMARK    2  A    between atoms: N_9  and  C_10
REMARK    3  A    between atoms: C_13  and  C_19
REMARK                            x       y       z     vdW  Elec       q    Type
REMARK                         _______ _______ _______ _____ _____    ______ ____
ROOT
ATOM      1  C   UNL     1      -1.418  -0.220   0.000  0.00  0.00    +0.000 C 
ATOM      2  N   UNL     1      -0.633  -0.475   0.000  0.00  0.00    +0.000 N 
ATOM      3  C   UNL     1      -0.633  -1.300   0.000  0.00  0.00    +0.000 C 
ATOM      4  C   UNL     1      -1.418  -1.555   0.000  0.00  0.00    +0.000 C 
ATOM      5  C   UNL     1      -1.903  -0.887   0.000  0.00  0.00    +0.000 C 
ATOM      6  C   UNL     1       0.152  -0.220   0.000  0.00  0.00    +0.000 C 
ATOM      7  O   UNL     1       0.636  -0.887   0.000  0.00  0.00    +0.000 OA
ATOM      8  C   UNL     1       0.152  -1.555   0.000  0.00  0.00    +0.000 C 
ATOM      9  N   UNL     1       0.406   0.565   0.000  0.00  0.00    +0.000 NA
ATOM     10  O   UNL     1      -1.673  -2.340   0.000  0.00  0.00    +0.000 OA
ENDROOT
BRANCH   9  11
ATOM     11  C   UNL     1       1.214   0.736   0.000  0.00  0.00    +0.000 A 
ATOM     12  C   UNL     1       1.468   1.521   0.000  0.00  0.00    +0.000 A 
ATOM     13  C   UNL     1       2.275   1.692   0.000  0.00  0.00    +0.000 A 
ATOM     14  C   UNL     1       2.827   1.079   0.000  0.00  0.00    +0.000 A 
ATOM     15  C   UNL     1       2.572   0.294   0.000  0.00  0.00    +0.000 A 
ATOM     16  C   UNL     1       1.766   0.123   0.000  0.00  0.00    +0.000 A 
ATOM     17  C   UNL     1       0.916   2.134   0.000  0.00  0.00    +0.000 C 
ATOM     18 CL   UNL     1       2.530   2.477   0.000  0.00  0.00    +0.000 Cl
BRANCH  14  19
ATOM     19  C   UNL     1       3.634   1.251   0.000  0.00  0.00    +0.000 C 
ATOM     20  N   UNL     1       4.441   1.422   0.000  0.00  0.00    +0.000 NA
ENDBRANCH  14  19
ENDBRANCH   9  11
BRANCH   8  21
ATOM     21  C   UNL     1       0.406  -2.340   0.000  0.00  0.00    +0.000 C 
ATOM     22  F   UNL     1       0.661  -3.124   0.000  0.00  0.00    +0.000 F 
ATOM     23  F   UNL     1      -0.378  -2.595   0.000  0.00  0.00    +0.000 F 
ATOM     24  F   UNL     1       1.191  -2.085   0.000  0.00  0.00    +0.000 F 
ENDBRANCH   8  21
TORSDOF 3
