REMARK  Name = LGD
REMARK  6 active torsions:
REMARK  status: ('A' for Active; 'I' for Inactive)
REMARK    1  A    between atoms: C_4  and  C_14
REMARK    2  A    between atoms: C_10  and  N_16
REMARK    3  A    between atoms: C_15  and  N_16
REMARK    4  A    between atoms: C_15  and  C_21
REMARK    5  A    between atoms: N_16  and  C_17
REMARK    6  A    between atoms: C_17  and  C_25
REMARK                            x       y       z     vdW  Elec       q    Type
REMARK                         _______ _______ _______ _____ _____    ______ ____
ROOT
ATOM      1  N   UNL     1      -0.201   3.594   0.000  0.00  0.00    +0.000 NA
ATOM      2  C   UNL     1      -1.026   3.594   0.000  0.00  0.00    +0.000 A 
ATOM      3  C   UNL     1      -1.439   2.879   0.000  0.00  0.00    +0.000 A 
ATOM      4  C   UNL     1      -1.026   2.165   0.000  0.00  0.00    +0.000 A 
ATOM      5  C   UNL     1      -0.201   2.165   0.000  0.00  0.00    +0.000 A 
ATOM      6  C   UNL     1       0.211   1.450   0.000  0.00  0.00    +0.000 A 
ATOM      7  C   UNL     1       1.036   1.450   0.000  0.00  0.00    +0.000 A 
ATOM      8  C   UNL     1       1.449   2.165   0.000  0.00  0.00    +0.000 A 
ATOM      9  C   UNL     1       1.036   2.879   0.000  0.00  0.00    +0.000 A 
ATOM     10  C   UNL     1       0.211   2.879   0.000  0.00  0.00    +0.000 A 
ATOM     11  O   UNL     1      -1.439   4.308   0.000  0.00  0.00    +0.000 OA
ENDROOT
BRANCH   4  15
ATOM     12  F   UNL     1      -1.851   0.736   0.000  0.00  0.00    +0.000 F 
ATOM     13  F   UNL     1      -0.724   1.038   0.000  0.00  0.00    +0.000 F 
ATOM     14  F   UNL     1      -2.153   1.863   0.000  0.00  0.00    +0.000 F 
ATOM     15  C   UNL     1      -1.439   1.450   0.000  0.00  0.00    +0.000 C 
ENDBRANCH   4  15
BRANCH   7  16
ATOM     16  N   UNL     1       1.449   0.736   0.000  0.00  0.00    +0.000 N 
BRANCH  16  17
ATOM     17  C   UNL     1       2.274   0.736   0.000  0.00  0.00    +0.000 C 
BRANCH  17  21
ATOM     18  F   UNL     1       3.099  -0.693   0.000  0.00  0.00    +0.000 F 
ATOM     19  F   UNL     1       1.972  -0.391   0.000  0.00  0.00    +0.000 F 
ATOM     20  F   UNL     1       3.401   0.434   0.000  0.00  0.00    +0.000 F 
ATOM     21  C   UNL     1       2.686   0.021   0.000  0.00  0.00    +0.000 C 
ENDBRANCH  17  21
ENDBRANCH  16  17
BRANCH  16  22
ATOM     22  C   UNL     1       1.036   0.021   0.000  0.00  0.00    +0.000 C 
BRANCH  22  26
ATOM     23  F   UNL     1       0.211   0.846   0.000  0.00  0.00    +0.000 F 
ATOM     24  F   UNL     1       0.211  -0.804   0.000  0.00  0.00    +0.000 F 
ATOM     25  F   UNL     1      -0.614   0.021   0.000  0.00  0.00    +0.000 F 
ATOM     26  C   UNL     1       0.211   0.021   0.000  0.00  0.00    +0.000 C 
ENDBRANCH  22  26
ENDBRANCH  16  22
ENDBRANCH   7  16
TORSDOF 6
