REMARK  Name = LI2
REMARK  6 active torsions:
REMARK  status: ('A' for Active; 'I' for Inactive)
REMARK    1  A    between atoms: C_4  and  N_28
REMARK    2  A    between atoms: C_6  and  C_8
REMARK    3  A    between atoms: N_10  and  C_11
REMARK    4  A    between atoms: C_17  and  C_18
REMARK    5  A    between atoms: C_18  and  C_19
REMARK    6  A    between atoms: C_19  and  C_20
REMARK                            x       y       z     vdW  Elec       q    Type
REMARK                         _______ _______ _______ _____ _____    ______ ____
ROOT
ATOM      1  C   UNL     1      -0.636  -0.515   0.000  0.00  0.00    +0.000 A 
ATOM      2  C   UNL     1      -0.636  -1.341   0.000  0.00  0.00    +0.000 A 
ATOM      3  C   UNL     1      -1.351  -1.753   0.000  0.00  0.00    +0.000 A 
ATOM      4  C   UNL     1      -2.065  -1.341   0.000  0.00  0.00    +0.000 A 
ATOM      5  N   UNL     1      -2.850  -1.595   0.000  0.00  0.00    +0.000 NA
ATOM      6  C   UNL     1      -3.334  -0.928   0.000  0.00  0.00    +0.000 A 
ATOM      7  C   UNL     1      -2.850  -0.261   0.000  0.00  0.00    +0.000 A 
ATOM      8  C   UNL     1      -2.065  -0.515   0.000  0.00  0.00    +0.000 A 
ATOM      9  C   UNL     1      -1.351  -0.103   0.000  0.00  0.00    +0.000 A 
ENDROOT
BRANCH   1  12
ATOM     10  C   UNL     1       0.793  -0.515   0.000  0.00  0.00    +0.000 C 
ATOM     11  O   UNL     1       0.793  -1.341   0.000  0.00  0.00    +0.000 OA
ATOM     12  N   UNL     1       0.079  -0.103   0.000  0.00  0.00    +0.000 NA
BRANCH  10  18
ATOM     13  F   UNL     1       2.222   1.960   0.000  0.00  0.00    +0.000 F 
ATOM     14  C   UNL     1       2.222   1.135   0.000  0.00  0.00    +0.000 A 
ATOM     15  C   UNL     1       2.936   0.722   0.000  0.00  0.00    +0.000 A 
ATOM     16  C   UNL     1       2.936  -0.103   0.000  0.00  0.00    +0.000 A 
ATOM     17  C   UNL     1       2.222  -0.515   0.000  0.00  0.00    +0.000 A 
ATOM     18  C   UNL     1       1.507  -0.103   0.000  0.00  0.00    +0.000 A 
ATOM     19  C   UNL     1       1.507   0.722   0.000  0.00  0.00    +0.000 A 
BRANCH  16  20
ATOM     20  N   UNL     1       3.651  -0.515   0.000  0.00  0.00    +0.000 N 
ATOM     21  C   UNL     1       4.365  -0.103   0.000  0.00  0.00    +0.000 C 
ATOM     22  C   UNL     1       5.080  -0.515   0.000  0.00  0.00    +0.000 C 
ATOM     23  O   UNL     1       5.080  -1.341   0.000  0.00  0.00    +0.000 OA
ATOM     24  C   UNL     1       4.365  -1.753   0.000  0.00  0.00    +0.000 C 
ATOM     25  C   UNL     1       3.651  -1.341   0.000  0.00  0.00    +0.000 C 
ENDBRANCH  16  20
ENDBRANCH  10  18
ENDBRANCH   1  12
BRANCH   7  26
ATOM     26  C   UNL     1      -3.104   0.524   0.000  0.00  0.00    +0.000 C 
BRANCH  26  27
ATOM     27  C   UNL     1      -3.912   0.696   0.000  0.00  0.00    +0.000 C 
BRANCH  27  28
ATOM     28  C   UNL     1      -4.166   1.480   0.000  0.00  0.00    +0.000 A 
ATOM     29  C   UNL     1      -4.973   1.652   0.000  0.00  0.00    +0.000 A 
ATOM     30  C   UNL     1      -5.228   2.436   0.000  0.00  0.00    +0.000 A 
ATOM     31  N   UNL     1      -4.676   3.049   0.000  0.00  0.00    +0.000 NA
ATOM     32  C   UNL     1      -3.869   2.878   0.000  0.00  0.00    +0.000 A 
ATOM     33  C   UNL     1      -3.614   2.093   0.000  0.00  0.00    +0.000 A 
ENDBRANCH  27  28
ENDBRANCH  26  27
ENDBRANCH   7  26
TORSDOF 6
