REMARK  Name = LI3
REMARK  3 active torsions:
REMARK  status: ('A' for Active; 'I' for Inactive)
REMARK    1  A    between atoms: C_4  and  N_20
REMARK    2  A    between atoms: C_6  and  C_8
REMARK    3  A    between atoms: N_10  and  C_11
REMARK                            x       y       z     vdW  Elec       q    Type
REMARK                         _______ _______ _______ _____ _____    ______ ____
ROOT
ATOM      1  F   UNL     1       1.051   2.522   0.000  0.00  0.00    +0.000 F 
ATOM      2  C   UNL     1       1.051   1.697   0.000  0.00  0.00    +0.000 A 
ATOM      3  C   UNL     1       1.766   1.285   0.000  0.00  0.00    +0.000 A 
ATOM      4  C   UNL     1       1.766   0.460   0.000  0.00  0.00    +0.000 A 
ATOM      5  C   UNL     1       1.051   0.047   0.000  0.00  0.00    +0.000 A 
ATOM      6  C   UNL     1       0.337   0.460   0.000  0.00  0.00    +0.000 A 
ATOM      7  C   UNL     1       0.337   1.285   0.000  0.00  0.00    +0.000 A 
ENDROOT
BRANCH   4   8
ATOM      8  N   UNL     1       2.480   0.047   0.000  0.00  0.00    +0.000 N 
ATOM      9  C   UNL     1       3.195   0.460   0.000  0.00  0.00    +0.000 C 
ATOM     10  C   UNL     1       3.909   0.047   0.000  0.00  0.00    +0.000 C 
ATOM     11  O   UNL     1       3.909  -0.778   0.000  0.00  0.00    +0.000 OA
ATOM     12  C   UNL     1       3.195  -1.190   0.000  0.00  0.00    +0.000 C 
ATOM     13  C   UNL     1       2.480  -0.778   0.000  0.00  0.00    +0.000 C 
ENDBRANCH   4   8
BRANCH   6  14
ATOM     14  C   UNL     1      -0.378   0.047   0.000  0.00  0.00    +0.000 C 
ATOM     15  O   UNL     1      -0.378  -0.778   0.000  0.00  0.00    +0.000 OA
ATOM     16  N   UNL     1      -1.092   0.460   0.000  0.00  0.00    +0.000 NA
BRANCH  16  17
ATOM     17  C   UNL     1      -1.806   0.047   0.000  0.00  0.00    +0.000 A 
ATOM     18  C   UNL     1      -1.806  -0.778   0.000  0.00  0.00    +0.000 A 
ATOM     19  C   UNL     1      -2.521  -1.190   0.000  0.00  0.00    +0.000 A 
ATOM     20  C   UNL     1      -3.235  -0.778   0.000  0.00  0.00    +0.000 A 
ATOM     21  N   UNL     1      -4.020  -1.033   0.000  0.00  0.00    +0.000 NA
ATOM     22  C   UNL     1      -4.505  -0.365   0.000  0.00  0.00    +0.000 A 
ATOM     23  C   UNL     1      -4.020   0.302   0.000  0.00  0.00    +0.000 A 
ATOM     24  C   UNL     1      -3.235   0.047   0.000  0.00  0.00    +0.000 A 
ATOM     25  C   UNL     1      -2.521   0.460   0.000  0.00  0.00    +0.000 A 
ENDBRANCH  16  17
ENDBRANCH   6  14
TORSDOF 3
