REMARK  Name = LI4
REMARK  3 active torsions:
REMARK  status: ('A' for Active; 'I' for Inactive)
REMARK    1  A    between atoms: C_3  and  O_6
REMARK    2  A    between atoms: O_6  and  C_19
REMARK    3  A    between atoms: C_14  and  C_19
REMARK                            x       y       z     vdW  Elec       q    Type
REMARK                         _______ _______ _______ _____ _____    ______ ____
ROOT
ATOM      1  C   UNL     1      -1.411   0.670   0.000  0.00  0.00    +0.000 A 
ATOM      2  C   UNL     1      -0.697   1.082   0.000  0.00  0.00    +0.000 A 
ATOM      3  C   UNL     1      -0.697   1.907   0.000  0.00  0.00    +0.000 A 
ATOM      4  C   UNL     1      -1.411   2.320   0.000  0.00  0.00    +0.000 A 
ATOM      5  C   UNL     1      -2.126   1.907   0.000  0.00  0.00    +0.000 A 
ATOM      6  C   UNL     1      -2.126   1.082   0.000  0.00  0.00    +0.000 A 
ATOM      7  C   UNL     1       0.018   0.670   0.000  0.00  0.00    +0.000 A 
ATOM      8  C   UNL     1       0.732   1.082   0.000  0.00  0.00    +0.000 A 
ATOM      9  C   UNL     1       0.732   1.907   0.000  0.00  0.00    +0.000 A 
ATOM     10  C   UNL     1       0.018   2.320   0.000  0.00  0.00    +0.000 A 
ENDROOT
BRANCH   7  11
ATOM     11  C   UNL     1       0.018  -0.155   0.000  0.00  0.00    +0.000 C 
BRANCH  11  12
ATOM     12  O   UNL     1       0.732  -0.568   0.000  0.00  0.00    +0.000 OA
BRANCH  12  15
ATOM     13  C   UNL     1       0.018  -2.630   0.000  0.00  0.00    +0.000 A 
ATOM     14  C   UNL     1       0.018  -1.805   0.000  0.00  0.00    +0.000 A 
ATOM     15  C   UNL     1       0.732  -1.393   0.000  0.00  0.00    +0.000 A 
ATOM     16  C   UNL     1       1.446  -1.805   0.000  0.00  0.00    +0.000 A 
ATOM     17  C   UNL     1       0.732  -3.043   0.000  0.00  0.00    +0.000 A 
ATOM     18  N   UNL     1       2.161  -1.393   0.000  0.00  0.00    +0.000 NA
ATOM     19  N   UNL     1       1.446  -2.630   0.000  0.00  0.00    +0.000 NA
ENDBRANCH  12  15
ENDBRANCH  11  12
ENDBRANCH   7  11
TORSDOF 3
