REMARK  Name = LI7
REMARK  1 active torsions:
REMARK  status: ('A' for Active; 'I' for Inactive)
REMARK    1  A    between atoms: N_13  and  C_14
REMARK                            x       y       z     vdW  Elec       q    Type
REMARK                         _______ _______ _______ _____ _____    ______ ____
ROOT
ATOM      1  C   UNL     1       1.800   0.018   0.000  0.00  0.00    +0.000 A 
ATOM      2  C   UNL     1       1.086   0.430   0.000  0.00  0.00    +0.000 A 
ATOM      3  C   UNL     1       1.086   1.255   0.000  0.00  0.00    +0.000 A 
ATOM      4  C   UNL     1      -0.184   0.843   0.000  0.00  0.00    +0.000 C 
ATOM      5  O   UNL     1      -1.009   0.843   0.000  0.00  0.00    +0.000 OA
ATOM      6  C   UNL     1       0.301   0.175   0.000  0.00  0.00    +0.000 C 
ATOM      7  N   UNL     1       0.301   1.510   0.000  0.00  0.00    +0.000 NA
ATOM      8  C   UNL     1       2.515   0.430   0.000  0.00  0.00    +0.000 A 
ATOM      9  C   UNL     1       2.515   1.255   0.000  0.00  0.00    +0.000 A 
ATOM     10  C   UNL     1       1.800   1.668   0.000  0.00  0.00    +0.000 A 
ATOM     11  N   UNL     1       0.046  -0.609   0.000  0.00  0.00    +0.000 NA
ENDROOT
BRANCH  11  14
ATOM     12  C   UNL     1      -2.120  -0.339   0.000  0.00  0.00    +0.000 A 
ATOM     13  C   UNL     1      -1.823  -1.737   0.000  0.00  0.00    +0.000 A 
ATOM     14  C   UNL     1      -0.761  -0.781   0.000  0.00  0.00    +0.000 A 
ATOM     15  C   UNL     1      -1.313  -0.168   0.000  0.00  0.00    +0.000 A 
ATOM     16  C   UNL     1      -2.374  -1.124   0.000  0.00  0.00    +0.000 A 
ATOM     17  O   UNL     1      -3.182  -1.296   0.000  0.00  0.00    +0.000 OA
ATOM     18  C   UNL     1      -1.016  -1.566   0.000  0.00  0.00    +0.000 A 
ENDBRANCH  11  14
TORSDOF 1
