REMARK  Name = LIB
REMARK  5 active torsions:
REMARK  status: ('A' for Active; 'I' for Inactive)
REMARK    1  A    between atoms: N_1  and  C_17
REMARK    2  A    between atoms: C_2  and  O_18
REMARK    3  A    between atoms: C_7  and  N_14
REMARK    4  A    between atoms: N_26  and  C_27
REMARK    5  A    between atoms: C_27  and  C_29
REMARK                            x       y       z     vdW  Elec       q    Type
REMARK                         _______ _______ _______ _____ _____    ______ ____
ROOT
ATOM      1  N   UNL     1       0.262  -0.586   0.000  0.00  0.00    +0.000 N 
ATOM      2  N   UNL     1       1.691  -0.586   0.000  0.00  0.00    +0.000 NA
ATOM      3  C   UNL     1       0.976  -0.998   0.000  0.00  0.00    +0.000 C 
ATOM      4  O   UNL     1       0.976  -1.823   0.000  0.00  0.00    +0.000 OA
ATOM      5  C   UNL     1      -0.453  -0.998   0.000  0.00  0.00    +0.000 A 
ATOM      6  C   UNL     1      -0.453  -1.823   0.000  0.00  0.00    +0.000 A 
ATOM      7  C   UNL     1      -1.167  -2.236   0.000  0.00  0.00    +0.000 A 
ATOM      8  N   UNL     1      -1.882  -1.823   0.000  0.00  0.00    +0.000 NA
ATOM      9  C   UNL     1      -1.882  -0.998   0.000  0.00  0.00    +0.000 A 
ATOM     10  N   UNL     1      -1.167  -0.586   0.000  0.00  0.00    +0.000 NA
ATOM     11  N   UNL     1      -2.596  -0.586   0.000  0.00  0.00    +0.000 NA
ENDROOT
BRANCH   2  12
ATOM     12  C   UNL     1       2.405  -0.998   0.000  0.00  0.00    +0.000 A 
ATOM     13  C   UNL     1       3.834  -1.823   0.000  0.00  0.00    +0.000 A 
ATOM     14  C   UNL     1       3.120  -0.586   0.000  0.00  0.00    +0.000 A 
ATOM     15  C   UNL     1       3.120  -2.236   0.000  0.00  0.00    +0.000 A 
ATOM     16 CL   UNL     1       3.120   0.239   0.000  0.00  0.00    +0.000 Cl
ATOM     17  C   UNL     1       3.834  -0.998   0.000  0.00  0.00    +0.000 A 
ATOM     18  C   UNL     1       2.405  -1.823   0.000  0.00  0.00    +0.000 A 
ENDBRANCH   2  12
BRANCH   1  24
ATOM     19  C   UNL     1       0.262   1.889   0.000  0.00  0.00    +0.000 A 
ATOM     20  C   UNL     1      -0.453   0.652   0.000  0.00  0.00    +0.000 A 
ATOM     21  C   UNL     1       0.976   0.652   0.000  0.00  0.00    +0.000 A 
ATOM     22  C   UNL     1       0.976   1.477   0.000  0.00  0.00    +0.000 A 
ATOM     23  C   UNL     1      -0.453   1.477   0.000  0.00  0.00    +0.000 A 
ATOM     24  C   UNL     1       0.262   0.239   0.000  0.00  0.00    +0.000 A 
BRANCH  19  25
ATOM     25  O   UNL     1       0.262   2.715   0.000  0.00  0.00    +0.000 OA
ATOM     26  C   UNL     1      -0.453   3.127   0.000  0.00  0.00    +0.000 C 
ENDBRANCH  19  25
ENDBRANCH   1  24
BRANCH  11  27
ATOM     27  C   UNL     1      -2.596   0.239   0.000  0.00  0.00    +0.000 C 
ATOM     28  C   UNL     1      -1.882   0.652   0.000  0.00  0.00    +0.000 C 
BRANCH  27  29
ATOM     29  C   UNL     1      -3.311   0.652   0.000  0.00  0.00    +0.000 C 
ATOM     30  C   UNL     1      -4.025   1.065   0.000  0.00  0.00    +0.000 C 
ATOM     31  C   UNL     1      -2.898   1.366   0.000  0.00  0.00    +0.000 C 
ATOM     32  O   UNL     1      -3.723  -0.062   0.000  0.00  0.00    +0.000 OA
ENDBRANCH  27  29
ENDBRANCH  11  27
TORSDOF 5
