REMARK  Name = LID
REMARK  3 active torsions:
REMARK  status: ('A' for Active; 'I' for Inactive)
REMARK    1  A    between atoms: C_3  and  N_21
REMARK    2  A    between atoms: N_4  and  C_5
REMARK    3  A    between atoms: C_6  and  N_17
REMARK                            x       y       z     vdW  Elec       q    Type
REMARK                         _______ _______ _______ _____ _____    ______ ____
ROOT
ATOM      1  C   UNL     1       1.351  -0.287   0.000  0.00  0.00    +0.000 A 
ATOM      2  C   UNL     1      -1.347  -0.700   0.000  0.00  0.00    +0.000 A 
ATOM      3  N   UNL     1      -2.172  -0.700   0.000  0.00  0.00    +0.000 NA
ATOM      4  N   UNL     1       2.066   0.126   0.000  0.00  0.00    +0.000 NA
ATOM      5  N   UNL     1       1.351  -1.112   0.000  0.00  0.00    +0.000 NA
ATOM      6  N   UNL     1       0.637   0.126   0.000  0.00  0.00    +0.000 NA
ATOM      7  C   UNL     1      -0.078  -0.287   0.000  0.00  0.00    +0.000 A 
ATOM      8  N   UNL     1      -0.862  -0.032   0.000  0.00  0.00    +0.000 N 
ATOM      9  C   UNL     1      -0.078  -1.112   0.000  0.00  0.00    +0.000 A 
ATOM     10  C   UNL     1       0.637  -1.524   0.000  0.00  0.00    +0.000 A 
ATOM     11  N   UNL     1      -0.862  -1.367   0.000  0.00  0.00    +0.000 NA
ENDROOT
BRANCH   4  12
ATOM     12  C   UNL     1       2.780  -0.287   0.000  0.00  0.00    +0.000 A 
ATOM     13  C   UNL     1       3.495  -1.524   0.000  0.00  0.00    +0.000 A 
ATOM     14  C   UNL     1       3.495   0.126   0.000  0.00  0.00    +0.000 A 
ATOM     15  F   UNL     1       2.066  -1.524   0.000  0.00  0.00    +0.000 F 
ATOM     16  C   UNL     1       2.780  -1.112   0.000  0.00  0.00    +0.000 A 
ATOM     17  C   UNL     1       4.209  -1.112   0.000  0.00  0.00    +0.000 A 
ATOM     18  C   UNL     1       4.209  -0.287   0.000  0.00  0.00    +0.000 A 
ATOM     19  F   UNL     1       3.495   0.951   0.000  0.00  0.00    +0.000 F 
ENDBRANCH   4  12
BRANCH   3  20
ATOM     20  C   UNL     1      -2.585   0.015   0.000  0.00  0.00    +0.000 A 
ATOM     21  C   UNL     1      -2.172   0.729   0.000  0.00  0.00    +0.000 A 
ATOM     22  C   UNL     1      -2.585   1.444   0.000  0.00  0.00    +0.000 A 
ATOM     23  C   UNL     1      -3.822   0.729   0.000  0.00  0.00    +0.000 A 
ATOM     24  C   UNL     1      -3.410   1.444   0.000  0.00  0.00    +0.000 A 
ATOM     25  C   UNL     1      -3.410   0.015   0.000  0.00  0.00    +0.000 A 
ATOM     26 CL   UNL     1      -3.822  -0.700   0.000  0.00  0.00    +0.000 Cl
ENDBRANCH   3  20
BRANCH   8  27
ATOM     27  C   UNL     1      -1.117   0.752   0.000  0.00  0.00    +0.000 C 
ATOM     28  C   UNL     1      -0.565   1.366   0.000  0.00  0.00    +0.000 C 
ENDBRANCH   8  27
TORSDOF 3
