REMARK  Name = LIE
REMARK  4 active torsions:
REMARK  status: ('A' for Active; 'I' for Inactive)
REMARK    1  A    between atoms: C_1  and  O_24
REMARK    2  A    between atoms: C_3  and  N_20
REMARK    3  A    between atoms: N_5  and  C_16
REMARK    4  A    between atoms: C_6  and  O_24
REMARK                            x       y       z     vdW  Elec       q    Type
REMARK                         _______ _______ _______ _____ _____    ______ ____
ROOT
ATOM      1  C   UNL     1       1.730   0.296   0.000  0.00  0.00    +0.000 A 
ATOM      2  C   UNL     1       0.301   0.296   0.000  0.00  0.00    +0.000 A 
ATOM      3  C   UNL     1      -0.968   0.709   0.000  0.00  0.00    +0.000 A 
ATOM      4  N   UNL     1      -1.793   0.709   0.000  0.00  0.00    +0.000 NA
ATOM      5  N   UNL     1      -0.483   1.376   0.000  0.00  0.00    +0.000 NA
ATOM      6  C   UNL     1       0.301   1.121   0.000  0.00  0.00    +0.000 A 
ATOM      7  C   UNL     1       1.016   1.534   0.000  0.00  0.00    +0.000 A 
ATOM      8  N   UNL     1      -0.483   0.042   0.000  0.00  0.00    +0.000 N 
ATOM      9  N   UNL     1       1.016  -0.116   0.000  0.00  0.00    +0.000 NA
ATOM     10  N   UNL     1       1.730   1.121   0.000  0.00  0.00    +0.000 NA
ENDROOT
BRANCH   4  17
ATOM     11  F   UNL     1      -3.443   0.709   0.000  0.00  0.00    +0.000 F 
ATOM     12  C   UNL     1      -3.031   1.423   0.000  0.00  0.00    +0.000 A 
ATOM     13  C   UNL     1      -3.443   2.138   0.000  0.00  0.00    +0.000 A 
ATOM     14  C   UNL     1      -3.031   2.852   0.000  0.00  0.00    +0.000 A 
ATOM     15  C   UNL     1      -2.206   2.852   0.000  0.00  0.00    +0.000 A 
ATOM     16  C   UNL     1      -1.793   2.138   0.000  0.00  0.00    +0.000 A 
ATOM     17  C   UNL     1      -2.206   1.423   0.000  0.00  0.00    +0.000 A 
ENDBRANCH   4  17
BRANCH   8  18
ATOM     18  C   UNL     1      -0.738  -0.743   0.000  0.00  0.00    +0.000 C 
ATOM     19  C   UNL     1      -1.545  -0.915   0.000  0.00  0.00    +0.000 C 
ATOM     20  C   UNL     1      -0.186  -1.356   0.000  0.00  0.00    +0.000 C 
ENDBRANCH   8  18
BRANCH   1  21
ATOM     21  O   UNL     1       2.445  -0.116   0.000  0.00  0.00    +0.000 OA
BRANCH  21  22
ATOM     22  C   UNL     1       2.445  -0.941   0.000  0.00  0.00    +0.000 A 
ATOM     23  C   UNL     1       3.159  -1.353   0.000  0.00  0.00    +0.000 A 
ATOM     24  C   UNL     1       1.730  -2.179   0.000  0.00  0.00    +0.000 A 
ATOM     25  F   UNL     1       3.874  -0.941   0.000  0.00  0.00    +0.000 F 
ATOM     26  C   UNL     1       3.159  -2.179   0.000  0.00  0.00    +0.000 A 
ATOM     27  C   UNL     1       2.445  -2.591   0.000  0.00  0.00    +0.000 A 
ATOM     28  C   UNL     1       1.730  -1.353   0.000  0.00  0.00    +0.000 A 
ATOM     29  F   UNL     1       1.016  -0.941   0.000  0.00  0.00    +0.000 F 
ENDBRANCH  21  22
ENDBRANCH   1  21
TORSDOF 4
