REMARK  Name = LIG
REMARK  1 active torsions:
REMARK  status: ('A' for Active; 'I' for Inactive)
REMARK    1  A    between atoms: C_5  and  C_6
REMARK                            x       y       z     vdW  Elec       q    Type
REMARK                         _______ _______ _______ _____ _____    ______ ____
ROOT
ATOM      1  N   UNL     1       1.021  -0.972   0.000  0.00  0.00    +0.000 NA
ATOM      2  N   UNL     1       0.344  -1.444   0.000  0.00  0.00    +0.000 NA
ATOM      3  C   UNL     1      -0.313  -0.946   0.000  0.00  0.00    +0.000 A 
ATOM      4  C   UNL     1      -0.043  -0.167   0.000  0.00  0.00    +0.000 A 
ATOM      5  C   UNL     1       0.782  -0.183   0.000  0.00  0.00    +0.000 A 
ATOM      6  C   UNL     1      -0.701   0.331   0.000  0.00  0.00    +0.000 C 
ATOM      7  C   UNL     1      -1.378  -0.140   0.000  0.00  0.00    +0.000 A 
ATOM      8  C   UNL     1      -1.138  -0.930   0.000  0.00  0.00    +0.000 A 
ATOM      9  C   UNL     1      -1.702  -1.532   0.000  0.00  0.00    +0.000 A 
ATOM     10  C   UNL     1      -2.506  -1.345   0.000  0.00  0.00    +0.000 A 
ATOM     11  C   UNL     1      -2.745  -0.555   0.000  0.00  0.00    +0.000 A 
ATOM     12  C   UNL     1      -2.181   0.047   0.000  0.00  0.00    +0.000 A 
ENDROOT
BRANCH   5  13
ATOM     13  C   UNL     1       1.280   0.475   0.000  0.00  0.00    +0.000 A 
ATOM     14  C   UNL     1       0.959   1.235   0.000  0.00  0.00    +0.000 A 
ATOM     15  C   UNL     1       1.457   1.893   0.000  0.00  0.00    +0.000 A 
ATOM     16  N   UNL     1       2.276   1.790   0.000  0.00  0.00    +0.000 NA
ATOM     17  C   UNL     1       2.596   1.030   0.000  0.00  0.00    +0.000 A 
ATOM     18  C   UNL     1       2.099   0.372   0.000  0.00  0.00    +0.000 A 
ENDBRANCH   5  13
TORSDOF 1
