REMARK  Name = LIH
REMARK  3 active torsions:
REMARK  status: ('A' for Active; 'I' for Inactive)
REMARK    1  A    between atoms: C_6  and  C_13
REMARK    2  A    between atoms: C_9  and  N_23
REMARK    3  A    between atoms: C_13  and  N_23
REMARK                            x       y       z     vdW  Elec       q    Type
REMARK                         _______ _______ _______ _____ _____    ______ ____
ROOT
ATOM      1  C   UNL     1       0.307  -1.854   0.000  0.00  0.00    +0.000 A 
ATOM      2  C   UNL     1       1.022  -2.267   0.000  0.00  0.00    +0.000 A 
ATOM      3  C   UNL     1       0.307  -3.504   0.000  0.00  0.00    +0.000 A 
ATOM      4  C   UNL     1      -0.407  -2.267   0.000  0.00  0.00    +0.000 A 
ATOM      5  C   UNL     1       0.307  -1.029   0.000  0.00  0.00    +0.000 A 
ATOM      6  C   UNL     1      -0.407  -0.617   0.000  0.00  0.00    +0.000 A 
ATOM      7  C   UNL     1      -1.122  -1.029   0.000  0.00  0.00    +0.000 A 
ATOM      8  C   UNL     1       1.022  -0.617   0.000  0.00  0.00    +0.000 C 
ATOM      9  N   UNL     1       1.022  -3.092   0.000  0.00  0.00    +0.000 NA
ATOM     10  N   UNL     1      -0.407  -3.092   0.000  0.00  0.00    +0.000 NA
ATOM     11  N   UNL     1      -1.122  -1.854   0.000  0.00  0.00    +0.000 NA
ATOM     12  N   UNL     1       1.736  -1.854   0.000  0.00  0.00    +0.000 NA
ATOM     13  N   UNL     1       0.307  -4.329   0.000  0.00  0.00    +0.000 NA
ENDROOT
BRANCH   6  14
ATOM     14  C   UNL     1      -0.407   0.208   0.000  0.00  0.00    +0.000 C 
BRANCH  14  15
ATOM     15  N   UNL     1      -1.122   0.621   0.000  0.00  0.00    +0.000 NA
BRANCH  15  16
ATOM     16  C   UNL     1      -1.122   1.446   0.000  0.00  0.00    +0.000 A 
ATOM     17  C   UNL     1      -1.836   1.858   0.000  0.00  0.00    +0.000 A 
ATOM     18  C   UNL     1      -1.836   2.683   0.000  0.00  0.00    +0.000 A 
ATOM     19  C   UNL     1      -1.122   3.096   0.000  0.00  0.00    +0.000 A 
ATOM     20  C   UNL     1       0.307   1.446   0.000  0.00  0.00    +0.000 A 
ATOM     21  C   UNL     1      -0.407   1.858   0.000  0.00  0.00    +0.000 A 
ATOM     22  C   UNL     1      -0.407   2.683   0.000  0.00  0.00    +0.000 A 
ATOM     23  C   UNL     1       1.022   2.683   0.000  0.00  0.00    +0.000 A 
ATOM     24  C   UNL     1       1.022   1.858   0.000  0.00  0.00    +0.000 A 
ATOM     25  N   UNL     1       0.307   3.096   0.000  0.00  0.00    +0.000 NA
ENDBRANCH  15  16
ENDBRANCH  14  15
ENDBRANCH   6  14
TORSDOF 3
