REMARK  Name = LII
REMARK  4 active torsions:
REMARK  status: ('A' for Active; 'I' for Inactive)
REMARK    1  A    between atoms: C_6  and  C_9
REMARK    2  A    between atoms: C_10  and  C_16
REMARK    3  A    between atoms: C_11  and  O_24
REMARK    4  A    between atoms: C_14  and  O_25
REMARK                            x       y       z     vdW  Elec       q    Type
REMARK                         _______ _______ _______ _____ _____    ______ ____
ROOT
ATOM      1  C   UNL     1      -1.225  -0.707   0.000  0.00  0.00    +0.000 A 
ATOM      2  C   UNL     1      -1.939  -1.120   0.000  0.00  0.00    +0.000 A 
ATOM      3  C   UNL     1      -2.654   0.118   0.000  0.00  0.00    +0.000 A 
ATOM      4  C   UNL     1      -1.225   0.118   0.000  0.00  0.00    +0.000 A 
ATOM      5  C   UNL     1      -0.510  -1.120   0.000  0.00  0.00    +0.000 A 
ATOM      6  C   UNL     1       0.204  -0.707   0.000  0.00  0.00    +0.000 A 
ATOM      7  C   UNL     1       0.204   0.118   0.000  0.00  0.00    +0.000 A 
ATOM      8  C   UNL     1      -0.510  -1.945   0.000  0.00  0.00    +0.000 C 
ATOM      9  N   UNL     1      -2.654  -0.707   0.000  0.00  0.00    +0.000 NA
ATOM     10  N   UNL     1      -1.939   0.530   0.000  0.00  0.00    +0.000 NA
ATOM     11  N   UNL     1      -0.510   0.530   0.000  0.00  0.00    +0.000 NA
ATOM     12  N   UNL     1      -1.939  -1.945   0.000  0.00  0.00    +0.000 NA
ATOM     13  N   UNL     1      -3.368   0.530   0.000  0.00  0.00    +0.000 NA
ENDROOT
BRANCH   6  14
ATOM     14  C   UNL     1       0.918  -1.120   0.000  0.00  0.00    +0.000 C 
ATOM     15  C   UNL     1       1.633  -0.707   0.000  0.00  0.00    +0.000 C 
BRANCH  15  16
ATOM     16  C   UNL     1       1.633   0.118   0.000  0.00  0.00    +0.000 A 
ATOM     17  C   UNL     1       2.347   0.530   0.000  0.00  0.00    +0.000 A 
ATOM     18  C   UNL     1       2.347   1.355   0.000  0.00  0.00    +0.000 A 
ATOM     19  C   UNL     1       1.633   1.768   0.000  0.00  0.00    +0.000 A 
ATOM     20  C   UNL     1       0.918   1.355   0.000  0.00  0.00    +0.000 A 
ATOM     21  C   UNL     1       0.918   0.530   0.000  0.00  0.00    +0.000 A 
BRANCH  17  23
ATOM     22  C   UNL     1       3.776   0.530   0.000  0.00  0.00    +0.000 C 
ATOM     23  O   UNL     1       3.062   0.118   0.000  0.00  0.00    +0.000 OA
ENDBRANCH  17  23
BRANCH  20  25
ATOM     24  C   UNL     1      -0.510   1.355   0.000  0.00  0.00    +0.000 C 
ATOM     25  O   UNL     1       0.204   1.768   0.000  0.00  0.00    +0.000 OA
ENDBRANCH  20  25
ENDBRANCH  15  16
ENDBRANCH   6  14
TORSDOF 4
