REMARK  Name = LIY
REMARK  7 active torsions:
REMARK  status: ('A' for Active; 'I' for Inactive)
REMARK    1  A    between atoms: C_3  and  C_21
REMARK    2  A    between atoms: C_4  and  C_17
REMARK    3  A    between atoms: C_9  and  C_12
REMARK    4  A    between atoms: C_10  and  C_28
REMARK    5  A    between atoms: C_10  and  C_29
REMARK    6  A    between atoms: N_27  and  C_28
REMARK    7  A    between atoms: C_29  and  O_30
REMARK                            x       y       z     vdW  Elec       q    Type
REMARK                         _______ _______ _______ _____ _____    ______ ____
ROOT
ATOM      1  C   UNL     1      -1.379   3.272   0.000  0.00  0.00    +0.000 A 
ATOM      2  C   UNL     1      -0.665   3.685   0.000  0.00  0.00    +0.000 A 
ATOM      3  C   UNL     1       0.050   2.447   0.000  0.00  0.00    +0.000 A 
ATOM      4  C   UNL     1       0.764   3.685   0.000  0.00  0.00    +0.000 C 
ATOM      5  C   UNL     1       1.479   2.447   0.000  0.00  0.00    +0.000 C 
ATOM      6  C   UNL     1      -1.379   2.447   0.000  0.00  0.00    +0.000 A 
ATOM      7  C   UNL     1      -0.665   2.035   0.000  0.00  0.00    +0.000 A 
ATOM      8  C   UNL     1       0.050   3.272   0.000  0.00  0.00    +0.000 A 
ATOM      9  C   UNL     1       1.479   3.272   0.000  0.00  0.00    +0.000 C 
ATOM     10  N   UNL     1       0.764   2.035   0.000  0.00  0.00    +0.000 N 
ENDROOT
BRANCH   6  13
ATOM     11  N   UNL     1      -3.523   2.035   0.000  0.00  0.00    +0.000 NA
ATOM     12  N   UNL     1      -2.808   3.272   0.000  0.00  0.00    +0.000 NA
ATOM     13  C   UNL     1      -2.094   2.035   0.000  0.00  0.00    +0.000 A 
ATOM     14  C   UNL     1      -2.808   2.447   0.000  0.00  0.00    +0.000 A 
ATOM     15  C   UNL     1      -2.094   1.210   0.000  0.00  0.00    +0.000 A 
ATOM     16  N   UNL     1      -2.808   0.797   0.000  0.00  0.00    +0.000 NA
ATOM     17  C   UNL     1      -3.523   1.210   0.000  0.00  0.00    +0.000 A 
ATOM     18  N   UNL     1      -4.237   0.797   0.000  0.00  0.00    +0.000 NA
BRANCH  15  19
ATOM     19  C   UNL     1      -1.379   0.797   0.000  0.00  0.00    +0.000 C 
ATOM     20  C   UNL     1      -1.379  -0.028   0.000  0.00  0.00    +0.000 C 
ENDBRANCH  15  19
ENDBRANCH   6  13
BRANCH   5  21
ATOM     21  C   UNL     1       2.193   2.035   0.000  0.00  0.00    +0.000 A 
ATOM     22  C   UNL     1       2.193   1.210   0.000  0.00  0.00    +0.000 A 
ATOM     23  C   UNL     1       3.622   1.210   0.000  0.00  0.00    +0.000 A 
ATOM     24  C   UNL     1       2.908   2.447   0.000  0.00  0.00    +0.000 A 
ATOM     25  C   UNL     1       2.908   0.797   0.000  0.00  0.00    +0.000 A 
ATOM     26  C   UNL     1       3.622   2.035   0.000  0.00  0.00    +0.000 A 
ENDBRANCH   5  21
BRANCH  10  27
ATOM     27  C   UNL     1       0.764   1.210   0.000  0.00  0.00    +0.000 C 
BRANCH  27  28
ATOM     28  C   UNL     1       1.479   0.797   0.000  0.00  0.00    +0.000 C 
BRANCH  28  29
ATOM     29  C   UNL     1       1.479  -0.028   0.000  0.00  0.00    +0.000 C 
BRANCH  29  30
ATOM     30  O   UNL     1       2.193  -0.440   0.000  0.00  0.00    +0.000 OA
ATOM     31  C   UNL     1       2.193  -1.265   0.000  0.00  0.00    +0.000 C 
ENDBRANCH  29  30
ENDBRANCH  28  29
ENDBRANCH  27  28
ENDBRANCH  10  27
TORSDOF 7
