REMARK  Name = LJ1
REMARK  2 active torsions:
REMARK  status: ('A' for Active; 'I' for Inactive)
REMARK    1  A    between atoms: C_9  and  C_10
REMARK    2  A    between atoms: C_11  and  C_12
REMARK                            x       y       z     vdW  Elec       q    Type
REMARK                         _______ _______ _______ _____ _____    ______ ____
ROOT
ATOM      1  C   UNL     1      -1.247   2.004   0.000  0.00  0.00    +0.000 C 
ATOM      2  C   UNL     1      -1.247   1.179   0.000  0.00  0.00    +0.000 A 
ATOM      3  C   UNL     1      -0.533   0.766   0.000  0.00  0.00    +0.000 A 
ATOM      4  C   UNL     1      -1.962   0.766   0.000  0.00  0.00    +0.000 A 
ATOM      5  O   UNL     1      -2.676   1.179   0.000  0.00  0.00    +0.000 OA
ATOM      6  C   UNL     1      -1.962  -0.059   0.000  0.00  0.00    +0.000 A 
ATOM      7  C   UNL     1      -2.676  -0.471   0.000  0.00  0.00    +0.000 C 
ATOM      8  C   UNL     1      -1.247  -0.471   0.000  0.00  0.00    +0.000 A 
ATOM      9  C   UNL     1      -0.533  -0.059   0.000  0.00  0.00    +0.000 A 
ENDROOT
BRANCH   9  10
ATOM     10  C   UNL     1       0.182  -0.471   0.000  0.00  0.00    +0.000 C 
ATOM     11  C   UNL     1       0.896  -0.059   0.000  0.00  0.00    +0.000 C 
BRANCH  11  12
ATOM     12  C   UNL     1       1.611  -0.471   0.000  0.00  0.00    +0.000 A 
ATOM     13  C   UNL     1       2.325  -0.059   0.000  0.00  0.00    +0.000 A 
ATOM     14  C   UNL     1       3.039  -0.471   0.000  0.00  0.00    +0.000 A 
ATOM     15  C   UNL     1       3.039  -1.296   0.000  0.00  0.00    +0.000 A 
ATOM     16  C   UNL     1       2.325  -1.709   0.000  0.00  0.00    +0.000 A 
ATOM     17  C   UNL     1       1.611  -1.296   0.000  0.00  0.00    +0.000 A 
ENDBRANCH  11  12
ENDBRANCH   9  10
TORSDOF 2
