REMARK  Name = LJ2
REMARK  2 active torsions:
REMARK  status: ('A' for Active; 'I' for Inactive)
REMARK    1  A    between atoms: C_9  and  C_10
REMARK    2  A    between atoms: C_11  and  C_12
REMARK                            x       y       z     vdW  Elec       q    Type
REMARK                         _______ _______ _______ _____ _____    ______ ____
ROOT
ATOM      1  C   UNL     1       2.810   0.181   0.000  0.00  0.00    +0.000 A 
ATOM      2  C   UNL     1       3.524  -0.231   0.000  0.00  0.00    +0.000 A 
ATOM      3 BR   UNL     1       4.239   0.181   0.000  0.00  0.00    +0.000 Br
ATOM      4  C   UNL     1       3.524  -1.056   0.000  0.00  0.00    +0.000 A 
ATOM      5  O   UNL     1       4.239  -1.469   0.000  0.00  0.00    +0.000 OA
ATOM      6  C   UNL     1       2.810  -1.469   0.000  0.00  0.00    +0.000 A 
ATOM      7 BR   UNL     1       2.810  -2.294   0.000  0.00  0.00    +0.000 Br
ATOM      8  C   UNL     1       2.095  -1.056   0.000  0.00  0.00    +0.000 A 
ATOM      9  C   UNL     1       2.095  -0.231   0.000  0.00  0.00    +0.000 A 
ENDROOT
BRANCH   9  10
ATOM     10  C   UNL     1       1.381   0.181   0.000  0.00  0.00    +0.000 C 
ATOM     11  C   UNL     1       0.666  -0.231   0.000  0.00  0.00    +0.000 C 
BRANCH  11  12
ATOM     12  C   UNL     1      -0.048   0.181   0.000  0.00  0.00    +0.000 A 
ATOM     13  C   UNL     1      -0.763  -0.231   0.000  0.00  0.00    +0.000 A 
ATOM     14  C   UNL     1      -1.477   0.181   0.000  0.00  0.00    +0.000 A 
ATOM     15  C   UNL     1      -1.477   1.006   0.000  0.00  0.00    +0.000 A 
ATOM     16  C   UNL     1      -0.763   1.419   0.000  0.00  0.00    +0.000 A 
ATOM     17  C   UNL     1      -0.048   1.006   0.000  0.00  0.00    +0.000 A 
ENDBRANCH  11  12
ENDBRANCH   9  10
TORSDOF 2
