REMARK  Name = LJ3
REMARK  1 active torsions:
REMARK  status: ('A' for Active; 'I' for Inactive)
REMARK    1  A    between atoms: C_9  and  C_10
REMARK                            x       y       z     vdW  Elec       q    Type
REMARK                         _______ _______ _______ _____ _____    ______ ____
ROOT
ATOM      1  C   UNL     1       1.898   0.302   0.000  0.00  0.00    +0.000 A 
ATOM      2  C   UNL     1       2.612  -0.111   0.000  0.00  0.00    +0.000 A 
ATOM      3 BR   UNL     1       3.327   0.302   0.000  0.00  0.00    +0.000 Br
ATOM      4  C   UNL     1       2.612  -0.936   0.000  0.00  0.00    +0.000 A 
ATOM      5  O   UNL     1       3.327  -1.348   0.000  0.00  0.00    +0.000 OA
ATOM      6  C   UNL     1       1.898  -1.348   0.000  0.00  0.00    +0.000 A 
ATOM      7 BR   UNL     1       1.898  -2.173   0.000  0.00  0.00    +0.000 Br
ATOM      8  C   UNL     1       1.183  -0.936   0.000  0.00  0.00    +0.000 A 
ATOM      9  C   UNL     1       1.183  -0.111   0.000  0.00  0.00    +0.000 A 
ENDROOT
BRANCH   9  10
ATOM     10  C   UNL     1       0.469   0.302   0.000  0.00  0.00    +0.000 A 
ATOM     11  C   UNL     1      -0.246  -0.111   0.000  0.00  0.00    +0.000 A 
ATOM     12  C   UNL     1      -0.960   0.302   0.000  0.00  0.00    +0.000 A 
ATOM     13  C   UNL     1      -0.960   1.127   0.000  0.00  0.00    +0.000 A 
ATOM     14  C   UNL     1      -0.246   1.539   0.000  0.00  0.00    +0.000 A 
ATOM     15  C   UNL     1       0.469   1.127   0.000  0.00  0.00    +0.000 A 
ENDBRANCH   9  10
TORSDOF 1
