REMARK  Name = LJ4
REMARK  2 active torsions:
REMARK  status: ('A' for Active; 'I' for Inactive)
REMARK    1  A    between atoms: C_9  and  O_10
REMARK    2  A    between atoms: O_10  and  C_11
REMARK                            x       y       z     vdW  Elec       q    Type
REMARK                         _______ _______ _______ _____ _____    ______ ____
ROOT
ATOM      1  C   UNL     1       1.459  -0.596   0.000  0.00  0.00    +0.000 A 
ATOM      2  C   UNL     1       2.174  -1.009   0.000  0.00  0.00    +0.000 A 
ATOM      3 BR   UNL     1       2.888  -0.596   0.000  0.00  0.00    +0.000 Br
ATOM      4  C   UNL     1       2.174  -1.834   0.000  0.00  0.00    +0.000 A 
ATOM      5  O   UNL     1       2.888  -2.246   0.000  0.00  0.00    +0.000 OA
ATOM      6  C   UNL     1       1.459  -2.246   0.000  0.00  0.00    +0.000 A 
ATOM      7 BR   UNL     1       1.459  -3.071   0.000  0.00  0.00    +0.000 Br
ATOM      8  C   UNL     1       0.745  -1.834   0.000  0.00  0.00    +0.000 A 
ATOM      9  C   UNL     1       0.745  -1.009   0.000  0.00  0.00    +0.000 A 
ENDROOT
BRANCH   9  10
ATOM     10  O   UNL     1       0.030  -0.596   0.000  0.00  0.00    +0.000 OA
BRANCH  10  11
ATOM     11  C   UNL     1       0.030   0.229   0.000  0.00  0.00    +0.000 A 
ATOM     12  C   UNL     1      -0.684   0.641   0.000  0.00  0.00    +0.000 A 
ATOM     13  C   UNL     1      -0.684   1.466   0.000  0.00  0.00    +0.000 A 
ATOM     14  C   UNL     1       0.030   1.879   0.000  0.00  0.00    +0.000 A 
ATOM     15  C   UNL     1       0.745   1.466   0.000  0.00  0.00    +0.000 A 
ATOM     16  C   UNL     1       0.745   0.641   0.000  0.00  0.00    +0.000 A 
ENDBRANCH  10  11
ENDBRANCH   9  10
TORSDOF 2
