REMARK  Name = LJ5
REMARK  2 active torsions:
REMARK  status: ('A' for Active; 'I' for Inactive)
REMARK    1  A    between atoms: C_9  and  N_10
REMARK    2  A    between atoms: C_11  and  C_13
REMARK                            x       y       z     vdW  Elec       q    Type
REMARK                         _______ _______ _______ _____ _____    ______ ____
ROOT
ATOM      1  C   UNL     1       2.736   0.161   0.000  0.00  0.00    +0.000 A 
ATOM      2  C   UNL     1       3.450  -0.251   0.000  0.00  0.00    +0.000 A 
ATOM      3 BR   UNL     1       4.165   0.161   0.000  0.00  0.00    +0.000 Br
ATOM      4  C   UNL     1       3.450  -1.076   0.000  0.00  0.00    +0.000 A 
ATOM      5  O   UNL     1       4.165  -1.489   0.000  0.00  0.00    +0.000 OA
ATOM      6  C   UNL     1       2.736  -1.489   0.000  0.00  0.00    +0.000 A 
ATOM      7 BR   UNL     1       2.736  -2.314   0.000  0.00  0.00    +0.000 Br
ATOM      8  C   UNL     1       2.021  -1.076   0.000  0.00  0.00    +0.000 A 
ATOM      9  C   UNL     1       2.021  -0.251   0.000  0.00  0.00    +0.000 A 
ENDROOT
BRANCH   9  10
ATOM     10  N   UNL     1       1.307   0.161   0.000  0.00  0.00    +0.000 NA
ATOM     11  C   UNL     1       0.592  -0.251   0.000  0.00  0.00    +0.000 C 
ATOM     12  O   UNL     1       0.592  -1.076   0.000  0.00  0.00    +0.000 OA
BRANCH  11  13
ATOM     13  C   UNL     1      -0.122   0.161   0.000  0.00  0.00    +0.000 A 
ATOM     14  C   UNL     1      -0.837  -0.251   0.000  0.00  0.00    +0.000 A 
ATOM     15  C   UNL     1      -1.551   0.161   0.000  0.00  0.00    +0.000 A 
ATOM     16  C   UNL     1      -1.551   0.986   0.000  0.00  0.00    +0.000 A 
ATOM     17  C   UNL     1      -0.837   1.399   0.000  0.00  0.00    +0.000 A 
ATOM     18  C   UNL     1      -0.122   0.986   0.000  0.00  0.00    +0.000 A 
ENDBRANCH  11  13
ENDBRANCH   9  10
TORSDOF 2
