REMARK  Name = LK3
REMARK  12 active torsions:
REMARK  status: ('A' for Active; 'I' for Inactive)
REMARK    1  A    between atoms: S_2  and  N_4
REMARK    2  A    between atoms: S_2  and  C_14
REMARK    3  A    between atoms: N_4  and  C_5
REMARK    4  A    between atoms: C_5  and  C_6
REMARK    5  A    between atoms: C_5  and  C_9
REMARK    6  A    between atoms: C_9  and  C_10
REMARK    7  A    between atoms: C_10  and  C_11
REMARK    8  A    between atoms: C_19  and  O_24
REMARK    9  A    between atoms: O_24  and  C_25
REMARK   10  A    between atoms: C_25  and  C_26
REMARK   11  A    between atoms: C_26  and  C_27
REMARK   12  A    between atoms: C_27  and  C_28
REMARK                            x       y       z     vdW  Elec       q    Type
REMARK                         _______ _______ _______ _____ _____    ______ ____
ROOT
ATOM      1  C   UNL     1       0.193   0.678   0.000  0.00  0.00    +0.000 A 
ATOM      2  C   UNL     1      -0.522   0.266   0.000  0.00  0.00    +0.000 A 
ATOM      3  C   UNL     1      -1.236   0.678   0.000  0.00  0.00    +0.000 A 
ATOM      4  C   UNL     1      -1.236   1.503   0.000  0.00  0.00    +0.000 A 
ATOM      5  C   UNL     1      -1.950   1.916   0.000  0.00  0.00    +0.000 A 
ATOM      6  C   UNL     1      -1.950   2.741   0.000  0.00  0.00    +0.000 A 
ATOM      7  C   UNL     1      -1.236   3.153   0.000  0.00  0.00    +0.000 A 
ATOM      8  C   UNL     1      -0.522   2.741   0.000  0.00  0.00    +0.000 A 
ATOM      9  C   UNL     1      -0.522   1.916   0.000  0.00  0.00    +0.000 A 
ATOM     10  C   UNL     1       0.193   1.503   0.000  0.00  0.00    +0.000 A 
ENDROOT
BRANCH   1  12
ATOM     11  O   UNL     1       1.320   0.980   0.000  0.00  0.00    +0.000 OA
ATOM     12  S   UNL     1       0.907   0.266   0.000  0.00  0.00    +0.000 S 
ATOM     13  O   UNL     1       0.495  -0.449   0.000  0.00  0.00    +0.000 OA
BRANCH  12  14
ATOM     14  N   UNL     1       1.622  -0.147   0.000  0.00  0.00    +0.000 NA
BRANCH  14  15
ATOM     15  C   UNL     1       2.336   0.266   0.000  0.00  0.00    +0.000 C 
BRANCH  15  16
ATOM     16  C   UNL     1       2.336   1.091   0.000  0.00  0.00    +0.000 C 
ATOM     17  O   UNL     1       3.051   1.503   0.000  0.00  0.00    +0.000 OA
ATOM     18  O   UNL     1       1.622   1.503   0.000  0.00  0.00    +0.000 OA
ENDBRANCH  15  16
BRANCH  15  19
ATOM     19  C   UNL     1       3.051  -0.147   0.000  0.00  0.00    +0.000 C 
BRANCH  19  20
ATOM     20  C   UNL     1       3.765   0.266   0.000  0.00  0.00    +0.000 C 
BRANCH  20  21
ATOM     21  C   UNL     1       4.480  -0.147   0.000  0.00  0.00    +0.000 C 
ATOM     22  O   UNL     1       5.194   0.266   0.000  0.00  0.00    +0.000 OA
ATOM     23  O   UNL     1       4.480  -0.972   0.000  0.00  0.00    +0.000 OA
ENDBRANCH  20  21
ENDBRANCH  19  20
ENDBRANCH  15  19
ENDBRANCH  14  15
ENDBRANCH  12  14
ENDBRANCH   1  12
BRANCH   6  24
ATOM     24  O   UNL     1      -2.665   3.153   0.000  0.00  0.00    +0.000 OA
BRANCH  24  25
ATOM     25  C   UNL     1      -3.380   2.741   0.000  0.00  0.00    +0.000 C 
BRANCH  25  26
ATOM     26  C   UNL     1      -4.094   3.153   0.000  0.00  0.00    +0.000 C 
BRANCH  26  27
ATOM     27  C   UNL     1      -4.808   2.741   0.000  0.00  0.00    +0.000 C 
BRANCH  27  28
ATOM     28  C   UNL     1      -5.523   3.153   0.000  0.00  0.00    +0.000 C 
ATOM     29  C   UNL     1      -6.237   2.741   0.000  0.00  0.00    +0.000 C 
ENDBRANCH  27  28
ENDBRANCH  26  27
ENDBRANCH  25  26
ENDBRANCH  24  25
ENDBRANCH   6  24
TORSDOF 12
