REMARK  Name = LK5
REMARK  8 active torsions:
REMARK  status: ('A' for Active; 'I' for Inactive)
REMARK    1  A    between atoms: C_2  and  C_3
REMARK    2  A    between atoms: C_3  and  C_4
REMARK    3  A    between atoms: C_4  and  O_5
REMARK    4  A    between atoms: O_5  and  C_6
REMARK    5  A    between atoms: CA_12  and  C_13
REMARK    6  A    between atoms: C_17  and  C_18
REMARK    7  A    between atoms: C_18  and  C_19
REMARK    8  A    between atoms: C_18  and  C_21
REMARK                            x       y       z     vdW  Elec       q    Type
REMARK                         _______ _______ _______ _____ _____    ______ ____
ROOT
ATOM      1  C   UNL     1      -0.402   0.058   0.000  0.00  0.00    +0.000 C 
ATOM      2  C   UNL     1      -0.402   0.883   0.000  0.00  0.00    +0.000 C 
ATOM      3  C   UNL     1       0.312   1.295   0.000  0.00  0.00    +0.000 C 
ATOM      4  C   UNL     1       1.026   0.883   0.000  0.00  0.00    +0.000 C 
ATOM      5  C   UNL     1       1.026   0.058   0.000  0.00  0.00    +0.000 C 
ATOM      6  C   UNL     1       0.312  -0.355   0.000  0.00  0.00    +0.000 C 
ATOM      7  CA  UNL     1       0.484  -1.162   0.000  0.00  0.00    +0.000 C 
ATOM      8  N   UNL     1       1.304  -1.248   0.000  0.00  0.00    +0.000 NA
ATOM      9  C   UNL     1       1.640  -0.494   0.000  0.00  0.00    +0.000 C 
ENDROOT
BRANCH   7  10
ATOM     10  C   UNL     1      -0.068  -1.775   0.000  0.00  0.00    +0.000 C 
ATOM     11  O   UNL     1       0.186  -2.559   0.000  0.00  0.00    +0.000 OA
ATOM     12  OXT UNL     1      -0.875  -1.603   0.000  0.00  0.00    +0.000 OA
ENDBRANCH   7  10
BRANCH   1  13
ATOM     13  O   UNL     1      -1.117  -0.355   0.000  0.00  0.00    +0.000 OA
BRANCH  13  14
ATOM     14  C   UNL     1      -1.831   0.058   0.000  0.00  0.00    +0.000 C 
BRANCH  14  15
ATOM     15  C   UNL     1      -2.546  -0.355   0.000  0.00  0.00    +0.000 C 
BRANCH  15  17
ATOM     16  C   UNL     1      -3.975  -0.355   0.000  0.00  0.00    +0.000 C 
ATOM     17  C   UNL     1      -3.260   0.058   0.000  0.00  0.00    +0.000 C 
ENDBRANCH  15  17
ENDBRANCH  14  15
ENDBRANCH  13  14
ENDBRANCH   1  13
BRANCH   9  18
ATOM     18  C   UNL     1       2.447  -0.323   0.000  0.00  0.00    +0.000 C 
BRANCH  18  19
ATOM     19  C   UNL     1       2.999  -0.936   0.000  0.00  0.00    +0.000 C 
ATOM     20  C   UNL     1       3.806  -0.764   0.000  0.00  0.00    +0.000 C 
ENDBRANCH  18  19
BRANCH  18  21
ATOM     21  C   UNL     1       2.701   0.462   0.000  0.00  0.00    +0.000 C 
ATOM     22  O   UNL     1       3.509   0.633   0.000  0.00  0.00    +0.000 OA
ENDBRANCH  18  21
ENDBRANCH   9  18
TORSDOF 8
