REMARK  Name = LK7
REMARK  4 active torsions:
REMARK  status: ('A' for Active; 'I' for Inactive)
REMARK    1  A    between atoms: C_3  and  C_4
REMARK    2  A    between atoms: C_3  and  C_6
REMARK    3  A    between atoms: CA_8  and  C_9
REMARK    4  A    between atoms: C_17  and  O_18
REMARK                            x       y       z     vdW  Elec       q    Type
REMARK                         _______ _______ _______ _____ _____    ______ ____
ROOT
ATOM      1  C   UNL     1      -0.539  -0.386   0.000  0.00  0.00    +0.000 C 
ATOM      2  N   UNL     1      -1.024   0.281   0.000  0.00  0.00    +0.000 NA
ATOM      3  CA  UNL     1      -0.539   0.949   0.000  0.00  0.00    +0.000 C 
ATOM      4  C   UNL     1       0.245   0.694   0.000  0.00  0.00    +0.000 C 
ATOM      5  C   UNL     1       0.245  -0.131   0.000  0.00  0.00    +0.000 C 
ATOM      6  C   UNL     1       0.960  -0.543   0.000  0.00  0.00    +0.000 C 
ATOM      7  C   UNL     1       1.675  -0.131   0.000  0.00  0.00    +0.000 C 
ATOM      8  C   UNL     1       1.675   0.694   0.000  0.00  0.00    +0.000 C 
ATOM      9  C   UNL     1       0.960   1.107   0.000  0.00  0.00    +0.000 C 
ENDROOT
BRANCH   1  12
ATOM     10  C   UNL     1      -2.153  -0.729   0.000  0.00  0.00    +0.000 C 
ATOM     11  C   UNL     1      -1.601  -1.342   0.000  0.00  0.00    +0.000 C 
ATOM     12  C   UNL     1      -0.794  -1.171   0.000  0.00  0.00    +0.000 C 
BRANCH  12  13
ATOM     13  C   UNL     1      -0.242  -1.784   0.000  0.00  0.00    +0.000 C 
ATOM     14  O   UNL     1       0.565  -1.612   0.000  0.00  0.00    +0.000 OA
ENDBRANCH  12  13
ENDBRANCH   1  12
BRANCH   3  15
ATOM     15  C   UNL     1      -0.794   1.734   0.000  0.00  0.00    +0.000 C 
ATOM     16  O   UNL     1      -0.242   2.347   0.000  0.00  0.00    +0.000 OA
ATOM     17  OXT UNL     1      -1.601   1.905   0.000  0.00  0.00    +0.000 OA
ENDBRANCH   3  15
BRANCH   9  18
ATOM     18  O   UNL     1       0.960   1.931   0.000  0.00  0.00    +0.000 OA
ATOM     19  C   UNL     1       0.245   2.344   0.000  0.00  0.00    +0.000 C 
ENDBRANCH   9  18
TORSDOF 4
