REMARK  Name = LKG
REMARK  3 active torsions:
REMARK  status: ('A' for Active; 'I' for Inactive)
REMARK    1  A    between atoms: C_3  and  C_6
REMARK    2  A    between atoms: C_9  and  C_16
REMARK    3  A    between atoms: C_16  and  C_17
REMARK                            x       y       z     vdW  Elec       q    Type
REMARK                         _______ _______ _______ _____ _____    ______ ____
ROOT
ATOM      1  N   UNL     1      -0.056   0.787   0.000  0.00  0.00    +0.000 N 
ATOM      2  N   UNL     1      -0.840   1.867   0.000  0.00  0.00    +0.000 NA
ATOM      3  C   UNL     1       1.373   0.787   0.000  0.00  0.00    +0.000 A 
ATOM      4  C   UNL     1       1.373   1.612   0.000  0.00  0.00    +0.000 A 
ATOM      5  C   UNL     1      -0.056   1.612   0.000  0.00  0.00    +0.000 A 
ATOM      6  C   UNL     1      -0.840   0.532   0.000  0.00  0.00    +0.000 A 
ATOM      7  N   UNL     1       0.659   0.375   0.000  0.00  0.00    +0.000 NA
ATOM      8  N   UNL     1      -1.325   1.200   0.000  0.00  0.00    +0.000 NA
ATOM      9  C   UNL     1       0.659   2.025   0.000  0.00  0.00    +0.000 A 
ENDROOT
BRANCH   3  10
ATOM     10  C   UNL     1       2.088   0.375   0.000  0.00  0.00    +0.000 A 
ATOM     11  C   UNL     1       2.802   0.787   0.000  0.00  0.00    +0.000 A 
ATOM     12  C   UNL     1       3.517   0.375   0.000  0.00  0.00    +0.000 A 
ATOM     13  C   UNL     1       2.088  -0.450   0.000  0.00  0.00    +0.000 A 
ATOM     14  C   UNL     1       2.802  -0.863   0.000  0.00  0.00    +0.000 A 
ATOM     15  C   UNL     1       3.517  -0.450   0.000  0.00  0.00    +0.000 A 
ENDBRANCH   3  10
BRANCH   6  16
ATOM     16  C   UNL     1      -1.095  -0.253   0.000  0.00  0.00    +0.000 C 
BRANCH  16  17
ATOM     17  C   UNL     1      -1.902  -0.424   0.000  0.00  0.00    +0.000 A 
ATOM     18  C   UNL     1      -2.964  -1.380   0.000  0.00  0.00    +0.000 A 
ATOM     19  C   UNL     1      -3.261   0.018   0.000  0.00  0.00    +0.000 A 
ATOM     20  C   UNL     1      -2.157  -1.209   0.000  0.00  0.00    +0.000 A 
ATOM     21  C   UNL     1      -3.516  -0.767   0.000  0.00  0.00    +0.000 A 
ATOM     22  O   UNL     1      -4.323  -0.939   0.000  0.00  0.00    +0.000 OA
ATOM     23  C   UNL     1      -2.454   0.189   0.000  0.00  0.00    +0.000 A 
ENDBRANCH  16  17
ENDBRANCH   6  16
TORSDOF 3
