REMARK  Name = LKM
REMARK  11 active torsions:
REMARK  status: ('A' for Active; 'I' for Inactive)
REMARK    1  A    between atoms: C_2  and  C_3
REMARK    2  A    between atoms: C_8  and  C_9
REMARK    3  A    between atoms: C_9  and  O_10
REMARK    4  A    between atoms: O_10  and  C_11
REMARK    5  A    between atoms: C_20  and  S_21
REMARK    6  A    between atoms: S_21  and  N_24
REMARK    7  A    between atoms: N_24  and  C_25
REMARK    8  A    between atoms: C_25  and  C_26
REMARK    9  A    between atoms: C_25  and  C_29
REMARK   10  A    between atoms: C_29  and  C_30
REMARK   11  A    between atoms: C_30  and  C_31
REMARK                            x       y       z     vdW  Elec       q    Type
REMARK                         _______ _______ _______ _____ _____    ______ ____
ROOT
ATOM      1  C   UNL     1      -0.565 -10.112   0.000  0.00  0.00    +0.000 A 
ATOM      2  C   UNL     1       0.150  -9.699   0.000  0.00  0.00    +0.000 A 
ATOM      3  C   UNL     1       0.864 -10.112   0.000  0.00  0.00    +0.000 A 
ATOM      4  C   UNL     1      -0.565 -10.937   0.000  0.00  0.00    +0.000 A 
ATOM      5  C   UNL     1       0.150 -11.349   0.000  0.00  0.00    +0.000 A 
ATOM      6  C   UNL     1       0.864 -10.937   0.000  0.00  0.00    +0.000 A 
ATOM      7  C   UNL     1       1.579 -11.349   0.000  0.00  0.00    +0.000 A 
ATOM      8  C   UNL     1       0.150 -12.174   0.000  0.00  0.00    +0.000 A 
ATOM      9  C   UNL     1       0.864 -12.587   0.000  0.00  0.00    +0.000 A 
ATOM     10  C   UNL     1       1.579 -12.174   0.000  0.00  0.00    +0.000 A 
ENDROOT
BRANCH  10  11
ATOM     11  S   UNL     1       2.293 -12.587   0.000  0.00  0.00    +0.000 S 
ATOM     12  O   UNL     1       1.881 -13.301   0.000  0.00  0.00    +0.000 OA
ATOM     13  O   UNL     1       2.706 -11.872   0.000  0.00  0.00    +0.000 OA
BRANCH  11  14
ATOM     14  N   UNL     1       3.008 -12.999   0.000  0.00  0.00    +0.000 NA
BRANCH  14  15
ATOM     15  C   UNL     1       3.722 -12.587   0.000  0.00  0.00    +0.000 C 
BRANCH  15  16
ATOM     16  C   UNL     1       3.722 -11.762   0.000  0.00  0.00    +0.000 C 
ATOM     17  O   UNL     1       4.437 -11.349   0.000  0.00  0.00    +0.000 OA
ATOM     18  O   UNL     1       3.008 -11.349   0.000  0.00  0.00    +0.000 OA
ENDBRANCH  15  16
BRANCH  15  19
ATOM     19  C   UNL     1       4.437 -12.999   0.000  0.00  0.00    +0.000 C 
BRANCH  19  20
ATOM     20  C   UNL     1       5.151 -12.587   0.000  0.00  0.00    +0.000 C 
BRANCH  20  21
ATOM     21  C   UNL     1       5.866 -12.999   0.000  0.00  0.00    +0.000 C 
ATOM     22  O   UNL     1       6.580 -12.587   0.000  0.00  0.00    +0.000 OA
ATOM     23  O   UNL     1       5.866 -13.824   0.000  0.00  0.00    +0.000 OA
ENDBRANCH  20  21
ENDBRANCH  19  20
ENDBRANCH  15  19
ENDBRANCH  14  15
ENDBRANCH  11  14
ENDBRANCH  10  11
BRANCH   1  24
ATOM     24  O   UNL     1      -1.279  -9.699   0.000  0.00  0.00    +0.000 OA
BRANCH  24  25
ATOM     25  C   UNL     1      -1.994 -10.112   0.000  0.00  0.00    +0.000 C 
BRANCH  25  31
ATOM     26  C   UNL     1      -4.137  -8.874   0.000  0.00  0.00    +0.000 A 
ATOM     27  C   UNL     1      -3.422  -8.462   0.000  0.00  0.00    +0.000 A 
ATOM     28  C   UNL     1      -2.708  -8.874   0.000  0.00  0.00    +0.000 A 
ATOM     29  C   UNL     1      -4.137  -9.699   0.000  0.00  0.00    +0.000 A 
ATOM     30  C   UNL     1      -3.422 -10.112   0.000  0.00  0.00    +0.000 A 
ATOM     31  C   UNL     1      -2.708  -9.699   0.000  0.00  0.00    +0.000 A 
ATOM     32  F   UNL     1      -3.422 -10.937   0.000  0.00  0.00    +0.000 F 
BRANCH  26  34
ATOM     33  N   UNL     1      -5.566  -8.049   0.000  0.00  0.00    +0.000 NA
ATOM     34  C   UNL     1      -4.851  -8.462   0.000  0.00  0.00    +0.000 C 
ENDBRANCH  26  34
ENDBRANCH  25  31
ENDBRANCH  24  25
ENDBRANCH   1  24
TORSDOF 11
