REMARK  Name = LL2
REMARK  2 active torsions:
REMARK  status: ('A' for Active; 'I' for Inactive)
REMARK    1  A    between atoms: C_6  and  C_7
REMARK    2  A    between atoms: C_7  and  C_8
REMARK                            x       y       z     vdW  Elec       q    Type
REMARK                         _______ _______ _______ _____ _____    ______ ____
ROOT
ATOM      1  C   UNL     1       0.379   0.377   0.000  0.00  0.00    +0.000 C 
ENDROOT
BRANCH   1   7
ATOM      2  C   UNL     1      -1.050   0.377   0.000  0.00  0.00    +0.000 A 
ATOM      3  C   UNL     1      -1.764   0.789   0.000  0.00  0.00    +0.000 A 
ATOM      4  C   UNL     1      -1.764   1.614   0.000  0.00  0.00    +0.000 A 
ATOM      5  C   UNL     1      -1.050   2.026   0.000  0.00  0.00    +0.000 A 
ATOM      6  C   UNL     1      -0.335   1.614   0.000  0.00  0.00    +0.000 A 
ATOM      7  C   UNL     1      -0.335   0.789   0.000  0.00  0.00    +0.000 A 
ENDBRANCH   1   7
BRANCH   1   8
ATOM      8  C   UNL     1       0.379  -0.449   0.000  0.00  0.00    +0.000 A 
ATOM      9  S   UNL     1       1.047  -0.933   0.000  0.00  0.00    +0.000 S 
ATOM     10  C   UNL     1      -0.288  -0.933   0.000  0.00  0.00    +0.000 A 
ATOM     11  N   UNL     1      -0.033  -1.718   0.000  0.00  0.00    +0.000 NA
ATOM     12  C   UNL     1       0.792  -1.718   0.000  0.00  0.00    +0.000 A 
ATOM     13  N   UNL     1       1.277  -2.385   0.000  0.00  0.00    +0.000 NA
ENDBRANCH   1   8
TORSDOF 2
