REMARK  Name = LLG
REMARK  5 active torsions:
REMARK  status: ('A' for Active; 'I' for Inactive)
REMARK    1  A    between atoms: C_2  and  C_3
REMARK    2  A    between atoms: C_2  and  O_10
REMARK    3  A    between atoms: C_4  and  C_5
REMARK    4  A    between atoms: C_4  and  C_8
REMARK    5  A    between atoms: C_5  and  O_10
REMARK                            x       y       z     vdW  Elec       q    Type
REMARK                         _______ _______ _______ _____ _____    ______ ____
ROOT
ATOM      1  C   UNL     1       2.195   1.483   0.000  0.00  0.00    +0.000 A 
ATOM      2  C   UNL     1       2.195  -0.167   0.000  0.00  0.00    +0.000 A 
ATOM      3  C   UNL     1       0.766  -0.167   0.000  0.00  0.00    +0.000 A 
ATOM      4  C   UNL     1       1.481  -1.404   0.000  0.00  0.00    +0.000 A 
ATOM      5  C   UNL     1       0.766  -0.992   0.000  0.00  0.00    +0.000 A 
ATOM      6  C   UNL     1       2.195  -0.992   0.000  0.00  0.00    +0.000 A 
ATOM      7  C   UNL     1       1.481   0.246   0.000  0.00  0.00    +0.000 A 
ATOM      8  C   UNL     1       1.481   1.071   0.000  0.00  0.00    +0.000 A 
ATOM      9  C   UNL     1       2.910   1.071   0.000  0.00  0.00    +0.000 A 
ATOM     10  C   UNL     1       2.910   0.246   0.000  0.00  0.00    +0.000 A 
ENDROOT
BRANCH   3  11
ATOM     11  C   UNL     1       0.052   0.246   0.000  0.00  0.00    +0.000 C 
BRANCH  11  12
ATOM     12  C   UNL     1      -0.663  -0.167   0.000  0.00  0.00    +0.000 C 
ATOM     13  O   UNL     1      -0.663  -0.992   0.000  0.00  0.00    +0.000 OA
BRANCH  12  14
ATOM     14  O   UNL     1      -1.377   0.246   0.000  0.00  0.00    +0.000 OA
BRANCH  14  15
ATOM     15  C   UNL     1      -2.092  -0.167   0.000  0.00  0.00    +0.000 C 
BRANCH  15  17
ATOM     16  N   UNL     1      -3.521  -0.167   0.000  0.00  0.00    +0.000 NA
ATOM     17  C   UNL     1      -2.806   0.246   0.000  0.00  0.00    +0.000 C 
ENDBRANCH  15  17
ENDBRANCH  14  15
ENDBRANCH  12  14
ENDBRANCH  11  12
ENDBRANCH   3  11
TORSDOF 5
