REMARK  Name = LN1
REMARK  11 active torsions:
REMARK  status: ('A' for Active; 'I' for Inactive)
REMARK    1  A    between atoms: C_2  and  C_3
REMARK    2  A    between atoms: C_11  and  N_12
REMARK    3  A    between atoms: N_12  and  CA_13
REMARK    4  A    between atoms: CA_13  and  C_14
REMARK    5  A    between atoms: CA_13  and  C_17
REMARK    6  A    between atoms: C_17  and  S_18
REMARK    7  A    between atoms: C_17  and  C_22
REMARK    8  A    between atoms: C_22  and  O_23
REMARK    9  A    between atoms: O_23  and  C_24
REMARK   10  A    between atoms: C_24  and  C_26
REMARK   11  A    between atoms: C_26  and  C_27
REMARK                            x       y       z     vdW  Elec       q    Type
REMARK                         _______ _______ _______ _____ _____    ______ ____
ROOT
ATOM      1  C   UNL     1      -0.794   0.328   0.000  0.00  0.00    +0.000 C 
ATOM      2  C   UNL     1      -0.950  -0.482   0.000  0.00  0.00    +0.000 C 
ENDROOT
BRANCH   1   3
ATOM      3  S   UNL     1      -0.638   1.138   0.000  0.00  0.00    +0.000 S 
ATOM      4  O   UNL     1       0.141   1.408   0.000  0.00  0.00    +0.000 OA
ATOM      5  O   UNL     1      -0.826   1.942   0.000  0.00  0.00    +0.000 OA
ENDBRANCH   1   3
BRANCH   1   6
ATOM      6  CA  UNL     1      -1.604   0.484   0.000  0.00  0.00    +0.000 C 
BRANCH   6   7
ATOM      7  C   UNL     1      -1.875   1.263   0.000  0.00  0.00    +0.000 C 
ATOM      8  O   UNL     1      -2.685   1.419   0.000  0.00  0.00    +0.000 OA
ATOM      9  OXT UNL     1      -1.334   1.887   0.000  0.00  0.00    +0.000 OA
ENDBRANCH   6   7
BRANCH   6  10
ATOM     10  N   UNL     1      -2.144  -0.140   0.000  0.00  0.00    +0.000 NA
BRANCH  10  19
ATOM     11  C   UNL     1      -1.085  -1.159   0.000  0.00  0.00    +0.000 A 
ATOM     12  C   UNL     1      -1.069  -1.984   0.000  0.00  0.00    +0.000 A 
ATOM     13  C   UNL     1      -1.849  -2.254   0.000  0.00  0.00    +0.000 A 
ATOM     14  C   UNL     1      -2.170  -3.014   0.000  0.00  0.00    +0.000 A 
ATOM     15  C   UNL     1      -2.988  -3.116   0.000  0.00  0.00    +0.000 A 
ATOM     16  C   UNL     1      -3.486  -2.458   0.000  0.00  0.00    +0.000 A 
ATOM     17  C   UNL     1      -3.165  -1.698   0.000  0.00  0.00    +0.000 A 
ATOM     18  N   UNL     1      -2.346  -1.596   0.000  0.00  0.00    +0.000 N 
ATOM     19  C   UNL     1      -1.875  -0.919   0.000  0.00  0.00    +0.000 A 
BRANCH  11  21
ATOM     20  O   UNL     1       0.333  -0.982   0.000  0.00  0.00    +0.000 OA
ATOM     21  C   UNL     1      -0.427  -0.661   0.000  0.00  0.00    +0.000 C 
ENDBRANCH  11  21
ENDBRANCH  10  19
ENDBRANCH   6  10
ENDBRANCH   1   6
BRANCH   1  22
ATOM     22  C   UNL     1       0.016   0.172   0.000  0.00  0.00    +0.000 C 
BRANCH  22  23
ATOM     23  O   UNL     1       0.556   0.796   0.000  0.00  0.00    +0.000 OA
BRANCH  23  24
ATOM     24  C   UNL     1       1.366   0.640   0.000  0.00  0.00    +0.000 C 
ATOM     25  O   UNL     1       1.636  -0.140   0.000  0.00  0.00    +0.000 OA
BRANCH  24  26
ATOM     26  C   UNL     1       1.906   1.263   0.000  0.00  0.00    +0.000 C 
BRANCH  26  27
ATOM     27  C   UNL     1       2.716   1.107   0.000  0.00  0.00    +0.000 A 
ATOM     28  C   UNL     1       3.256   1.731   0.000  0.00  0.00    +0.000 A 
ATOM     29  C   UNL     1       2.986   0.328   0.000  0.00  0.00    +0.000 A 
ATOM     30  C   UNL     1       3.796   0.172   0.000  0.00  0.00    +0.000 A 
ATOM     31  C   UNL     1       4.337   0.796   0.000  0.00  0.00    +0.000 A 
ATOM     32  O   UNL     1       5.147   0.640   0.000  0.00  0.00    +0.000 OA
ATOM     33  C   UNL     1       4.066   1.575   0.000  0.00  0.00    +0.000 A 
ATOM     34  O   UNL     1       4.607   2.199   0.000  0.00  0.00    +0.000 OA
ENDBRANCH  26  27
ENDBRANCH  24  26
ENDBRANCH  23  24
ENDBRANCH  22  23
ENDBRANCH   1  22
TORSDOF 11
