REMARK  Name = LOI
REMARK  4 active torsions:
REMARK  status: ('A' for Active; 'I' for Inactive)
REMARK    1  A    between atoms: C_6  and  S_24
REMARK    2  A    between atoms: C_8  and  C_14
REMARK    3  A    between atoms: C_13  and  N_19
REMARK    4  A    between atoms: C_15  and  S_24
REMARK                            x       y       z     vdW  Elec       q    Type
REMARK                         _______ _______ _______ _____ _____    ______ ____
ROOT
ATOM      1  C   UNL     1      -1.522  -0.967   0.000  0.00  0.00    +0.000 A 
ATOM      2  C   UNL     1      -1.858  -0.213   0.000  0.00  0.00    +0.000 A 
ATOM      3  C   UNL     1      -0.217  -0.385   0.000  0.00  0.00    +0.000 A 
ATOM      4  C   UNL     1      -0.702  -1.053   0.000  0.00  0.00    +0.000 A 
ATOM      5  C   UNL     1      -1.373   0.455   0.000  0.00  0.00    +0.000 A 
ATOM      6  C   UNL     1      -0.552   0.368   0.000  0.00  0.00    +0.000 A 
ENDROOT
BRANCH   6   9
ATOM      7  C   UNL     1       1.650   2.886   0.000  0.00  0.00    +0.000 A 
ATOM      8  C   UNL     1       1.238   1.617   0.000  0.00  0.00    +0.000 A 
ATOM      9  C   UNL     1      -0.068   1.036   0.000  0.00  0.00    +0.000 C 
ATOM     10  C   UNL     1       3.103   2.656   0.000  0.00  0.00    +0.000 C 
ATOM     11  C   UNL     1       2.318   2.402   0.000  0.00  0.00    +0.000 A 
ATOM     12  N   UNL     1       2.063   1.617   0.000  0.00  0.00    +0.000 NA
ATOM     13  N   UNL     1       0.753   0.950   0.000  0.00  0.00    +0.000 NA
ATOM     14  O   UNL     1      -0.403   1.789   0.000  0.00  0.00    +0.000 OA
ATOM     15  S   UNL     1       0.983   2.402   0.000  0.00  0.00    +0.000 S 
ENDBRANCH   6   9
BRANCH   5  17
ATOM     16  C   UNL     1      -1.224   1.876   0.000  0.00  0.00    +0.000 C 
ATOM     17  N   UNL     1      -1.708   1.208   0.000  0.00  0.00    +0.000 NA
ENDBRANCH   5  17
BRANCH   4  18
ATOM     18  S   UNL     1      -0.366  -1.806   0.000  0.00  0.00    +0.000 S 
BRANCH  18  21
ATOM     19  C   UNL     1      -1.264  -3.744   0.000  0.00  0.00    +0.000 A 
ATOM     20  C   UNL     1       0.188  -3.514   0.000  0.00  0.00    +0.000 C 
ATOM     21  C   UNL     1      -0.851  -2.474   0.000  0.00  0.00    +0.000 A 
ATOM     22  N   UNL     1      -1.931  -3.259   0.000  0.00  0.00    +0.000 NA
ATOM     23  N   UNL     1      -1.676  -2.474   0.000  0.00  0.00    +0.000 NA
ATOM     24  N   UNL     1      -0.596  -3.259   0.000  0.00  0.00    +0.000 N 
ENDBRANCH  18  21
ENDBRANCH   4  18
TORSDOF 4
