REMARK  Name = LPF
REMARK  9 active torsions:
REMARK  status: ('A' for Active; 'I' for Inactive)
REMARK    1  A    between atoms: C_1  and  C_5
REMARK    2  A    between atoms: C_5  and  C_7
REMARK    3  A    between atoms: C_7  and  C_8
REMARK    4  A    between atoms: C_7  and  N_15
REMARK    5  A    between atoms: C_8  and  C_9
REMARK    6  A    between atoms: C_16  and  C_18
REMARK    7  A    between atoms: C_18  and  N_19
REMARK    8  A    between atoms: C_18  and  C_23
REMARK    9  A    between atoms: C_23  and  C_24
REMARK                            x       y       z     vdW  Elec       q    Type
REMARK                         _______ _______ _______ _____ _____    ______ ____
ROOT
ATOM      1  C   UNL     1      -0.911  -0.304   0.000  0.00  0.00    +0.000 C 
ENDROOT
BRANCH   1   2
ATOM      2  N   UNL     1      -0.101  -0.148   0.000  0.00  0.00    +0.000 NA
ATOM      3  C   UNL     1       0.169   0.631   0.000  0.00  0.00    +0.000 C 
ATOM      4  O   UNL     1      -0.371   1.255   0.000  0.00  0.00    +0.000 OA
BRANCH   3   5
ATOM      5  C   UNL     1       0.979   0.787   0.000  0.00  0.00    +0.000 C 
BRANCH   5   6
ATOM      6  N   UNL     1       1.249   1.567   0.000  0.00  0.00    +0.000 NA
ATOM      7  C   UNL     1       0.709   2.190   0.000  0.00  0.00    +0.000 C 
ATOM      8  O   UNL     1       0.979   2.970   0.000  0.00  0.00    +0.000 OA
ATOM      9  C   UNL     1      -0.101   2.034   0.000  0.00  0.00    +0.000 C 
ENDBRANCH   5   6
BRANCH   5  10
ATOM     10  C   UNL     1       1.519   0.164   0.000  0.00  0.00    +0.000 C 
BRANCH  10  11
ATOM     11  C   UNL     1       2.329   0.320   0.000  0.00  0.00    +0.000 C 
ATOM     12  C   UNL     1       2.599   1.099   0.000  0.00  0.00    +0.000 C 
ATOM     13  C   UNL     1       2.869  -0.304   0.000  0.00  0.00    +0.000 C 
ENDBRANCH  10  11
ENDBRANCH   5  10
ENDBRANCH   3   5
ENDBRANCH   1   2
BRANCH   1  14
ATOM     14  C   UNL     1      -1.452   0.320   0.000  0.00  0.00    +0.000 C 
ATOM     15  O   UNL     1      -1.181   1.099   0.000  0.00  0.00    +0.000 OA
BRANCH  14  16
ATOM     16  C   UNL     1      -2.262   0.164   0.000  0.00  0.00    +0.000 C 
ATOM     17  F   UNL     1      -3.072   0.008   0.000  0.00  0.00    +0.000 F 
ATOM     18  F   UNL     1      -2.418   0.974   0.000  0.00  0.00    +0.000 F 
ATOM     19  F   UNL     1      -2.106  -0.646   0.000  0.00  0.00    +0.000 F 
ENDBRANCH  14  16
ENDBRANCH   1  14
BRANCH   1  20
ATOM     20  C   UNL     1      -1.181  -1.084   0.000  0.00  0.00    +0.000 C 
BRANCH  20  21
ATOM     21  C   UNL     1      -1.992  -1.240   0.000  0.00  0.00    +0.000 A 
ATOM     22  C   UNL     1      -2.262  -2.019   0.000  0.00  0.00    +0.000 A 
ATOM     23  C   UNL     1      -3.072  -2.175   0.000  0.00  0.00    +0.000 A 
ATOM     24  C   UNL     1      -3.612  -1.551   0.000  0.00  0.00    +0.000 A 
ATOM     25  C   UNL     1      -3.342  -0.772   0.000  0.00  0.00    +0.000 A 
ATOM     26  C   UNL     1      -2.532  -0.616   0.000  0.00  0.00    +0.000 A 
ENDBRANCH  20  21
ENDBRANCH   1  20
TORSDOF 9
