REMARK  Name = LPM
REMARK  7 active torsions:
REMARK  status: ('A' for Active; 'I' for Inactive)
REMARK    1  A    between atoms: C_1  and  C_4
REMARK    2  A    between atoms: C_4  and  C_5
REMARK    3  A    between atoms: C_5  and  C_6
REMARK    4  A    between atoms: C_6  and  C_7
REMARK    5  A    between atoms: C_7  and  C_8
REMARK    6  A    between atoms: C_8  and  C_10
REMARK    7  A    between atoms: C_10  and  C_11
REMARK                            x       y       z     vdW  Elec       q    Type
REMARK                         _______ _______ _______ _____ _____    ______ ____
ROOT
ATOM      1  C   UNL     1      -0.395  -0.296   0.000  0.00  0.00    +0.000 C 
ENDROOT
BRANCH   1   2
ATOM      2  C   UNL     1      -1.110   0.116   0.000  0.00  0.00    +0.000 C 
BRANCH   2   3
ATOM      3  C   UNL     1      -1.824  -0.296   0.000  0.00  0.00    +0.000 C 
BRANCH   3   4
ATOM      4  C   UNL     1      -2.539   0.116   0.000  0.00  0.00    +0.000 C 
ATOM      5  O   UNL     1      -3.253  -0.296   0.000  0.00  0.00    +0.000 OA
ATOM      6  N   UNL     1      -2.539   0.941   0.000  0.00  0.00    +0.000 NA
ENDBRANCH   3   4
ENDBRANCH   2   3
ENDBRANCH   1   2
BRANCH   1   7
ATOM      7  C   UNL     1       0.319   0.116   0.000  0.00  0.00    +0.000 C 
BRANCH   7   8
ATOM      8  C   UNL     1       1.034  -0.296   0.000  0.00  0.00    +0.000 C 
ATOM      9  S   UNL     1       1.034  -1.122   0.000  0.00  0.00    +0.000 S 
BRANCH   8  10
ATOM     10  C   UNL     1       1.748   0.116   0.000  0.00  0.00    +0.000 C 
BRANCH  10  11
ATOM     11  C   UNL     1       2.463  -0.296   0.000  0.00  0.00    +0.000 C 
ATOM     12  S   UNL     1       3.177   0.116   0.000  0.00  0.00    +0.000 S 
ENDBRANCH  10  11
ENDBRANCH   8  10
ENDBRANCH   7   8
ENDBRANCH   1   7
TORSDOF 7
