REMARK  Name = LRG
REMARK  6 active torsions:
REMARK  status: ('A' for Active; 'I' for Inactive)
REMARK    1  A    between atoms: C_6  and  C_7
REMARK    2  A    between atoms: C_7  and  C_8
REMARK    3  A    between atoms: C_8  and  C_9
REMARK    4  A    between atoms: C_8  and  O_12
REMARK    5  A    between atoms: O_12  and  C_13
REMARK    6  A    between atoms: C_18  and  C_19
REMARK                            x       y       z     vdW  Elec       q    Type
REMARK                         _______ _______ _______ _____ _____    ______ ____
ROOT
ATOM      1  O   UNL     1      -0.253   1.022   0.000  0.00  0.00    +0.000 OA
ENDROOT
BRANCH   1   2
ATOM      2  C   UNL     1       0.461   0.610   0.000  0.00  0.00    +0.000 A 
ATOM      3  C   UNL     1       1.176   1.022   0.000  0.00  0.00    +0.000 A 
ATOM      4  C   UNL     1       1.890   0.610   0.000  0.00  0.00    +0.000 A 
ATOM      5  C   UNL     1       0.461  -0.215   0.000  0.00  0.00    +0.000 A 
ATOM      6  C   UNL     1       1.176  -0.627   0.000  0.00  0.00    +0.000 A 
ATOM      7  C   UNL     1       1.890  -0.215   0.000  0.00  0.00    +0.000 A 
BRANCH   7   8
ATOM      8  C   UNL     1       2.605  -0.627   0.000  0.00  0.00    +0.000 A 
ATOM      9  C   UNL     1       2.605  -1.452   0.000  0.00  0.00    +0.000 A 
ATOM     10  C   UNL     1       3.319  -1.865   0.000  0.00  0.00    +0.000 A 
ATOM     11  C   UNL     1       4.034  -1.452   0.000  0.00  0.00    +0.000 A 
ATOM     12  C   UNL     1       4.034  -0.627   0.000  0.00  0.00    +0.000 A 
ATOM     13  C   UNL     1       3.319  -0.215   0.000  0.00  0.00    +0.000 A 
ENDBRANCH   7   8
ENDBRANCH   1   2
BRANCH   1  14
ATOM     14  C   UNL     1      -0.968   0.610   0.000  0.00  0.00    +0.000 C 
BRANCH  14  15
ATOM     15  C   UNL     1      -0.968  -0.215   0.000  0.00  0.00    +0.000 C 
ATOM     16  O   UNL     1      -1.682  -0.627   0.000  0.00  0.00    +0.000 OA
ATOM     17  O   UNL     1      -0.253  -0.627   0.000  0.00  0.00    +0.000 OA
ENDBRANCH  14  15
BRANCH  14  18
ATOM     18  C   UNL     1      -1.682   1.022   0.000  0.00  0.00    +0.000 C 
BRANCH  18  24
ATOM     19  C   UNL     1      -3.111   1.022   0.000  0.00  0.00    +0.000 A 
ATOM     20  C   UNL     1      -3.826   0.610   0.000  0.00  0.00    +0.000 A 
ATOM     21  C   UNL     1      -3.826  -0.215   0.000  0.00  0.00    +0.000 A 
ATOM     22  C   UNL     1      -3.111  -0.627   0.000  0.00  0.00    +0.000 A 
ATOM     23  C   UNL     1      -2.397  -0.215   0.000  0.00  0.00    +0.000 A 
ATOM     24  C   UNL     1      -2.397   0.610   0.000  0.00  0.00    +0.000 A 
ENDBRANCH  18  24
ENDBRANCH  14  18
ENDBRANCH   1  14
TORSDOF 6
