REMARK  Name = LS2
REMARK  5 active torsions:
REMARK  status: ('A' for Active; 'I' for Inactive)
REMARK    1  A    between atoms: N_11  and  N_15
REMARK    2  A    between atoms: N_15  and  C_16
REMARK    3  A    between atoms: C_19  and  C_22
REMARK    4  A    between atoms: C_22  and  S_23
REMARK    5  A    between atoms: S_23  and  N_26
REMARK                            x       y       z     vdW  Elec       q    Type
REMARK                         _______ _______ _______ _____ _____    ______ ____
ROOT
ATOM      1  N   UNL     1      -1.237  -3.121   0.000  0.00  0.00    +0.000 NA
ATOM      2  C   UNL     1      -1.323  -2.300   0.000  0.00  0.00    +0.000 C 
ATOM      3  C   UNL     1      -0.570  -1.965   0.000  0.00  0.00    +0.000 C 
ATOM      4  C   UNL     1       0.807  -2.578   0.000  0.00  0.00    +0.000 A 
ATOM      5  C   UNL     1       1.220  -3.292   0.000  0.00  0.00    +0.000 A 
ATOM      6  C   UNL     1       0.807  -4.007   0.000  0.00  0.00    +0.000 A 
ATOM      7  C   UNL     1      -0.018  -4.007   0.000  0.00  0.00    +0.000 A 
ATOM      8  C   UNL     1      -0.430  -3.292   0.000  0.00  0.00    +0.000 A 
ATOM      9  C   UNL     1      -0.018  -2.578   0.000  0.00  0.00    +0.000 A 
ATOM     10  O   UNL     1      -2.038  -1.888   0.000  0.00  0.00    +0.000 OA
ATOM     11  N   UNL     1      -0.398  -1.158   0.000  0.00  0.00    +0.000 NA
ATOM     12  S   UNL     1       1.359  -1.965   0.000  0.00  0.00    +0.000 S 
ATOM     13  C   UNL     1       2.113  -2.300   0.000  0.00  0.00    +0.000 A 
ATOM     14  N   UNL     1       2.027  -3.121   0.000  0.00  0.00    +0.000 NA
ENDROOT
BRANCH  11  15
ATOM     15  N   UNL     1      -1.011  -0.606   0.000  0.00  0.00    +0.000 NA
BRANCH  15  16
ATOM     16  C   UNL     1      -0.840   0.201   0.000  0.00  0.00    +0.000 A 
ATOM     17  C   UNL     1      -1.453   0.753   0.000  0.00  0.00    +0.000 A 
ATOM     18  C   UNL     1      -1.281   1.560   0.000  0.00  0.00    +0.000 A 
ATOM     19  C   UNL     1      -0.497   1.815   0.000  0.00  0.00    +0.000 A 
ATOM     20  C   UNL     1       0.116   1.263   0.000  0.00  0.00    +0.000 A 
ATOM     21  C   UNL     1      -0.055   0.456   0.000  0.00  0.00    +0.000 A 
BRANCH  19  22
ATOM     22  C   UNL     1      -0.325   2.622   0.000  0.00  0.00    +0.000 C 
BRANCH  22  23
ATOM     23  S   UNL     1       0.460   2.877   0.000  0.00  0.00    +0.000 S 
ATOM     24  O   UNL     1       0.714   2.093   0.000  0.00  0.00    +0.000 OA
ATOM     25  O   UNL     1       0.204   3.662   0.000  0.00  0.00    +0.000 OA
BRANCH  23  26
ATOM     26  N   UNL     1       1.244   3.132   0.000  0.00  0.00    +0.000 NA
ATOM     27  C   UNL     1       1.416   3.939   0.000  0.00  0.00    +0.000 C 
ENDBRANCH  23  26
ENDBRANCH  22  23
ENDBRANCH  19  22
ENDBRANCH  15  16
ENDBRANCH  11  15
TORSDOF 5
