REMARK  Name = LS3
REMARK  3 active torsions:
REMARK  status: ('A' for Active; 'I' for Inactive)
REMARK    1  A    between atoms: C_7  and  C_8
REMARK    2  A    between atoms: C_16  and  N_17
REMARK    3  A    between atoms: N_17  and  C_18
REMARK                            x       y       z     vdW  Elec       q    Type
REMARK                         _______ _______ _______ _____ _____    ______ ____
ROOT
ATOM      1  O   UNL     1       0.368  -2.201   0.000  0.00  0.00    +0.000 OA
ATOM      2  C   UNL     1       0.981  -1.649   0.000  0.00  0.00    +0.000 C 
ATOM      3  N   UNL     1       1.788  -1.821   0.000  0.00  0.00    +0.000 NA
ATOM      4  C   UNL     1       2.201  -1.106   0.000  0.00  0.00    +0.000 A 
ATOM      5  C   UNL     1       3.008  -0.934   0.000  0.00  0.00    +0.000 A 
ATOM      6  C   UNL     1       3.263  -0.150   0.000  0.00  0.00    +0.000 A 
ATOM      7  C   UNL     1       2.711   0.463   0.000  0.00  0.00    +0.000 A 
ATOM      8  C   UNL     1       1.904   0.292   0.000  0.00  0.00    +0.000 A 
ATOM      9  C   UNL     1       1.649  -0.493   0.000  0.00  0.00    +0.000 A 
ATOM     10  C   UNL     1       0.895  -0.829   0.000  0.00  0.00    +0.000 C 
ATOM     11  C   UNL     1       0.181  -0.416   0.000  0.00  0.00    +0.000 C 
ENDROOT
BRANCH   7  12
ATOM     12  C   UNL     1       2.966   1.248   0.000  0.00  0.00    +0.000 A 
ATOM     13  O   UNL     1       3.750   1.503   0.000  0.00  0.00    +0.000 OA
ATOM     14  C   UNL     1       3.750   2.328   0.000  0.00  0.00    +0.000 A 
ATOM     15  N   UNL     1       2.966   2.583   0.000  0.00  0.00    +0.000 NA
ATOM     16  C   UNL     1       2.481   1.915   0.000  0.00  0.00    +0.000 A 
ENDBRANCH   7  12
BRANCH  11  17
ATOM     17  N   UNL     1      -0.534  -0.829   0.000  0.00  0.00    +0.000 NA
BRANCH  17  18
ATOM     18  C   UNL     1      -1.248  -0.416   0.000  0.00  0.00    +0.000 A 
ATOM     19  C   UNL     1      -1.963  -0.829   0.000  0.00  0.00    +0.000 A 
ATOM     20  C   UNL     1      -2.677  -0.416   0.000  0.00  0.00    +0.000 A 
ATOM     21  C   UNL     1      -3.462  -0.671   0.000  0.00  0.00    +0.000 C 
ATOM     22  S   UNL     1      -3.947  -0.004   0.000  0.00  0.00    +0.000 S 
ATOM     23  O   UNL     1      -4.560  -0.556   0.000  0.00  0.00    +0.000 OA
ATOM     24  O   UNL     1      -4.560   0.548   0.000  0.00  0.00    +0.000 OA
ATOM     25  C   UNL     1      -3.462   0.664   0.000  0.00  0.00    +0.000 C 
ATOM     26  C   UNL     1      -2.677   0.409   0.000  0.00  0.00    +0.000 A 
ATOM     27  C   UNL     1      -1.963   0.822   0.000  0.00  0.00    +0.000 A 
ATOM     28  C   UNL     1      -1.248   0.409   0.000  0.00  0.00    +0.000 A 
ENDBRANCH  17  18
ENDBRANCH  11  17
TORSDOF 3
