REMARK  Name = LS5
REMARK  4 active torsions:
REMARK  status: ('A' for Active; 'I' for Inactive)
REMARK    1  A    between atoms: C_11  and  N_12
REMARK    2  A    between atoms: N_12  and  C_13
REMARK    3  A    between atoms: C_16  and  S_19
REMARK    4  A    between atoms: S_19  and  N_22
REMARK                            x       y       z     vdW  Elec       q    Type
REMARK                         _______ _______ _______ _____ _____    ______ ____
ROOT
ATOM      1  C   UNL     1      -0.717  -0.000   0.000  0.00  0.00    +0.000 A 
ATOM      2  C   UNL     1      -1.524   0.171   0.000  0.00  0.00    +0.000 A 
ATOM      3  C   UNL     1      -1.779   0.956   0.000  0.00  0.00    +0.000 A 
ATOM      4  C   UNL     1      -1.227   1.569   0.000  0.00  0.00    +0.000 A 
ATOM      5  C   UNL     1      -0.420   1.397   0.000  0.00  0.00    +0.000 A 
ATOM      6  C   UNL     1      -0.165   0.613   0.000  0.00  0.00    +0.000 A 
ENDROOT
BRANCH   4   7
ATOM      7  S   UNL     1      -1.482   2.354   0.000  0.00  0.00    +0.000 S 
ATOM      8  O   UNL     1      -0.698   2.609   0.000  0.00  0.00    +0.000 OA
ATOM      9  O   UNL     1      -2.267   2.099   0.000  0.00  0.00    +0.000 OA
BRANCH   7  10
ATOM     10  N   UNL     1      -1.737   3.138   0.000  0.00  0.00    +0.000 NA
ATOM     11  C   UNL     1      -1.185   3.751   0.000  0.00  0.00    +0.000 C 
ATOM     12  N   UNL     1      -1.440   4.536   0.000  0.00  0.00    +0.000 NA
ATOM     13  N   UNL     1      -0.378   3.580   0.000  0.00  0.00    +0.000 NA
ENDBRANCH   7  10
ENDBRANCH   4   7
BRANCH   1  14
ATOM     14  N   UNL     1      -0.462  -0.785   0.000  0.00  0.00    +0.000 NA
BRANCH  14  25
ATOM     15  N   UNL     1       0.600  -3.076   0.000  0.00  0.00    +0.000 NA
ATOM     16  C   UNL     1       0.115  -2.408   0.000  0.00  0.00    +0.000 C 
ATOM     17  C   UNL     1       0.600  -1.741   0.000  0.00  0.00    +0.000 C 
ATOM     18  C   UNL     1       2.099  -1.583   0.000  0.00  0.00    +0.000 A 
ATOM     19  C   UNL     1       2.813  -1.996   0.000  0.00  0.00    +0.000 A 
ATOM     20  C   UNL     1       2.813  -2.821   0.000  0.00  0.00    +0.000 A 
ATOM     21  C   UNL     1       2.099  -3.233   0.000  0.00  0.00    +0.000 A 
ATOM     22  C   UNL     1       1.384  -2.821   0.000  0.00  0.00    +0.000 A 
ATOM     23  C   UNL     1       1.384  -1.996   0.000  0.00  0.00    +0.000 A 
ATOM     24  O   UNL     1      -0.710  -2.408   0.000  0.00  0.00    +0.000 OA
ATOM     25  C   UNL     1       0.344  -0.956   0.000  0.00  0.00    +0.000 C 
ENDBRANCH  14  25
ENDBRANCH   1  14
TORSDOF 4
