REMARK  Name = LSR
REMARK  2 active torsions:
REMARK  status: ('A' for Active; 'I' for Inactive)
REMARK    1  A    between atoms: C_3  and  C_5
REMARK    2  A    between atoms: C_6  and  C_7
REMARK                            x       y       z     vdW  Elec       q    Type
REMARK                         _______ _______ _______ _____ _____    ______ ____
ROOT
ATOM      1  C   UNL     1      -0.250  -0.521   0.000  0.00  0.00    +0.000 C 
ATOM      2  C   UNL     1      -0.250  -1.346   0.000  0.00  0.00    +0.000 C 
ATOM      3  C   UNL     1       0.465  -1.758   0.000  0.00  0.00    +0.000 C 
ATOM      4  C   UNL     1      -0.964  -1.758   0.000  0.00  0.00    +0.000 C 
ATOM      5  C   UNL     1      -1.679  -1.346   0.000  0.00  0.00    +0.000 C 
ATOM      6  C   UNL     1      -1.679  -0.521   0.000  0.00  0.00    +0.000 C 
ATOM      7  C   UNL     1      -0.964  -0.108   0.000  0.00  0.00    +0.000 C 
ATOM      8  C   UNL     1      -0.577   0.620   0.000  0.00  0.00    +0.000 C 
ATOM      9  C   UNL     1      -1.351   0.620   0.000  0.00  0.00    +0.000 C 
ENDROOT
BRANCH   1  11
ATOM     10  C   UNL     1       0.465   0.717   0.000  0.00  0.00    +0.000 C 
ATOM     11  C   UNL     1       0.465  -0.108   0.000  0.00  0.00    +0.000 C 
BRANCH  10  14
ATOM     12  C   UNL     1       2.608   1.129   0.000  0.00  0.00    +0.000 C 
ATOM     13  C   UNL     1       1.894   0.717   0.000  0.00  0.00    +0.000 C 
ATOM     14  C   UNL     1       1.179   1.129   0.000  0.00  0.00    +0.000 C 
ATOM     15  C   UNL     1       1.179   1.954   0.000  0.00  0.00    +0.000 C 
ENDBRANCH  10  14
ENDBRANCH   1  11
TORSDOF 2
