REMARK  Name = LT3
REMARK  1 active torsions:
REMARK  status: ('A' for Active; 'I' for Inactive)
REMARK    1  A    between atoms: C_4  and  C_13
REMARK                            x       y       z     vdW  Elec       q    Type
REMARK                         _______ _______ _______ _____ _____    ______ ____
ROOT
ATOM      1  C   UNL     1       0.095   0.812   0.000  0.00  0.00    +0.000 C 
ATOM      2  N   UNL     1      -0.126   2.450   0.000  0.00  0.00    +0.000 NA
ATOM      3  C   UNL     1      -0.910  -0.298   0.000  0.00  0.00    +0.000 C 
ATOM      4  C   UNL     1       1.009  -1.077   0.000  0.00  0.00    +0.000 A 
ATOM      5  C   UNL     1       1.831  -1.009   0.000  0.00  0.00    +0.000 A 
ATOM      6  C   UNL     1       0.891   0.347   0.000  0.00  0.00    +0.000 A 
ATOM      7  C   UNL     1      -0.545   0.362   0.000  0.00  0.00    +0.000 C 
ATOM      8  C   UNL     1      -0.135   0.092   0.000  0.00  0.00    +0.000 C 
ATOM      9  C   UNL     1      -0.065   1.628   0.000  0.00  0.00    +0.000 C 
ATOM     10  C   UNL     1       0.539  -0.399   0.000  0.00  0.00    +0.000 A 
ATOM     11  C   UNL     1       2.183  -0.263   0.000  0.00  0.00    +0.000 A 
ATOM     12  C   UNL     1       1.713   0.415   0.000  0.00  0.00    +0.000 A 
ENDROOT
BRANCH   4  13
ATOM     13  C   UNL     1       0.657  -1.823   0.000  0.00  0.00    +0.000 C 
ATOM     14  F   UNL     1       0.305  -2.569   0.000  0.00  0.00    +0.000 F 
ATOM     15  F   UNL     1      -0.089  -1.471   0.000  0.00  0.00    +0.000 F 
ATOM     16  F   UNL     1       1.403  -2.175   0.000  0.00  0.00    +0.000 F 
ENDBRANCH   4  13
TORSDOF 1
