REMARK  Name = LT5
REMARK  3 active torsions:
REMARK  status: ('A' for Active; 'I' for Inactive)
REMARK    1  A    between atoms: C_2  and  C_5
REMARK    2  A    between atoms: C_10  and  C_11
REMARK    3  A    between atoms: C_11  and  C_13
REMARK                            x       y       z     vdW  Elec       q    Type
REMARK                         _______ _______ _______ _____ _____    ______ ____
ROOT
ATOM      1  C   UNL     1       1.694  -0.193   0.000  0.00  0.00    +0.000 A 
ATOM      2  C   UNL     1       0.980   0.220   0.000  0.00  0.00    +0.000 A 
ATOM      3  C   UNL     1       1.694  -1.018   0.000  0.00  0.00    +0.000 A 
ATOM      4  C   UNL     1       0.980  -1.430   0.000  0.00  0.00    +0.000 A 
ATOM      5  C   UNL     1       0.266  -1.018   0.000  0.00  0.00    +0.000 A 
ATOM      6  C   UNL     1       0.266  -0.193   0.000  0.00  0.00    +0.000 A 
ENDROOT
BRANCH   1   8
ATOM      7  F   UNL     1       3.123   0.632   0.000  0.00  0.00    +0.000 F 
ATOM      8  C   UNL     1       2.409   0.220   0.000  0.00  0.00    +0.000 C 
ATOM      9  F   UNL     1       1.996   0.934   0.000  0.00  0.00    +0.000 F 
ATOM     10  F   UNL     1       2.821  -0.495   0.000  0.00  0.00    +0.000 F 
ENDBRANCH   1   8
BRANCH   6  11
ATOM     11  C   UNL     1      -0.449   0.220   0.000  0.00  0.00    +0.000 C 
ATOM     12  O   UNL     1      -1.163  -0.193   0.000  0.00  0.00    +0.000 OA
BRANCH  11  13
ATOM     13  C   UNL     1      -0.449   1.045   0.000  0.00  0.00    +0.000 C 
ATOM     14  N   UNL     1      -1.163   1.457   0.000  0.00  0.00    +0.000 NA
ENDBRANCH  11  13
ENDBRANCH   6  11
TORSDOF 3
