REMARK  Name = LUG
REMARK  5 active torsions:
REMARK  status: ('A' for Active; 'I' for Inactive)
REMARK    1  A    between atoms: C_7  and  C_8
REMARK    2  A    between atoms: N_12  and  C_13
REMARK    3  A    between atoms: C_13  and  C_14
REMARK    4  A    between atoms: C_17  and  N_18
REMARK    5  A    between atoms: N_18  and  C_19
REMARK                            x       y       z     vdW  Elec       q    Type
REMARK                         _______ _______ _______ _____ _____    ______ ____
ROOT
ATOM      1  F   UNL     1      -2.054   2.962   0.000  0.00  0.00    +0.000 F 
ATOM      2  C   UNL     1      -2.054   2.138   0.000  0.00  0.00    +0.000 A 
ATOM      3  C   UNL     1      -1.340   1.725   0.000  0.00  0.00    +0.000 A 
ATOM      4  F   UNL     1      -0.625   2.138   0.000  0.00  0.00    +0.000 F 
ATOM      5  C   UNL     1      -2.769   1.725   0.000  0.00  0.00    +0.000 A 
ATOM      6  C   UNL     1      -2.769   0.900   0.000  0.00  0.00    +0.000 A 
ATOM      7  C   UNL     1      -2.054   0.487   0.000  0.00  0.00    +0.000 A 
ATOM      8  C   UNL     1      -1.340   0.900   0.000  0.00  0.00    +0.000 A 
ENDROOT
BRANCH   7   9
ATOM      9  C   UNL     1      -2.054  -0.338   0.000  0.00  0.00    +0.000 A 
ATOM     10  N   UNL     1      -2.722  -0.823   0.000  0.00  0.00    +0.000 NA
ATOM     11  N   UNL     1      -2.467  -1.607   0.000  0.00  0.00    +0.000 NA
ATOM     12  C   UNL     1      -1.642  -1.607   0.000  0.00  0.00    +0.000 A 
ATOM     13  N   UNL     1      -1.157  -2.275   0.000  0.00  0.00    +0.000 NA
ATOM     14  O   UNL     1      -1.387  -0.823   0.000  0.00  0.00    +0.000 OA
BRANCH  13  15
ATOM     15  C   UNL     1      -1.492  -3.028   0.000  0.00  0.00    +0.000 C 
BRANCH  15  16
ATOM     16  C   UNL     1      -1.008  -3.696   0.000  0.00  0.00    +0.000 C 
ATOM     17  N   UNL     1      -1.343  -4.449   0.000  0.00  0.00    +0.000 NA
ENDBRANCH  15  16
ENDBRANCH  13  15
ENDBRANCH   7   9
BRANCH   8  18
ATOM     18  N   UNL     1      -0.625   0.487   0.000  0.00  0.00    +0.000 NA
BRANCH  18  19
ATOM     19  C   UNL     1       0.089   0.900   0.000  0.00  0.00    +0.000 A 
ATOM     20  C   UNL     1       0.089   1.725   0.000  0.00  0.00    +0.000 A 
ATOM     21  C   UNL     1       0.803   2.138   0.000  0.00  0.00    +0.000 A 
ATOM     22  C   UNL     1       1.518   1.725   0.000  0.00  0.00    +0.000 A 
ATOM     23  I   UNL     1       2.232   2.138   0.000  0.00  0.00    +0.000 I 
ATOM     24  C   UNL     1       1.518   0.900   0.000  0.00  0.00    +0.000 A 
ATOM     25  C   UNL     1       0.803   0.487   0.000  0.00  0.00    +0.000 A 
ATOM     26  F   UNL     1       0.803  -0.338   0.000  0.00  0.00    +0.000 F 
ENDBRANCH  18  19
ENDBRANCH   8  18
TORSDOF 5
