REMARK  Name = LUM
REMARK  0 active torsions:
REMARK  status: ('A' for Active; 'I' for Inactive)
REMARK                            x       y       z     vdW  Elec       q    Type
REMARK                         _______ _______ _______ _____ _____    ______ ____
ROOT
ATOM      1  N   UNL     1       2.122   0.830   0.000  0.00  0.00    +0.000 NA
ATOM      2  C   UNL     1       2.837   0.417   0.000  0.00  0.00    +0.000 A 
ATOM      3  C   UNL     1       1.408   0.417   0.000  0.00  0.00    +0.000 A 
ATOM      4  O   UNL     1       3.551   0.830   0.000  0.00  0.00    +0.000 OA
ATOM      5  N   UNL     1       2.837  -0.407   0.000  0.00  0.00    +0.000 NA
ATOM      6  C   UNL     1       2.122  -0.820   0.000  0.00  0.00    +0.000 A 
ATOM      7  O   UNL     1       2.122  -1.645   0.000  0.00  0.00    +0.000 OA
ATOM      8  C   UNL     1       1.408  -0.407   0.000  0.00  0.00    +0.000 A 
ATOM      9  N   UNL     1       0.693  -0.820   0.000  0.00  0.00    +0.000 NA
ATOM     10  C   UNL     1      -0.021  -0.407   0.000  0.00  0.00    +0.000 A 
ATOM     11  C   UNL     1      -0.736  -0.820   0.000  0.00  0.00    +0.000 A 
ATOM     12  C   UNL     1      -0.021   0.417   0.000  0.00  0.00    +0.000 A 
ATOM     13  C   UNL     1      -1.450  -0.407   0.000  0.00  0.00    +0.000 A 
ATOM     14  C   UNL     1      -2.165  -0.820   0.000  0.00  0.00    +0.000 C 
ATOM     15  C   UNL     1      -1.450   0.417   0.000  0.00  0.00    +0.000 A 
ATOM     16  C   UNL     1      -2.165   0.830   0.000  0.00  0.00    +0.000 C 
ATOM     17  C   UNL     1      -0.736   0.830   0.000  0.00  0.00    +0.000 A 
ATOM     18  N   UNL     1       0.693   0.830   0.000  0.00  0.00    +0.000 NA
ENDROOT
TORSDOF 0
