REMARK  Name = Lupeol
REMARK  1 active torsions:
REMARK  status: ('A' for Active; 'I' for Inactive)
REMARK    1  A    between atoms: C_9  and  C_17
REMARK                            x       y       z     vdW  Elec       q    Type
REMARK                         _______ _______ _______ _____ _____    ______ ____
ROOT
ATOM      1  C   UNL     1       9.581 -13.701   0.000  0.00  0.00    +0.000 C 
ATOM      2  C   UNL     1       8.845 -14.126   0.000  0.00  0.00    +0.000 C 
ATOM      3  C   UNL     1       7.402 -14.126   0.000  0.00  0.00    +0.000 C 
ATOM      4  C   UNL     1       9.581 -12.881   0.000  0.00  0.00    +0.000 C 
ATOM      5  C   UNL     1       8.138 -13.701   0.000  0.00  0.00    +0.000 C 
ATOM      6  C   UNL     1       7.402 -14.946   0.000  0.00  0.00    +0.000 C 
ATOM      7  C   UNL     1      10.289 -12.456   0.000  0.00  0.00    +0.000 C 
ATOM      8  C   UNL     1       6.667 -15.371   0.000  0.00  0.00    +0.000 C 
ATOM      9  C   UNL     1      10.487 -11.636   0.000  0.00  0.00    +0.000 C 
ATOM     10  C   UNL     1      11.024 -12.881   0.000  0.00  0.00    +0.000 C 
ATOM     11  C   UNL     1       8.845 -14.946   0.000  0.00  0.00    +0.000 C 
ATOM     12  C   UNL     1      10.289 -14.126   0.000  0.00  0.00    +0.000 C 
ATOM     13  C   UNL     1       8.845 -12.456   0.000  0.00  0.00    +0.000 C 
ATOM     14  C   UNL     1       6.667 -13.701   0.000  0.00  0.00    +0.000 C 
ATOM     15  C   UNL     1       8.138 -12.881   0.000  0.00  0.00    +0.000 C 
ATOM     16  C   UNL     1       8.138 -15.371   0.000  0.00  0.00    +0.000 C 
ATOM     17  C   UNL     1      11.307 -11.551   0.000  0.00  0.00    +0.000 C 
ATOM     18  C   UNL     1       5.959 -14.946   0.000  0.00  0.00    +0.000 C 
ATOM     19  C   UNL     1      11.024 -13.701   0.000  0.00  0.00    +0.000 C 
ATOM     20  C   UNL     1      11.647 -12.315   0.000  0.00  0.00    +0.000 C 
ATOM     21  C   UNL     1       5.959 -14.126   0.000  0.00  0.00    +0.000 C 
ATOM     22  C   UNL     1       9.581 -14.692   0.000  0.00  0.00    +0.000 C 
ATOM     23  C   UNL     1       8.845 -13.277   0.000  0.00  0.00    +0.000 C 
ATOM     24  C   UNL     1       7.402 -13.249   0.000  0.00  0.00    +0.000 C 
ATOM     25  O   UNL     1       5.223 -15.399   0.000  0.00  0.00    +0.000 OA
ATOM     26  C   UNL     1       7.073 -16.089   0.000  0.00  0.00    +0.000 C 
ATOM     27  C   UNL     1       6.248 -16.082   0.000  0.00  0.00    +0.000 C 
ATOM     28  C   UNL     1      11.023 -12.056   0.000  0.00  0.00    +0.000 C 
ENDROOT
BRANCH   9  29
ATOM     29  C   UNL     1       9.921 -11.013   0.000  0.00  0.00    +0.000 C 
ATOM     30  C   UNL     1      10.204 -10.221   0.000  0.00  0.00    +0.000 C 
ATOM     31  C   UNL     1       9.100 -11.155   0.000  0.00  0.00    +0.000 C 
ENDBRANCH   9  29
TORSDOF 1
