REMARK  Name = LY1
REMARK  0 active torsions:
REMARK  status: ('A' for Active; 'I' for Inactive)
REMARK                            x       y       z     vdW  Elec       q    Type
REMARK                         _______ _______ _______ _____ _____    ______ ____
ROOT
ATOM      1  C   UNL     1       0.451   0.933   0.000  0.00  0.00    +0.000 C 
ATOM      2  N   UNL     1       1.256   0.749   0.000  0.00  0.00    +0.000 NA
ATOM      3  C   UNL     1       1.614   0.006   0.000  0.00  0.00    +0.000 C 
ATOM      4  C   UNL     1       1.256  -0.737   0.000  0.00  0.00    +0.000 C 
ATOM      5  C   UNL     1       0.451  -0.921   0.000  0.00  0.00    +0.000 C 
ATOM      6  C   UNL     1      -0.194  -0.406   0.000  0.00  0.00    +0.000 A 
ATOM      7  C   UNL     1      -0.908  -0.819   0.000  0.00  0.00    +0.000 A 
ATOM      8  C   UNL     1      -1.623  -0.406   0.000  0.00  0.00    +0.000 A 
ATOM      9  C   UNL     1      -1.623   0.419   0.000  0.00  0.00    +0.000 A 
ATOM     10  C   UNL     1      -0.908   0.831   0.000  0.00  0.00    +0.000 A 
ATOM     11  C   UNL     1      -0.194   0.419   0.000  0.00  0.00    +0.000 A 
ATOM     12 CL   UNL     1      -2.337   0.831   0.000  0.00  0.00    +0.000 Cl
ATOM     13 CL   UNL     1      -0.908   1.656   0.000  0.00  0.00    +0.000 Cl
ENDROOT
TORSDOF 0
