REMARK  Name = LY2
REMARK  2 active torsions:
REMARK  status: ('A' for Active; 'I' for Inactive)
REMARK    1  A    between atoms: N_1  and  C_4
REMARK    2  A    between atoms: C_14  and  C_16
REMARK                            x       y       z     vdW  Elec       q    Type
REMARK                         _______ _______ _______ _____ _____    ______ ____
ROOT
ATOM      1  C   UNL     1      -0.510  -0.656   0.000  0.00  0.00    +0.000 A 
ATOM      2  C   UNL     1       2.348  -1.481   0.000  0.00  0.00    +0.000 A 
ATOM      3  C   UNL     1       1.634  -1.893   0.000  0.00  0.00    +0.000 A 
ATOM      4  C   UNL     1       2.348  -0.656   0.000  0.00  0.00    +0.000 A 
ATOM      5  C   UNL     1       0.919  -1.481   0.000  0.00  0.00    +0.000 A 
ATOM      6  C   UNL     1       0.919  -0.656   0.000  0.00  0.00    +0.000 A 
ATOM      7  C   UNL     1       0.205  -1.893   0.000  0.00  0.00    +0.000 A 
ATOM      8  C   UNL     1       1.634  -0.243   0.000  0.00  0.00    +0.000 A 
ATOM      9  O   UNL     1       0.205  -0.243   0.000  0.00  0.00    +0.000 OA
ATOM     10  C   UNL     1      -0.510  -1.481   0.000  0.00  0.00    +0.000 A 
ATOM     11  O   UNL     1       0.205  -2.718   0.000  0.00  0.00    +0.000 OA
ENDROOT
BRANCH   1  12
ATOM     12  N   UNL     1      -1.224  -0.243   0.000  0.00  0.00    +0.000 N 
ATOM     13  C   UNL     1      -1.939  -0.656   0.000  0.00  0.00    +0.000 C 
ATOM     14  C   UNL     1      -1.224   0.582   0.000  0.00  0.00    +0.000 C 
ATOM     15  C   UNL     1      -2.653  -0.243   0.000  0.00  0.00    +0.000 C 
ATOM     16  O   UNL     1      -2.653   0.582   0.000  0.00  0.00    +0.000 OA
ATOM     17  C   UNL     1      -1.939   0.994   0.000  0.00  0.00    +0.000 C 
ENDBRANCH   1  12
BRANCH   8  18
ATOM     18  C   UNL     1       1.634   0.582   0.000  0.00  0.00    +0.000 A 
ATOM     19  C   UNL     1       0.919   0.994   0.000  0.00  0.00    +0.000 A 
ATOM     20  C   UNL     1       0.919   1.819   0.000  0.00  0.00    +0.000 A 
ATOM     21  C   UNL     1       2.348   0.994   0.000  0.00  0.00    +0.000 A 
ATOM     22  C   UNL     1       2.348   1.819   0.000  0.00  0.00    +0.000 A 
ATOM     23  C   UNL     1       1.634   2.232   0.000  0.00  0.00    +0.000 A 
ENDBRANCH   8  18
TORSDOF 2
