REMARK  Name = lycopene
REMARK  16 active torsions:
REMARK  status: ('A' for Active; 'I' for Inactive)
REMARK    1  A    between atoms: C_4  and  C_5
REMARK    2  A    between atoms: C_5  and  C_6
REMARK    3  A    between atoms: C_6  and  C_7
REMARK    4  A    between atoms: C_9  and  C_10
REMARK    5  A    between atoms: C_11  and  C_12
REMARK    6  A    between atoms: C_14  and  C_15
REMARK    7  A    between atoms: C_16  and  C_17
REMARK    8  A    between atoms: C_19  and  C_20
REMARK    9  A    between atoms: C_21  and  C_22
REMARK   10  A    between atoms: C_23  and  C_25
REMARK   11  A    between atoms: C_26  and  C_27
REMARK   12  A    between atoms: C_28  and  C_30
REMARK   13  A    between atoms: C_31  and  C_32
REMARK   14  A    between atoms: C_33  and  C_35
REMARK   15  A    between atoms: C_35  and  C_36
REMARK   16  A    between atoms: C_36  and  C_37
REMARK                            x       y       z     vdW  Elec       q    Type
REMARK                         _______ _______ _______ _____ _____    ______ ____
ROOT
ATOM      1  C   UNL     1       9.488   5.001   0.000  0.00  0.00    +0.000 C 
ATOM      2  C   UNL     1       8.662   5.001   0.000  0.00  0.00    +0.000 C 
ENDROOT
BRANCH   2   3
ATOM      3  C   UNL     1       8.250   4.287   0.000  0.00  0.00    +0.000 C 
ATOM      4  C   UNL     1       7.425   4.287   0.000  0.00  0.00    +0.000 C 
ATOM      5  C   UNL     1       7.013   5.001   0.000  0.00  0.00    +0.000 C 
BRANCH   4   6
ATOM      6  C   UNL     1       7.013   3.572   0.000  0.00  0.00    +0.000 C 
ATOM      7  C   UNL     1       6.188   3.572   0.000  0.00  0.00    +0.000 C 
BRANCH   7   8
ATOM      8  C   UNL     1       5.775   2.858   0.000  0.00  0.00    +0.000 C 
ATOM      9  C   UNL     1       4.950   2.858   0.000  0.00  0.00    +0.000 C 
ATOM     10  C   UNL     1       4.537   3.572   0.000  0.00  0.00    +0.000 C 
BRANCH   9  11
ATOM     11  C   UNL     1       4.537   2.143   0.000  0.00  0.00    +0.000 C 
ATOM     12  C   UNL     1       3.712   2.143   0.000  0.00  0.00    +0.000 C 
BRANCH  12  13
ATOM     13  C   UNL     1       3.300   1.429   0.000  0.00  0.00    +0.000 C 
ATOM     14  C   UNL     1       2.475   1.429   0.000  0.00  0.00    +0.000 C 
ATOM     15  C   UNL     1       2.062   2.143   0.000  0.00  0.00    +0.000 C 
BRANCH  14  16
ATOM     16  C   UNL     1       2.062   0.715   0.000  0.00  0.00    +0.000 C 
BRANCH  16  17
ATOM     17  C   UNL     1       1.238   0.715   0.000  0.00  0.00    +0.000 C 
BRANCH  17  18
ATOM     18  C   UNL     1       0.825   0.000   0.000  0.00  0.00    +0.000 C 
ATOM     19  C   UNL     1       0.000   0.000   0.000  0.00  0.00    +0.000 C 
ATOM     20  C   UNL     1      -0.412  -0.715   0.000  0.00  0.00    +0.000 C 
ATOM     21  C   UNL     1      -0.412   0.715   0.000  0.00  0.00    +0.000 C 
ENDBRANCH  17  18
ENDBRANCH  16  17
ENDBRANCH  14  16
ENDBRANCH  12  13
ENDBRANCH   9  11
ENDBRANCH   7   8
ENDBRANCH   4   6
ENDBRANCH   2   3
BRANCH   1  24
ATOM     22  C   UNL     1      10.725   5.716   0.000  0.00  0.00    +0.000 C 
ATOM     23  C   UNL     1      11.137   5.001   0.000  0.00  0.00    +0.000 C 
ATOM     24  C   UNL     1       9.900   5.716   0.000  0.00  0.00    +0.000 C 
BRANCH  22  26
ATOM     25  C   UNL     1      11.963   6.430   0.000  0.00  0.00    +0.000 C 
ATOM     26  C   UNL     1      11.137   6.430   0.000  0.00  0.00    +0.000 C 
BRANCH  25  29
ATOM     27  C   UNL     1      13.200   7.145   0.000  0.00  0.00    +0.000 C 
ATOM     28  C   UNL     1      13.613   6.430   0.000  0.00  0.00    +0.000 C 
ATOM     29  C   UNL     1      12.375   7.145   0.000  0.00  0.00    +0.000 C 
BRANCH  27  31
ATOM     30  C   UNL     1      14.438   7.859   0.000  0.00  0.00    +0.000 C 
ATOM     31  C   UNL     1      13.613   7.859   0.000  0.00  0.00    +0.000 C 
BRANCH  30  34
ATOM     32  C   UNL     1      15.675   8.574   0.000  0.00  0.00    +0.000 C 
ATOM     33  C   UNL     1      16.087   7.859   0.000  0.00  0.00    +0.000 C 
ATOM     34  C   UNL     1      14.850   8.574   0.000  0.00  0.00    +0.000 C 
BRANCH  32  35
ATOM     35  C   UNL     1      16.087   9.288   0.000  0.00  0.00    +0.000 C 
BRANCH  35  36
ATOM     36  C   UNL     1      16.913   9.288   0.000  0.00  0.00    +0.000 C 
BRANCH  36  40
ATOM     37  C   UNL     1      18.562  10.717   0.000  0.00  0.00    +0.000 C 
ATOM     38  C   UNL     1      18.150  10.003   0.000  0.00  0.00    +0.000 C 
ATOM     39  C   UNL     1      18.562   9.288   0.000  0.00  0.00    +0.000 C 
ATOM     40  C   UNL     1      17.325  10.003   0.000  0.00  0.00    +0.000 C 
ENDBRANCH  36  40
ENDBRANCH  35  36
ENDBRANCH  32  35
ENDBRANCH  30  34
ENDBRANCH  27  31
ENDBRANCH  25  29
ENDBRANCH  22  26
ENDBRANCH   1  24
TORSDOF 16
