REMARK  Name = LYD
REMARK  7 active torsions:
REMARK  status: ('A' for Active; 'I' for Inactive)
REMARK    1  A    between atoms: C_2  and  C_14
REMARK    2  A    between atoms: C_5  and  C_7
REMARK    3  A    between atoms: N_9  and  CA_10
REMARK    4  A    between atoms: CA_10  and  CB_11
REMARK    5  A    between atoms: CA_10  and  C_17
REMARK    6  A    between atoms: C_14  and  C_15
REMARK    7  A    between atoms: C_15  and  C_16
REMARK                            x       y       z     vdW  Elec       q    Type
REMARK                         _______ _______ _______ _____ _____    ______ ____
ROOT
ATOM      1  C   UNK A   0       0.028   0.183   0.000  0.00  0.00    +0.000 A 
ATOM      2  C   UNK A   0       0.028   1.008   0.000  0.00  0.00    +0.000 A 
ATOM      3  C   UNK A   0       0.743   1.421   0.000  0.00  0.00    +0.000 A 
ATOM      4  C   UNK A   0       1.457   1.008   0.000  0.00  0.00    +0.000 A 
ATOM      5  C   UNK A   0       1.457   0.183   0.000  0.00  0.00    +0.000 A 
ATOM      6  C   UNK A   0       0.743  -0.229   0.000  0.00  0.00    +0.000 A 
ENDROOT
BRANCH   5   7
ATOM      7  C   UNK A   0       2.172  -0.229   0.000  0.00  0.00    +0.000 C 
ATOM      8  O   UNK A   0       2.886   0.183   0.000  0.00  0.00    +0.000 OA
ATOM      9  N   VAL A   1       2.172  -1.054   0.000  0.00  0.00    +0.000 NA
BRANCH   9  10
ATOM     10  CA  VAL A   1       2.886  -1.467   0.000  0.00  0.00    +0.000 C 
BRANCH  10  11
ATOM     11  C   VAL A   1       3.601  -1.054   0.000  0.00  0.00    +0.000 C 
ATOM     12  O   VAL A   1       3.601  -0.229   0.000  0.00  0.00    +0.000 OA
ATOM     13  OXT VAL A   1       4.315  -1.467   0.000  0.00  0.00    +0.000 OA
ENDBRANCH  10  11
BRANCH  10  14
ATOM     14  CB  VAL A   1       2.886  -2.292   0.000  0.00  0.00    +0.000 C 
ATOM     15  CG1 VAL A   1       3.601  -2.704   0.000  0.00  0.00    +0.000 C 
ATOM     16  CG2 VAL A   1       2.172  -2.704   0.000  0.00  0.00    +0.000 C 
ENDBRANCH  10  14
ENDBRANCH   9  10
ENDBRANCH   5   7
BRANCH   2  17
ATOM     17  C   UNK A   0      -0.686   1.421   0.000  0.00  0.00    +0.000 C 
BRANCH  17  18
ATOM     18  C   UNK A   0      -1.401   1.008   0.000  0.00  0.00    +0.000 C 
BRANCH  18  19
ATOM     19  C   UNK A   0      -2.115   1.421   0.000  0.00  0.00    +0.000 A 
ATOM     20  C   UNK A   0      -2.201   2.241   0.000  0.00  0.00    +0.000 A 
ATOM     21  N   UNK A   0      -3.008   2.413   0.000  0.00  0.00    +0.000 NA
ATOM     22  C   UNK A   0      -3.421   1.698   0.000  0.00  0.00    +0.000 A 
ATOM     23  C   UNK A   0      -2.869   1.085   0.000  0.00  0.00    +0.000 A 
ATOM     24  C   UNK A   0      -3.124   0.300   0.000  0.00  0.00    +0.000 A 
ATOM     25  O   UNK A   0      -2.572  -0.313   0.000  0.00  0.00    +0.000 OA
ATOM     26  N   UNK A   0      -3.931   0.129   0.000  0.00  0.00    +0.000 NA
ATOM     27  C   UNK A   0      -4.483   0.742   0.000  0.00  0.00    +0.000 A 
ATOM     28  N   UNK A   0      -4.228   1.527   0.000  0.00  0.00    +0.000 NA
ATOM     29  N   UNK A   0      -5.290   0.571   0.000  0.00  0.00    +0.000 NA
ENDBRANCH  18  19
ENDBRANCH  17  18
ENDBRANCH   2  17
TORSDOF 7
