REMARK  Name = LZ4
REMARK  2 active torsions:
REMARK  status: ('A' for Active; 'I' for Inactive)
REMARK    1  A    between atoms: S_2  and  C_5
REMARK    2  A    between atoms: C_8  and  N_9
REMARK                            x       y       z     vdW  Elec       q    Type
REMARK                         _______ _______ _______ _____ _____    ______ ____
ROOT
ATOM      1  C   UNL     1      16.667   5.452   0.000  0.00  0.00    +0.000 A 
ATOM      2  C   UNL     1      17.381   5.039   0.000  0.00  0.00    +0.000 A 
ATOM      3  C   UNL     1      17.381   4.214   0.000  0.00  0.00    +0.000 A 
ATOM      4  C   UNL     1      16.667   3.801   0.000  0.00  0.00    +0.000 A 
ATOM      5  C   UNL     1      15.952   4.214   0.000  0.00  0.00    +0.000 A 
ATOM      6  C   UNL     1      15.952   5.039   0.000  0.00  0.00    +0.000 A 
ENDROOT
BRANCH   4   7
ATOM      7  N   UNL     1      16.667   2.977   0.000  0.00  0.00    +0.000 NA
ATOM      8  C   UNL     1      15.952   2.564   0.000  0.00  0.00    +0.000 A 
ATOM      9  C   UNL     1      15.952   1.739   0.000  0.00  0.00    +0.000 A 
ATOM     10  N   UNL     1      15.238   1.327   0.000  0.00  0.00    +0.000 NA
ATOM     11  C   UNL     1      14.523   1.739   0.000  0.00  0.00    +0.000 A 
ATOM     12  C   UNL     1      14.523   2.564   0.000  0.00  0.00    +0.000 A 
ATOM     13 CL   UNL     1      13.809   2.977   0.000  0.00  0.00    +0.000 Cl
ATOM     14  N   UNL     1      15.238   2.977   0.000  0.00  0.00    +0.000 NA
ENDBRANCH   4   7
BRANCH   1  16
ATOM     15  N   UNL     1      16.667   7.101   0.000  0.00  0.00    +0.000 NA
ATOM     16  S   UNL     1      16.667   6.277   0.000  0.00  0.00    +0.000 S 
ATOM     17  O   UNL     1      15.842   6.277   0.000  0.00  0.00    +0.000 OA
ATOM     18  O   UNL     1      17.492   6.277   0.000  0.00  0.00    +0.000 OA
ENDBRANCH   1  16
TORSDOF 2
