REMARK  Name = LZ5
REMARK  2 active torsions:
REMARK  status: ('A' for Active; 'I' for Inactive)
REMARK    1  A    between atoms: C_2  and  C_10
REMARK    2  A    between atoms: N_3  and  C_4
REMARK                            x       y       z     vdW  Elec       q    Type
REMARK                         _______ _______ _______ _____ _____    ______ ____
ROOT
ATOM      1  O   UNL     1      16.860   3.508   0.000  0.00  0.00    +0.000 OA
ATOM      2  C   UNL     1      16.145   3.095   0.000  0.00  0.00    +0.000 C 
ATOM      3  N   UNL     1      15.431   3.508   0.000  0.00  0.00    +0.000 NA
ENDROOT
BRANCH   3   4
ATOM      4  C   UNL     1      15.431   4.333   0.000  0.00  0.00    +0.000 A 
ATOM      5  C   UNL     1      14.716   4.745   0.000  0.00  0.00    +0.000 A 
ATOM      6  C   UNL     1      14.716   5.570   0.000  0.00  0.00    +0.000 A 
ATOM      7  C   UNL     1      15.431   5.983   0.000  0.00  0.00    +0.000 A 
ATOM      8  C   UNL     1      16.145   5.570   0.000  0.00  0.00    +0.000 A 
ATOM      9  C   UNL     1      16.145   4.745   0.000  0.00  0.00    +0.000 A 
ENDBRANCH   3   4
BRANCH   2  10
ATOM     10  C   UNL     1      16.145   2.270   0.000  0.00  0.00    +0.000 A 
ATOM     11  C   UNL     1      16.813   1.785   0.000  0.00  0.00    +0.000 A 
ATOM     12  C   UNL     1      16.558   1.001   0.000  0.00  0.00    +0.000 A 
ATOM     13  N   UNL     1      15.733   1.001   0.000  0.00  0.00    +0.000 NA
ATOM     14  N   UNL     1      15.478   1.785   0.000  0.00  0.00    +0.000 NA
ENDBRANCH   2  10
TORSDOF 2
