REMARK  Name = LZ7
REMARK  3 active torsions:
REMARK  status: ('A' for Active; 'I' for Inactive)
REMARK    1  A    between atoms: N_4  and  C_5
REMARK    2  A    between atoms: C_9  and  C_10
REMARK    3  A    between atoms: N_12  and  C_13
REMARK                            x       y       z     vdW  Elec       q    Type
REMARK                         _______ _______ _______ _____ _____    ______ ____
ROOT
ATOM      1  C   UNL     1      15.141   2.979   0.000  0.00  0.00    +0.000 C 
ATOM      2  O   UNL     1      14.970   3.786   0.000  0.00  0.00    +0.000 OA
ATOM      3  N   UNL     1      14.528   2.427   0.000  0.00  0.00    +0.000 NA
ENDROOT
BRANCH   3   4
ATOM      4  C   UNL     1      13.743   2.682   0.000  0.00  0.00    +0.000 A 
ATOM      5  C   UNL     1      13.130   2.130   0.000  0.00  0.00    +0.000 A 
ATOM      6  C   UNL     1      12.346   2.385   0.000  0.00  0.00    +0.000 A 
ATOM      7  C   UNL     1      12.174   3.192   0.000  0.00  0.00    +0.000 A 
ATOM      8  F   UNL     1      11.389   3.446   0.000  0.00  0.00    +0.000 F 
ATOM      9  C   UNL     1      12.787   3.744   0.000  0.00  0.00    +0.000 A 
ATOM     10  C   UNL     1      13.572   3.489   0.000  0.00  0.00    +0.000 A 
ENDBRANCH   3   4
BRANCH   1  15
ATOM     11  C   UNL     1      16.593   3.209   0.000  0.00  0.00    +0.000 A 
ATOM     12  C   UNL     1      17.261   2.724   0.000  0.00  0.00    +0.000 A 
ATOM     13  N   UNL     1      17.006   1.939   0.000  0.00  0.00    +0.000 NA
ATOM     14  N   UNL     1      16.181   1.939   0.000  0.00  0.00    +0.000 NA
ATOM     15  C   UNL     1      15.926   2.724   0.000  0.00  0.00    +0.000 A 
BRANCH  11  19
ATOM     16  C   UNL     1      17.308   5.271   0.000  0.00  0.00    +0.000 C 
ATOM     17  C   UNL     1      17.308   4.446   0.000  0.00  0.00    +0.000 C 
ATOM     18  O   UNL     1      18.022   4.034   0.000  0.00  0.00    +0.000 OA
ATOM     19  N   UNL     1      16.593   4.034   0.000  0.00  0.00    +0.000 NA
ENDBRANCH  11  19
ENDBRANCH   1  15
TORSDOF 3
