REMARK  Name = LZB
REMARK  3 active torsions:
REMARK  status: ('A' for Active; 'I' for Inactive)
REMARK    1  A    between atoms: C_2  and  N_4
REMARK    2  A    between atoms: N_4  and  C_5
REMARK    3  A    between atoms: C_11  and  C_12
REMARK                            x       y       z     vdW  Elec       q    Type
REMARK                         _______ _______ _______ _____ _____    ______ ____
ROOT
ATOM      1  C   UNL     1      15.466   3.592   0.000  0.00  0.00    +0.000 A 
ATOM      2  C   UNL     1      16.181   3.179   0.000  0.00  0.00    +0.000 A 
ATOM      3  C   UNL     1      16.181   2.354   0.000  0.00  0.00    +0.000 A 
ATOM      4 CL   UNL     1      16.895   1.942   0.000  0.00  0.00    +0.000 Cl
ATOM      5  N   UNL     1      15.466   1.942   0.000  0.00  0.00    +0.000 NA
ATOM      6  C   UNL     1      14.752   2.354   0.000  0.00  0.00    +0.000 A 
ATOM      7  C   UNL     1      13.967   2.099   0.000  0.00  0.00    +0.000 A 
ATOM      8  C   UNL     1      13.482   2.767   0.000  0.00  0.00    +0.000 A 
ATOM      9  N   UNL     1      13.967   3.434   0.000  0.00  0.00    +0.000 NA
ATOM     10  N   UNL     1      14.752   3.179   0.000  0.00  0.00    +0.000 N 
ENDROOT
BRANCH   7  11
ATOM     11  C   UNL     1      13.712   1.315   0.000  0.00  0.00    +0.000 C 
ATOM     12  N   UNL     1      13.457   0.530   0.000  0.00  0.00    +0.000 NA
ENDBRANCH   7  11
BRANCH   1  13
ATOM     13  N   UNL     1      15.466   4.417   0.000  0.00  0.00    +0.000 NA
BRANCH  13  15
ATOM     14  C   UNL     1      16.181   5.654   0.000  0.00  0.00    +0.000 C 
ATOM     15  C   UNL     1      16.181   4.829   0.000  0.00  0.00    +0.000 C 
ATOM     16  C   UNL     1      16.895   4.417   0.000  0.00  0.00    +0.000 C 
ENDBRANCH  13  15
ENDBRANCH   1  13
TORSDOF 3
