REMARK  Name = LZC
REMARK  4 active torsions:
REMARK  status: ('A' for Active; 'I' for Inactive)
REMARK    1  A    between atoms: C_2  and  N_4
REMARK    2  A    between atoms: N_4  and  C_5
REMARK    3  A    between atoms: N_8  and  C_9
REMARK    4  A    between atoms: C_18  and  C_19
REMARK                            x       y       z     vdW  Elec       q    Type
REMARK                         _______ _______ _______ _____ _____    ______ ____
ROOT
ATOM      1  C   UNL     1      14.539   5.786   0.000  0.00  0.00    +0.000 A 
ATOM      2  C   UNL     1      15.253   5.373   0.000  0.00  0.00    +0.000 A 
ATOM      3  C   UNL     1      15.253   4.548   0.000  0.00  0.00    +0.000 A 
ATOM      4  N   UNL     1      15.967   4.136   0.000  0.00  0.00    +0.000 NA
ATOM      5  N   UNL     1      14.539   4.136   0.000  0.00  0.00    +0.000 NA
ATOM      6  C   UNL     1      13.824   4.548   0.000  0.00  0.00    +0.000 A 
ATOM      7  C   UNL     1      13.039   4.293   0.000  0.00  0.00    +0.000 A 
ATOM      8  C   UNL     1      12.555   4.961   0.000  0.00  0.00    +0.000 A 
ATOM      9  N   UNL     1      13.039   5.628   0.000  0.00  0.00    +0.000 NA
ATOM     10  N   UNL     1      13.824   5.373   0.000  0.00  0.00    +0.000 N 
ENDROOT
BRANCH   4  11
ATOM     11  C   UNL     1      15.967   3.311   0.000  0.00  0.00    +0.000 C 
ATOM     12  C   UNL     1      16.682   2.898   0.000  0.00  0.00    +0.000 C 
ATOM     13  C   UNL     1      16.682   2.073   0.000  0.00  0.00    +0.000 C 
ATOM     14  C   UNL     1      15.967   1.661   0.000  0.00  0.00    +0.000 C 
ATOM     15  N   UNL     1      15.967   0.836   0.000  0.00  0.00    +0.000 NA
ATOM     16  C   UNL     1      15.253   2.073   0.000  0.00  0.00    +0.000 C 
ATOM     17  C   UNL     1      15.253   2.898   0.000  0.00  0.00    +0.000 C 
ENDBRANCH   4  11
BRANCH   7  18
ATOM     18  C   UNL     1      12.784   3.509   0.000  0.00  0.00    +0.000 C 
ATOM     19  N   UNL     1      12.530   2.724   0.000  0.00  0.00    +0.000 NA
ENDBRANCH   7  18
BRANCH   1  20
ATOM     20  N   UNL     1      14.539   6.611   0.000  0.00  0.00    +0.000 NA
BRANCH  20  22
ATOM     21  C   UNL     1      13.824   7.848   0.000  0.00  0.00    +0.000 C 
ATOM     22  C   UNL     1      13.824   7.023   0.000  0.00  0.00    +0.000 C 
ATOM     23  C   UNL     1      13.110   6.611   0.000  0.00  0.00    +0.000 C 
ENDBRANCH  20  22
ENDBRANCH   1  20
TORSDOF 4
