REMARK  Name = LZD
REMARK  4 active torsions:
REMARK  status: ('A' for Active; 'I' for Inactive)
REMARK    1  A    between atoms: C_4  and  N_5
REMARK    2  A    between atoms: C_6  and  C_8
REMARK    3  A    between atoms: C_12  and  N_13
REMARK    4  A    between atoms: C_14  and  C_16
REMARK                            x       y       z     vdW  Elec       q    Type
REMARK                         _______ _______ _______ _____ _____    ______ ____
ROOT
ATOM      1  C   UNL     1      15.965   2.937   0.000  0.00  0.00    +0.000 A 
ATOM      2  N   UNL     1      16.633   2.452   0.000  0.00  0.00    +0.000 NA
ATOM      3  N   UNL     1      16.378   1.668   0.000  0.00  0.00    +0.000 NA
ATOM      4  C   UNL     1      15.553   1.668   0.000  0.00  0.00    +0.000 A 
ATOM      5  C   UNL     1      15.298   2.452   0.000  0.00  0.00    +0.000 A 
ENDROOT
BRANCH   1   7
ATOM      6  N   UNL     1      16.680   4.175   0.000  0.00  0.00    +0.000 NA
ATOM      7  C   UNL     1      15.965   3.762   0.000  0.00  0.00    +0.000 C 
ATOM      8  O   UNL     1      15.251   4.175   0.000  0.00  0.00    +0.000 OA
BRANCH   6  12
ATOM      9  C   UNL     1      16.680   6.650   0.000  0.00  0.00    +0.000 C 
ATOM     10  C   UNL     1      17.394   6.237   0.000  0.00  0.00    +0.000 C 
ATOM     11  C   UNL     1      17.394   5.412   0.000  0.00  0.00    +0.000 C 
ATOM     12  C   UNL     1      16.680   5.000   0.000  0.00  0.00    +0.000 C 
ATOM     13  C   UNL     1      15.965   5.412   0.000  0.00  0.00    +0.000 C 
ATOM     14  N   UNL     1      15.965   6.237   0.000  0.00  0.00    +0.000 NA
ENDBRANCH   6  12
ENDBRANCH   1   7
BRANCH   5  15
ATOM     15  N   UNL     1      14.513   2.707   0.000  0.00  0.00    +0.000 NA
ATOM     16  C   UNL     1      13.900   2.155   0.000  0.00  0.00    +0.000 C 
ATOM     17  O   UNL     1      14.072   1.348   0.000  0.00  0.00    +0.000 OA
BRANCH  16  18
ATOM     18  C   UNL     1      13.116   2.410   0.000  0.00  0.00    +0.000 A 
ATOM     19  C   UNL     1      12.502   1.858   0.000  0.00  0.00    +0.000 A 
ATOM     20  F   UNL     1      12.674   1.051   0.000  0.00  0.00    +0.000 F 
ATOM     21  C   UNL     1      11.718   2.113   0.000  0.00  0.00    +0.000 A 
ATOM     22  C   UNL     1      11.546   2.920   0.000  0.00  0.00    +0.000 A 
ATOM     23  C   UNL     1      12.159   3.472   0.000  0.00  0.00    +0.000 A 
ATOM     24  C   UNL     1      12.944   3.217   0.000  0.00  0.00    +0.000 A 
ATOM     25  F   UNL     1      13.557   3.769   0.000  0.00  0.00    +0.000 F 
ENDBRANCH  16  18
ENDBRANCH   5  15
TORSDOF 4
