REMARK  Name = LZE
REMARK  4 active torsions:
REMARK  status: ('A' for Active; 'I' for Inactive)
REMARK    1  A    between atoms: C_3  and  N_4
REMARK    2  A    between atoms: C_5  and  C_7
REMARK    3  A    between atoms: C_11  and  N_12
REMARK    4  A    between atoms: C_13  and  C_15
REMARK                            x       y       z     vdW  Elec       q    Type
REMARK                         _______ _______ _______ _____ _____    ______ ____
ROOT
ATOM      1  C   UNL     1      15.928   2.946   0.000  0.00  0.00    +0.000 A 
ATOM      2  N   UNL     1      16.595   2.461   0.000  0.00  0.00    +0.000 NA
ATOM      3  N   UNL     1      16.340   1.677   0.000  0.00  0.00    +0.000 NA
ATOM      4  C   UNL     1      15.515   1.677   0.000  0.00  0.00    +0.000 A 
ATOM      5  C   UNL     1      15.260   2.461   0.000  0.00  0.00    +0.000 A 
ENDROOT
BRANCH   1   7
ATOM      6  N   UNL     1      16.642   4.184   0.000  0.00  0.00    +0.000 NA
ATOM      7  C   UNL     1      15.928   3.771   0.000  0.00  0.00    +0.000 C 
ATOM      8  O   UNL     1      15.213   4.184   0.000  0.00  0.00    +0.000 OA
BRANCH   6  11
ATOM      9  C   UNL     1      17.357   6.246   0.000  0.00  0.00    +0.000 C 
ATOM     10  C   UNL     1      17.357   5.421   0.000  0.00  0.00    +0.000 C 
ATOM     11  C   UNL     1      16.642   5.009   0.000  0.00  0.00    +0.000 C 
ATOM     12  C   UNL     1      15.928   5.421   0.000  0.00  0.00    +0.000 C 
ATOM     13  N   UNL     1      16.642   6.659   0.000  0.00  0.00    +0.000 NA
ATOM     14  C   UNL     1      15.928   6.246   0.000  0.00  0.00    +0.000 C 
ENDBRANCH   6  11
ENDBRANCH   1   7
BRANCH   5  15
ATOM     15  N   UNL     1      14.476   2.716   0.000  0.00  0.00    +0.000 NA
ATOM     16  C   UNL     1      13.862   2.164   0.000  0.00  0.00    +0.000 C 
ATOM     17  O   UNL     1      14.034   1.357   0.000  0.00  0.00    +0.000 OA
BRANCH  16  18
ATOM     18  C   UNL     1      13.078   2.419   0.000  0.00  0.00    +0.000 A 
ATOM     19  C   UNL     1      12.465   1.867   0.000  0.00  0.00    +0.000 A 
ATOM     20  C   UNL     1      11.680   2.122   0.000  0.00  0.00    +0.000 A 
ATOM     21  C   UNL     1      11.508   2.929   0.000  0.00  0.00    +0.000 A 
ATOM     22  C   UNL     1      12.122   3.481   0.000  0.00  0.00    +0.000 A 
ATOM     23  C   UNL     1      12.906   3.226   0.000  0.00  0.00    +0.000 A 
ATOM     24 CL   UNL     1      13.519   3.778   0.000  0.00  0.00    +0.000 Cl
ATOM     25 CL   UNL     1      12.636   1.060   0.000  0.00  0.00    +0.000 Cl
ENDBRANCH  16  18
ENDBRANCH   5  15
TORSDOF 4
