REMARK  Name = LZJ
REMARK  1 active torsions:
REMARK  status: ('A' for Active; 'I' for Inactive)
REMARK    1  A    between atoms: C_8  and  C_9
REMARK                            x       y       z     vdW  Elec       q    Type
REMARK                         _______ _______ _______ _____ _____    ______ ____
ROOT
ATOM      1  C   UNL     1       1.975 -12.019   0.000  0.00  0.00    +0.000 A 
ATOM      2  C   UNL     1       2.689 -11.606   0.000  0.00  0.00    +0.000 A 
ATOM      3  C   UNL     1       3.404 -12.019   0.000  0.00  0.00    +0.000 A 
ATOM      4  C   UNL     1       4.118 -11.606   0.000  0.00  0.00    +0.000 A 
ATOM      5  N   UNL     1       4.833 -12.019   0.000  0.00  0.00    +0.000 NA
ATOM      6  C   UNL     1       1.975 -12.844   0.000  0.00  0.00    +0.000 A 
ATOM      7  N   UNL     1       1.260 -13.256   0.000  0.00  0.00    +0.000 NA
ATOM      8  N   UNL     1       2.689 -13.256   0.000  0.00  0.00    +0.000 NA
ATOM      9  C   UNL     1       3.404 -12.844   0.000  0.00  0.00    +0.000 A 
ATOM     10  N   UNL     1       4.118 -13.256   0.000  0.00  0.00    +0.000 NA
ATOM     11  C   UNL     1       4.833 -12.844   0.000  0.00  0.00    +0.000 A 
ATOM     12  N   UNL     1       5.547 -13.256   0.000  0.00  0.00    +0.000 NA
ENDROOT
BRANCH   1  20
ATOM     13 BR   UNL     1       0.546 -12.844   0.000  0.00  0.00    +0.000 Br
ATOM     14  C   UNL     1       0.546 -12.019   0.000  0.00  0.00    +0.000 A 
ATOM     15  C   UNL     1      -0.169 -11.606   0.000  0.00  0.00    +0.000 A 
ATOM     16  C   UNL     1      -0.169 -10.781   0.000  0.00  0.00    +0.000 A 
ATOM     17  C   UNL     1       0.546 -10.369   0.000  0.00  0.00    +0.000 A 
ATOM     18  C   UNL     1       1.260 -10.781   0.000  0.00  0.00    +0.000 A 
ATOM     19 BR   UNL     1       1.975 -10.369   0.000  0.00  0.00    +0.000 Br
ATOM     20  C   UNL     1       1.260 -11.606   0.000  0.00  0.00    +0.000 A 
ENDBRANCH   1  20
TORSDOF 1
