REMARK  Name = LZK
REMARK  3 active torsions:
REMARK  status: ('A' for Active; 'I' for Inactive)
REMARK    1  A    between atoms: C_12  and  C_13
REMARK    2  A    between atoms: C_14  and  O_15
REMARK    3  A    between atoms: C_17  and  O_18
REMARK                            x       y       z     vdW  Elec       q    Type
REMARK                         _______ _______ _______ _____ _____    ______ ____
ROOT
ATOM      1  N   UNL     1      -1.362 -10.264   0.000  0.00  0.00    +0.000 NA
ATOM      2  C   UNL     1      -0.648 -10.676   0.000  0.00  0.00    +0.000 A 
ATOM      3  N   UNL     1       0.067 -10.264   0.000  0.00  0.00    +0.000 NA
ATOM      4  N   UNL     1      -0.648 -11.501   0.000  0.00  0.00    +0.000 NA
ATOM      5  C   UNL     1       0.067 -11.914   0.000  0.00  0.00    +0.000 A 
ATOM      6  C   UNL     1       0.781 -11.501   0.000  0.00  0.00    +0.000 A 
ATOM      7  C   UNL     1       0.781 -10.676   0.000  0.00  0.00    +0.000 A 
ATOM      8  N   UNL     1       1.496 -10.264   0.000  0.00  0.00    +0.000 NA
ATOM      9  C   UNL     1       2.210 -10.676   0.000  0.00  0.00    +0.000 A 
ATOM     10  N   UNL     1       2.925 -10.264   0.000  0.00  0.00    +0.000 NA
ATOM     11  C   UNL     1       1.496 -11.914   0.000  0.00  0.00    +0.000 A 
ATOM     12  C   UNL     1       2.210 -11.501   0.000  0.00  0.00    +0.000 A 
ENDROOT
BRANCH  12  13
ATOM     13  C   UNL     1       2.925 -11.914   0.000  0.00  0.00    +0.000 A 
ATOM     14  C   UNL     1       3.639 -11.501   0.000  0.00  0.00    +0.000 A 
ATOM     15  C   UNL     1       2.925 -12.739   0.000  0.00  0.00    +0.000 A 
ATOM     16  C   UNL     1       3.639 -13.151   0.000  0.00  0.00    +0.000 A 
ATOM     17  C   UNL     1       4.354 -12.739   0.000  0.00  0.00    +0.000 A 
ATOM     18  C   UNL     1       4.354 -11.914   0.000  0.00  0.00    +0.000 A 
BRANCH  14  19
ATOM     19  O   UNL     1       3.639 -10.676   0.000  0.00  0.00    +0.000 OA
ATOM     20  C   UNL     1       4.354 -10.264   0.000  0.00  0.00    +0.000 C 
ENDBRANCH  14  19
BRANCH  15  21
ATOM     21  O   UNL     1       2.210 -13.151   0.000  0.00  0.00    +0.000 OA
ATOM     22  C   UNL     1       2.210 -13.976   0.000  0.00  0.00    +0.000 C 
ENDBRANCH  15  21
ENDBRANCH  12  13
TORSDOF 3
