REMARK  Name = LZL
REMARK  1 active torsions:
REMARK  status: ('A' for Active; 'I' for Inactive)
REMARK    1  A    between atoms: C_16  and  C_17
REMARK                            x       y       z     vdW  Elec       q    Type
REMARK                         _______ _______ _______ _____ _____    ______ ____
ROOT
ATOM      1  N   UNL     1      -0.917 -12.928   0.000  0.00  0.00    +0.000 NA
ATOM      2  C   UNL     1      -0.203 -12.516   0.000  0.00  0.00    +0.000 A 
ATOM      3  N   UNL     1      -0.203 -11.691   0.000  0.00  0.00    +0.000 NA
ATOM      4  C   UNL     1       0.511 -11.278   0.000  0.00  0.00    +0.000 A 
ATOM      5  C   UNL     1       1.226 -11.691   0.000  0.00  0.00    +0.000 A 
ATOM      6  C   UNL     1       1.940 -11.278   0.000  0.00  0.00    +0.000 A 
ATOM      7  N   UNL     1       0.511 -12.928   0.000  0.00  0.00    +0.000 NA
ATOM      8  C   UNL     1       1.226 -12.516   0.000  0.00  0.00    +0.000 A 
ATOM      9  N   UNL     1       1.940 -12.928   0.000  0.00  0.00    +0.000 NA
ATOM     10  C   UNL     1       2.655 -12.516   0.000  0.00  0.00    +0.000 A 
ATOM     11  N   UNL     1       3.369 -12.928   0.000  0.00  0.00    +0.000 N 
ATOM     12  C   UNL     1       4.123 -12.593   0.000  0.00  0.00    +0.000 C 
ATOM     13  C   UNL     1       4.675 -13.206   0.000  0.00  0.00    +0.000 C 
ATOM     14  C   UNL     1       4.263 -13.920   0.000  0.00  0.00    +0.000 C 
ATOM     15  C   UNL     1       3.455 -13.749   0.000  0.00  0.00    +0.000 C 
ATOM     16  C   UNL     1       2.655 -11.691   0.000  0.00  0.00    +0.000 A 
ENDROOT
BRANCH  16  17
ATOM     17  C   UNL     1       3.369 -11.278   0.000  0.00  0.00    +0.000 A 
ATOM     18  C   UNL     1       3.369 -10.453   0.000  0.00  0.00    +0.000 A 
ATOM     19  C   UNL     1       4.084 -10.041   0.000  0.00  0.00    +0.000 A 
ATOM     20  C   UNL     1       4.798 -10.453   0.000  0.00  0.00    +0.000 A 
ATOM     21  C   UNL     1       4.798 -11.278   0.000  0.00  0.00    +0.000 A 
ATOM     22  C   UNL     1       4.084 -11.691   0.000  0.00  0.00    +0.000 A 
ENDBRANCH  16  17
TORSDOF 1
