REMARK  Name = LZQ
REMARK  9 active torsions:
REMARK  status: ('A' for Active; 'I' for Inactive)
REMARK    1  A    between atoms: C_2  and  C_24
REMARK    2  A    between atoms: C_2  and  C_27
REMARK    3  A    between atoms: C_3  and  C_4
REMARK    4  A    between atoms: C_3  and  C_27
REMARK    5  A    between atoms: C_5  and  C_28
REMARK    6  A    between atoms: C_6  and  C_29
REMARK    7  A    between atoms: N_7  and  C_18
REMARK    8  A    between atoms: N_7  and  C_28
REMARK    9  A    between atoms: N_7  and  C_29
REMARK                            x       y       z     vdW  Elec       q    Type
REMARK                         _______ _______ _______ _____ _____    ______ ____
ROOT
ATOM      1  N   UNL     1      -0.329  -0.321   0.000  0.00  0.00    +0.000 N 
ENDROOT
BRANCH   1   5
ATOM      2  C   UNL     1       1.815   0.916   0.000  0.00  0.00    +0.000 A 
ATOM      3  C   UNL     1       1.100   1.329   0.000  0.00  0.00    +0.000 A 
ATOM      4  C   UNL     1       0.386   0.916   0.000  0.00  0.00    +0.000 A 
ATOM      5  C   UNL     1       0.386   0.091   0.000  0.00  0.00    +0.000 A 
ATOM      6  C   UNL     1       1.100  -0.321   0.000  0.00  0.00    +0.000 A 
ATOM      7  C   UNL     1       1.815   0.091   0.000  0.00  0.00    +0.000 A 
BRANCH   7   8
ATOM      8  C   UNL     1       2.529  -0.321   0.000  0.00  0.00    +0.000 C 
ATOM      9  O   UNL     1       2.529  -1.146   0.000  0.00  0.00    +0.000 OA
BRANCH   8  10
ATOM     10  C   UNL     1       3.244   0.091   0.000  0.00  0.00    +0.000 C 
BRANCH  10  11
ATOM     11  C   UNL     1       3.958  -0.321   0.000  0.00  0.00    +0.000 C 
ATOM     12  O   UNL     1       3.958  -1.146   0.000  0.00  0.00    +0.000 OA
BRANCH  11  13
ATOM     13  C   UNL     1       4.673   0.091   0.000  0.00  0.00    +0.000 C 
ATOM     14  O   UNL     1       5.387  -0.321   0.000  0.00  0.00    +0.000 OA
ATOM     15  O   UNL     1       4.673   0.916   0.000  0.00  0.00    +0.000 OA
ENDBRANCH  11  13
ENDBRANCH  10  11
ENDBRANCH   8  10
ENDBRANCH   7   8
ENDBRANCH   1   5
BRANCH   1  16
ATOM     16  C   UNL     1      -0.329  -1.146   0.000  0.00  0.00    +0.000 C 
BRANCH  16  17
ATOM     17  C   UNL     1      -1.043  -1.559   0.000  0.00  0.00    +0.000 A 
ATOM     18  C   UNL     1      -1.043  -2.384   0.000  0.00  0.00    +0.000 A 
ATOM     19  C   UNL     1      -1.758  -2.796   0.000  0.00  0.00    +0.000 A 
ATOM     20  C   UNL     1      -2.472  -2.384   0.000  0.00  0.00    +0.000 A 
ATOM     21  C   UNL     1      -2.472  -1.559   0.000  0.00  0.00    +0.000 A 
ATOM     22  C   UNL     1      -1.758  -1.146   0.000  0.00  0.00    +0.000 A 
ENDBRANCH  16  17
ENDBRANCH   1  16
BRANCH   1  23
ATOM     23  C   UNL     1      -1.043   0.091   0.000  0.00  0.00    +0.000 C 
BRANCH  23  24
ATOM     24  C   UNL     1      -1.043   0.916   0.000  0.00  0.00    +0.000 A 
ATOM     25  C   UNL     1      -0.329   1.329   0.000  0.00  0.00    +0.000 A 
ATOM     26  C   UNL     1      -0.329   2.154   0.000  0.00  0.00    +0.000 A 
ATOM     27  C   UNL     1      -1.043   2.566   0.000  0.00  0.00    +0.000 A 
ATOM     28  C   UNL     1      -1.758   2.154   0.000  0.00  0.00    +0.000 A 
ATOM     29  C   UNL     1      -1.758   1.329   0.000  0.00  0.00    +0.000 A 
ENDBRANCH  23  24
ENDBRANCH   1  23
TORSDOF 9
