REMARK  Name = M04
REMARK  4 active torsions:
REMARK  status: ('A' for Active; 'I' for Inactive)
REMARK    1  A    between atoms: N_1  and  C_15
REMARK    2  A    between atoms: C_4  and  C_25
REMARK    3  A    between atoms: C_8  and  C_17
REMARK    4  A    between atoms: C_17  and  C_25
REMARK                            x       y       z     vdW  Elec       q    Type
REMARK                         _______ _______ _______ _____ _____    ______ ____
ROOT
ATOM      1  N   UNL     1       5.018   4.157   0.000  0.00  0.00    +0.000 N 
ATOM      2  C   UNL     1       4.304   4.570   0.000  0.00  0.00    +0.000 C 
ATOM      3  C   UNL     1       4.304   5.395   0.000  0.00  0.00    +0.000 C 
ATOM      4  C   UNL     1       5.732   5.395   0.000  0.00  0.00    +0.000 C 
ATOM      5  C   UNL     1       5.732   4.570   0.000  0.00  0.00    +0.000 C 
ATOM      6  C   UNL     1       5.018   5.807   0.000  0.00  0.00    +0.000 C 
ENDROOT
BRANCH   1   7
ATOM      7  C   UNL     1       5.018   3.332   0.000  0.00  0.00    +0.000 A 
ATOM      8  N   UNL     1       5.732   2.920   0.000  0.00  0.00    +0.000 NA
ATOM      9  C   UNL     1       5.732   2.095   0.000  0.00  0.00    +0.000 A 
ATOM     10  N   UNL     1       5.018   1.682   0.000  0.00  0.00    +0.000 NA
ATOM     11  C   UNL     1       4.304   2.095   0.000  0.00  0.00    +0.000 A 
ATOM     12  N   UNL     1       3.519   1.840   0.000  0.00  0.00    +0.000 NA
ATOM     13  C   UNL     1       3.034   2.507   0.000  0.00  0.00    +0.000 A 
ATOM     14  C   UNL     1       3.519   3.175   0.000  0.00  0.00    +0.000 A 
ATOM     15  C   UNL     1       4.304   2.920   0.000  0.00  0.00    +0.000 A 
ENDBRANCH   1   7
BRANCH   6  16
ATOM     16  C   UNL     1       4.488   6.439   0.000  0.00  0.00    +0.000 C 
ATOM     17  N   UNL     1       3.675   6.296   0.000  0.00  0.00    +0.000 NA
ENDBRANCH   6  16
BRANCH   6  18
ATOM     18  C   UNL     1       5.548   6.439   0.000  0.00  0.00    +0.000 C 
BRANCH  18  19
ATOM     19  C   UNL     1       5.266   7.214   0.000  0.00  0.00    +0.000 A 
ATOM     20  C   UNL     1       4.454   7.358   0.000  0.00  0.00    +0.000 A 
ATOM     21  C   UNL     1       4.172   8.133   0.000  0.00  0.00    +0.000 A 
ATOM     22  C   UNL     1       4.702   8.765   0.000  0.00  0.00    +0.000 A 
ATOM     23 CL   UNL     1       4.420   9.540   0.000  0.00  0.00    +0.000 Cl
ATOM     24  C   UNL     1       5.514   8.622   0.000  0.00  0.00    +0.000 A 
ATOM     25  C   UNL     1       5.796   7.846   0.000  0.00  0.00    +0.000 A 
ENDBRANCH  18  19
ENDBRANCH   6  18
TORSDOF 4
