REMARK  Name = M05
REMARK  3 active torsions:
REMARK  status: ('A' for Active; 'I' for Inactive)
REMARK    1  A    between atoms: N_1  and  C_14
REMARK    2  A    between atoms: C_3  and  C_4
REMARK    3  A    between atoms: C_3  and  C_7
REMARK                            x       y       z     vdW  Elec       q    Type
REMARK                         _______ _______ _______ _____ _____    ______ ____
ROOT
ATOM      1  N   UNL     1      -3.718  -5.135   0.000  0.00  0.00    +0.000 N 
ATOM      2  C   UNL     1      -4.432  -4.722   0.000  0.00  0.00    +0.000 C 
ATOM      3  C   UNL     1      -3.718  -3.485   0.000  0.00  0.00    +0.000 C 
ATOM      4  N   UNL     1      -3.187  -2.853   0.000  0.00  0.00    +0.000 NA
ATOM      5  C   UNL     1      -3.003  -4.722   0.000  0.00  0.00    +0.000 C 
ATOM      6  C   UNL     1      -4.432  -3.897   0.000  0.00  0.00    +0.000 C 
ATOM      7  C   UNL     1      -3.003  -3.897   0.000  0.00  0.00    +0.000 C 
ENDROOT
BRANCH   1   8
ATOM      8  C   UNL     1      -3.718  -5.960   0.000  0.00  0.00    +0.000 A 
ATOM      9  N   UNL     1      -3.003  -6.372   0.000  0.00  0.00    +0.000 NA
ATOM     10  C   UNL     1      -3.003  -7.197   0.000  0.00  0.00    +0.000 A 
ATOM     11  N   UNL     1      -3.718  -7.610   0.000  0.00  0.00    +0.000 NA
ATOM     12  C   UNL     1      -4.432  -7.197   0.000  0.00  0.00    +0.000 A 
ATOM     13  N   UNL     1      -5.217  -7.452   0.000  0.00  0.00    +0.000 NA
ATOM     14  C   UNL     1      -5.702  -6.785   0.000  0.00  0.00    +0.000 A 
ATOM     15  C   UNL     1      -5.217  -6.117   0.000  0.00  0.00    +0.000 A 
ATOM     16  C   UNL     1      -4.432  -6.372   0.000  0.00  0.00    +0.000 A 
ENDBRANCH   1   8
BRANCH   3  17
ATOM     17  C   UNL     1      -4.248  -2.853   0.000  0.00  0.00    +0.000 C 
BRANCH  17  18
ATOM     18  C   UNL     1      -5.060  -2.996   0.000  0.00  0.00    +0.000 A 
ATOM     19  C   UNL     1      -5.343  -3.771   0.000  0.00  0.00    +0.000 A 
ATOM     20  C   UNL     1      -6.155  -3.915   0.000  0.00  0.00    +0.000 A 
ATOM     21  C   UNL     1      -6.685  -3.283   0.000  0.00  0.00    +0.000 A 
ATOM     22 CL   UNL     1      -7.498  -3.426   0.000  0.00  0.00    +0.000 Cl
ATOM     23  C   UNL     1      -6.403  -2.507   0.000  0.00  0.00    +0.000 A 
ATOM     24  C   UNL     1      -5.591  -2.364   0.000  0.00  0.00    +0.000 A 
ENDBRANCH  17  18
ENDBRANCH   3  17
TORSDOF 3
