REMARK  Name = M08
REMARK  2 active torsions:
REMARK  status: ('A' for Active; 'I' for Inactive)
REMARK    1  A    between atoms: C_6  and  C_7
REMARK    2  A    between atoms: C_13  and  C_14
REMARK                            x       y       z     vdW  Elec       q    Type
REMARK                         _______ _______ _______ _____ _____    ______ ____
ROOT
ATOM      1  C   UNL     1      -1.089   0.032   0.000  0.00  0.00    +0.000 C 
ATOM      2  C   UNL     1      -0.304  -0.223   0.000  0.00  0.00    +0.000 C 
ATOM      3  N   UNL     1      -1.089   0.857   0.000  0.00  0.00    +0.000 NA
ATOM      4  O   UNL     1      -0.304   1.112   0.000  0.00  0.00    +0.000 OA
ATOM      5  C   UNL     1       0.181   0.444   0.000  0.00  0.00    +0.000 C 
ATOM      6  O   UNL     1       0.593   1.159   0.000  0.00  0.00    +0.000 OA
ATOM      7  C   UNL     1       1.418   1.159   0.000  0.00  0.00    +0.000 C 
ATOM      8  C   UNL     1       1.831   0.444   0.000  0.00  0.00    +0.000 C 
ATOM      9  O   UNL     1       2.656   0.444   0.000  0.00  0.00    +0.000 OA
ATOM     10  C   UNL     1       1.418  -0.270   0.000  0.00  0.00    +0.000 C 
ATOM     11  O   UNL     1       1.831  -0.985   0.000  0.00  0.00    +0.000 OA
ATOM     12  C   UNL     1       0.593  -0.270   0.000  0.00  0.00    +0.000 C 
ATOM     13  O   UNL     1       0.181  -0.985   0.000  0.00  0.00    +0.000 OA
ENDROOT
BRANCH   1  19
ATOM     14  C   UNL     1      -2.510  -0.117   0.000  0.00  0.00    +0.000 A 
ATOM     15  C   UNL     1      -3.177  -0.602   0.000  0.00  0.00    +0.000 A 
ATOM     16  C   UNL     1      -3.091  -1.423   0.000  0.00  0.00    +0.000 A 
ATOM     17  C   UNL     1      -2.337  -1.758   0.000  0.00  0.00    +0.000 A 
ATOM     18  C   UNL     1      -1.670  -1.274   0.000  0.00  0.00    +0.000 A 
ATOM     19  C   UNL     1      -1.756  -0.453   0.000  0.00  0.00    +0.000 A 
ENDBRANCH   1  19
BRANCH   7  20
ATOM     20  C   UNL     1       1.831   1.873   0.000  0.00  0.00    +0.000 C 
ATOM     21  O   UNL     1       1.418   2.588   0.000  0.00  0.00    +0.000 OA
ENDBRANCH   7  20
TORSDOF 2
