REMARK  Name = M18
REMARK  9 active torsions:
REMARK  status: ('A' for Active; 'I' for Inactive)
REMARK    1  A    between atoms: C_1  and  C_2
REMARK    2  A    between atoms: C_1  and  C_22
REMARK    3  A    between atoms: C_2  and  O_4
REMARK    4  A    between atoms: O_4  and  C_5
REMARK    5  A    between atoms: C_5  and  C_6
REMARK    6  A    between atoms: C_11  and  C_12
REMARK    7  A    between atoms: C_12  and  N_13
REMARK    8  A    between atoms: C_14  and  O_15
REMARK    9  A    between atoms: O_15  and  C_16
REMARK                            x       y       z     vdW  Elec       q    Type
REMARK                         _______ _______ _______ _____ _____    ______ ____
ROOT
ATOM      1  C   UNL     1      -1.316   0.819   0.000  0.00  0.00    +0.000 C 
ATOM      2  C   UNL     1      -1.868   1.432   0.000  0.00  0.00    +0.000 C 
ATOM      3  C   UNL     1      -1.456   2.146   0.000  0.00  0.00    +0.000 C 
ATOM      4  C   UNL     1      -0.649   1.975   0.000  0.00  0.00    +0.000 C 
ATOM      5  N   UNL     1      -0.563   1.154   0.000  0.00  0.00    +0.000 N 
ATOM      6  C   UNL     1       0.152   0.742   0.000  0.00  0.00    +0.000 C 
ATOM      7  O   UNL     1       0.152  -0.083   0.000  0.00  0.00    +0.000 OA
ENDROOT
BRANCH   1   8
ATOM      8  C   UNL     1      -1.488   0.012   0.000  0.00  0.00    +0.000 C 
BRANCH   8   9
ATOM      9  O   UNL     1      -0.875  -0.540   0.000  0.00  0.00    +0.000 OA
BRANCH   9  10
ATOM     10  C   UNL     1      -1.046  -1.347   0.000  0.00  0.00    +0.000 C 
ATOM     11  O   UNL     1      -1.831  -1.602   0.000  0.00  0.00    +0.000 OA
BRANCH  10  12
ATOM     12  C   UNL     1      -0.433  -1.899   0.000  0.00  0.00    +0.000 C 
BRANCH  12  13
ATOM     13  C   UNL     1      -0.605  -2.706   0.000  0.00  0.00    +0.000 A 
ATOM     14  C   UNL     1       0.008  -3.258   0.000  0.00  0.00    +0.000 A 
ATOM     15  C   UNL     1      -0.163  -4.065   0.000  0.00  0.00    +0.000 A 
ATOM     16 CL   UNL     1       0.450  -4.617   0.000  0.00  0.00    +0.000 Cl
ATOM     17  C   UNL     1      -0.948  -4.320   0.000  0.00  0.00    +0.000 A 
ATOM     18  C   UNL     1      -1.561  -3.768   0.000  0.00  0.00    +0.000 A 
ATOM     19  C   UNL     1      -1.389  -2.961   0.000  0.00  0.00    +0.000 A 
ENDBRANCH  12  13
ENDBRANCH  10  12
ENDBRANCH   9  10
ENDBRANCH   8   9
ENDBRANCH   1   8
BRANCH   6  20
ATOM     20  C   UNL     1       0.866   1.154   0.000  0.00  0.00    +0.000 C 
BRANCH  20  21
ATOM     21  N   UNL     1       1.581   0.742   0.000  0.00  0.00    +0.000 NA
ATOM     22  C   UNL     1       2.295   1.154   0.000  0.00  0.00    +0.000 C 
ATOM     23  O   UNL     1       2.295   1.979   0.000  0.00  0.00    +0.000 OA
BRANCH  22  24
ATOM     24  O   UNL     1       3.010   0.742   0.000  0.00  0.00    +0.000 OA
BRANCH  24  25
ATOM     25  C   UNL     1       3.724   1.154   0.000  0.00  0.00    +0.000 C 
ATOM     26  C   UNL     1       4.439   1.567   0.000  0.00  0.00    +0.000 C 
ATOM     27  C   UNL     1       3.312   1.869   0.000  0.00  0.00    +0.000 C 
ATOM     28  C   UNL     1       4.137   0.440   0.000  0.00  0.00    +0.000 C 
ENDBRANCH  24  25
ENDBRANCH  22  24
ENDBRANCH  20  21
ENDBRANCH   6  20
TORSDOF 9
