REMARK  Name = M1C
REMARK  7 active torsions:
REMARK  status: ('A' for Active; 'I' for Inactive)
REMARK    1  A    between atoms: C_3  and  N_8
REMARK    2  A    between atoms: C_5  and  C_6
REMARK    3  A    between atoms: C_5  and  C_11
REMARK    4  A    between atoms: C_6  and  C_7
REMARK    5  A    between atoms: C_7  and  N_8
REMARK    6  A    between atoms: C_11  and  C_12
REMARK    7  A    between atoms: C_12  and  C_13
REMARK                            x       y       z     vdW  Elec       q    Type
REMARK                         _______ _______ _______ _____ _____    ______ ____
ROOT
ATOM      1  C   UNL     1      -0.365   0.075   0.000  0.00  0.00    +0.000 C 
ATOM      2  O   UNL     1       0.048  -0.640   0.000  0.00  0.00    +0.000 OA
ATOM      3  O   UNL     1      -0.777   0.789   0.000  0.00  0.00    +0.000 OA
ENDROOT
BRANCH   1   5
ATOM      4  N   UNL     1       0.349   1.312   0.000  0.00  0.00    +0.000 NA
ATOM      5  C   UNL     1       0.349   0.487   0.000  0.00  0.00    +0.000 C 
BRANCH   5   6
ATOM      6  C   UNL     1       1.064   0.075   0.000  0.00  0.00    +0.000 C 
BRANCH   6   7
ATOM      7  C   UNL     1       1.778   0.487   0.000  0.00  0.00    +0.000 C 
BRANCH   7   8
ATOM      8  C   UNL     1       2.493   0.075   0.000  0.00  0.00    +0.000 C 
ATOM      9  C   UNL     1       3.207   0.487   0.000  0.00  0.00    +0.000 C 
ENDBRANCH   7   8
ENDBRANCH   6   7
ENDBRANCH   5   6
ENDBRANCH   1   5
BRANCH   1  10
ATOM     10  C   UNL     1      -1.079  -0.338   0.000  0.00  0.00    +0.000 C 
BRANCH  10  11
ATOM     11  N   UNL     1      -1.794   0.075   0.000  0.00  0.00    +0.000 NA
BRANCH  11  14
ATOM     12  C   UNL     1      -2.921  -1.052   0.000  0.00  0.00    +0.000 C 
ATOM     13  C   UNL     1      -3.333  -0.338   0.000  0.00  0.00    +0.000 C 
ATOM     14  C   UNL     1      -2.508  -0.338   0.000  0.00  0.00    +0.000 C 
ENDBRANCH  11  14
ENDBRANCH  10  11
ENDBRANCH   1  10
TORSDOF 7
