REMARK  Name = M1N
REMARK  8 active torsions:
REMARK  status: ('A' for Active; 'I' for Inactive)
REMARK    1  A    between atoms: C_2  and  C_12
REMARK    2  A    between atoms: N_3  and  C_4
REMARK    3  A    between atoms: C_4  and  B_5
REMARK    4  A    between atoms: C_4  and  C_8
REMARK    5  A    between atoms: C_8  and  C_9
REMARK    6  A    between atoms: C_12  and  N_13
REMARK    7  A    between atoms: C_12  and  C_22
REMARK    8  A    between atoms: C_22  and  C_23
REMARK                            x       y       z     vdW  Elec       q    Type
REMARK                         _______ _______ _______ _____ _____    ______ ____
ROOT
ATOM      1  C   UNL     1       0.087  -0.591   0.000  0.00  0.00    +0.000 C 
ENDROOT
BRANCH   1   2
ATOM      2  N   UNL     1       0.500   0.123   0.000  0.00  0.00    +0.000 NA
ATOM      3  C   UNL     1       0.087   0.838   0.000  0.00  0.00    +0.000 C 
ATOM      4  N   UNL     1       0.500   1.552   0.000  0.00  0.00    +0.000 N 
ATOM      5  C   UNL     1       0.087   2.267   0.000  0.00  0.00    +0.000 C 
ATOM      6  C   UNL     1       0.500   2.981   0.000  0.00  0.00    +0.000 C 
ATOM      7  O   UNL     1       1.325   2.981   0.000  0.00  0.00    +0.000 OA
ATOM      8  C   UNL     1       1.737   2.267   0.000  0.00  0.00    +0.000 C 
ATOM      9  C   UNL     1       1.325   1.552   0.000  0.00  0.00    +0.000 C 
ATOM     10  O   UNL     1      -0.738   0.838   0.000  0.00  0.00    +0.000 OA
ENDBRANCH   1   2
BRANCH   1  12
ATOM     11  O   UNL     1      -1.150  -1.305   0.000  0.00  0.00    +0.000 OA
ATOM     12  C   UNL     1      -0.738  -0.591   0.000  0.00  0.00    +0.000 C 
ATOM     13  N   UNL     1      -1.150   0.123   0.000  0.00  0.00    +0.000 NA
BRANCH  13  14
ATOM     14  C   UNL     1      -1.975   0.123   0.000  0.00  0.00    +0.000 C 
BRANCH  14  15
ATOM     15  B   UNL     1      -2.388  -0.591   0.000  0.00  0.00    +0.000 B 
ATOM     16  O   UNL     1      -3.213  -0.591   0.000  0.00  0.00    +0.000 OA
ATOM     17  O   UNL     1      -1.975  -1.305   0.000  0.00  0.00    +0.000 OA
ENDBRANCH  14  15
BRANCH  14  18
ATOM     18  C   UNL     1      -2.388   0.838   0.000  0.00  0.00    +0.000 C 
BRANCH  18  19
ATOM     19  C   UNL     1      -3.213   0.838   0.000  0.00  0.00    +0.000 C 
ATOM     20  C   UNL     1      -3.625   1.552   0.000  0.00  0.00    +0.000 C 
ATOM     21  C   UNL     1      -3.625   0.123   0.000  0.00  0.00    +0.000 C 
ENDBRANCH  18  19
ENDBRANCH  14  18
ENDBRANCH  13  14
ENDBRANCH   1  12
BRANCH   1  22
ATOM     22  C   UNL     1       0.500  -1.305   0.000  0.00  0.00    +0.000 C 
BRANCH  22  23
ATOM     23  C   UNL     1       1.325  -1.305   0.000  0.00  0.00    +0.000 A 
ATOM     24  C   UNL     1       1.737  -0.591   0.000  0.00  0.00    +0.000 A 
ATOM     25  C   UNL     1       2.562  -0.591   0.000  0.00  0.00    +0.000 A 
ATOM     26  C   UNL     1       2.975  -1.305   0.000  0.00  0.00    +0.000 A 
ATOM     27  C   UNL     1       2.562  -2.020   0.000  0.00  0.00    +0.000 A 
ATOM     28  C   UNL     1       2.975  -2.734   0.000  0.00  0.00    +0.000 A 
ATOM     29  C   UNL     1       2.562  -3.449   0.000  0.00  0.00    +0.000 A 
ATOM     30  C   UNL     1       1.737  -3.449   0.000  0.00  0.00    +0.000 A 
ATOM     31  C   UNL     1       1.325  -2.734   0.000  0.00  0.00    +0.000 A 
ATOM     32  C   UNL     1       1.737  -2.020   0.000  0.00  0.00    +0.000 A 
ENDBRANCH  22  23
ENDBRANCH   1  22
TORSDOF 8
