REMARK  Name = M1S
REMARK  0 active torsions:
REMARK  status: ('A' for Active; 'I' for Inactive)
REMARK                            x       y       z     vdW  Elec       q    Type
REMARK                         _______ _______ _______ _____ _____    ______ ____
ROOT
ATOM      1  C   UNL     1      -1.099  -1.024   0.000  0.00  0.00    +0.000 C 
ATOM      2  C   UNL     1      -1.787  -0.569   0.000  0.00  0.00    +0.000 A 
ATOM      3  C   UNL     1      -2.525  -0.936   0.000  0.00  0.00    +0.000 A 
ATOM      4  C   UNL     1      -3.213  -0.481   0.000  0.00  0.00    +0.000 A 
ATOM      5  C   UNL     1      -3.162   0.343   0.000  0.00  0.00    +0.000 A 
ATOM      6  C   UNL     1      -2.424   0.711   0.000  0.00  0.00    +0.000 A 
ATOM      7  C   UNL     1      -1.736   0.255   0.000  0.00  0.00    +0.000 A 
ATOM      8  C   UNL     1      -0.998   0.623   0.000  0.00  0.00    +0.000 C 
ATOM      9  C   UNL     1      -0.947   1.446   0.000  0.00  0.00    +0.000 C 
ATOM     10  C   UNL     1      -0.208   1.814   0.000  0.00  0.00    +0.000 C 
ATOM     11  C   UNL     1       0.565   1.349   0.000  0.00  0.00    +0.000 C 
ATOM     12  C   UNL     1       1.381   1.470   0.000  0.00  0.00    +0.000 C 
ATOM     13  C   UNL     1       1.749   0.732   0.000  0.00  0.00    +0.000 C 
ATOM     14  C   UNL     1       1.160   0.154   0.000  0.00  0.00    +0.000 C 
ATOM     15  C   UNL     1       1.066  -0.744   0.000  0.00  0.00    +0.000 C 
ATOM     16  C   UNL     1       0.327  -1.112   0.000  0.00  0.00    +0.000 C 
ATOM     17  C   UNL     1       0.277  -1.935   0.000  0.00  0.00    +0.000 C 
ATOM     18  C   UNL     1      -0.462  -2.303   0.000  0.00  0.00    +0.000 C 
ATOM     19  O   UNL     1      -0.360  -0.656   0.000  0.00  0.00    +0.000 OA
ATOM     20  O   UNL     1      -2.576  -1.760   0.000  0.00  0.00    +0.000 OA
ATOM     21  O   UNL     1      -3.850   0.798   0.000  0.00  0.00    +0.000 OA
ATOM     22 CL   UNL     1      -2.373   1.534   0.000  0.00  0.00    +0.000 Cl
ATOM     23  O   UNL     1      -1.635   1.902   0.000  0.00  0.00    +0.000 OA
ATOM     24  O   UNL     1      -1.150  -1.847   0.000  0.00  0.00    +0.000 OA
ENDROOT
TORSDOF 0
