REMARK  Name = M22
REMARK  6 active torsions:
REMARK  status: ('A' for Active; 'I' for Inactive)
REMARK    1  A    between atoms: C_1  and  O_13
REMARK    2  A    between atoms: C_5  and  O_15
REMARK    3  A    between atoms: C_8  and  O_13
REMARK    4  A    between atoms: C_10  and  C_27
REMARK    5  A    between atoms: O_15  and  C_16
REMARK    6  A    between atoms: C_16  and  C_17
REMARK                            x       y       z     vdW  Elec       q    Type
REMARK                         _______ _______ _______ _____ _____    ______ ____
ROOT
ATOM      1  C   UNL     1       0.375  -1.119   0.000  0.00  0.00    +0.000 A 
ATOM      2  C   UNL     1      -0.432  -1.291   0.000  0.00  0.00    +0.000 A 
ATOM      3  C   UNL     1      -0.984  -0.678   0.000  0.00  0.00    +0.000 A 
ATOM      4  C   UNL     1      -0.729   0.107   0.000  0.00  0.00    +0.000 A 
ATOM      5  C   UNL     1       0.078   0.278   0.000  0.00  0.00    +0.000 A 
ATOM      6  C   UNL     1       0.630  -0.335   0.000  0.00  0.00    +0.000 A 
ATOM      7 CL   UNL     1      -0.687  -2.075   0.000  0.00  0.00    +0.000 Cl
ENDROOT
BRANCH   1   8
ATOM      8  O   UNL     1       0.927  -1.732   0.000  0.00  0.00    +0.000 OA
BRANCH   8  10
ATOM      9  C   UNL     1      -0.135  -2.688   0.000  0.00  0.00    +0.000 A 
ATOM     10  C   UNL     1       0.672  -2.517   0.000  0.00  0.00    +0.000 A 
ATOM     11  C   UNL     1       1.224  -3.130   0.000  0.00  0.00    +0.000 A 
ATOM     12  C   UNL     1       0.969  -3.915   0.000  0.00  0.00    +0.000 A 
ATOM     13  C   UNL     1       0.162  -4.086   0.000  0.00  0.00    +0.000 A 
ATOM     14  C   UNL     1      -0.390  -3.473   0.000  0.00  0.00    +0.000 A 
ATOM     15 CL   UNL     1      -1.197  -3.645   0.000  0.00  0.00    +0.000 Cl
BRANCH  12  16
ATOM     16  C   UNL     1       1.521  -4.528   0.000  0.00  0.00    +0.000 C 
ATOM     17  N   UNL     1       2.073  -5.141   0.000  0.00  0.00    +0.000 NA
ENDBRANCH  12  16
ENDBRANCH   8  10
ENDBRANCH   1   8
BRANCH   5  18
ATOM     18  O   UNL     1       0.333   1.063   0.000  0.00  0.00    +0.000 OA
BRANCH  18  19
ATOM     19  C   UNL     1      -0.219   1.676   0.000  0.00  0.00    +0.000 C 
BRANCH  19  20
ATOM     20  C   UNL     1       0.036   2.461   0.000  0.00  0.00    +0.000 A 
ATOM     21  N   UNL     1      -0.449   3.128   0.000  0.00  0.00    +0.000 NA
ATOM     22  N   UNL     1       0.036   3.796   0.000  0.00  0.00    +0.000 NA
ATOM     23  C   UNL     1       0.820   2.716   0.000  0.00  0.00    +0.000 A 
ATOM     24  C   UNL     1       0.820   3.541   0.000  0.00  0.00    +0.000 A 
ATOM     25  C   UNL     1       1.535   3.953   0.000  0.00  0.00    +0.000 A 
ATOM     26  C   UNL     1       2.249   3.541   0.000  0.00  0.00    +0.000 A 
ATOM     27  C   UNL     1       2.249   2.716   0.000  0.00  0.00    +0.000 A 
ATOM     28  C   UNL     1       1.535   2.303   0.000  0.00  0.00    +0.000 A 
ENDBRANCH  19  20
ENDBRANCH  18  19
ENDBRANCH   5  18
TORSDOF 6
