REMARK  Name = M25
REMARK  4 active torsions:
REMARK  status: ('A' for Active; 'I' for Inactive)
REMARK    1  A    between atoms: C_1  and  S_7
REMARK    2  A    between atoms: C_4  and  C_11
REMARK    3  A    between atoms: C_11  and  C_12
REMARK    4  A    between atoms: C_12  and  N_13
REMARK                            x       y       z     vdW  Elec       q    Type
REMARK                         _______ _______ _______ _____ _____    ______ ____
ROOT
ATOM      1  C   UNL     1      -1.325  -1.458   0.000  0.00  0.00    +0.000 A 
ATOM      2  C   UNL     1      -0.611  -1.871   0.000  0.00  0.00    +0.000 A 
ATOM      3  C   UNL     1       0.104  -1.458   0.000  0.00  0.00    +0.000 A 
ATOM      4  C   UNL     1       0.104  -0.633   0.000  0.00  0.00    +0.000 A 
ATOM      5  C   UNL     1      -0.611  -0.221   0.000  0.00  0.00    +0.000 A 
ATOM      6  C   UNL     1      -1.325  -0.633   0.000  0.00  0.00    +0.000 A 
ENDROOT
BRANCH   1   7
ATOM      7  S   UNL     1      -2.040  -1.871   0.000  0.00  0.00    +0.000 S 
ATOM      8  O   UNL     1      -2.754  -2.284   0.000  0.00  0.00    +0.000 OA
ATOM      9  O   UNL     1      -1.627  -2.586   0.000  0.00  0.00    +0.000 OA
ATOM     10  N   UNL     1      -2.452  -1.157   0.000  0.00  0.00    +0.000 NA
ENDBRANCH   1   7
BRANCH   4  11
ATOM     11  C   UNL     1       0.818  -0.221   0.000  0.00  0.00    +0.000 C 
BRANCH  11  12
ATOM     12  C   UNL     1       1.533  -0.633   0.000  0.00  0.00    +0.000 C 
BRANCH  12  13
ATOM     13  N   UNL     1       2.247  -0.221   0.000  0.00  0.00    +0.000 NA
ATOM     14  C   UNL     1       2.962  -0.633   0.000  0.00  0.00    +0.000 C 
ATOM     15  C   UNL     1       3.676  -0.221   0.000  0.00  0.00    +0.000 C 
ATOM     16  O   UNL     1       2.962  -1.458   0.000  0.00  0.00    +0.000 OA
ENDBRANCH  12  13
ENDBRANCH  11  12
ENDBRANCH   4  11
TORSDOF 4
