REMARK  Name = M28
REMARK  4 active torsions:
REMARK  status: ('A' for Active; 'I' for Inactive)
REMARK    1  A    between atoms: C_1  and  S_7
REMARK    2  A    between atoms: C_4  and  C_11
REMARK    3  A    between atoms: C_11  and  C_12
REMARK    4  A    between atoms: C_12  and  C_13
REMARK                            x       y       z     vdW  Elec       q    Type
REMARK                         _______ _______ _______ _____ _____    ______ ____
ROOT
ATOM      1  C   UNL     1       1.875   0.016   0.000  0.00  0.00    +0.000 A 
ATOM      2  C   UNL     1       1.875  -0.809   0.000  0.00  0.00    +0.000 A 
ATOM      3  C   UNL     1       1.161  -1.222   0.000  0.00  0.00    +0.000 A 
ATOM      4  C   UNL     1       0.446  -0.809   0.000  0.00  0.00    +0.000 A 
ATOM      5  C   UNL     1       0.446   0.016   0.000  0.00  0.00    +0.000 A 
ATOM      6  C   UNL     1       1.161   0.428   0.000  0.00  0.00    +0.000 A 
ENDROOT
BRANCH   1   7
ATOM      7  S   UNL     1       2.590   0.428   0.000  0.00  0.00    +0.000 S 
ATOM      8  O   UNL     1       3.304   0.841   0.000  0.00  0.00    +0.000 OA
ATOM      9  O   UNL     1       2.177   1.143   0.000  0.00  0.00    +0.000 OA
ATOM     10  N   UNL     1       3.002  -0.286   0.000  0.00  0.00    +0.000 NA
ENDBRANCH   1   7
BRANCH   4  11
ATOM     11  C   UNL     1      -0.268  -1.222   0.000  0.00  0.00    +0.000 C 
BRANCH  11  12
ATOM     12  C   UNL     1      -0.268  -2.047   0.000  0.00  0.00    +0.000 C 
BRANCH  12  13
ATOM     13  C   UNL     1      -0.983  -2.459   0.000  0.00  0.00    +0.000 C 
ATOM     14  O   UNL     1      -0.983  -3.284   0.000  0.00  0.00    +0.000 OA
ATOM     15  O   UNL     1      -1.697  -2.047   0.000  0.00  0.00    +0.000 OA
ENDBRANCH  12  13
ENDBRANCH  11  12
ENDBRANCH   4  11
TORSDOF 4
