REMARK  Name = M29
REMARK  6 active torsions:
REMARK  status: ('A' for Active; 'I' for Inactive)
REMARK    1  A    between atoms: C_1  and  S_7
REMARK    2  A    between atoms: C_4  and  C_11
REMARK    3  A    between atoms: C_11  and  C_12
REMARK    4  A    between atoms: C_12  and  C_13
REMARK    5  A    between atoms: C_13  and  O_14
REMARK    6  A    between atoms: O_14  and  C_16
REMARK                            x       y       z     vdW  Elec       q    Type
REMARK                         _______ _______ _______ _____ _____    ______ ____
ROOT
ATOM      1  C   UNL     1      -0.537  -1.618   0.000  0.00  0.00    +0.000 A 
ATOM      2  C   UNL     1       0.178  -1.206   0.000  0.00  0.00    +0.000 A 
ATOM      3  C   UNL     1       0.892  -1.618   0.000  0.00  0.00    +0.000 A 
ATOM      4  C   UNL     1       0.892  -2.443   0.000  0.00  0.00    +0.000 A 
ATOM      5  C   UNL     1       0.178  -2.856   0.000  0.00  0.00    +0.000 A 
ATOM      6  C   UNL     1      -0.537  -2.443   0.000  0.00  0.00    +0.000 A 
ENDROOT
BRANCH   1   7
ATOM      7  S   UNL     1      -1.251  -1.206   0.000  0.00  0.00    +0.000 S 
ATOM      8  O   UNL     1      -1.966  -0.793   0.000  0.00  0.00    +0.000 OA
ATOM      9  O   UNL     1      -1.664  -1.920   0.000  0.00  0.00    +0.000 OA
ATOM     10  N   UNL     1      -0.839  -0.491   0.000  0.00  0.00    +0.000 NA
ENDBRANCH   1   7
BRANCH   4  11
ATOM     11  C   UNL     1       1.607  -2.856   0.000  0.00  0.00    +0.000 C 
BRANCH  11  12
ATOM     12  C   UNL     1       2.321  -2.443   0.000  0.00  0.00    +0.000 C 
BRANCH  12  13
ATOM     13  C   UNL     1       3.035  -2.856   0.000  0.00  0.00    +0.000 C 
ATOM     14  O   UNL     1       3.035  -3.681   0.000  0.00  0.00    +0.000 OA
BRANCH  13  15
ATOM     15  O   UNL     1       3.750  -2.443   0.000  0.00  0.00    +0.000 OA
BRANCH  15  16
ATOM     16  C   UNL     1       4.464  -2.856   0.000  0.00  0.00    +0.000 C 
ATOM     17  C   UNL     1       5.179  -2.443   0.000  0.00  0.00    +0.000 C 
ENDBRANCH  15  16
ENDBRANCH  13  15
ENDBRANCH  12  13
ENDBRANCH  11  12
ENDBRANCH   4  11
TORSDOF 6
