REMARK  Name = M2C
REMARK  5 active torsions:
REMARK  status: ('A' for Active; 'I' for Inactive)
REMARK    1  A    between atoms: C_2  and  C_4
REMARK    2  A    between atoms: C_2  and  C_10
REMARK    3  A    between atoms: C_4  and  C_5
REMARK    4  A    between atoms: C_5  and  C_6
REMARK    5  A    between atoms: C_6  and  S_7
REMARK                            x       y       z     vdW  Elec       q    Type
REMARK                         _______ _______ _______ _____ _____    ______ ____
ROOT
ATOM      1  O   UNL     1       0.052   0.697   0.000  0.00  0.00    +0.000 OA
ATOM      2  C   UNL     1      -0.361  -0.017   0.000  0.00  0.00    +0.000 C 
ATOM      3  O   UNL     1      -0.773  -0.732   0.000  0.00  0.00    +0.000 OA
ENDROOT
BRANCH   2   4
ATOM      4  C   UNL     1      -1.075   0.395   0.000  0.00  0.00    +0.000 A 
ATOM      5  C   UNL     1      -1.790  -0.017   0.000  0.00  0.00    +0.000 A 
ATOM      6  C   UNL     1      -2.504   0.395   0.000  0.00  0.00    +0.000 A 
ATOM      7  C   UNL     1      -2.504   1.220   0.000  0.00  0.00    +0.000 A 
ATOM      8  C   UNL     1      -1.790   1.633   0.000  0.00  0.00    +0.000 A 
ATOM      9  N   UNL     1      -1.075   1.220   0.000  0.00  0.00    +0.000 NA
ENDBRANCH   2   4
BRANCH   2  10
ATOM     10  C   UNL     1       0.354  -0.430   0.000  0.00  0.00    +0.000 C 
ATOM     11  N   UNL     1       0.354  -1.255   0.000  0.00  0.00    +0.000 NA
BRANCH  10  12
ATOM     12  C   UNL     1       1.068  -0.017   0.000  0.00  0.00    +0.000 C 
BRANCH  12  13
ATOM     13  C   UNL     1       1.783  -0.430   0.000  0.00  0.00    +0.000 C 
BRANCH  13  14
ATOM     14  S   UNL     1       2.497  -0.017   0.000  0.00  0.00    +0.000 S 
ATOM     15  C   UNL     1       3.212  -0.430   0.000  0.00  0.00    +0.000 C 
ENDBRANCH  13  14
ENDBRANCH  12  13
ENDBRANCH  10  12
ENDBRANCH   2  10
TORSDOF 5
