REMARK  Name = M2F
REMARK  5 active torsions:
REMARK  status: ('A' for Active; 'I' for Inactive)
REMARK    1  A    between atoms: N_2  and  C_4
REMARK    2  A    between atoms: C_6  and  N_7
REMARK    3  A    between atoms: C_12  and  O_13
REMARK    4  A    between atoms: O_13  and  C_14
REMARK    5  A    between atoms: C_22  and  C_23
REMARK                            x       y       z     vdW  Elec       q    Type
REMARK                         _______ _______ _______ _____ _____    ______ ____
ROOT
ATOM      1  C   UNL     1       2.056   0.758   0.000  0.00  0.00    +0.000 A 
ATOM      2  C   UNL     1       2.771   0.345   0.000  0.00  0.00    +0.000 A 
ATOM      3  C   UNL     1       2.771  -0.480   0.000  0.00  0.00    +0.000 A 
ATOM      4  C   UNL     1       2.056  -0.892   0.000  0.00  0.00    +0.000 A 
ATOM      5  C   UNL     1       1.342  -0.480   0.000  0.00  0.00    +0.000 A 
ATOM      6  C   UNL     1       1.342   0.345   0.000  0.00  0.00    +0.000 A 
ENDROOT
BRANCH   1   8
ATOM      7  O   UNL     1       1.342   1.995   0.000  0.00  0.00    +0.000 OA
ATOM      8  N   UNL     1       2.056   1.583   0.000  0.00  0.00    +0.000 N 
ATOM      9  O   UNL     1       2.771   1.995   0.000  0.00  0.00    +0.000 OA
ENDBRANCH   1   8
BRANCH   3  10
ATOM     10  N   UNL     1       3.485  -0.892   0.000  0.00  0.00    +0.000 N 
ATOM     11  O   UNL     1       3.485  -1.717   0.000  0.00  0.00    +0.000 OA
ATOM     12  O   UNL     1       4.199  -0.480   0.000  0.00  0.00    +0.000 OA
ENDBRANCH   3  10
BRANCH   6  13
ATOM     13  O   UNL     1       0.627   0.758   0.000  0.00  0.00    +0.000 OA
BRANCH  13  14
ATOM     14  C   UNL     1      -0.087   0.345   0.000  0.00  0.00    +0.000 C 
ATOM     15  O   UNL     1      -0.087  -0.480   0.000  0.00  0.00    +0.000 OA
ATOM     16  C   UNL     1      -0.802   0.758   0.000  0.00  0.00    +0.000 C 
ATOM     17  F   UNL     1      -0.802   1.583   0.000  0.00  0.00    +0.000 F 
ATOM     18  C   UNL     1      -1.516   0.345   0.000  0.00  0.00    +0.000 C 
ATOM     19  O   UNL     1      -2.231   0.758   0.000  0.00  0.00    +0.000 OA
ATOM     20  C   UNL     1      -1.516  -0.480   0.000  0.00  0.00    +0.000 C 
ATOM     21  O   UNL     1      -2.231  -0.892   0.000  0.00  0.00    +0.000 OA
ATOM     22  C   UNL     1      -0.802  -0.892   0.000  0.00  0.00    +0.000 C 
BRANCH  22  23
ATOM     23  C   UNL     1      -0.802  -1.717   0.000  0.00  0.00    +0.000 C 
ATOM     24  O   UNL     1      -1.516  -2.130   0.000  0.00  0.00    +0.000 OA
ENDBRANCH  22  23
ENDBRANCH  13  14
ENDBRANCH   6  13
TORSDOF 5
