REMARK  Name = M38
REMARK  4 active torsions:
REMARK  status: ('A' for Active; 'I' for Inactive)
REMARK    1  A    between atoms: N_10  and  C_22
REMARK    2  A    between atoms: C_22  and  C_23
REMARK    3  A    between atoms: C_23  and  C_25
REMARK    4  A    between atoms: C_24  and  C_25
REMARK                            x       y       z     vdW  Elec       q    Type
REMARK                         _______ _______ _______ _____ _____    ______ ____
ROOT
ATOM      1  C   UNL     1       3.272   3.560   0.000  0.00  0.00    +0.000 A 
ATOM      2  C   UNL     1       4.096   3.513   0.000  0.00  0.00    +0.000 A 
ATOM      3  C   UNL     1       4.467   2.776   0.000  0.00  0.00    +0.000 A 
ATOM      4  C   UNL     1       4.014   2.087   0.000  0.00  0.00    +0.000 A 
ATOM      5  C   UNL     1       3.191   2.134   0.000  0.00  0.00    +0.000 A 
ATOM      6  C   UNL     1       2.820   2.870   0.000  0.00  0.00    +0.000 A 
ATOM      7  C   UNL     1       1.996   2.918   0.000  0.00  0.00    +0.000 A 
ATOM      8  C   UNL     1       1.544   2.228   0.000  0.00  0.00    +0.000 A 
ATOM      9  C   UNL     1       2.738   1.444   0.000  0.00  0.00    +0.000 A 
ATOM     10  N   UNL     1       1.915   1.491   0.000  0.00  0.00    +0.000 N 
ATOM     11  C   UNL     1       1.480   3.561   0.000  0.00  0.00    +0.000 C 
ATOM     12  C   UNL     1       0.708   3.269   0.000  0.00  0.00    +0.000 A 
ATOM     13  C   UNL     1       0.748   2.445   0.000  0.00  0.00    +0.000 A 
ATOM     14  C   UNL     1      -0.025   3.647   0.000  0.00  0.00    +0.000 A 
ATOM     15  C   UNL     1      -0.719   3.201   0.000  0.00  0.00    +0.000 A 
ATOM     16  C   UNL     1      -0.680   2.377   0.000  0.00  0.00    +0.000 A 
ATOM     17  C   UNL     1       0.054   1.999   0.000  0.00  0.00    +0.000 A 
ATOM     18  O   UNL     1       1.697   4.357   0.000  0.00  0.00    +0.000 OA
ATOM     19  O   UNL     1       3.109   0.707   0.000  0.00  0.00    +0.000 OA
ENDROOT
BRANCH  10  20
ATOM     20  C   UNL     1       1.462   0.801   0.000  0.00  0.00    +0.000 C 
BRANCH  20  21
ATOM     21  C   UNL     1       0.638   0.849   0.000  0.00  0.00    +0.000 C 
BRANCH  21  22
ATOM     22  C   UNL     1       0.185   0.159   0.000  0.00  0.00    +0.000 C 
BRANCH  22  25
ATOM     23  O   UNL     1      -1.091  -0.484   0.000  0.00  0.00    +0.000 OA
ATOM     24  O   UNL     1      -1.009   0.943   0.000  0.00  0.00    +0.000 OA
ATOM     25  C   UNL     1      -0.638   0.206   0.000  0.00  0.00    +0.000 C 
ENDBRANCH  22  25
ENDBRANCH  21  22
ENDBRANCH  20  21
ENDBRANCH  10  20
TORSDOF 4
