REMARK  Name = M5P
REMARK  6 active torsions:
REMARK  status: ('A' for Active; 'I' for Inactive)
REMARK    1  A    between atoms: C_6  and  C_7
REMARK    2  A    between atoms: C_7  and  C_8
REMARK    3  A    between atoms: C_8  and  C_9
REMARK    4  A    between atoms: C_9  and  C_10
REMARK    5  A    between atoms: C_10  and  C_11
REMARK    6  A    between atoms: C_10  and  C_14
REMARK                            x       y       z     vdW  Elec       q    Type
REMARK                         _______ _______ _______ _____ _____    ______ ____
ROOT
ATOM      1  C   UNL     1      -0.111  -0.169   0.000  0.00  0.00    +0.000 C 
ENDROOT
BRANCH   1   2
ATOM      2  C   UNL     1      -0.936  -0.169   0.000  0.00  0.00    +0.000 C 
BRANCH   2   8
ATOM      3  C   UNL     1      -2.174   0.545   0.000  0.00  0.00    +0.000 A 
ATOM      4  C   UNL     1      -2.586   1.260   0.000  0.00  0.00    +0.000 A 
ATOM      5  C   UNL     1      -2.174   1.974   0.000  0.00  0.00    +0.000 A 
ATOM      6  C   UNL     1      -1.349   1.974   0.000  0.00  0.00    +0.000 A 
ATOM      7  C   UNL     1      -0.936   1.260   0.000  0.00  0.00    +0.000 A 
ATOM      8  C   UNL     1      -1.349   0.545   0.000  0.00  0.00    +0.000 A 
ENDBRANCH   2   8
ENDBRANCH   1   2
BRANCH   1   9
ATOM      9  C   UNL     1       0.301  -0.884   0.000  0.00  0.00    +0.000 C 
BRANCH   9  10
ATOM     10  C   UNL     1       1.126  -0.884   0.000  0.00  0.00    +0.000 C 
BRANCH  10  11
ATOM     11  C   UNL     1       1.539  -1.598   0.000  0.00  0.00    +0.000 C 
ATOM     12  O   UNL     1       2.364  -1.598   0.000  0.00  0.00    +0.000 OA
ATOM     13  O   UNL     1       1.126  -2.313   0.000  0.00  0.00    +0.000 OA
ENDBRANCH  10  11
BRANCH  10  14
ATOM     14  C   UNL     1       1.539  -0.169   0.000  0.00  0.00    +0.000 C 
ATOM     15  S   UNL     1       2.364  -0.169   0.000  0.00  0.00    +0.000 S 
ENDBRANCH  10  14
ENDBRANCH   9  10
ENDBRANCH   1   9
TORSDOF 6
