REMARK  Name = M77
REMARK  2 active torsions:
REMARK  status: ('A' for Active; 'I' for Inactive)
REMARK    1  A    between atoms: S_2  and  N_4
REMARK    2  A    between atoms: S_2  and  C_11
REMARK                            x       y       z     vdW  Elec       q    Type
REMARK                         _______ _______ _______ _____ _____    ______ ____
ROOT
ATOM      1  O   UNL     1      -1.266  -0.184   0.000  0.00  0.00    +0.000 OA
ATOM      2  S   UNL     1      -0.441  -0.184   0.000  0.00  0.00    +0.000 S 
ATOM      3  O   UNL     1       0.384  -0.184   0.000  0.00  0.00    +0.000 OA
ENDROOT
BRANCH   2   4
ATOM      4  C   UNL     1      -0.441  -1.009   0.000  0.00  0.00    +0.000 A 
ATOM      5  C   UNL     1      -1.155  -1.422   0.000  0.00  0.00    +0.000 A 
ATOM      6  C   UNL     1      -1.155  -2.247   0.000  0.00  0.00    +0.000 A 
ATOM      7  C   UNL     1      -0.441  -2.659   0.000  0.00  0.00    +0.000 A 
ATOM      8  C   UNL     1       0.274  -2.247   0.000  0.00  0.00    +0.000 A 
ATOM      9  C   UNL     1       0.274  -1.422   0.000  0.00  0.00    +0.000 A 
ATOM     10  C   UNL     1       0.988  -1.009   0.000  0.00  0.00    +0.000 A 
ATOM     11  C   UNL     1       0.988  -2.659   0.000  0.00  0.00    +0.000 A 
ATOM     12  N   UNL     1       1.702  -2.247   0.000  0.00  0.00    +0.000 NA
ATOM     13  C   UNL     1       1.702  -1.422   0.000  0.00  0.00    +0.000 A 
ENDBRANCH   2   4
BRANCH   2  14
ATOM     14  N   UNL     1      -0.441   0.641   0.000  0.00  0.00    +0.000 NA
ATOM     15  C   UNL     1      -1.184   0.999   0.000  0.00  0.00    +0.000 C 
ATOM     16  C   UNL     1      -1.368   1.803   0.000  0.00  0.00    +0.000 C 
ATOM     17  N   UNL     1      -0.854   2.448   0.000  0.00  0.00    +0.000 NA
ATOM     18  C   UNL     1      -0.029   2.448   0.000  0.00  0.00    +0.000 C 
ATOM     19  C   UNL     1       0.486   1.803   0.000  0.00  0.00    +0.000 C 
ATOM     20  C   UNL     1       0.302   0.999   0.000  0.00  0.00    +0.000 C 
ENDBRANCH   2  14
TORSDOF 2
