REMARK  Name = M8E
REMARK  9 active torsions:
REMARK  status: ('A' for Active; 'I' for Inactive)
REMARK    1  A    between atoms: O_2  and  C_26
REMARK    2  A    between atoms: C_3  and  C_4
REMARK    3  A    between atoms: C_3  and  C_25
REMARK    4  A    between atoms: C_4  and  N_5
REMARK    5  A    between atoms: N_5  and  C_7
REMARK    6  A    between atoms: C_7  and  C_8
REMARK    7  A    between atoms: C_10  and  N_11
REMARK    8  A    between atoms: C_20  and  C_28
REMARK    9  A    between atoms: C_25  and  C_26
REMARK                            x       y       z     vdW  Elec       q    Type
REMARK                         _______ _______ _______ _____ _____    ______ ____
ROOT
ATOM      1  C   UNL     1      -0.328   0.088   0.000  0.00  0.00    +0.000 C 
ATOM      2  O   UNL     1       0.425   0.424   0.000  0.00  0.00    +0.000 OA
ATOM      3  C   UNL     1       0.978  -0.189   0.000  0.00  0.00    +0.000 C 
ATOM      4  C   UNL     1       0.565  -0.904   0.000  0.00  0.00    +0.000 C 
ATOM      5  O   UNL     1       0.901  -1.657   0.000  0.00  0.00    +0.000 OA
ATOM      6  C   UNL     1      -0.242  -0.732   0.000  0.00  0.00    +0.000 C 
ATOM      7  O   UNL     1      -0.855  -1.284   0.000  0.00  0.00    +0.000 OA
ENDROOT
BRANCH   3   8
ATOM      8  N   UNL     1       1.798  -0.103   0.000  0.00  0.00    +0.000 N 
ATOM      9  C   UNL     1       2.211   0.612   0.000  0.00  0.00    +0.000 A 
ATOM     10  N   UNL     1       1.956   1.396   0.000  0.00  0.00    +0.000 NA
ATOM     11  C   UNL     1       2.508   2.009   0.000  0.00  0.00    +0.000 A 
ATOM     12  N   UNL     1       3.315   1.838   0.000  0.00  0.00    +0.000 NA
ATOM     13  C   UNL     1       3.570   1.053   0.000  0.00  0.00    +0.000 A 
ATOM     14  N   UNL     1       4.377   0.881   0.000  0.00  0.00    +0.000 NA
ATOM     15  C   UNL     1       3.018   0.440   0.000  0.00  0.00    +0.000 A 
ATOM     16  N   UNL     1       3.104  -0.381   0.000  0.00  0.00    +0.000 NA
ATOM     17  C   UNL     1       2.350  -0.716   0.000  0.00  0.00    +0.000 A 
BRANCH  17  19
ATOM     18  C   UNL     1       2.792  -2.075   0.000  0.00  0.00    +0.000 C 
ATOM     19  C   UNL     1       2.179  -1.523   0.000  0.00  0.00    +0.000 C 
ENDBRANCH  17  19
ENDBRANCH   3   8
BRANCH   1  20
ATOM     20  C   UNL     1      -1.043   0.501   0.000  0.00  0.00    +0.000 C 
BRANCH  20  21
ATOM     21  N   UNL     1      -1.757   0.088   0.000  0.00  0.00    +0.000 NA
ATOM     22  C   UNL     1      -1.757  -0.737   0.000  0.00  0.00    +0.000 C 
BRANCH  21  23
ATOM     23  C   UNL     1      -2.472   0.501   0.000  0.00  0.00    +0.000 C 
BRANCH  23  24
ATOM     24  C   UNL     1      -3.186   0.088   0.000  0.00  0.00    +0.000 C 
BRANCH  24  25
ATOM     25  C   UNL     1      -3.901   0.501   0.000  0.00  0.00    +0.000 C 
BRANCH  25  26
ATOM     26  C   UNL     1      -4.615   0.088   0.000  0.00  0.00    +0.000 C 
BRANCH  26  28
ATOM     27  N   UNL     1      -6.044   0.088   0.000  0.00  0.00    +0.000 NA
ATOM     28  O   UNL     1      -5.330   0.501   0.000  0.00  0.00    +0.000 OA
ENDBRANCH  26  28
ENDBRANCH  25  26
ENDBRANCH  24  25
ENDBRANCH  23  24
ENDBRANCH  21  23
ENDBRANCH  20  21
ENDBRANCH   1  20
TORSDOF 9
