REMARK  Name = MA9
REMARK  3 active torsions:
REMARK  status: ('A' for Active; 'I' for Inactive)
REMARK    1  A    between atoms: C_1  and  S_29
REMARK    2  A    between atoms: C_5  and  C_27
REMARK    3  A    between atoms: C_7  and  C_18
REMARK                            x       y       z     vdW  Elec       q    Type
REMARK                         _______ _______ _______ _____ _____    ______ ____
ROOT
ATOM      1  C   UNL     1       0.464   0.605   0.000  0.00  0.00    +0.000 A 
ATOM      2  C   UNL     1       0.464  -2.695   0.000  0.00  0.00    +0.000 C 
ATOM      3  C   UNL     1       1.893  -2.695   0.000  0.00  0.00    +0.000 C 
ATOM      4  C   UNL     1       1.893  -1.870   0.000  0.00  0.00    +0.000 C 
ATOM      5  C   UNL     1       1.179  -3.107   0.000  0.00  0.00    +0.000 C 
ATOM      6  C   UNL     1       0.464  -1.870   0.000  0.00  0.00    +0.000 C 
ATOM      7  N   UNL     1       2.607  -3.107   0.000  0.00  0.00    +0.000 NA
ATOM      8  N   UNL     1       1.179  -1.457   0.000  0.00  0.00    +0.000 N 
ATOM      9  C   UNL     1       1.179  -0.632   0.000  0.00  0.00    +0.000 A 
ATOM     10  C   UNL     1       0.464  -0.220   0.000  0.00  0.00    +0.000 A 
ATOM     11  N   UNL     1       1.893  -0.220   0.000  0.00  0.00    +0.000 NA
ATOM     12  C   UNL     1       1.893   0.605   0.000  0.00  0.00    +0.000 A 
ATOM     13  N   UNL     1       1.179   1.018   0.000  0.00  0.00    +0.000 NA
ENDROOT
BRANCH   5  14
ATOM     14  C   UNL     1       1.179  -3.932   0.000  0.00  0.00    +0.000 A 
ATOM     15  C   UNL     1       1.179  -5.582   0.000  0.00  0.00    +0.000 A 
ATOM     16  C   UNL     1       0.464  -4.345   0.000  0.00  0.00    +0.000 A 
ATOM     17  F   UNL     1      -0.250  -3.932   0.000  0.00  0.00    +0.000 F 
ATOM     18  C   UNL     1       0.464  -5.170   0.000  0.00  0.00    +0.000 A 
ATOM     19  F   UNL     1       1.179  -6.407   0.000  0.00  0.00    +0.000 F 
ATOM     20  C   UNL     1       1.893  -5.170   0.000  0.00  0.00    +0.000 A 
ATOM     21  F   UNL     1       2.607  -5.582   0.000  0.00  0.00    +0.000 F 
ATOM     22  C   UNL     1       1.893  -4.345   0.000  0.00  0.00    +0.000 A 
ENDBRANCH   5  14
BRANCH   1  27
ATOM     23  C   UNL     1      -0.965   2.255   0.000  0.00  0.00    +0.000 A 
ATOM     24  C   UNL     1      -1.679   1.843   0.000  0.00  0.00    +0.000 A 
ATOM     25  C   UNL     1      -1.679   1.018   0.000  0.00  0.00    +0.000 A 
ATOM     26  C   UNL     1      -0.965   0.605   0.000  0.00  0.00    +0.000 A 
ATOM     27  C   UNL     1      -0.250   1.018   0.000  0.00  0.00    +0.000 A 
ATOM     28  C   UNL     1      -0.250   1.843   0.000  0.00  0.00    +0.000 A 
BRANCH  23  29
ATOM     29  S   UNL     1      -0.965   3.080   0.000  0.00  0.00    +0.000 S 
ATOM     30  O   UNL     1      -0.965   3.905   0.000  0.00  0.00    +0.000 OA
ATOM     31  O   UNL     1      -1.790   3.080   0.000  0.00  0.00    +0.000 OA
ATOM     32  C   UNL     1      -0.140   3.080   0.000  0.00  0.00    +0.000 C 
ENDBRANCH  23  29
ENDBRANCH   1  27
TORSDOF 3
