REMARK  Name = MAJ
REMARK  1 active torsions:
REMARK  status: ('A' for Active; 'I' for Inactive)
REMARK    1  A    between atoms: C_2  and  S_10
REMARK                            x       y       z     vdW  Elec       q    Type
REMARK                         _______ _______ _______ _____ _____    ______ ____
ROOT
ATOM      1  C   UNL     1      -0.288   0.714   0.000  0.00  0.00    +0.000 A 
ATOM      2  C   UNL     1       0.426   0.302   0.000  0.00  0.00    +0.000 A 
ATOM      3  C   UNL     1       0.426  -0.523   0.000  0.00  0.00    +0.000 A 
ATOM      4  C   UNL     1      -0.288  -0.936   0.000  0.00  0.00    +0.000 A 
ATOM      5  C   UNL     1      -1.003   0.302   0.000  0.00  0.00    +0.000 A 
ATOM      6  C   UNL     1      -1.003  -0.523   0.000  0.00  0.00    +0.000 A 
ATOM      7  C   UNL     1      -1.787  -0.778   0.000  0.00  0.00    +0.000 C 
ATOM      8  C   UNL     1      -2.272  -0.111   0.000  0.00  0.00    +0.000 C 
ATOM      9  C   UNL     1      -1.787   0.557   0.000  0.00  0.00    +0.000 C 
ENDROOT
BRANCH   2  10
ATOM     10  S   UNL     1       1.141   0.714   0.000  0.00  0.00    +0.000 S 
ATOM     11  O   UNL     1       1.855   1.127   0.000  0.00  0.00    +0.000 OA
ATOM     12  O   UNL     1       0.728   1.429   0.000  0.00  0.00    +0.000 OA
ATOM     13  N   UNL     1       1.553  -0.000   0.000  0.00  0.00    +0.000 NA
ENDBRANCH   2  10
TORSDOF 1
