REMARK  Name = MAX
REMARK  6 active torsions:
REMARK  status: ('A' for Active; 'I' for Inactive)
REMARK    1  A    between atoms: C_2  and  O_25
REMARK    2  A    between atoms: C_6  and  C_7
REMARK    3  A    between atoms: C_7  and  C_8
REMARK    4  A    between atoms: C_12  and  C_14
REMARK    5  A    between atoms: C_14  and  C_15
REMARK    6  A    between atoms: C_19  and  O_21
REMARK                            x       y       z     vdW  Elec       q    Type
REMARK                         _______ _______ _______ _____ _____    ______ ____
ROOT
ATOM      1  C   UNL     1       0.566  -0.153   0.000  0.00  0.00    +0.000 C 
ATOM      2  C   UNL     1       1.234  -0.638   0.000  0.00  0.00    +0.000 C 
ATOM      3  O   UNL     1       0.979  -1.422   0.000  0.00  0.00    +0.000 OA
ATOM      4  C   UNL     1       0.154  -1.422   0.000  0.00  0.00    +0.000 C 
ATOM      5  C   UNL     1      -0.101  -0.638   0.000  0.00  0.00    +0.000 C 
ATOM      6  O   UNL     1      -0.331  -2.090   0.000  0.00  0.00    +0.000 OA
ENDROOT
BRANCH   1   7
ATOM      7  C   UNL     1       0.566   0.672   0.000  0.00  0.00    +0.000 C 
BRANCH   7  13
ATOM      8  C   UNL     1       1.281   1.910   0.000  0.00  0.00    +0.000 A 
ATOM      9  C   UNL     1       1.995   2.322   0.000  0.00  0.00    +0.000 A 
ATOM     10  C   UNL     1       2.710   1.910   0.000  0.00  0.00    +0.000 A 
ATOM     11  C   UNL     1       2.710   1.085   0.000  0.00  0.00    +0.000 A 
ATOM     12  C   UNL     1       1.995   0.672   0.000  0.00  0.00    +0.000 A 
ATOM     13  C   UNL     1       1.281   1.085   0.000  0.00  0.00    +0.000 A 
ATOM     14  O   UNL     1       3.424   2.322   0.000  0.00  0.00    +0.000 OA
BRANCH   9  15
ATOM     15  O   UNL     1       1.995   3.147   0.000  0.00  0.00    +0.000 OA
ATOM     16  C   UNL     1       2.710   3.560   0.000  0.00  0.00    +0.000 C 
ENDBRANCH   9  15
ENDBRANCH   7  13
ENDBRANCH   1   7
BRANCH   5  17
ATOM     17  C   UNL     1      -0.886  -0.383   0.000  0.00  0.00    +0.000 C 
BRANCH  17  18
ATOM     18  C   UNL     1      -1.499  -0.935   0.000  0.00  0.00    +0.000 A 
ATOM     19  C   UNL     1      -1.327  -1.742   0.000  0.00  0.00    +0.000 A 
ATOM     20  C   UNL     1      -1.941  -2.294   0.000  0.00  0.00    +0.000 A 
ATOM     21  C   UNL     1      -2.725  -2.039   0.000  0.00  0.00    +0.000 A 
ATOM     22  C   UNL     1      -2.897  -1.232   0.000  0.00  0.00    +0.000 A 
ATOM     23  C   UNL     1      -2.284  -0.680   0.000  0.00  0.00    +0.000 A 
ATOM     24  O   UNL     1      -3.338  -2.591   0.000  0.00  0.00    +0.000 OA
BRANCH  22  25
ATOM     25  O   UNL     1      -3.681  -0.977   0.000  0.00  0.00    +0.000 OA
ATOM     26  C   UNL     1      -4.294  -1.529   0.000  0.00  0.00    +0.000 C 
ENDBRANCH  22  25
ENDBRANCH  17  18
ENDBRANCH   5  17
TORSDOF 6
