REMARK  Name = MB9
REMARK  1 active torsions:
REMARK  status: ('A' for Active; 'I' for Inactive)
REMARK    1  A    between atoms: C_21  and  C_22
REMARK                            x       y       z     vdW  Elec       q    Type
REMARK                         _______ _______ _______ _____ _____    ______ ____
ROOT
ATOM      1  C   UNL     1       0.563   0.791   0.000  0.00  0.00    +0.000 C 
ATOM      2  C   UNL     1       1.285   1.190   0.000  0.00  0.00    +0.000 C 
ATOM      3  N   UNL     1       1.992   0.763   0.000  0.00  0.00    +0.000 NA
ATOM      4  C   UNL     1       1.976  -0.061   0.000  0.00  0.00    +0.000 C 
ATOM      5  C   UNL     1       1.254  -0.460   0.000  0.00  0.00    +0.000 C 
ATOM      6  C   UNL     1       0.547  -0.034   0.000  0.00  0.00    +0.000 C 
ATOM      7  N   UNL     1       0.532  -0.859   0.000  0.00  0.00    +0.000 NA
ATOM      8  C   UNL     1      -0.190  -1.258   0.000  0.00  0.00    +0.000 C 
ATOM      9  O   UNL     1      -0.206  -2.083   0.000  0.00  0.00    +0.000 OA
ATOM     10  C   UNL     1      -0.897  -0.832   0.000  0.00  0.00    +0.000 A 
ATOM     11  N   UNL     1      -1.686  -1.072   0.000  0.00  0.00    +0.000 N 
ATOM     12  C   UNL     1      -1.956  -1.851   0.000  0.00  0.00    +0.000 C 
ATOM     13  C   UNL     1      -2.158  -0.395   0.000  0.00  0.00    +0.000 A 
ATOM     14  C   UNL     1      -2.977  -0.293   0.000  0.00  0.00    +0.000 A 
ATOM     15  C   UNL     1      -3.298   0.467   0.000  0.00  0.00    +0.000 A 
ATOM     16 CL   UNL     1      -4.117   0.568   0.000  0.00  0.00    +0.000 Cl
ATOM     17  C   UNL     1      -2.801   1.125   0.000  0.00  0.00    +0.000 A 
ATOM     18  C   UNL     1      -1.982   1.023   0.000  0.00  0.00    +0.000 A 
ATOM     19  C   UNL     1      -1.661   0.263   0.000  0.00  0.00    +0.000 A 
ATOM     20  C   UNL     1      -0.881  -0.007   0.000  0.00  0.00    +0.000 A 
ATOM     21  C   UNL     1      -0.159   0.392   0.000  0.00  0.00    +0.000 C 
ENDROOT
BRANCH  21  22
ATOM     22  C   UNL     1      -0.143   1.217   0.000  0.00  0.00    +0.000 C 
ATOM     23  N   UNL     1      -0.128   2.042   0.000  0.00  0.00    +0.000 NA
ENDBRANCH  21  22
TORSDOF 1
