REMARK  Name = MBP
REMARK  4 active torsions:
REMARK  status: ('A' for Active; 'I' for Inactive)
REMARK    1  A    between atoms: C_4  and  C_7
REMARK    2  A    between atoms: C_4  and  C_15
REMARK    3  A    between atoms: C_13  and  O_14
REMARK    4  A    between atoms: O_14  and  C_15
REMARK                            x       y       z     vdW  Elec       q    Type
REMARK                         _______ _______ _______ _____ _____    ______ ____
ROOT
ATOM      1  C   UNL     1       1.732   1.123   0.000  0.00  0.00    +0.000 A 
ATOM      2  C   UNL     1       2.446  -0.114   0.000  0.00  0.00    +0.000 A 
ATOM      3  C   UNL     1       1.732  -0.526   0.000  0.00  0.00    +0.000 A 
ATOM      4  N   UNL     1       3.060  -0.666   0.000  0.00  0.00    +0.000 NA
ATOM      5  N   UNL     1       2.446   0.711   0.000  0.00  0.00    +0.000 NA
ATOM      6  N   UNL     1       1.732   1.948   0.000  0.00  0.00    +0.000 NA
ATOM      7  N   UNL     1       1.018   0.711   0.000  0.00  0.00    +0.000 NA
ATOM      8  C   UNL     1       1.018  -0.114   0.000  0.00  0.00    +0.000 A 
ATOM      9  N   UNL     1       1.904  -1.333   0.000  0.00  0.00    +0.000 NA
ATOM     10  C   UNL     1       2.724  -1.420   0.000  0.00  0.00    +0.000 A 
ENDROOT
BRANCH   8  11
ATOM     11  O   UNL     1       0.303  -0.526   0.000  0.00  0.00    +0.000 OA
BRANCH  11  12
ATOM     12  C   UNL     1      -0.411  -0.114   0.000  0.00  0.00    +0.000 C 
BRANCH  12  13
ATOM     13  C   UNL     1      -1.126  -0.526   0.000  0.00  0.00    +0.000 C 
ATOM     14  O   UNL     1      -1.126  -1.351   0.000  0.00  0.00    +0.000 OA
BRANCH  13  16
ATOM     15  C   UNL     1      -2.555  -0.526   0.000  0.00  0.00    +0.000 C 
ATOM     16  C   UNL     1      -1.840  -0.114   0.000  0.00  0.00    +0.000 C 
ATOM     17  C   UNL     1      -1.840   0.711   0.000  0.00  0.00    +0.000 C 
ENDBRANCH  13  16
ENDBRANCH  12  13
ENDBRANCH  11  12
ENDBRANCH   8  11
TORSDOF 4
