REMARK  Name = MBS
REMARK  10 active torsions:
REMARK  status: ('A' for Active; 'I' for Inactive)
REMARK    1  A    between atoms: O_2  and  C_3
REMARK    2  A    between atoms: C_3  and  C_4
REMARK    3  A    between atoms: C_5  and  C_6
REMARK    4  A    between atoms: C_6  and  C_7
REMARK    5  A    between atoms: C_7  and  C_8
REMARK    6  A    between atoms: C_7  and  N_11
REMARK    7  A    between atoms: N_11  and  S_12
REMARK    8  A    between atoms: S_12  and  C_15
REMARK    9  A    between atoms: C_18  and  C_21
REMARK   10  A    between atoms: C_24  and  O_27
REMARK                            x       y       z     vdW  Elec       q    Type
REMARK                         _______ _______ _______ _____ _____    ______ ____
ROOT
ATOM      1  S   UNL     1       0.702  -1.405   0.000  0.00  0.00    +0.000 S 
ATOM      2  O   UNL     1       1.416  -1.818   0.000  0.00  0.00    +0.000 OA
ATOM      3  O   UNL     1       0.289  -2.120   0.000  0.00  0.00    +0.000 OA
ENDROOT
BRANCH   1   4
ATOM      4  C   UNL     1       1.114  -0.691   0.000  0.00  0.00    +0.000 A 
ATOM      5  C   UNL     1       0.702   0.023   0.000  0.00  0.00    +0.000 A 
ATOM      6  C   UNL     1       1.114   0.738   0.000  0.00  0.00    +0.000 A 
ATOM      7  C   UNL     1       1.939   0.738   0.000  0.00  0.00    +0.000 A 
ATOM      8  C   UNL     1       2.352   0.023   0.000  0.00  0.00    +0.000 A 
ATOM      9  C   UNL     1       1.939  -0.691   0.000  0.00  0.00    +0.000 A 
BRANCH   7  10
ATOM     10  C   UNL     1       2.352   1.452   0.000  0.00  0.00    +0.000 A 
ATOM     11  C   UNL     1       1.939   2.167   0.000  0.00  0.00    +0.000 A 
ATOM     12  C   UNL     1       2.352   2.881   0.000  0.00  0.00    +0.000 A 
ATOM     13  C   UNL     1       3.177   2.881   0.000  0.00  0.00    +0.000 A 
ATOM     14  C   UNL     1       3.589   2.167   0.000  0.00  0.00    +0.000 A 
ATOM     15  C   UNL     1       3.177   1.452   0.000  0.00  0.00    +0.000 A 
BRANCH  13  16
ATOM     16  O   UNL     1       3.589   3.596   0.000  0.00  0.00    +0.000 OA
ATOM     17  C   UNL     1       3.177   4.310   0.000  0.00  0.00    +0.000 C 
ENDBRANCH  13  16
ENDBRANCH   7  10
ENDBRANCH   1   4
BRANCH   1  18
ATOM     18  N   UNL     1      -0.013  -0.993   0.000  0.00  0.00    +0.000 NA
BRANCH  18  19
ATOM     19  C   UNL     1      -0.727  -1.405   0.000  0.00  0.00    +0.000 C 
BRANCH  19  20
ATOM     20  C   UNL     1      -0.727  -2.231   0.000  0.00  0.00    +0.000 C 
ATOM     21  O   UNL     1      -0.013  -2.643   0.000  0.00  0.00    +0.000 OA
ATOM     22  O   UNL     1      -1.442  -2.643   0.000  0.00  0.00    +0.000 OA
ENDBRANCH  19  20
BRANCH  19  23
ATOM     23  C   UNL     1      -1.442  -0.993   0.000  0.00  0.00    +0.000 C 
BRANCH  23  25
ATOM     24  C   UNL     1      -2.871  -1.818   0.000  0.00  0.00    +0.000 C 
ATOM     25  C   UNL     1      -2.156  -1.405   0.000  0.00  0.00    +0.000 C 
BRANCH  24  26
ATOM     26  C   UNL     1      -3.585  -2.231   0.000  0.00  0.00    +0.000 C 
BRANCH  26  28
ATOM     27  C   UNL     1      -5.014  -2.231   0.000  0.00  0.00    +0.000 C 
ATOM     28  O   UNL     1      -4.300  -1.818   0.000  0.00  0.00    +0.000 OA
ENDBRANCH  26  28
ENDBRANCH  24  26
ENDBRANCH  23  25
ENDBRANCH  19  23
ENDBRANCH  18  19
ENDBRANCH   1  18
TORSDOF 10
