REMARK  Name = MBT
REMARK  2 active torsions:
REMARK  status: ('A' for Active; 'I' for Inactive)
REMARK    1  A    between atoms: C_8  and  N_15
REMARK    2  A    between atoms: C_12  and  N_18
REMARK                            x       y       z     vdW  Elec       q    Type
REMARK                         _______ _______ _______ _____ _____    ______ ____
ROOT
ATOM      1  C   UNL     1       0.715   0.844   0.000  0.00  0.00    +0.000 A 
ATOM      2  C   UNL     1       0.715   0.019   0.000  0.00  0.00    +0.000 A 
ATOM      3  S   UNL     1       0.000  -0.393   0.000  0.00  0.00    +0.000 S 
ATOM      4  C   UNL     1      -0.715   0.019   0.000  0.00  0.00    +0.000 A 
ATOM      5  C   UNL     1      -0.715   0.844   0.000  0.00  0.00    +0.000 A 
ATOM      6  N   UNL     1       0.000   1.257   0.000  0.00  0.00    +0.000 NA
ATOM      7  C   UNL     1      -1.429  -0.393   0.000  0.00  0.00    +0.000 A 
ATOM      8  C   UNL     1      -2.143   0.019   0.000  0.00  0.00    +0.000 A 
ATOM      9  C   UNL     1      -2.143   0.844   0.000  0.00  0.00    +0.000 A 
ATOM     10  C   UNL     1      -1.429   1.257   0.000  0.00  0.00    +0.000 A 
ATOM     11  C   UNL     1       1.429  -0.393   0.000  0.00  0.00    +0.000 A 
ATOM     12  C   UNL     1       2.143   0.019   0.000  0.00  0.00    +0.000 A 
ATOM     13  C   UNL     1       2.143   0.844   0.000  0.00  0.00    +0.000 A 
ATOM     14  C   UNL     1       1.429   1.257   0.000  0.00  0.00    +0.000 A 
ENDROOT
BRANCH   8  15
ATOM     15  N   UNL     1      -2.858  -0.393   0.000  0.00  0.00    +0.000 N 
ATOM     16  C   UNL     1      -3.572   0.019   0.000  0.00  0.00    +0.000 C 
ATOM     17  C   UNL     1      -2.858  -1.218   0.000  0.00  0.00    +0.000 C 
ENDBRANCH   8  15
BRANCH  12  18
ATOM     18  N   UNL     1       2.858  -0.393   0.000  0.00  0.00    +0.000 N 
ATOM     19  C   UNL     1       3.572   0.019   0.000  0.00  0.00    +0.000 C 
ATOM     20  C   UNL     1       2.858  -1.218   0.000  0.00  0.00    +0.000 C 
ENDBRANCH  12  18
TORSDOF 2
