REMARK  Name = MD7
REMARK  5 active torsions:
REMARK  status: ('A' for Active; 'I' for Inactive)
REMARK    1  A    between atoms: C_3  and  C_4
REMARK    2  A    between atoms: C_6  and  C_7
REMARK    3  A    between atoms: C_6  and  C_9
REMARK    4  A    between atoms: N_11  and  C_12
REMARK    5  A    between atoms: C_17  and  C_18
REMARK                            x       y       z     vdW  Elec       q    Type
REMARK                         _______ _______ _______ _____ _____    ______ ____
ROOT
ATOM      1  C   UNL     1       0.047  -0.215   0.000  0.00  0.00    +0.000 A 
ATOM      2  C   UNL     1       0.047  -1.040   0.000  0.00  0.00    +0.000 A 
ATOM      3  C   UNL     1      -0.668  -1.452   0.000  0.00  0.00    +0.000 A 
ATOM      4  C   UNL     1      -0.668   0.198   0.000  0.00  0.00    +0.000 A 
ATOM      5  C   UNL     1      -1.382  -0.215   0.000  0.00  0.00    +0.000 A 
ATOM      6  C   UNL     1      -1.382  -1.040   0.000  0.00  0.00    +0.000 A 
ENDROOT
BRANCH   6   7
ATOM      7  C   UNL     1      -2.097  -1.452   0.000  0.00  0.00    +0.000 A 
ATOM      8  C   UNL     1      -2.097  -2.277   0.000  0.00  0.00    +0.000 A 
ATOM      9  C   UNL     1      -2.811  -2.690   0.000  0.00  0.00    +0.000 A 
ATOM     10  C   UNL     1      -3.526  -2.277   0.000  0.00  0.00    +0.000 A 
ATOM     11  C   UNL     1      -3.526  -1.452   0.000  0.00  0.00    +0.000 A 
ATOM     12  C   UNL     1      -2.811  -1.040   0.000  0.00  0.00    +0.000 A 
ENDBRANCH   6   7
BRANCH   1  15
ATOM     13  C   UNL     1       0.761   1.023   0.000  0.00  0.00    +0.000 C 
ATOM     14  O   UNL     1       0.047   1.435   0.000  0.00  0.00    +0.000 OA
ATOM     15  N   UNL     1       0.761   0.198   0.000  0.00  0.00    +0.000 NA
BRANCH  13  18
ATOM     16  C   UNL     1       2.190   1.023   0.000  0.00  0.00    +0.000 C 
ATOM     17  O   UNL     1       2.190   0.198   0.000  0.00  0.00    +0.000 OA
ATOM     18  C   UNL     1       1.476   1.435   0.000  0.00  0.00    +0.000 C 
BRANCH  16  21
ATOM     19  C   UNL     1       3.317   2.150   0.000  0.00  0.00    +0.000 C 
ATOM     20  C   UNL     1       3.729   1.435   0.000  0.00  0.00    +0.000 C 
ATOM     21  C   UNL     1       2.905   1.435   0.000  0.00  0.00    +0.000 C 
ENDBRANCH  16  21
BRANCH  18  22
ATOM     22  C   UNL     1       1.476   2.260   0.000  0.00  0.00    +0.000 C 
ATOM     23  N   UNL     1       1.476   3.085   0.000  0.00  0.00    +0.000 NA
ENDBRANCH  18  22
ENDBRANCH  13  18
ENDBRANCH   1  15
TORSDOF 5
