REMARK  Name = MDC
REMARK  6 active torsions:
REMARK  status: ('A' for Active; 'I' for Inactive)
REMARK    1  A    between atoms: N_5  and  C_8
REMARK    2  A    between atoms: C_9  and  N_10
REMARK    3  A    between atoms: C_11  and  C_16
REMARK    4  A    between atoms: C_22  and  N_23
REMARK    5  A    between atoms: N_23  and  C_25
REMARK    6  A    between atoms: N_23  and  C_27
REMARK                            x       y       z     vdW  Elec       q    Type
REMARK                         _______ _______ _______ _____ _____    ______ ____
ROOT
ATOM      1  O   UNL     1      -0.236   0.273   0.000  0.00  0.00    +0.000 OA
ATOM      2  C   UNL     1      -0.951  -0.140   0.000  0.00  0.00    +0.000 A 
ATOM      3  O   UNL     1      -1.665   0.273   0.000  0.00  0.00    +0.000 OA
ATOM      4  C   UNL     1      -0.951  -0.965   0.000  0.00  0.00    +0.000 A 
ATOM      5  C   UNL     1      -0.236  -1.377   0.000  0.00  0.00    +0.000 A 
ATOM      6  C   UNL     1       0.478  -0.965   0.000  0.00  0.00    +0.000 A 
ATOM      7  C   UNL     1       0.478  -0.140   0.000  0.00  0.00    +0.000 A 
ATOM      8  C   UNL     1       1.193  -1.377   0.000  0.00  0.00    +0.000 A 
ATOM      9  C   UNL     1       1.907  -0.965   0.000  0.00  0.00    +0.000 A 
ATOM     10  C   UNL     1       1.907  -0.140   0.000  0.00  0.00    +0.000 A 
ATOM     11  C   UNL     1       1.193   0.273   0.000  0.00  0.00    +0.000 A 
ENDROOT
BRANCH   4  13
ATOM     12  N   UNL     1      -2.380  -0.965   0.000  0.00  0.00    +0.000 NA
ATOM     13  C   UNL     1      -1.665  -1.377   0.000  0.00  0.00    +0.000 C 
ATOM     14  O   UNL     1      -1.665  -2.202   0.000  0.00  0.00    +0.000 OA
BRANCH  12  16
ATOM     15  C   UNL     1      -3.808  -0.965   0.000  0.00  0.00    +0.000 C 
ATOM     16  C   UNL     1      -3.094  -1.377   0.000  0.00  0.00    +0.000 C 
BRANCH  15  21
ATOM     17  C   UNL     1      -4.221   1.130   0.000  0.00  0.00    +0.000 C 
ATOM     18  C   UNL     1      -3.396   1.130   0.000  0.00  0.00    +0.000 C 
ATOM     19  C   UNL     1      -3.141   0.345   0.000  0.00  0.00    +0.000 C 
ATOM     20  O   UNL     1      -2.356   0.090   0.000  0.00  0.00    +0.000 OA
ATOM     21  N   UNL     1      -3.808  -0.140   0.000  0.00  0.00    +0.000 N 
ATOM     22  C   UNL     1      -4.476   0.345   0.000  0.00  0.00    +0.000 C 
ATOM     23  O   UNL     1      -5.261   0.090   0.000  0.00  0.00    +0.000 OA
ENDBRANCH  15  21
ENDBRANCH  12  16
ENDBRANCH   4  13
BRANCH  10  24
ATOM     24  N   UNL     1       2.622   0.273   0.000  0.00  0.00    +0.000 N 
BRANCH  24  25
ATOM     25  C   UNL     1       3.336  -0.140   0.000  0.00  0.00    +0.000 C 
ATOM     26  C   UNL     1       4.051   0.273   0.000  0.00  0.00    +0.000 C 
ENDBRANCH  24  25
BRANCH  24  27
ATOM     27  C   UNL     1       2.622   1.098   0.000  0.00  0.00    +0.000 C 
ATOM     28  C   UNL     1       3.336   1.510   0.000  0.00  0.00    +0.000 C 
ENDBRANCH  24  27
ENDBRANCH  10  24
TORSDOF 6
