REMARK  Name = MDW
REMARK  5 active torsions:
REMARK  status: ('A' for Active; 'I' for Inactive)
REMARK    1  A    between atoms: C_4  and  O_5
REMARK    2  A    between atoms: C_9  and  C_10
REMARK    3  A    between atoms: N_17  and  S_18
REMARK    4  A    between atoms: S_18  and  C_21
REMARK    5  A    between atoms: C_24  and  O_25
REMARK                            x       y       z     vdW  Elec       q    Type
REMARK                         _______ _______ _______ _____ _____    ______ ____
ROOT
ATOM      1  C   UNL     1      -1.936  -1.989   0.000  0.00  0.00    +0.000 A 
ATOM      2  C   UNL     1      -2.651  -1.576   0.000  0.00  0.00    +0.000 A 
ATOM      3  O   UNL     1      -3.365  -1.989   0.000  0.00  0.00    +0.000 OA
ATOM      4  C   UNL     1      -2.651  -0.751   0.000  0.00  0.00    +0.000 A 
ATOM      5  C   UNL     1      -1.936  -0.339   0.000  0.00  0.00    +0.000 A 
ATOM      6  C   UNL     1      -1.222  -0.751   0.000  0.00  0.00    +0.000 A 
ATOM      7  C   UNL     1      -0.507  -0.339   0.000  0.00  0.00    +0.000 C 
ATOM      8  C   UNL     1      -1.222  -1.576   0.000  0.00  0.00    +0.000 A 
ATOM      9  C   UNL     1      -0.507  -1.989   0.000  0.00  0.00    +0.000 C 
ATOM     10  C   UNL     1       0.207  -1.576   0.000  0.00  0.00    +0.000 C 
ATOM     11  N   UNL     1       0.207  -0.751   0.000  0.00  0.00    +0.000 NA
ENDROOT
BRANCH   7  12
ATOM     12  C   UNL     1      -0.507   0.486   0.000  0.00  0.00    +0.000 C 
ATOM     13  O   UNL     1       0.207   0.899   0.000  0.00  0.00    +0.000 OA
ATOM     14  N   UNL     1      -1.222   0.899   0.000  0.00  0.00    +0.000 NA
ATOM     15  O   UNL     1      -1.222   1.724   0.000  0.00  0.00    +0.000 OA
ENDBRANCH   7  12
BRANCH  11  16
ATOM     16  S   UNL     1       0.922  -0.339   0.000  0.00  0.00    +0.000 S 
ATOM     17  O   UNL     1       1.334  -1.053   0.000  0.00  0.00    +0.000 OA
ATOM     18  O   UNL     1       0.509   0.376   0.000  0.00  0.00    +0.000 OA
BRANCH  16  19
ATOM     19  C   UNL     1       1.636   0.074   0.000  0.00  0.00    +0.000 A 
ATOM     20  C   UNL     1       1.636   0.899   0.000  0.00  0.00    +0.000 A 
ATOM     21  C   UNL     1       2.351   1.311   0.000  0.00  0.00    +0.000 A 
ATOM     22  C   UNL     1       3.065   0.899   0.000  0.00  0.00    +0.000 A 
ATOM     23  C   UNL     1       3.065   0.074   0.000  0.00  0.00    +0.000 A 
ATOM     24  C   UNL     1       2.351  -0.339   0.000  0.00  0.00    +0.000 A 
BRANCH  22  25
ATOM     25  O   UNL     1       3.780   1.311   0.000  0.00  0.00    +0.000 OA
ATOM     26  C   UNL     1       3.780   2.136   0.000  0.00  0.00    +0.000 C 
ENDBRANCH  22  25
ENDBRANCH  16  19
ENDBRANCH  11  16
BRANCH   4  27
ATOM     27  O   UNL     1      -3.365  -0.339   0.000  0.00  0.00    +0.000 OA
ATOM     28  C   UNL     1      -3.365   0.486   0.000  0.00  0.00    +0.000 C 
ENDBRANCH   4  27
TORSDOF 5
