REMARK  Name = MDY
REMARK  5 active torsions:
REMARK  status: ('A' for Active; 'I' for Inactive)
REMARK    1  A    between atoms: O_2  and  C_3
REMARK    2  A    between atoms: C_8  and  C_9
REMARK    3  A    between atoms: C_15  and  N_16
REMARK    4  A    between atoms: C_17  and  C_19
REMARK    5  A    between atoms: C_19  and  C_20
REMARK                            x       y       z     vdW  Elec       q    Type
REMARK                         _______ _______ _______ _____ _____    ______ ____
ROOT
ATOM      1  C   UNL     1       0.502  -0.547   0.000  0.00  0.00    +0.000 A 
ATOM      2  C   UNL     1      -0.212  -0.960   0.000  0.00  0.00    +0.000 A 
ATOM      3  C   UNL     1      -0.927  -0.547   0.000  0.00  0.00    +0.000 A 
ATOM      4 CL   UNL     1      -1.641  -0.960   0.000  0.00  0.00    +0.000 Cl
ATOM      5  C   UNL     1       0.502   0.278   0.000  0.00  0.00    +0.000 A 
ATOM      6  C   UNL     1      -0.212   0.690   0.000  0.00  0.00    +0.000 A 
ATOM      7  C   UNL     1      -0.927   0.278   0.000  0.00  0.00    +0.000 A 
ENDROOT
BRANCH   1  13
ATOM      8  C   UNL     1       1.931  -0.547   0.000  0.00  0.00    +0.000 A 
ATOM      9  C   UNL     1       2.646  -0.960   0.000  0.00  0.00    +0.000 A 
ATOM     10  C   UNL     1       2.646  -1.785   0.000  0.00  0.00    +0.000 A 
ATOM     11  C   UNL     1       1.931  -2.197   0.000  0.00  0.00    +0.000 A 
ATOM     12  C   UNL     1       1.217  -1.785   0.000  0.00  0.00    +0.000 A 
ATOM     13  C   UNL     1       1.217  -0.960   0.000  0.00  0.00    +0.000 A 
BRANCH   8  15
ATOM     14  C   UNL     1       2.646   0.690   0.000  0.00  0.00    +0.000 C 
ATOM     15  O   UNL     1       1.931   0.278   0.000  0.00  0.00    +0.000 OA
ENDBRANCH   8  15
ENDBRANCH   1  13
BRANCH   7  16
ATOM     16  N   UNL     1      -1.641   0.690   0.000  0.00  0.00    +0.000 NA
ATOM     17  C   UNL     1      -1.641   1.515   0.000  0.00  0.00    +0.000 C 
ATOM     18  O   UNL     1      -0.927   1.928   0.000  0.00  0.00    +0.000 OA
BRANCH  17  19
ATOM     19  C   UNL     1      -2.356   1.928   0.000  0.00  0.00    +0.000 C 
ATOM     20  C   UNL     1      -3.070   1.515   0.000  0.00  0.00    +0.000 C 
ATOM     21  C   UNL     1      -3.785   1.928   0.000  0.00  0.00    +0.000 C 
ATOM     22  O   UNL     1      -3.070   0.690   0.000  0.00  0.00    +0.000 OA
BRANCH  19  23
ATOM     23  C   UNL     1      -2.356   2.753   0.000  0.00  0.00    +0.000 C 
ATOM     24  N   UNL     1      -2.356   3.578   0.000  0.00  0.00    +0.000 NA
ENDBRANCH  19  23
ENDBRANCH  17  19
ENDBRANCH   7  16
TORSDOF 5
