REMARK  Name = ME1
REMARK  6 active torsions:
REMARK  status: ('A' for Active; 'I' for Inactive)
REMARK    1  A    between atoms: C_4  and  C_5
REMARK    2  A    between atoms: C_4  and  N_18
REMARK    3  A    between atoms: C_5  and  N_19
REMARK    4  A    between atoms: C_6  and  C_7
REMARK    5  A    between atoms: C_14  and  C_16
REMARK    6  A    between atoms: C_21  and  N_23
REMARK                            x       y       z     vdW  Elec       q    Type
REMARK                         _______ _______ _______ _____ _____    ______ ____
ROOT
ATOM      1  C   UNL     1      -0.530   3.389   0.000  0.00  0.00    +0.000 C 
ATOM      2  N   UNL     1       0.184   3.801   0.000  0.00  0.00    +0.000 NA
ATOM      3  O   UNL     1      -0.530   2.564   0.000  0.00  0.00    +0.000 OA
ENDROOT
BRANCH   1   4
ATOM      4  C   UNL     1      -1.245   3.801   0.000  0.00  0.00    +0.000 A 
ATOM      5  C   UNL     1      -1.959   3.389   0.000  0.00  0.00    +0.000 A 
ATOM      6  C   UNL     1      -2.674   3.801   0.000  0.00  0.00    +0.000 A 
ATOM      7  C   UNL     1      -1.245   4.627   0.000  0.00  0.00    +0.000 A 
ATOM      8  C   UNL     1      -2.674   4.627   0.000  0.00  0.00    +0.000 A 
ATOM      9  C   UNL     1      -1.959   5.039   0.000  0.00  0.00    +0.000 A 
BRANCH   8  13
ATOM     10  C   UNL     1      -4.102   4.627   0.000  0.00  0.00    +0.000 A 
ATOM     11  C   UNL     1      -4.817   5.039   0.000  0.00  0.00    +0.000 A 
ATOM     12  C   UNL     1      -4.102   6.277   0.000  0.00  0.00    +0.000 A 
ATOM     13  N   UNL     1      -3.388   5.039   0.000  0.00  0.00    +0.000 N 
ATOM     14  C   UNL     1      -4.817   5.864   0.000  0.00  0.00    +0.000 A 
ATOM     15  C   UNL     1      -3.388   5.864   0.000  0.00  0.00    +0.000 A 
ATOM     16  O   UNL     1      -2.674   6.277   0.000  0.00  0.00    +0.000 OA
ENDBRANCH   8  13
ENDBRANCH   1   4
BRANCH   2  17
ATOM     17  C   UNL     1       0.899   3.389   0.000  0.00  0.00    +0.000 C 
BRANCH  17  18
ATOM     18  C   UNL     1       1.613   3.801   0.000  0.00  0.00    +0.000 C 
BRANCH  18  21
ATOM     19  C   UNL     1       3.042   3.801   0.000  0.00  0.00    +0.000 C 
ATOM     20  O   UNL     1       3.042   4.627   0.000  0.00  0.00    +0.000 OA
ATOM     21  N   UNL     1       2.328   3.389   0.000  0.00  0.00    +0.000 NA
BRANCH  19  25
ATOM     22  C   UNL     1       5.062   3.111   0.000  0.00  0.00    +0.000 A 
ATOM     23  C   UNL     1       4.650   2.397   0.000  0.00  0.00    +0.000 A 
ATOM     24  C   UNL     1       3.843   2.569   0.000  0.00  0.00    +0.000 A 
ATOM     25  C   UNL     1       3.757   3.389   0.000  0.00  0.00    +0.000 A 
ATOM     26  S   UNL     1       4.510   3.725   0.000  0.00  0.00    +0.000 S 
ATOM     27 CL   UNL     1       5.883   3.198   0.000  0.00  0.00    +0.000 Cl
ENDBRANCH  19  25
ENDBRANCH  18  21
ENDBRANCH  17  18
ENDBRANCH   2  17
TORSDOF 6
