REMARK  Name = MEI
REMARK  9 active torsions:
REMARK  status: ('A' for Active; 'I' for Inactive)
REMARK    1  A    between atoms: O_2  and  C_3
REMARK    2  A    between atoms: C_3  and  C_6
REMARK    3  A    between atoms: C_6  and  C_7
REMARK    4  A    between atoms: C_7  and  C_8
REMARK    5  A    between atoms: C_8  and  C_9
REMARK    6  A    between atoms: C_9  and  C_11
REMARK    7  A    between atoms: C_11  and  C_12
REMARK    8  A    between atoms: C_13  and  C_14
REMARK    9  A    between atoms: C_16  and  C_17
REMARK                            x       y       z     vdW  Elec       q    Type
REMARK                         _______ _______ _______ _____ _____    ______ ____
ROOT
ATOM      1  C   UNL     1       0.713  -0.017   0.000  0.00  0.00    +0.000 C 
ATOM      2  C   UNL     1       0.557   0.793   0.000  0.00  0.00    +0.000 C 
ENDROOT
BRANCH   1   3
ATOM      3  C   UNL     1       0.089  -0.557   0.000  0.00  0.00    +0.000 C 
BRANCH   3   4
ATOM      4  C   UNL     1      -0.690  -0.287   0.000  0.00  0.00    +0.000 C 
BRANCH   4   5
ATOM      5  C   UNL     1      -1.314  -0.828   0.000  0.00  0.00    +0.000 C 
BRANCH   5   6
ATOM      6  C   UNL     1      -2.093  -0.557   0.000  0.00  0.00    +0.000 C 
ATOM      7  C   UNL     1      -2.363  -1.337   0.000  0.00  0.00    +0.000 C 
ATOM      8  C   UNL     1      -1.823   0.222   0.000  0.00  0.00    +0.000 C 
BRANCH   6  10
ATOM      9  C   UNL     1      -3.496  -0.828   0.000  0.00  0.00    +0.000 C 
ATOM     10  O   UNL     1      -2.873  -0.287   0.000  0.00  0.00    +0.000 OA
ENDBRANCH   6  10
ENDBRANCH   5   6
ENDBRANCH   4   5
ENDBRANCH   3   4
ENDBRANCH   1   3
BRANCH   1  11
ATOM     11  C   UNL     1       1.493  -0.287   0.000  0.00  0.00    +0.000 C 
BRANCH  11  12
ATOM     12  C   UNL     1       2.116   0.253   0.000  0.00  0.00    +0.000 C 
ATOM     13  C   UNL     1       2.896  -0.017   0.000  0.00  0.00    +0.000 C 
BRANCH  13  14
ATOM     14  C   UNL     1       3.520   0.523   0.000  0.00  0.00    +0.000 C 
ATOM     15  C   UNL     1       3.364   1.333   0.000  0.00  0.00    +0.000 C 
ATOM     16  C   UNL     1       4.299   0.253   0.000  0.00  0.00    +0.000 C 
BRANCH  16  17
ATOM     17  C   UNL     1       4.923   0.793   0.000  0.00  0.00    +0.000 C 
ATOM     18  O   UNL     1       4.767   1.603   0.000  0.00  0.00    +0.000 OA
ATOM     19  O   UNL     1       5.702   0.523   0.000  0.00  0.00    +0.000 OA
ENDBRANCH  16  17
ENDBRANCH  13  14
ENDBRANCH  11  12
ENDBRANCH   1  11
TORSDOF 9
