REMARK  Name = MF2
REMARK  9 active torsions:
REMARK  status: ('A' for Active; 'I' for Inactive)
REMARK    1  A    between atoms: C_6  and  C_7
REMARK    2  A    between atoms: C_6  and  N_14
REMARK    3  A    between atoms: C_7  and  C_8
REMARK    4  A    between atoms: C_8  and  C_9
REMARK    5  A    between atoms: C_9  and  C_10
REMARK    6  A    between atoms: C_10  and  C_11
REMARK    7  A    between atoms: C_11  and  C_12
REMARK    8  A    between atoms: C_12  and  C_13
REMARK    9  A    between atoms: C_13  and  N_17
REMARK                            x       y       z     vdW  Elec       q    Type
REMARK                         _______ _______ _______ _____ _____    ______ ____
ROOT
ATOM      1  C   UNL     1      -0.516   0.083   0.000  0.00  0.00    +0.000 C 
ENDROOT
BRANCH   1   2
ATOM      2  C   UNL     1       0.199   0.496   0.000  0.00  0.00    +0.000 C 
BRANCH   2   3
ATOM      3  C   UNL     1       0.913   0.083   0.000  0.00  0.00    +0.000 C 
BRANCH   3   4
ATOM      4  C   UNL     1       1.628   0.496   0.000  0.00  0.00    +0.000 C 
BRANCH   4   5
ATOM      5  C   UNL     1       2.342   0.083   0.000  0.00  0.00    +0.000 C 
BRANCH   5   6
ATOM      6  C   UNL     1       3.057   0.496   0.000  0.00  0.00    +0.000 C 
BRANCH   6   7
ATOM      7  C   UNL     1       3.771   0.083   0.000  0.00  0.00    +0.000 C 
BRANCH   7   8
ATOM      8  N   UNL     1       4.486   0.496   0.000  0.00  0.00    +0.000 NA
ATOM      9  C   UNL     1       5.200   0.083   0.000  0.00  0.00    +0.000 C 
ATOM     10  O   UNL     1       5.915   0.496   0.000  0.00  0.00    +0.000 OA
ENDBRANCH   7   8
ENDBRANCH   6   7
ENDBRANCH   5   6
ENDBRANCH   4   5
ENDBRANCH   3   4
ENDBRANCH   2   3
ENDBRANCH   1   2
BRANCH   1  11
ATOM     11  C   UNL     1      -1.230   0.496   0.000  0.00  0.00    +0.000 C 
BRANCH  11  17
ATOM     12  C   UNL     1      -1.945  -0.742   0.000  0.00  0.00    +0.000 C 
ATOM     13  C   UNL     1      -2.659  -1.155   0.000  0.00  0.00    +0.000 C 
ATOM     14  O   UNL     1      -3.374  -0.742   0.000  0.00  0.00    +0.000 OA
ATOM     15  C   UNL     1      -4.088   0.496   0.000  0.00  0.00    +0.000 C 
ATOM     16  C   UNL     1      -2.659  -1.980   0.000  0.00  0.00    +0.000 C 
ATOM     17  N   UNL     1      -1.945   0.083   0.000  0.00  0.00    +0.000 NA
ATOM     18  C   UNL     1      -3.374   0.083   0.000  0.00  0.00    +0.000 C 
ATOM     19  C   UNL     1      -2.659   0.496   0.000  0.00  0.00    +0.000 C 
ENDBRANCH  11  17
ENDBRANCH   1  11
TORSDOF 9
