REMARK  Name = MFR
REMARK  2 active torsions:
REMARK  status: ('A' for Active; 'I' for Inactive)
REMARK    1  A    between atoms: C_3  and  O_15
REMARK    2  A    between atoms: C_4  and  C_11
REMARK                            x       y       z     vdW  Elec       q    Type
REMARK                         _______ _______ _______ _____ _____    ______ ____
ROOT
ATOM      1  C   UNL     1       1.786  -0.986   0.000  0.00  0.00    +0.000 A 
ATOM      2  C   UNL     1       1.786  -1.811   0.000  0.00  0.00    +0.000 A 
ATOM      3  C   UNL     1       1.071  -0.573   0.000  0.00  0.00    +0.000 A 
ATOM      4  C   UNL     1      -0.428  -0.731   0.000  0.00  0.00    +0.000 A 
ATOM      5  C   UNL     1      -0.913  -1.398   0.000  0.00  0.00    +0.000 A 
ATOM      6  N   UNL     1      -0.428  -2.066   0.000  0.00  0.00    +0.000 NA
ATOM      7  C   UNL     1       0.357  -0.986   0.000  0.00  0.00    +0.000 A 
ATOM      8  C   UNL     1       0.357  -1.811   0.000  0.00  0.00    +0.000 A 
ATOM      9  N   UNL     1       1.071  -2.223   0.000  0.00  0.00    +0.000 NA
ENDROOT
BRANCH   4  10
ATOM     10  C   UNL     1      -0.683   0.054   0.000  0.00  0.00    +0.000 A 
ATOM     11  N   UNL     1       0.166   2.064   0.000  0.00  0.00    +0.000 NA
ATOM     12  C   UNL     1      -0.386   1.451   0.000  0.00  0.00    +0.000 A 
ATOM     13  N   UNL     1      -1.193   1.623   0.000  0.00  0.00    +0.000 NA
ATOM     14  C   UNL     1      -1.745   1.010   0.000  0.00  0.00    +0.000 A 
ATOM     15  C   UNL     1      -1.490   0.225   0.000  0.00  0.00    +0.000 A 
ATOM     16  N   UNL     1      -0.131   0.667   0.000  0.00  0.00    +0.000 NA
ENDBRANCH   4  10
BRANCH   3  17
ATOM     17  O   UNL     1       1.071   0.252   0.000  0.00  0.00    +0.000 OA
ATOM     18  C   UNL     1       0.357   0.664   0.000  0.00  0.00    +0.000 C 
ENDBRANCH   3  17
TORSDOF 2
