REMARK  Name = MGI
REMARK  4 active torsions:
REMARK  status: ('A' for Active; 'I' for Inactive)
REMARK    1  A    between atoms: C_2  and  O_3
REMARK    2  A    between atoms: C_2  and  C_5
REMARK    3  A    between atoms: C_12  and  O_13
REMARK    4  A    between atoms: O_13  and  C_14
REMARK                            x       y       z     vdW  Elec       q    Type
REMARK                         _______ _______ _______ _____ _____    ______ ____
ROOT
ATOM      1  C   UNL     1      -0.782   1.565   0.000  0.00  0.00    +0.000 A 
ATOM      2  C   UNL     1      -1.497   1.153   0.000  0.00  0.00    +0.000 A 
ATOM      3  O   UNL     1      -2.211   1.565   0.000  0.00  0.00    +0.000 OA
ATOM      4  C   UNL     1      -1.497   0.328   0.000  0.00  0.00    +0.000 A 
ATOM      5  C   UNL     1      -0.068   1.153   0.000  0.00  0.00    +0.000 A 
ATOM      6  C   UNL     1       0.647   1.565   0.000  0.00  0.00    +0.000 C 
ATOM      7  C   UNL     1      -0.068   0.328   0.000  0.00  0.00    +0.000 A 
ATOM      8  C   UNL     1      -0.782  -0.085   0.000  0.00  0.00    +0.000 A 
ENDROOT
BRANCH   1  10
ATOM      9  O   UNL     1      -1.497   2.803   0.000  0.00  0.00    +0.000 OA
ATOM     10  C   UNL     1      -0.782   2.390   0.000  0.00  0.00    +0.000 C 
BRANCH  10  11
ATOM     11  O   UNL     1      -0.068   2.803   0.000  0.00  0.00    +0.000 OA
ATOM     12  C   UNL     1      -0.068   3.627   0.000  0.00  0.00    +0.000 C 
ENDBRANCH  10  11
ENDBRANCH   1  10
BRANCH   8  13
ATOM     13  O   UNL     1      -0.782  -0.910   0.000  0.00  0.00    +0.000 OA
BRANCH  13  14
ATOM     14  C   UNL     1      -0.068  -1.323   0.000  0.00  0.00    +0.000 A 
ATOM     15  C   UNL     1       0.647  -0.910   0.000  0.00  0.00    +0.000 A 
ATOM     16  C   UNL     1      -0.068  -2.147   0.000  0.00  0.00    +0.000 A 
ATOM     17  O   UNL     1      -0.782  -2.560   0.000  0.00  0.00    +0.000 OA
ATOM     18  C   UNL     1       0.647  -2.560   0.000  0.00  0.00    +0.000 A 
ATOM     19  O   UNL     1       0.647  -3.385   0.000  0.00  0.00    +0.000 OA
ATOM     20  C   UNL     1       1.361  -2.147   0.000  0.00  0.00    +0.000 A 
ATOM     21  C   UNL     1       1.361  -1.323   0.000  0.00  0.00    +0.000 A 
ATOM     22  C   UNL     1       2.076  -0.910   0.000  0.00  0.00    +0.000 C 
ENDBRANCH  13  14
ENDBRANCH   8  13
TORSDOF 4
