REMARK  Name = MGM
REMARK  15 active torsions:
REMARK  status: ('A' for Active; 'I' for Inactive)
REMARK    1  A    between atoms: C_4  and  C_5
REMARK    2  A    between atoms: C_5  and  C_8
REMARK    3  A    between atoms: C_7  and  C_8
REMARK    4  A    between atoms: C_9  and  C_10
REMARK    5  A    between atoms: C_10  and  C_11
REMARK    6  A    between atoms: C_11  and  C_12
REMARK    7  A    between atoms: C_14  and  C_15
REMARK    8  A    between atoms: C_15  and  C_16
REMARK    9  A    between atoms: C_16  and  N_17
REMARK   10  A    between atoms: N_17  and  C_19
REMARK   11  A    between atoms: C_19  and  C_20
REMARK   12  A    between atoms: C_20  and  O_21
REMARK   13  A    between atoms: O_21  and  P_22
REMARK   14  A    between atoms: P_22  and  O_24
REMARK   15  A    between atoms: O_24  and  P_26
REMARK                            x       y       z     vdW  Elec       q    Type
REMARK                         _______ _______ _______ _____ _____    ______ ____
ROOT
ATOM      1  C   UNL     1       0.082  -2.115   0.000  0.00  0.00    +0.000 C 
ENDROOT
BRANCH   1   4
ATOM      2  C   UNL     1      -0.633  -0.878   0.000  0.00  0.00    +0.000 C 
ATOM      3  C   UNL     1       0.082  -0.465   0.000  0.00  0.00    +0.000 C 
ATOM      4  C   UNL     1      -0.633  -1.703   0.000  0.00  0.00    +0.000 C 
BRANCH   2   5
ATOM      5  C   UNL     1      -1.347  -0.465   0.000  0.00  0.00    +0.000 C 
BRANCH   5   6
ATOM      6  C   UNL     1      -1.347   0.360   0.000  0.00  0.00    +0.000 C 
BRANCH   6   9
ATOM      7  C   UNL     1      -1.347   2.010   0.000  0.00  0.00    +0.000 C 
ATOM      8  C   UNL     1      -2.062   1.597   0.000  0.00  0.00    +0.000 C 
ATOM      9  C   UNL     1      -2.062   0.772   0.000  0.00  0.00    +0.000 C 
BRANCH   8  10
ATOM     10  C   UNL     1      -2.776   2.010   0.000  0.00  0.00    +0.000 C 
BRANCH  10  11
ATOM     11  C   UNL     1      -2.776   2.835   0.000  0.00  0.00    +0.000 C 
BRANCH  11  15
ATOM     12  C   UNL     1      -4.205   4.485   0.000  0.00  0.00    +0.000 C 
ATOM     13  C   UNL     1      -2.776   4.485   0.000  0.00  0.00    +0.000 C 
ATOM     14  C   UNL     1      -3.491   4.072   0.000  0.00  0.00    +0.000 C 
ATOM     15  C   UNL     1      -3.491   3.247   0.000  0.00  0.00    +0.000 C 
ENDBRANCH  11  15
ENDBRANCH  10  11
ENDBRANCH   8  10
ENDBRANCH   6   9
ENDBRANCH   5   6
ENDBRANCH   2   5
ENDBRANCH   1   4
BRANCH   1  16
ATOM     16  C   UNL     1       0.796  -1.703   0.000  0.00  0.00    +0.000 C 
BRANCH  16  17
ATOM     17  N   UNL     1       1.510  -2.115   0.000  0.00  0.00    +0.000 NA
ATOM     18  C   UNL     1       1.510  -2.940   0.000  0.00  0.00    +0.000 C 
BRANCH  17  19
ATOM     19  C   UNL     1       2.225  -1.703   0.000  0.00  0.00    +0.000 C 
BRANCH  19  20
ATOM     20  C   UNL     1       2.939  -2.115   0.000  0.00  0.00    +0.000 C 
BRANCH  20  21
ATOM     21  O   UNL     1       3.654  -1.703   0.000  0.00  0.00    +0.000 OA
BRANCH  21  22
ATOM     22  P   UNL     1       4.368  -2.115   0.000  0.00  0.00    +0.000 P 
ATOM     23  O   UNL     1       3.956  -2.830   0.000  0.00  0.00    +0.000 OA
ATOM     24  O   UNL     1       4.781  -1.401   0.000  0.00  0.00    +0.000 OA
BRANCH  22  25
ATOM     25  O   UNL     1       5.083  -2.528   0.000  0.00  0.00    +0.000 OA
BRANCH  25  26
ATOM     26  P   UNL     1       5.797  -2.115   0.000  0.00  0.00    +0.000 P 
ATOM     27  O   UNL     1       6.512  -1.703   0.000  0.00  0.00    +0.000 OA
ATOM     28  O   UNL     1       6.210  -2.830   0.000  0.00  0.00    +0.000 OA
ATOM     29  O   UNL     1       5.385  -1.401   0.000  0.00  0.00    +0.000 OA
ENDBRANCH  25  26
ENDBRANCH  22  25
ENDBRANCH  21  22
ENDBRANCH  20  21
ENDBRANCH  19  20
ENDBRANCH  17  19
ENDBRANCH  16  17
ENDBRANCH   1  16
TORSDOF 15
