REMARK  Name = MHB
REMARK  3 active torsions:
REMARK  status: ('A' for Active; 'I' for Inactive)
REMARK    1  A    between atoms: C_1  and  N_15
REMARK    2  A    between atoms: C_2  and  C_13
REMARK    3  A    between atoms: C_7  and  N_16
REMARK                            x       y       z     vdW  Elec       q    Type
REMARK                         _______ _______ _______ _____ _____    ______ ____
ROOT
ATOM      1  N   UNL     1       0.474  -0.574   0.000  0.00  0.00    +0.000 NA
ATOM      2  N   UNL     1      -0.240  -0.162   0.000  0.00  0.00    +0.000 NA
ENDROOT
BRANCH   2   3
ATOM      3  C   UNL     1      -0.240   0.663   0.000  0.00  0.00    +0.000 A 
ATOM      4  C   UNL     1      -0.955   1.076   0.000  0.00  0.00    +0.000 A 
ATOM      5  C   UNL     1      -0.955   1.901   0.000  0.00  0.00    +0.000 A 
ATOM      6  C   UNL     1      -0.240   2.313   0.000  0.00  0.00    +0.000 A 
ATOM      7  C   UNL     1       0.474   1.901   0.000  0.00  0.00    +0.000 A 
ATOM      8  C   UNL     1       0.474   1.076   0.000  0.00  0.00    +0.000 A 
ATOM      9  C   UNL     1      -1.669   2.313   0.000  0.00  0.00    +0.000 C 
ATOM     10  O   UNL     1      -0.240   3.138   0.000  0.00  0.00    +0.000 OA
ENDBRANCH   2   3
BRANCH   1  11
ATOM     11  C   UNL     1       0.474  -1.399   0.000  0.00  0.00    +0.000 A 
ATOM     12  C   UNL     1       1.188  -1.812   0.000  0.00  0.00    +0.000 A 
ATOM     13  C   UNL     1       1.188  -2.637   0.000  0.00  0.00    +0.000 A 
ATOM     14  C   UNL     1       0.474  -3.049   0.000  0.00  0.00    +0.000 A 
ATOM     15  C   UNL     1      -0.240  -2.637   0.000  0.00  0.00    +0.000 A 
ATOM     16  C   UNL     1      -0.240  -1.812   0.000  0.00  0.00    +0.000 A 
BRANCH  12  17
ATOM     17  C   UNL     1       1.903  -1.399   0.000  0.00  0.00    +0.000 C 
ATOM     18  O   UNL     1       2.617  -1.812   0.000  0.00  0.00    +0.000 OA
ATOM     19  O   UNL     1       1.903  -0.574   0.000  0.00  0.00    +0.000 OA
ENDBRANCH  12  17
ENDBRANCH   1  11
TORSDOF 3
