REMARK  Name = MHC
REMARK  2 active torsions:
REMARK  status: ('A' for Active; 'I' for Inactive)
REMARK    1  A    between atoms: C_2  and  C_3
REMARK    2  A    between atoms: C_3  and  C_4
REMARK                            x       y       z     vdW  Elec       q    Type
REMARK                         _______ _______ _______ _____ _____    ______ ____
ROOT
ATOM      1  C   UNL     1       1.677  -0.006   0.000  0.00  0.00    +0.000 C 
ATOM      2  O   UNL     1       2.229   0.608   0.000  0.00  0.00    +0.000 OA
ATOM      3  N   UNL     1       0.870   0.166   0.000  0.00  0.00    +0.000 N 
ATOM      4  C   UNL     1       0.615   0.951   0.000  0.00  0.00    +0.000 C 
ATOM      5  C   UNL     1      -0.192   1.122   0.000  0.00  0.00    +0.000 C 
ATOM      6  C   UNL     1      -0.744   0.509   0.000  0.00  0.00    +0.000 A 
ATOM      7  C   UNL     1      -0.489  -0.276   0.000  0.00  0.00    +0.000 A 
ATOM      8  C   UNL     1       0.318  -0.447   0.000  0.00  0.00    +0.000 C 
ATOM      9  N   UNL     1      -1.157  -0.761   0.000  0.00  0.00    +0.000 NA
ATOM     10  C   UNL     1      -1.569   0.509   0.000  0.00  0.00    +0.000 A 
ATOM     11  C   UNL     1      -1.824  -0.276   0.000  0.00  0.00    +0.000 A 
ATOM     12  C   UNL     1      -2.631  -0.447   0.000  0.00  0.00    +0.000 A 
ATOM     13  C   UNL     1      -2.121   1.122   0.000  0.00  0.00    +0.000 A 
ATOM     14  C   UNL     1      -2.928   0.951   0.000  0.00  0.00    +0.000 A 
ATOM     15  C   UNL     1      -3.183   0.166   0.000  0.00  0.00    +0.000 A 
ENDROOT
BRANCH   1  16
ATOM     16  C   UNL     1       1.932  -0.790   0.000  0.00  0.00    +0.000 C 
BRANCH  16  18
ATOM     17  S   UNL     1       2.994  -1.746   0.000  0.00  0.00    +0.000 S 
ATOM     18  C   UNL     1       2.739  -0.962   0.000  0.00  0.00    +0.000 C 
ENDBRANCH  16  18
ENDBRANCH   1  16
TORSDOF 2
