REMARK  Name = MHR
REMARK  4 active torsions:
REMARK  status: ('A' for Active; 'I' for Inactive)
REMARK    1  A    between atoms: C_3  and  O_17
REMARK    2  A    between atoms: C_4  and  C_11
REMARK    3  A    between atoms: O_17  and  C_18
REMARK    4  A    between atoms: C_18  and  C_19
REMARK                            x       y       z     vdW  Elec       q    Type
REMARK                         _______ _______ _______ _____ _____    ______ ____
ROOT
ATOM      1  C   UNL     1       1.802  -1.487   0.000  0.00  0.00    +0.000 A 
ATOM      2  C   UNL     1       1.802  -2.312   0.000  0.00  0.00    +0.000 A 
ATOM      3  C   UNL     1       1.087  -1.074   0.000  0.00  0.00    +0.000 A 
ATOM      4  C   UNL     1      -0.412  -1.232   0.000  0.00  0.00    +0.000 A 
ATOM      5  C   UNL     1      -0.897  -1.899   0.000  0.00  0.00    +0.000 A 
ATOM      6  N   UNL     1      -0.412  -2.567   0.000  0.00  0.00    +0.000 NA
ATOM      7  C   UNL     1       0.373  -2.312   0.000  0.00  0.00    +0.000 A 
ATOM      8  N   UNL     1       1.087  -2.724   0.000  0.00  0.00    +0.000 NA
ATOM      9  C   UNL     1       0.373  -1.487   0.000  0.00  0.00    +0.000 A 
ENDROOT
BRANCH   4  10
ATOM     10  C   UNL     1      -0.667  -0.447   0.000  0.00  0.00    +0.000 A 
ATOM     11  N   UNL     1       0.182   1.564   0.000  0.00  0.00    +0.000 NA
ATOM     12  C   UNL     1      -0.370   0.951   0.000  0.00  0.00    +0.000 A 
ATOM     13  N   UNL     1      -1.177   1.122   0.000  0.00  0.00    +0.000 NA
ATOM     14  C   UNL     1      -1.729   0.509   0.000  0.00  0.00    +0.000 A 
ATOM     15  C   UNL     1      -1.474  -0.276   0.000  0.00  0.00    +0.000 A 
ATOM     16  N   UNL     1      -0.115   0.166   0.000  0.00  0.00    +0.000 NA
ENDBRANCH   4  10
BRANCH   3  17
ATOM     17  O   UNL     1       1.087  -0.249   0.000  0.00  0.00    +0.000 OA
BRANCH  17  18
ATOM     18  C   UNL     1       0.373   0.163   0.000  0.00  0.00    +0.000 C 
BRANCH  18  19
ATOM     19  C   UNL     1       0.373   0.988   0.000  0.00  0.00    +0.000 C 
ATOM     20  C   UNL     1       1.087   1.401   0.000  0.00  0.00    +0.000 C 
ENDBRANCH  18  19
ENDBRANCH  17  18
ENDBRANCH   3  17
TORSDOF 4
