REMARK  Name = MI2
REMARK  2 active torsions:
REMARK  status: ('A' for Active; 'I' for Inactive)
REMARK    1  A    between atoms: C_4  and  C_6
REMARK    2  A    between atoms: C_15  and  C_17
REMARK                            x       y       z     vdW  Elec       q    Type
REMARK                         _______ _______ _______ _____ _____    ______ ____
ROOT
ATOM      1  C   UNL     1       0.801  -0.406   0.000  0.00  0.00    +0.000 A 
ATOM      2  C   UNL     1       0.801   0.419   0.000  0.00  0.00    +0.000 A 
ATOM      3  N   UNL     1       0.016   0.674   0.000  0.00  0.00    +0.000 NA
ATOM      4  C   UNL     1      -0.469   0.006   0.000  0.00  0.00    +0.000 A 
ATOM      5  C   UNL     1       0.016  -0.661   0.000  0.00  0.00    +0.000 A 
ATOM      6  C   UNL     1       1.515   0.832   0.000  0.00  0.00    +0.000 A 
ATOM      7  C   UNL     1       2.230   0.419   0.000  0.00  0.00    +0.000 A 
ATOM      8  C   UNL     1       2.230  -0.406   0.000  0.00  0.00    +0.000 A 
ATOM      9  C   UNL     1       1.515  -0.819   0.000  0.00  0.00    +0.000 A 
ENDROOT
BRANCH   4  10
ATOM     10  C   UNL     1      -1.294   0.006   0.000  0.00  0.00    +0.000 A 
ATOM     11  C   UNL     1      -1.706  -0.708   0.000  0.00  0.00    +0.000 A 
ATOM     12  C   UNL     1      -2.531  -0.708   0.000  0.00  0.00    +0.000 A 
ATOM     13  C   UNL     1      -2.944   0.006   0.000  0.00  0.00    +0.000 A 
ATOM     14  C   UNL     1      -2.531   0.721   0.000  0.00  0.00    +0.000 A 
ATOM     15  C   UNL     1      -1.706   0.721   0.000  0.00  0.00    +0.000 A 
ATOM     16  C   UNL     1      -1.294   1.435   0.000  0.00  0.00    +0.000 C 
ENDBRANCH   4  10
BRANCH   8  17
ATOM     17  C   UNL     1       2.944  -0.819   0.000  0.00  0.00    +0.000 C 
ATOM     18  N   UNL     1       3.659  -0.406   0.000  0.00  0.00    +0.000 NA
ATOM     19  N   UNL     1       2.944  -1.643   0.000  0.00  0.00    +0.000 NA
ENDBRANCH   8  17
TORSDOF 2
