REMARK  Name = MIA
REMARK  8 active torsions:
REMARK  status: ('A' for Active; 'I' for Inactive)
REMARK    1  A    between atoms: P_2  and  O_5
REMARK    2  A    between atoms: O_5  and  C_6
REMARK    3  A    between atoms: C_6  and  C_7
REMARK    4  A    between atoms: C_13  and  N_14
REMARK    5  A    between atoms: N_19  and  C_26
REMARK    6  A    between atoms: C_21  and  S_24
REMARK    7  A    between atoms: C_26  and  C_27
REMARK    8  A    between atoms: C_27  and  C_28
REMARK                            x       y       z     vdW  Elec       q    Type
REMARK                         _______ _______ _______ _____ _____    ______ ____
ROOT
ATOM      1  N   UNL     1      -0.724   0.456   0.000  0.00  0.00    +0.000 N 
ATOM      2  C   UNL     1      -0.388   1.210   0.000  0.00  0.00    +0.000 A 
ATOM      3  N   UNL     1       0.432   1.123   0.000  0.00  0.00    +0.000 NA
ATOM      4  C   UNL     1       0.604   0.316   0.000  0.00  0.00    +0.000 A 
ATOM      5  C   UNL     1       1.318  -0.096   0.000  0.00  0.00    +0.000 A 
ATOM      6  N   UNL     1       2.033   0.316   0.000  0.00  0.00    +0.000 NA
ATOM      7  N   UNL     1       1.318  -0.921   0.000  0.00  0.00    +0.000 NA
ATOM      8  C   UNL     1       0.604  -1.334   0.000  0.00  0.00    +0.000 A 
ATOM      9  N   UNL     1      -0.111  -0.921   0.000  0.00  0.00    +0.000 NA
ATOM     10  C   UNL     1      -0.111  -0.096   0.000  0.00  0.00    +0.000 A 
ENDROOT
BRANCH   1  17
ATOM     11  C   UNL     1      -2.858   0.424   0.000  0.00  0.00    +0.000 C 
ATOM     12  O   UNL     1      -2.144   0.836   0.000  0.00  0.00    +0.000 OA
ATOM     13  C   UNL     1      -2.687  -0.383   0.000  0.00  0.00    +0.000 C 
ATOM     14  O   UNL     1      -3.239  -0.996   0.000  0.00  0.00    +0.000 OA
ATOM     15  C   UNL     1      -1.866  -0.469   0.000  0.00  0.00    +0.000 C 
ATOM     16  O   UNL     1      -1.454  -1.184   0.000  0.00  0.00    +0.000 OA
ATOM     17  C   UNL     1      -1.531   0.284   0.000  0.00  0.00    +0.000 C 
BRANCH  11  18
ATOM     18  C   UNL     1      -3.612   0.759   0.000  0.00  0.00    +0.000 C 
BRANCH  18  19
ATOM     19  O   UNL     1      -4.279   0.274   0.000  0.00  0.00    +0.000 OA
BRANCH  19  21
ATOM     20  O   UNL     1      -5.787   0.946   0.000  0.00  0.00    +0.000 OA
ATOM     21  P   UNL     1      -5.033   0.610   0.000  0.00  0.00    +0.000 P 
ATOM     22  O   UNL     1      -5.369  -0.144   0.000  0.00  0.00    +0.000 OA
ATOM     23  O   UNL     1      -4.697   1.364   0.000  0.00  0.00    +0.000 OA
ENDBRANCH  19  21
ENDBRANCH  18  19
ENDBRANCH  11  18
ENDBRANCH   1  17
BRANCH   8  24
ATOM     24  S   UNL     1       0.604  -2.159   0.000  0.00  0.00    +0.000 S 
ATOM     25  C   UNL     1      -0.111  -2.571   0.000  0.00  0.00    +0.000 C 
ENDBRANCH   8  24
BRANCH   6  26
ATOM     26  C   UNL     1       2.747  -0.096   0.000  0.00  0.00    +0.000 C 
BRANCH  26  27
ATOM     27  C   UNL     1       3.462   0.316   0.000  0.00  0.00    +0.000 C 
BRANCH  27  28
ATOM     28  C   UNL     1       4.176  -0.096   0.000  0.00  0.00    +0.000 C 
ATOM     29  C   UNL     1       4.891   0.316   0.000  0.00  0.00    +0.000 C 
ATOM     30  C   UNL     1       4.176  -0.921   0.000  0.00  0.00    +0.000 C 
ENDBRANCH  27  28
ENDBRANCH  26  27
ENDBRANCH   6  26
TORSDOF 8
