REMARK  Name = MKC
REMARK  6 active torsions:
REMARK  status: ('A' for Active; 'I' for Inactive)
REMARK    1  A    between atoms: C_1  and  C_15
REMARK    2  A    between atoms: C_7  and  C_15
REMARK    3  A    between atoms: N_8  and  C_19
REMARK    4  A    between atoms: C_14  and  C_16
REMARK    5  A    between atoms: C_19  and  O_20
REMARK    6  A    between atoms: O_20  and  C_21
REMARK                            x       y       z     vdW  Elec       q    Type
REMARK                         _______ _______ _______ _____ _____    ______ ____
ROOT
ATOM      1  C   UNL     1       0.341   0.467   0.000  0.00  0.00    +0.000 A 
ATOM      2  N   UNL     1      -0.373   0.054   0.000  0.00  0.00    +0.000 N 
ATOM      3  C   UNL     1      -1.088   0.467   0.000  0.00  0.00    +0.000 A 
ATOM      4  O   UNL     1      -1.802   0.054   0.000  0.00  0.00    +0.000 OA
ATOM      5  N   UNL     1      -1.088   1.292   0.000  0.00  0.00    +0.000 NA
ATOM      6  C   UNL     1      -0.373   1.704   0.000  0.00  0.00    +0.000 A 
ATOM      7  O   UNL     1      -0.373   2.529   0.000  0.00  0.00    +0.000 OA
ATOM      8  C   UNL     1       0.341   1.292   0.000  0.00  0.00    +0.000 A 
ENDROOT
BRANCH   8   9
ATOM      9  C   UNL     1       1.055   1.704   0.000  0.00  0.00    +0.000 C 
ATOM     10  C   UNL     1       1.055   2.529   0.000  0.00  0.00    +0.000 C 
ATOM     11  C   UNL     1       1.770   1.292   0.000  0.00  0.00    +0.000 C 
ENDBRANCH   8   9
BRANCH   1  12
ATOM     12  C   UNL     1       1.055   0.054   0.000  0.00  0.00    +0.000 C 
BRANCH  12  13
ATOM     13  C   UNL     1       1.055  -0.771   0.000  0.00  0.00    +0.000 A 
ATOM     14  C   UNL     1       1.770  -1.183   0.000  0.00  0.00    +0.000 A 
ATOM     15  C   UNL     1       1.770  -2.008   0.000  0.00  0.00    +0.000 A 
ATOM     16  C   UNL     1       1.055  -2.421   0.000  0.00  0.00    +0.000 A 
ATOM     17  C   UNL     1       0.341  -2.008   0.000  0.00  0.00    +0.000 A 
ATOM     18  C   UNL     1       0.341  -1.183   0.000  0.00  0.00    +0.000 A 
ENDBRANCH  12  13
ENDBRANCH   1  12
BRANCH   2  19
ATOM     19  C   UNL     1      -0.373  -0.771   0.000  0.00  0.00    +0.000 C 
BRANCH  19  20
ATOM     20  O   UNL     1      -1.088  -1.183   0.000  0.00  0.00    +0.000 OA
BRANCH  20  21
ATOM     21  C   UNL     1      -1.802  -0.771   0.000  0.00  0.00    +0.000 C 
ATOM     22  C   UNL     1      -2.517  -1.183   0.000  0.00  0.00    +0.000 C 
ENDBRANCH  20  21
ENDBRANCH  19  20
ENDBRANCH   2  19
TORSDOF 6
