REMARK  Name = ML2
REMARK  4 active torsions:
REMARK  status: ('A' for Active; 'I' for Inactive)
REMARK    1  A    between atoms: C_6  and  C_7
REMARK    2  A    between atoms: C_7  and  C_17
REMARK    3  A    between atoms: N_8  and  C_17
REMARK    4  A    between atoms: C_13  and  O_14
REMARK                            x       y       z     vdW  Elec       q    Type
REMARK                         _______ _______ _______ _____ _____    ______ ____
ROOT
ATOM      1  C   UNL     1      -0.676  -0.673   0.000  0.00  0.00    +0.000 A 
ATOM      2  C   UNL     1      -1.896  -0.130   0.000  0.00  0.00    +0.000 A 
ATOM      3  C   UNL     1      -2.703   0.042   0.000  0.00  0.00    +0.000 A 
ATOM      4  C   UNL     1      -2.958   0.826   0.000  0.00  0.00    +0.000 A 
ATOM      5  C   UNL     1      -0.590   0.148   0.000  0.00  0.00    +0.000 A 
ATOM      6  I   UNL     1      -0.063  -1.225   0.000  0.00  0.00    +0.000 I 
ATOM      7  N   UNL     1      -1.483  -0.844   0.000  0.00  0.00    +0.000 NA
ATOM      8  C   UNL     1      -2.406   1.440   0.000  0.00  0.00    +0.000 A 
ATOM      9  C   UNL     1      -1.599   1.268   0.000  0.00  0.00    +0.000 A 
ATOM     10  C   UNL     1      -1.344   0.483   0.000  0.00  0.00    +0.000 A 
ENDROOT
BRANCH   8  12
ATOM     11  C   UNL     1      -3.468   2.396   0.000  0.00  0.00    +0.000 C 
ATOM     12  O   UNL     1      -2.661   2.224   0.000  0.00  0.00    +0.000 OA
ENDBRANCH   8  12
BRANCH   5  13
ATOM     13  C   UNL     1       0.124   0.560   0.000  0.00  0.00    +0.000 C 
BRANCH  13  14
ATOM     14  C   UNL     1       0.839   0.148   0.000  0.00  0.00    +0.000 C 
BRANCH  14  15
ATOM     15  N   UNL     1       1.553   0.560   0.000  0.00  0.00    +0.000 NA
ATOM     16  C   UNL     1       2.268   0.148   0.000  0.00  0.00    +0.000 C 
ATOM     17  C   UNL     1       2.982   0.560   0.000  0.00  0.00    +0.000 C 
ATOM     18  O   UNL     1       2.268  -0.677   0.000  0.00  0.00    +0.000 OA
ENDBRANCH  14  15
ENDBRANCH  13  14
ENDBRANCH   5  13
TORSDOF 4
