REMARK  Name = MLN
REMARK  12 active torsions:
REMARK  status: ('A' for Active; 'I' for Inactive)
REMARK    1  A    between atoms: P_2  and  O_4
REMARK    2  A    between atoms: O_4  and  C_6
REMARK    3  A    between atoms: C_6  and  C_7
REMARK    4  A    between atoms: C_6  and  C_8
REMARK    5  A    between atoms: C_8  and  C_9
REMARK    6  A    between atoms: C_9  and  C_10
REMARK    7  A    between atoms: N_13  and  C_14
REMARK    8  A    between atoms: C_14  and  C_15
REMARK    9  A    between atoms: C_14  and  C_19
REMARK   10  A    between atoms: C_15  and  C_16
REMARK   11  A    between atoms: N_20  and  C_22
REMARK   12  A    between atoms: C_25  and  N_28
REMARK                            x       y       z     vdW  Elec       q    Type
REMARK                         _______ _______ _______ _____ _____    ______ ____
ROOT
ATOM      1  C   UNL     1       3.251   0.206   0.000  0.00  0.00    +0.000 C 
ENDROOT
BRANCH   1   4
ATOM      2  C   UNL     1       4.680   0.206   0.000  0.00  0.00    +0.000 C 
ATOM      3  O   UNL     1       4.680  -0.619   0.000  0.00  0.00    +0.000 OA
ATOM      4  N   UNL     1       3.965   0.619   0.000  0.00  0.00    +0.000 NA
BRANCH   2   5
ATOM      5  C   UNL     1       5.394   0.619   0.000  0.00  0.00    +0.000 C 
BRANCH   5   6
ATOM      6  C   UNL     1       6.109   0.206   0.000  0.00  0.00    +0.000 C 
BRANCH   6   7
ATOM      7  C   UNL     1       6.823   0.619   0.000  0.00  0.00    +0.000 C 
BRANCH   7   8
ATOM      8  C   UNL     1       7.537   0.206   0.000  0.00  0.00    +0.000 C 
ATOM      9  C   UNL     1       7.537  -0.619   0.000  0.00  0.00    +0.000 C 
ENDBRANCH   7   8
ENDBRANCH   6   7
ENDBRANCH   5   6
BRANCH   5  10
ATOM     10  O   UNL     1       5.394   1.444   0.000  0.00  0.00    +0.000 OA
BRANCH  10  12
ATOM     11  O   UNL     1       3.965   2.269   0.000  0.00  0.00    +0.000 OA
ATOM     12  P   UNL     1       4.680   1.856   0.000  0.00  0.00    +0.000 P 
ATOM     13  O   UNL     1       5.092   2.571   0.000  0.00  0.00    +0.000 OA
ATOM     14  O   UNL     1       4.267   1.142   0.000  0.00  0.00    +0.000 OA
ENDBRANCH  10  12
ENDBRANCH   5  10
ENDBRANCH   2   5
ENDBRANCH   1   4
BRANCH   1  15
ATOM     15  C   UNL     1       2.536   0.619   0.000  0.00  0.00    +0.000 C 
ATOM     16  N   UNL     1       1.822   0.206   0.000  0.00  0.00    +0.000 NA
ATOM     17  O   UNL     1       2.536   1.444   0.000  0.00  0.00    +0.000 OA
BRANCH  16  18
ATOM     18  C   UNL     1       1.107   0.619   0.000  0.00  0.00    +0.000 A 
ATOM     19  C   UNL     1       0.393   0.206   0.000  0.00  0.00    +0.000 A 
ATOM     20  C   UNL     1      -0.322   0.619   0.000  0.00  0.00    +0.000 A 
ATOM     21  C   UNL     1      -0.322   1.444   0.000  0.00  0.00    +0.000 A 
ATOM     22  C   UNL     1       0.393   1.856   0.000  0.00  0.00    +0.000 A 
ATOM     23  C   UNL     1       1.107   1.444   0.000  0.00  0.00    +0.000 A 
BRANCH  21  24
ATOM     24  N   UNL     1      -1.036   1.856   0.000  0.00  0.00    +0.000 N 
ATOM     25  O   UNL     1      -1.751   1.444   0.000  0.00  0.00    +0.000 OA
ATOM     26  O   UNL     1      -1.036   2.681   0.000  0.00  0.00    +0.000 OA
ENDBRANCH  21  24
ENDBRANCH  16  18
ENDBRANCH   1  15
BRANCH   1  27
ATOM     27  C   UNL     1       3.251  -0.619   0.000  0.00  0.00    +0.000 C 
BRANCH  27  28
ATOM     28  C   UNL     1       2.536  -1.031   0.000  0.00  0.00    +0.000 C 
ATOM     29  C   UNL     1       2.536  -1.856   0.000  0.00  0.00    +0.000 C 
ATOM     30  C   UNL     1       1.822  -0.619   0.000  0.00  0.00    +0.000 C 
ENDBRANCH  27  28
ENDBRANCH   1  27
TORSDOF 12
