REMARK  Name = MM3
REMARK  4 active torsions:
REMARK  status: ('A' for Active; 'I' for Inactive)
REMARK    1  A    between atoms: C_1  and  S_9
REMARK    2  A    between atoms: C_4  and  O_7
REMARK    3  A    between atoms: S_9  and  N_12
REMARK    4  A    between atoms: C_13  and  C_21
REMARK                            x       y       z     vdW  Elec       q    Type
REMARK                         _______ _______ _______ _____ _____    ______ ____
ROOT
ATOM      1  N   UNL     1       0.759   0.546   0.000  0.00  0.00    +0.000 NA
ATOM      2  C   UNL     1       0.015   0.904   0.000  0.00  0.00    +0.000 C 
ATOM      3  C   UNL     1      -0.168   1.708   0.000  0.00  0.00    +0.000 C 
ATOM      4  S   UNL     1       0.346   2.353   0.000  0.00  0.00    +0.000 S 
ATOM      5  C   UNL     1       1.171   2.353   0.000  0.00  0.00    +0.000 C 
ATOM      6  C   UNL     1       1.685   1.708   0.000  0.00  0.00    +0.000 C 
ATOM      7  C   UNL     1       1.502   0.904   0.000  0.00  0.00    +0.000 C 
ATOM      8  C   UNL     1      -0.968   1.506   0.000  0.00  0.00    +0.000 C 
ATOM      9  C   UNL     1      -0.802   2.237   0.000  0.00  0.00    +0.000 C 
ENDROOT
BRANCH   2  10
ATOM     10  C   UNL     1      -0.630   0.389   0.000  0.00  0.00    +0.000 C 
ATOM     11  N   UNL     1      -1.398   0.691   0.000  0.00  0.00    +0.000 NA
ATOM     12  O   UNL     1      -2.043   0.176   0.000  0.00  0.00    +0.000 OA
ATOM     13  O   UNL     1      -0.507  -0.427   0.000  0.00  0.00    +0.000 OA
ENDBRANCH   2  10
BRANCH   1  14
ATOM     14  S   UNL     1       0.759  -0.279   0.000  0.00  0.00    +0.000 S 
ATOM     15  O   UNL     1       1.584  -0.279   0.000  0.00  0.00    +0.000 OA
ATOM     16  O   UNL     1      -0.066  -0.279   0.000  0.00  0.00    +0.000 OA
BRANCH  14  17
ATOM     17  C   UNL     1       0.759  -1.104   0.000  0.00  0.00    +0.000 A 
ATOM     18  C   UNL     1       1.473  -1.517   0.000  0.00  0.00    +0.000 A 
ATOM     19  C   UNL     1       1.473  -2.342   0.000  0.00  0.00    +0.000 A 
ATOM     20  C   UNL     1       0.759  -2.754   0.000  0.00  0.00    +0.000 A 
ATOM     21  C   UNL     1       0.044  -2.342   0.000  0.00  0.00    +0.000 A 
ATOM     22  C   UNL     1       0.044  -1.517   0.000  0.00  0.00    +0.000 A 
BRANCH  20  23
ATOM     23  O   UNL     1       0.759  -3.579   0.000  0.00  0.00    +0.000 OA
ATOM     24  C   UNL     1       0.044  -3.992   0.000  0.00  0.00    +0.000 C 
ENDBRANCH  20  23
ENDBRANCH  14  17
ENDBRANCH   1  14
TORSDOF 4
