REMARK  Name = MMG
REMARK  3 active torsions:
REMARK  status: ('A' for Active; 'I' for Inactive)
REMARK    1  A    between atoms: C_7  and  C_18
REMARK    2  A    between atoms: C_8  and  C_10
REMARK    3  A    between atoms: C_17  and  C_19
REMARK                            x       y       z     vdW  Elec       q    Type
REMARK                         _______ _______ _______ _____ _____    ______ ____
ROOT
ATOM      1  C   UNL     1       0.542   0.488   0.000  0.00  0.00    +0.000 A 
ATOM      2  C   UNL     1      -0.173   0.901   0.000  0.00  0.00    +0.000 A 
ATOM      3  C   UNL     1      -1.442   1.313   0.000  0.00  0.00    +0.000 A 
ATOM      4  C   UNL     1       1.256   1.726   0.000  0.00  0.00    +0.000 A 
ATOM      5  C   UNL     1       1.256   0.901   0.000  0.00  0.00    +0.000 A 
ATOM      6  C   UNL     1      -0.958   0.646   0.000  0.00  0.00    +0.000 A 
ATOM      7  C   UNL     1      -0.173   1.726   0.000  0.00  0.00    +0.000 A 
ATOM      8  N   UNL     1      -0.958   1.981   0.000  0.00  0.00    +0.000 NA
ATOM      9  N   UNL     1       0.542   2.138   0.000  0.00  0.00    +0.000 NA
ENDROOT
BRANCH   5  12
ATOM     10  C   UNL     1       1.970  -0.337   0.000  0.00  0.00    +0.000 A 
ATOM     11  C   UNL     1       2.685   0.901   0.000  0.00  0.00    +0.000 A 
ATOM     12  C   UNL     1       1.970   0.488   0.000  0.00  0.00    +0.000 A 
ATOM     13  C   UNL     1       3.400  -0.337   0.000  0.00  0.00    +0.000 A 
ATOM     14  C   UNL     1       2.685  -0.749   0.000  0.00  0.00    +0.000 A 
ATOM     15  C   UNL     1       3.400   0.488   0.000  0.00  0.00    +0.000 A 
ENDBRANCH   5  12
BRANCH   6  21
ATOM     16  C   UNL     1      -2.019  -0.310   0.000  0.00  0.00    +0.000 A 
ATOM     17  C   UNL     1      -0.660  -0.752   0.000  0.00  0.00    +0.000 A 
ATOM     18  C   UNL     1      -2.274  -1.095   0.000  0.00  0.00    +0.000 A 
ATOM     19  C   UNL     1      -1.722  -1.708   0.000  0.00  0.00    +0.000 A 
ATOM     20  C   UNL     1      -0.915  -1.537   0.000  0.00  0.00    +0.000 A 
ATOM     21  C   UNL     1      -1.212  -0.139   0.000  0.00  0.00    +0.000 A 
BRANCH  19  22
ATOM     22  C   UNL     1      -1.977  -2.493   0.000  0.00  0.00    +0.000 C 
ATOM     23  O   UNL     1      -1.425  -3.106   0.000  0.00  0.00    +0.000 OA
ATOM     24  O   UNL     1      -2.784  -2.664   0.000  0.00  0.00    +0.000 OA
ENDBRANCH  19  22
ENDBRANCH   6  21
TORSDOF 3
