REMARK  Name = MN8
REMARK  3 active torsions:
REMARK  status: ('A' for Active; 'I' for Inactive)
REMARK    1  A    between atoms: C_1  and  CA_4
REMARK    2  A    between atoms: C_5  and  C_6
REMARK    3  A    between atoms: C_10  and  C_12
REMARK                            x       y       z     vdW  Elec       q    Type
REMARK                         _______ _______ _______ _____ _____    ______ ____
ROOT
ATOM      1  CA  UNL     1      -1.589   0.159   0.000  0.00  0.00    +0.000 A 
ATOM      2  C   UNL     1      -1.176   0.873   0.000  0.00  0.00    +0.000 A 
ATOM      3  S   UNL     1      -0.369   0.702   0.000  0.00  0.00    +0.000 S 
ATOM      4  C   UNL     1      -0.283  -0.119   0.000  0.00  0.00    +0.000 A 
ATOM      5  N   UNL     1      -1.037  -0.454   0.000  0.00  0.00    +0.000 NA
ENDROOT
BRANCH   4   6
ATOM      6  C   UNL     1       0.431  -0.531   0.000  0.00  0.00    +0.000 C 
ATOM      7  N   UNL     1       0.431  -1.356   0.000  0.00  0.00    +0.000 NA
ATOM      8  C   UNL     1       1.146  -1.769   0.000  0.00  0.00    +0.000 C 
ATOM      9  C   UNL     1       1.860  -1.356   0.000  0.00  0.00    +0.000 A 
ATOM     10  C   UNL     1       1.860  -0.531   0.000  0.00  0.00    +0.000 A 
ATOM     11  C   UNL     1       1.146  -0.119   0.000  0.00  0.00    +0.000 C 
ATOM     12  C   UNL     1       2.575  -0.119   0.000  0.00  0.00    +0.000 A 
ATOM     13  C   UNL     1       3.289  -0.531   0.000  0.00  0.00    +0.000 A 
ATOM     14  C   UNL     1       3.289  -1.356   0.000  0.00  0.00    +0.000 A 
ATOM     15  C   UNL     1       2.575  -1.769   0.000  0.00  0.00    +0.000 A 
ENDBRANCH   4   6
BRANCH   1  16
ATOM     16  C   UNL     1      -2.409   0.072   0.000  0.00  0.00    +0.000 C 
ATOM     17  O   UNL     1      -2.894   0.740   0.000  0.00  0.00    +0.000 OA
ATOM     18  OXT UNL     1      -2.745  -0.681   0.000  0.00  0.00    +0.000 OA
ENDBRANCH   1  16
BRANCH   2  19
ATOM     19  C   UNL     1      -1.512   1.627   0.000  0.00  0.00    +0.000 C 
ATOM     20  C   UNL     1      -1.027   2.294   0.000  0.00  0.00    +0.000 C 
ATOM     21  C   UNL     1      -2.332   1.713   0.000  0.00  0.00    +0.000 C 
ENDBRANCH   2  19
TORSDOF 3
