REMARK  Name = MNP
REMARK  3 active torsions:
REMARK  status: ('A' for Active; 'I' for Inactive)
REMARK    1  A    between atoms: C_1  and  C_2
REMARK    2  A    between atoms: C_2  and  C_3
REMARK    3  A    between atoms: C_5  and  N_6
REMARK                            x       y       z     vdW  Elec       q    Type
REMARK                         _______ _______ _______ _____ _____    ______ ____
ROOT
ATOM      1  C   UNL     1       0.280   0.407   0.000  0.00  0.00    +0.000 A 
ATOM      2  C   UNL     1       0.280  -0.418   0.000  0.00  0.00    +0.000 A 
ATOM      3  C   UNL     1      -0.435  -0.830   0.000  0.00  0.00    +0.000 A 
ATOM      4  C   UNL     1      -1.149  -0.418   0.000  0.00  0.00    +0.000 A 
ATOM      5  C   UNL     1      -1.149   0.407   0.000  0.00  0.00    +0.000 A 
ATOM      6  C   UNL     1      -0.435   0.820   0.000  0.00  0.00    +0.000 A 
ENDROOT
BRANCH   3   7
ATOM      7  N   UNL     1      -0.435  -1.655   0.000  0.00  0.00    +0.000 N 
ATOM      8  O   UNL     1      -1.149  -2.068   0.000  0.00  0.00    +0.000 OA
ATOM      9  O   UNL     1       0.280  -2.068   0.000  0.00  0.00    +0.000 OA
ENDBRANCH   3   7
BRANCH   1  10
ATOM     10  C   UNL     1       0.994   0.820   0.000  0.00  0.00    +0.000 C 
BRANCH  10  11
ATOM     11  C   UNL     1       1.708   0.407   0.000  0.00  0.00    +0.000 C 
ATOM     12  O   UNL     1       2.423   0.820   0.000  0.00  0.00    +0.000 OA
ATOM     13  O   UNL     1       1.708  -0.418   0.000  0.00  0.00    +0.000 OA
ENDBRANCH  10  11
ENDBRANCH   1  10
TORSDOF 3
