REMARK  Name = MNS
REMARK  2 active torsions:
REMARK  status: ('A' for Active; 'I' for Inactive)
REMARK    1  A    between atoms: C_1  and  S_14
REMARK    2  A    between atoms: C_6  and  N_11
REMARK                            x       y       z     vdW  Elec       q    Type
REMARK                         _______ _______ _______ _____ _____    ______ ____
ROOT
ATOM      1  C   UNL     1      -0.822  -1.027   0.000  0.00  0.00    +0.000 A 
ATOM      2  C   UNL     1      -1.536  -0.614   0.000  0.00  0.00    +0.000 A 
ATOM      3  C   UNL     1      -1.536   0.211   0.000  0.00  0.00    +0.000 A 
ATOM      4  C   UNL     1      -0.822   0.623   0.000  0.00  0.00    +0.000 A 
ATOM      5  C   UNL     1      -0.107   0.211   0.000  0.00  0.00    +0.000 A 
ATOM      6  C   UNL     1       0.608   0.623   0.000  0.00  0.00    +0.000 A 
ATOM      7  C   UNL     1       1.322   0.211   0.000  0.00  0.00    +0.000 A 
ATOM      8  C   UNL     1       1.322  -0.614   0.000  0.00  0.00    +0.000 A 
ATOM      9  C   UNL     1       0.608  -1.027   0.000  0.00  0.00    +0.000 A 
ATOM     10  C   UNL     1      -0.107  -0.614   0.000  0.00  0.00    +0.000 A 
ENDROOT
BRANCH   1  11
ATOM     11  S   UNL     1      -0.822  -1.852   0.000  0.00  0.00    +0.000 S 
ATOM     12  O   UNL     1      -0.822  -2.677   0.000  0.00  0.00    +0.000 OA
ATOM     13  O   UNL     1      -1.647  -1.852   0.000  0.00  0.00    +0.000 OA
ATOM     14  N   UNL     1       0.004  -1.852   0.000  0.00  0.00    +0.000 NA
ENDBRANCH   1  11
BRANCH   6  15
ATOM     15  N   UNL     1       0.608   1.448   0.000  0.00  0.00    +0.000 N 
ATOM     16  C   UNL     1       1.322   1.861   0.000  0.00  0.00    +0.000 C 
ATOM     17  C   UNL     1      -0.107   1.861   0.000  0.00  0.00    +0.000 C 
ENDBRANCH   6  15
TORSDOF 2
