REMARK  Name = MNY
REMARK  0 active torsions:
REMARK  status: ('A' for Active; 'I' for Inactive)
REMARK                            x       y       z     vdW  Elec       q    Type
REMARK                         _______ _______ _______ _____ _____    ______ ____
ROOT
ATOM      1  C   UNL     1       1.524  -0.761   0.000  0.00  0.00    +0.000 A 
ATOM      2  C   UNL     1       0.810  -0.348   0.000  0.00  0.00    +0.000 A 
ATOM      3  C   UNL     1       0.810   0.477   0.000  0.00  0.00    +0.000 A 
ATOM      4  C   UNL     1       1.524   0.889   0.000  0.00  0.00    +0.000 A 
ATOM      5  C   UNL     1       2.239   0.477   0.000  0.00  0.00    +0.000 A 
ATOM      6  C   UNL     1       2.239  -0.348   0.000  0.00  0.00    +0.000 A 
ATOM      7  C   UNL     1       0.095   0.889   0.000  0.00  0.00    +0.000 C 
ATOM      8  C   UNL     1      -0.619   0.477   0.000  0.00  0.00    +0.000 A 
ATOM      9  C   UNL     1      -0.619  -0.348   0.000  0.00  0.00    +0.000 A 
ATOM     10  C   UNL     1       0.095  -0.761   0.000  0.00  0.00    +0.000 C 
ATOM     11  C   UNL     1      -1.334  -0.761   0.000  0.00  0.00    +0.000 A 
ATOM     12  C   UNL     1      -2.048  -0.348   0.000  0.00  0.00    +0.000 A 
ATOM     13  C   UNL     1      -2.048   0.477   0.000  0.00  0.00    +0.000 A 
ATOM     14  C   UNL     1      -1.334   0.889   0.000  0.00  0.00    +0.000 A 
ATOM     15  O   UNL     1       0.095  -1.586   0.000  0.00  0.00    +0.000 OA
ATOM     16  O   UNL     1       0.095   1.714   0.000  0.00  0.00    +0.000 OA
ATOM     17  O   UNL     1       1.524  -1.586   0.000  0.00  0.00    +0.000 OA
ATOM     18  N   UNL     1      -1.334  -1.586   0.000  0.00  0.00    +0.000 NA
ATOM     19  N   UNL     1      -1.334   1.714   0.000  0.00  0.00    +0.000 NA
ATOM     20  O   UNL     1       1.524   1.714   0.000  0.00  0.00    +0.000 OA
ENDROOT
TORSDOF 0
