REMARK  Name = MO8
REMARK  0 active torsions:
REMARK  status: ('A' for Active; 'I' for Inactive)
REMARK                            x       y       z     vdW  Elec       q    Type
REMARK                         _______ _______ _______ _____ _____    ______ ____
ROOT
ATOM      1  N   UNL     1      -1.921  -0.910   0.000  0.00  0.00    +0.000 NA
ATOM      2  C   UNL     1      -1.206  -0.497   0.000  0.00  0.00    +0.000 A 
ATOM      3  N   UNL     1      -1.206   0.328   0.000  0.00  0.00    +0.000 NA
ATOM      4  C   UNL     1      -0.492   0.740   0.000  0.00  0.00    +0.000 A 
ATOM      5  C   UNL     1      -0.492   1.565   0.000  0.00  0.00    +0.000 C 
ATOM      6  C   UNL     1       0.223   0.328   0.000  0.00  0.00    +0.000 A 
ATOM      7  N   UNL     1      -0.492  -0.910   0.000  0.00  0.00    +0.000 NA
ATOM      8  C   UNL     1       0.223  -0.497   0.000  0.00  0.00    +0.000 A 
ATOM      9  C   UNL     1       0.937  -0.910   0.000  0.00  0.00    +0.000 C 
ATOM     10  C   UNL     1       1.651  -0.497   0.000  0.00  0.00    +0.000 C 
ATOM     11  S   UNL     1       1.651   0.328   0.000  0.00  0.00    +0.000 S 
ATOM     12  C   UNL     1       0.937   0.740   0.000  0.00  0.00    +0.000 C 
ENDROOT
TORSDOF 0
