REMARK  Name = MO9
REMARK  11 active torsions:
REMARK  status: ('A' for Active; 'I' for Inactive)
REMARK    1  A    between atoms: C_1  and  O_27
REMARK    2  A    between atoms: C_2  and  C_7
REMARK    3  A    between atoms: C_7  and  S_11
REMARK    4  A    between atoms: C_8  and  C_9
REMARK    5  A    between atoms: C_8  and  S_11
REMARK    6  A    between atoms: C_9  and  C_10
REMARK    7  A    between atoms: C_9  and  O_12
REMARK    8  A    between atoms: O_12  and  C_19
REMARK    9  A    between atoms: N_15  and  C_17
REMARK   10  A    between atoms: C_17  and  C_18
REMARK   11  A    between atoms: O_27  and  C_28
REMARK                            x       y       z     vdW  Elec       q    Type
REMARK                         _______ _______ _______ _____ _____    ______ ____
ROOT
ATOM      1  C   UNL     1       0.021  -0.508   0.000  0.00  0.00    +0.000 C 
ENDROOT
BRANCH   1   2
ATOM      2  C   UNL     1       0.561   0.116   0.000  0.00  0.00    +0.000 C 
ATOM      3  N   UNL     1       1.371  -0.040   0.000  0.00  0.00    +0.000 NA
ATOM      4  O   UNL     1       0.291   0.895   0.000  0.00  0.00    +0.000 OA
BRANCH   3   5
ATOM      5  C   UNL     1       1.911   0.584   0.000  0.00  0.00    +0.000 C 
BRANCH   5   6
ATOM      6  C   UNL     1       2.721   0.428   0.000  0.00  0.00    +0.000 C 
ATOM      7  N   UNL     1       3.531   0.272   0.000  0.00  0.00    +0.000 NA
ENDBRANCH   5   6
ENDBRANCH   3   5
ENDBRANCH   1   2
BRANCH   1   8
ATOM      8  C   UNL     1      -0.789  -0.352   0.000  0.00  0.00    +0.000 C 
BRANCH   8   9
ATOM      9  S   UNL     1      -1.059   0.428   0.000  0.00  0.00    +0.000 S 
ATOM     10  O   UNL     1      -0.280   0.698   0.000  0.00  0.00    +0.000 OA
ATOM     11  O   UNL     1      -1.839   0.158   0.000  0.00  0.00    +0.000 OA
BRANCH   9  12
ATOM     12  C   UNL     1      -1.329   1.207   0.000  0.00  0.00    +0.000 C 
BRANCH  12  14
ATOM     13  C   UNL     1      -2.410   2.143   0.000  0.00  0.00    +0.000 A 
ATOM     14  C   UNL     1      -2.140   1.363   0.000  0.00  0.00    +0.000 A 
ATOM     15  C   UNL     1      -2.680   0.740   0.000  0.00  0.00    +0.000 A 
ATOM     16  C   UNL     1      -3.490   0.895   0.000  0.00  0.00    +0.000 A 
ATOM     17  C   UNL     1      -3.760   1.675   0.000  0.00  0.00    +0.000 A 
ATOM     18  C   UNL     1      -3.220   2.299   0.000  0.00  0.00    +0.000 A 
BRANCH  13  19
ATOM     19  O   UNL     1      -1.870   2.766   0.000  0.00  0.00    +0.000 OA
BRANCH  19  20
ATOM     20  C   UNL     1      -2.140   3.546   0.000  0.00  0.00    +0.000 C 
ATOM     21  F   UNL     1      -2.950   3.702   0.000  0.00  0.00    +0.000 F 
ATOM     22  F   UNL     1      -1.599   4.170   0.000  0.00  0.00    +0.000 F 
ENDBRANCH  19  20
ENDBRANCH  13  19
ENDBRANCH  12  14
ENDBRANCH   9  12
ENDBRANCH   8   9
ENDBRANCH   1   8
BRANCH   1  23
ATOM     23  O   UNL     1       0.291  -1.287   0.000  0.00  0.00    +0.000 OA
BRANCH  23  24
ATOM     24  C   UNL     1       1.101  -1.443   0.000  0.00  0.00    +0.000 C 
ATOM     25  N   UNL     1       1.371  -2.223   0.000  0.00  0.00    +0.000 N 
ATOM     26  O   UNL     1       1.641  -0.820   0.000  0.00  0.00    +0.000 OA
ATOM     27  C   UNL     1       2.181  -2.379   0.000  0.00  0.00    +0.000 C 
ATOM     28  C   UNL     1       2.451  -3.158   0.000  0.00  0.00    +0.000 C 
ATOM     29  O   UNL     1       1.911  -3.782   0.000  0.00  0.00    +0.000 OA
ATOM     30  C   UNL     1       1.101  -3.626   0.000  0.00  0.00    +0.000 C 
ATOM     31  C   UNL     1       0.831  -2.846   0.000  0.00  0.00    +0.000 C 
ENDBRANCH  23  24
ENDBRANCH   1  23
TORSDOF 11
