REMARK  Name = MOB
REMARK  5 active torsions:
REMARK  status: ('A' for Active; 'I' for Inactive)
REMARK    1  A    between atoms: C_1  and  N_16
REMARK    2  A    between atoms: C_2  and  C_13
REMARK    3  A    between atoms: C_7  and  N_17
REMARK    4  A    between atoms: C_9  and  O_20
REMARK    5  A    between atoms: C_11  and  O_22
REMARK                            x       y       z     vdW  Elec       q    Type
REMARK                         _______ _______ _______ _____ _____    ______ ____
ROOT
ATOM      1  C   UNL     1      -0.369   0.454   0.000  0.00  0.00    +0.000 A 
ATOM      2  C   UNL     1      -1.084   0.867   0.000  0.00  0.00    +0.000 A 
ATOM      3  C   UNL     1      -1.084   1.692   0.000  0.00  0.00    +0.000 A 
ATOM      4  C   UNL     1      -0.369   2.104   0.000  0.00  0.00    +0.000 A 
ATOM      5  C   UNL     1       0.345   1.692   0.000  0.00  0.00    +0.000 A 
ATOM      6  C   UNL     1       0.345   0.867   0.000  0.00  0.00    +0.000 A 
ATOM      7  O   UNL     1      -0.369   2.929   0.000  0.00  0.00    +0.000 OA
ENDROOT
BRANCH   3   9
ATOM      8  C   UNL     1      -2.513   1.692   0.000  0.00  0.00    +0.000 C 
ATOM      9  O   UNL     1      -1.798   2.104   0.000  0.00  0.00    +0.000 OA
ENDBRANCH   3   9
BRANCH   5  11
ATOM     10  C   UNL     1       1.774   1.692   0.000  0.00  0.00    +0.000 C 
ATOM     11  O   UNL     1       1.060   2.104   0.000  0.00  0.00    +0.000 OA
ENDBRANCH   5  11
BRANCH   1  13
ATOM     12  N   UNL     1       0.345  -0.783   0.000  0.00  0.00    +0.000 NA
ATOM     13  N   UNL     1      -0.369  -0.371   0.000  0.00  0.00    +0.000 NA
BRANCH  12  14
ATOM     14  C   UNL     1       0.345  -1.608   0.000  0.00  0.00    +0.000 A 
ATOM     15  C   UNL     1       1.060  -2.021   0.000  0.00  0.00    +0.000 A 
ATOM     16  C   UNL     1       1.060  -2.846   0.000  0.00  0.00    +0.000 A 
ATOM     17  C   UNL     1       0.345  -3.258   0.000  0.00  0.00    +0.000 A 
ATOM     18  C   UNL     1      -0.369  -2.846   0.000  0.00  0.00    +0.000 A 
ATOM     19  C   UNL     1      -0.369  -2.021   0.000  0.00  0.00    +0.000 A 
BRANCH  15  20
ATOM     20  C   UNL     1       1.774  -1.608   0.000  0.00  0.00    +0.000 C 
ATOM     21  O   UNL     1       2.489  -2.021   0.000  0.00  0.00    +0.000 OA
ATOM     22  O   UNL     1       1.774  -0.783   0.000  0.00  0.00    +0.000 OA
ENDBRANCH  15  20
ENDBRANCH  12  14
ENDBRANCH   1  13
TORSDOF 5
