REMARK  Name = MOJ
REMARK  2 active torsions:
REMARK  status: ('A' for Active; 'I' for Inactive)
REMARK    1  A    between atoms: C_4  and  C_5
REMARK    2  A    between atoms: C_13  and  C_14
REMARK                            x       y       z     vdW  Elec       q    Type
REMARK                         _______ _______ _______ _____ _____    ______ ____
ROOT
ATOM      1  C   UNL     1      -0.043  -0.544   0.000  0.00  0.00    +0.000 C 
ATOM      2  C   UNL     1      -0.043   0.281   0.000  0.00  0.00    +0.000 C 
ATOM      3  C   UNL     1       0.672   0.693   0.000  0.00  0.00    +0.000 C 
ATOM      4  N   UNL     1       0.672   1.518   0.000  0.00  0.00    +0.000 NA
ATOM      5  O   UNL     1      -0.043   1.931   0.000  0.00  0.00    +0.000 OA
ATOM      6  C   UNL     1       1.386   0.281   0.000  0.00  0.00    +0.000 A 
ATOM      7  C   UNL     1       0.672  -0.957   0.000  0.00  0.00    +0.000 C 
ATOM      8  C   UNL     1       1.386  -0.544   0.000  0.00  0.00    +0.000 A 
ATOM      9  N   UNL     1       2.101  -0.957   0.000  0.00  0.00    +0.000 NA
ATOM     10  C   UNL     1       2.815  -0.544   0.000  0.00  0.00    +0.000 A 
ATOM     11  N   UNL     1       3.530  -0.957   0.000  0.00  0.00    +0.000 NA
ATOM     12  N   UNL     1       2.815   0.281   0.000  0.00  0.00    +0.000 NA
ATOM     13  C   UNL     1       2.101   0.693   0.000  0.00  0.00    +0.000 A 
ATOM     14  C   UNL     1       2.101   1.518   0.000  0.00  0.00    +0.000 C 
ENDROOT
BRANCH   1  21
ATOM     15  F   UNL     1      -2.901  -2.194   0.000  0.00  0.00    +0.000 F 
ATOM     16  C   UNL     1      -2.186  -1.782   0.000  0.00  0.00    +0.000 A 
ATOM     17  C   UNL     1      -2.186  -0.957   0.000  0.00  0.00    +0.000 A 
ATOM     18  C   UNL     1      -1.472  -0.544   0.000  0.00  0.00    +0.000 A 
ATOM     19  C   UNL     1      -1.472  -2.194   0.000  0.00  0.00    +0.000 A 
ATOM     20  C   UNL     1      -0.757  -1.782   0.000  0.00  0.00    +0.000 A 
ATOM     21  C   UNL     1      -0.757  -0.957   0.000  0.00  0.00    +0.000 A 
BRANCH  18  22
ATOM     22  C   UNL     1      -1.472   0.281   0.000  0.00  0.00    +0.000 A 
ATOM     23  C   UNL     1      -2.186   0.693   0.000  0.00  0.00    +0.000 A 
ATOM     24  N   UNL     1      -2.186   1.518   0.000  0.00  0.00    +0.000 NA
ATOM     25  C   UNL     1      -1.472   1.931   0.000  0.00  0.00    +0.000 A 
ATOM     26  C   UNL     1      -0.757   1.518   0.000  0.00  0.00    +0.000 A 
ATOM     27  C   UNL     1      -0.757   0.693   0.000  0.00  0.00    +0.000 A 
ENDBRANCH  18  22
ENDBRANCH   1  21
TORSDOF 2
