REMARK  Name = 
REMARK  66 active torsions:
REMARK  status: ('A' for Active; 'I' for Inactive)
REMARK    1  A    between atoms: C_1  and  CA_2
REMARK    2  A    between atoms: CA_2  and  CB_4
REMARK    3  A    between atoms: CA_2  and  N_5
REMARK    4  A    between atoms: CB_4  and  CG_6
REMARK    5  A    between atoms: C_10  and  CA_12
REMARK    6  A    between atoms: CA_12  and  CB_13
REMARK    7  A    between atoms: CA_12  and  N_14
REMARK    8  A    between atoms: CB_13  and  CG_15
REMARK    9  A    between atoms: CD_22  and  CG_25
REMARK   10  A    between atoms: C_23  and  CA_28
REMARK   11  A    between atoms: CG_25  and  CB_27
REMARK   12  A    between atoms: CB_27  and  CA_28
REMARK   13  A    between atoms: CA_28  and  N_30
REMARK   14  A    between atoms: CD_31  and  CG_34
REMARK   15  A    between atoms: C_32  and  CA_37
REMARK   16  A    between atoms: CG_34  and  CB_36
REMARK   17  A    between atoms: CB_36  and  CA_37
REMARK   18  A    between atoms: CA_37  and  N_39
REMARK   19  A    between atoms: C_40  and  CA_42
REMARK   20  A    between atoms: C_47  and  CA_48
REMARK   21  A    between atoms: CA_48  and  N_50
REMARK   22  A    between atoms: CA_48  and  CB_51
REMARK   23  A    between atoms: CB_51  and  CG1_52
REMARK   24  A    between atoms: CD_55  and  CG_58
REMARK   25  A    between atoms: C_56  and  CA_61
REMARK   26  A    between atoms: CG_58  and  CB_60
REMARK   27  A    between atoms: CB_60  and  CA_61
REMARK   28  A    between atoms: CA_61  and  N_63
REMARK   29  A    between atoms: CD_64  and  CG_67
REMARK   30  A    between atoms: C_65  and  CA_70
REMARK   31  A    between atoms: CG_67  and  CB_69
REMARK   32  A    between atoms: CB_69  and  CA_70
REMARK   33  A    between atoms: CA_70  and  N_72
REMARK   34  A    between atoms: C_73  and  CA_74
REMARK   35  A    between atoms: CA_74  and  CB_76
REMARK   36  A    between atoms: CA_74  and  N_77
REMARK   37  A    between atoms: CB_76  and  CG_78
REMARK   38  A    between atoms: N_85  and  CA_88
REMARK   39  A    between atoms: CA_88  and  C_90
REMARK   40  A    between atoms: CA_88  and  CB_91
REMARK   41  A    between atoms: CG_89  and  CB_91
REMARK   42  A    between atoms: C_92  and  CA_95
REMARK   43  A    between atoms: N_94  and  CA_95
REMARK   44  A    between atoms: CB_96  and  CG_98
REMARK   45  A    between atoms: CB_96  and  CA_99
REMARK   46  A    between atoms: C_97  and  CA_99
REMARK   47  A    between atoms: CA_99  and  N_103
REMARK   48  A    between atoms: C_104  and  CA_107
REMARK   49  A    between atoms: N_106  and  CA_107
REMARK   50  A    between atoms: C_108  and  CA_111
REMARK   51  A    between atoms: N_110  and  CA_111
REMARK   52  A    between atoms: C_112  and  CA_115
REMARK   53  A    between atoms: N_114  and  CA_115
REMARK   54  A    between atoms: C_116  and  CA_119
REMARK   55  A    between atoms: N_118  and  CA_119
REMARK   56  A    between atoms: C_120  and  CA_122
REMARK   57  A    between atoms: C_128  and  CA_132
REMARK   58  A    between atoms: NE_131  and  CD_135
REMARK   59  A    between atoms: CA_132  and  N_134
REMARK   60  A    between atoms: CA_132  and  CB_136
REMARK   61  A    between atoms: CD_135  and  CG_137
REMARK   62  A    between atoms: CB_136  and  CG_137
REMARK   63  A    between atoms: C_138  and  CA_140
REMARK   64  A    between atoms: C_145  and  CA_146
REMARK   65  A    between atoms: CA_146  and  CB_148
REMARK   66  A    between atoms: CB_148  and  CG_150
REMARK                            x       y       z     vdW  Elec       q    Type
REMARK                         _______ _______ _______ _____ _____    ______ ____
ROOT
ATOM      1  CA  PHE A  12       7.771   4.143   0.000  0.00  0.00    +0.000 C 
ENDROOT
BRANCH   1   3
ATOM      2  N   GLU A  13       7.057   2.914   0.000  0.00  0.00    +0.000 NA
ATOM      3  C   PHE A  12       7.771   3.330   0.000  0.00  0.00    +0.000 C 
ATOM      4  O   PHE A  12       8.485   2.914   0.000  0.00  0.00    +0.000 OA
BRANCH   2   5
ATOM      5  CA  GLU A  13       7.057   2.101   0.000  0.00  0.00    +0.000 C 
BRANCH   5   7
ATOM      6  N   GLU A  14       6.364   0.872   0.000  0.00  0.00    +0.000 NA
ATOM      7  C   GLU A  13       6.364   1.685   0.000  0.00  0.00    +0.000 C 
ATOM      8  O   GLU A  13       5.650   2.101   0.000  0.00  0.00    +0.000 OA
BRANCH   6   9
ATOM      9  CA  GLU A  14       5.650   0.456   0.000  0.00  0.00    +0.000 C 
BRANCH   9  11
ATOM     10  N   ILE A  15       6.364  -0.773   0.000  0.00  0.00    +0.000 NA
ATOM     11  C   GLU A  14       5.650  -0.357   0.000  0.00  0.00    +0.000 C 
ATOM     12  O   GLU A  14       4.936  -0.773   0.000  0.00  0.00    +0.000 OA
BRANCH  10  13
ATOM     13  CA  ILE A  15       6.364  -1.606   0.000  0.00  0.00    +0.000 C 
BRANCH  13  19
ATOM     14  CA  PRO A  16       4.242  -2.082   0.000  0.00  0.00    +0.000 C 
ATOM     15  N   PRO A  16       4.916  -1.606   0.000  0.00  0.00    +0.000 N 
ATOM     16  CD  PRO A  16       4.659  -0.833   0.000  0.00  0.00    +0.000 C 
ATOM     17  CG  PRO A  16       3.846  -0.833   0.000  0.00  0.00    +0.000 C 
ATOM     18  CB  PRO A  16       3.588  -1.606   0.000  0.00  0.00    +0.000 C 
ATOM     19  C   ILE A  15       5.650  -2.002   0.000  0.00  0.00    +0.000 C 
ATOM     20  O   ILE A  15       5.650  -2.835   0.000  0.00  0.00    +0.000 OA
BRANCH  14  22
ATOM     21  N   GLU A  17       4.956  -3.330   0.000  0.00  0.00    +0.000 NA
ATOM     22  C   PRO A  16       4.242  -2.914   0.000  0.00  0.00    +0.000 C 
ATOM     23  O   PRO A  16       3.549  -3.330   0.000  0.00  0.00    +0.000 OA
BRANCH  21  24
ATOM     24  CA  GLU A  17       4.956  -4.143   0.000  0.00  0.00    +0.000 C 
BRANCH  24  26
ATOM     25  N   GLU A  18       3.549  -4.143   0.000  0.00  0.00    +0.000 NA
ATOM     26  C   GLU A  17       4.242  -4.560   0.000  0.00  0.00    +0.000 C 
ATOM     27  O   GLU A  17       4.242  -5.372   0.000  0.00  0.00    +0.000 OA
BRANCH  25  28
ATOM     28  CA  GLU A  18       2.835  -4.560   0.000  0.00  0.00    +0.000 C 
BRANCH  28  30
ATOM     29  N   TYR A  19       1.407  -4.560   0.000  0.00  0.00    +0.000 NA
ATOM     30  C   GLU A  18       2.121  -4.143   0.000  0.00  0.00    +0.000 C 
ATOM     31  O   GLU A  18       2.121  -3.330   0.000  0.00  0.00    +0.000 OA
BRANCH  29  32
ATOM     32  CA  TYR A  19       0.694  -4.143   0.000  0.00  0.00    +0.000 C 
BRANCH  32  34
ATOM     33  N   LEU A  20       1.407  -2.914   0.000  0.00  0.00    +0.000 NA
ATOM     34  C   TYR A  19       0.694  -3.330   0.000  0.00  0.00    +0.000 C 
ATOM     35  O   TYR A  19      -0.020  -2.914   0.000  0.00  0.00    +0.000 OA
BRANCH  33  36
ATOM     36  CA  LEU A  20       1.407  -2.082   0.000  0.00  0.00    +0.000 C 
BRANCH  36  37
ATOM     37  C   LEU A  20       0.694  -1.685   0.000  0.00  0.00    +0.000 C 
ATOM     38  O   LEU A  20       0.694  -0.853   0.000  0.00  0.00    +0.000 OA
ATOM     39  OXT LEU A  20      -0.020  -2.082   0.000  0.00  0.00    +0.000 OA
ENDBRANCH  36  37
BRANCH  36  40
ATOM     40  CB  LEU A  20       2.121  -1.685   0.000  0.00  0.00    +0.000 C 
BRANCH  40  41
ATOM     41  CG  LEU A  20       2.121  -0.853   0.000  0.00  0.00    +0.000 C 
ATOM     42  CD1 LEU A  20       2.835  -0.456   0.000  0.00  0.00    +0.000 C 
ATOM     43  CD2 LEU A  20       1.407  -0.456   0.000  0.00  0.00    +0.000 C 
ENDBRANCH  40  41
ENDBRANCH  36  40
ENDBRANCH  33  36
ENDBRANCH  32  34
BRANCH  32  44
ATOM     44  CB  TYR A  19      -0.020  -4.560   0.000  0.00  0.00    +0.000 C 
BRANCH  44  45
ATOM     45  CG  TYR A  19      -0.733  -4.143   0.000  0.00  0.00    +0.000 A 
ATOM     46  CD1 TYR A  19      -1.447  -4.560   0.000  0.00  0.00    +0.000 A 
ATOM     47  CD2 TYR A  19      -0.733  -3.330   0.000  0.00  0.00    +0.000 A 
ATOM     48  CE2 TYR A  19      -1.447  -2.914   0.000  0.00  0.00    +0.000 A 
ATOM     49  CZ  TYR A  19      -2.141  -3.330   0.000  0.00  0.00    +0.000 A 
ATOM     50  CE1 TYR A  19      -2.141  -4.143   0.000  0.00  0.00    +0.000 A 
ATOM     51  OH  TYR A  19      -2.855  -2.914   0.000  0.00  0.00    +0.000 OA
ENDBRANCH  44  45
ENDBRANCH  32  44
ENDBRANCH  29  32
ENDBRANCH  28  30
BRANCH  28  52
ATOM     52  CB  GLU A  18       2.835  -5.372   0.000  0.00  0.00    +0.000 C 
BRANCH  52  53
ATOM     53  CG  GLU A  18       3.549  -5.789   0.000  0.00  0.00    +0.000 C 
BRANCH  53  54
ATOM     54  CD  GLU A  18       3.549  -6.601   0.000  0.00  0.00    +0.000 C 
ATOM     55  OE1 GLU A  18       2.835  -7.018   0.000  0.00  0.00    +0.000 OA
ATOM     56  OE2 GLU A  18       4.242  -7.018   0.000  0.00  0.00    +0.000 OA
ENDBRANCH  53  54
ENDBRANCH  52  53
ENDBRANCH  28  52
ENDBRANCH  25  28
ENDBRANCH  24  26
BRANCH  24  57
ATOM     57  CB  GLU A  17       5.670  -4.560   0.000  0.00  0.00    +0.000 C 
BRANCH  57  58
ATOM     58  CG  GLU A  17       6.383  -4.143   0.000  0.00  0.00    +0.000 C 
BRANCH  58  59
ATOM     59  CD  GLU A  17       7.097  -4.560   0.000  0.00  0.00    +0.000 C 
ATOM     60  OE1 GLU A  17       7.097  -5.372   0.000  0.00  0.00    +0.000 OA
ATOM     61  OE2 GLU A  17       7.811  -4.143   0.000  0.00  0.00    +0.000 OA
ENDBRANCH  58  59
ENDBRANCH  57  58
ENDBRANCH  24  57
ENDBRANCH  21  24
ENDBRANCH  14  22
ENDBRANCH  13  19
BRANCH  13  62
ATOM     62  CB  ILE A  15       7.057  -2.002   0.000  0.00  0.00    +0.000 C 
ATOM     63  CG2 ILE A  15       7.057  -2.835   0.000  0.00  0.00    +0.000 C 
BRANCH  62  64
ATOM     64  CG1 ILE A  15       7.771  -1.606   0.000  0.00  0.00    +0.000 C 
ATOM     65  CD1 ILE A  15       8.485  -2.002   0.000  0.00  0.00    +0.000 C 
ENDBRANCH  62  64
ENDBRANCH  13  62
ENDBRANCH  10  13
ENDBRANCH   9  11
BRANCH   9  66
ATOM     66  CB  GLU A  14       4.936   0.872   0.000  0.00  0.00    +0.000 C 
BRANCH  66  67
ATOM     67  CG  GLU A  14       4.223   0.456   0.000  0.00  0.00    +0.000 C 
BRANCH  67  68
ATOM     68  CD  GLU A  14       3.509   0.872   0.000  0.00  0.00    +0.000 C 
ATOM     69  OE1 GLU A  14       3.509   1.685   0.000  0.00  0.00    +0.000 OA
ATOM     70  OE2 GLU A  14       2.795   0.456   0.000  0.00  0.00    +0.000 OA
ENDBRANCH  67  68
ENDBRANCH  66  67
ENDBRANCH   9  66
ENDBRANCH   6   9
ENDBRANCH   5   7
BRANCH   5  71
ATOM     71  CB  GLU A  13       7.771   1.685   0.000  0.00  0.00    +0.000 C 
BRANCH  71  72
ATOM     72  CG  GLU A  13       8.485   2.101   0.000  0.00  0.00    +0.000 C 
BRANCH  72  73
ATOM     73  CD  GLU A  13       9.198   1.685   0.000  0.00  0.00    +0.000 C 
ATOM     74  OE1 GLU A  13       9.198   0.872   0.000  0.00  0.00    +0.000 OA
ATOM     75  OE2 GLU A  13       9.912   2.101   0.000  0.00  0.00    +0.000 OA
ENDBRANCH  72  73
ENDBRANCH  71  72
ENDBRANCH   5  71
ENDBRANCH   2   5
ENDBRANCH   1   3
BRANCH   1  76
ATOM     76  N   PHE A  12       7.057   4.559   0.000  0.00  0.00    +0.000 NA
ATOM     77  O   ASP A  11       6.364   3.330   0.000  0.00  0.00    +0.000 OA
ATOM     78  C   ASP A  11       6.364   4.143   0.000  0.00  0.00    +0.000 C 
BRANCH  78  79
ATOM     79  CA  ASP A  11       5.650   4.559   0.000  0.00  0.00    +0.000 C 
BRANCH  79  80
ATOM     80  N   ASP A  11       4.936   4.143   0.000  0.00  0.00    +0.000 NA
ATOM     81  C   GLY A  10       4.223   4.559   0.000  0.00  0.00    +0.000 C 
ATOM     82  O   GLY A  10       4.223   5.392   0.000  0.00  0.00    +0.000 OA
BRANCH  81  83
ATOM     83  CA  GLY A  10       3.509   4.143   0.000  0.00  0.00    +0.000 C 
BRANCH  83  84
ATOM     84  N   GLY A  10       2.795   4.559   0.000  0.00  0.00    +0.000 NA
ATOM     85  C   ASN A   9       2.082   4.143   0.000  0.00  0.00    +0.000 C 
ATOM     86  O   ASN A   9       2.082   3.330   0.000  0.00  0.00    +0.000 OA
BRANCH  85  87
ATOM     87  CA  ASN A   9       1.368   4.559   0.000  0.00  0.00    +0.000 C 
BRANCH  87  88
ATOM     88  N   ASN A   9       1.368   5.392   0.000  0.00  0.00    +0.000 NA
ATOM     89  C   GLY A   8       0.674   5.789   0.000  0.00  0.00    +0.000 C 
ATOM     90  O   GLY A   8       0.674   6.621   0.000  0.00  0.00    +0.000 OA
BRANCH  89  91
ATOM     91  CA  GLY A   8      -0.040   5.392   0.000  0.00  0.00    +0.000 C 
BRANCH  91  92
ATOM     92  N   GLY A   8      -0.753   5.789   0.000  0.00  0.00    +0.000 NA
ATOM     93  C   GLY A   7      -1.467   5.392   0.000  0.00  0.00    +0.000 C 
ATOM     94  O   GLY A   7      -1.467   4.559   0.000  0.00  0.00    +0.000 OA
BRANCH  93  95
ATOM     95  CA  GLY A   7      -2.181   5.789   0.000  0.00  0.00    +0.000 C 
BRANCH  95  96
ATOM     96  N   GLY A   7      -2.894   5.392   0.000  0.00  0.00    +0.000 NA
ATOM     97  C   GLY A   6      -2.894   4.559   0.000  0.00  0.00    +0.000 C 
ATOM     98  O   GLY A   6      -2.181   4.143   0.000  0.00  0.00    +0.000 OA
BRANCH  97  99
ATOM     99  CA  GLY A   6      -3.608   4.143   0.000  0.00  0.00    +0.000 C 
BRANCH  99 100
ATOM    100  N   GLY A   6      -3.608   3.330   0.000  0.00  0.00    +0.000 NA
ATOM    101  C   GLY A   5      -4.322   2.914   0.000  0.00  0.00    +0.000 C 
ATOM    102  O   GLY A   5      -5.016   3.330   0.000  0.00  0.00    +0.000 OA
BRANCH 101 103
ATOM    103  CA  GLY A   5      -4.322   2.101   0.000  0.00  0.00    +0.000 C 
BRANCH 103 104
ATOM    104  N   GLY A   5      -5.016   1.685   0.000  0.00  0.00    +0.000 NA
ATOM    105  C   PRO A   4      -5.016   0.872   0.000  0.00  0.00    +0.000 C 
ATOM    106  O   PRO A   4      -4.322   0.456   0.000  0.00  0.00    +0.000 OA
BRANCH 105 107
ATOM    107  CA  PRO A   4      -5.729   0.456   0.000  0.00  0.00    +0.000 C 
ATOM    108  N   PRO A   4      -5.729  -0.377   0.000  0.00  0.00    +0.000 N 
ATOM    109  CD  PRO A   4      -6.522  -0.615   0.000  0.00  0.00    +0.000 C 
ATOM    110  CG  PRO A   4      -6.998   0.040   0.000  0.00  0.00    +0.000 C 
ATOM    111  CB  PRO A   4      -6.522   0.714   0.000  0.00  0.00    +0.000 C 
ATOM    112  C   ARG A   3      -4.976  -0.733   0.000  0.00  0.00    +0.000 C 
ATOM    113  O   ARG A   3      -4.282  -0.317   0.000  0.00  0.00    +0.000 OA
BRANCH 112 114
ATOM    114  CA  ARG A   3      -4.976  -1.546   0.000  0.00  0.00    +0.000 C 
BRANCH 114 115
ATOM    115  N   ARG A   3      -5.690  -1.963   0.000  0.00  0.00    +0.000 NA
ATOM    116  C   PRO A   2      -5.690  -2.795   0.000  0.00  0.00    +0.000 C 
ATOM    117  O   PRO A   2      -4.976  -3.192   0.000  0.00  0.00    +0.000 OA
BRANCH 116 118
ATOM    118  CA  PRO A   2      -6.403  -3.192   0.000  0.00  0.00    +0.000 C 
ATOM    119  N   PRO A   2      -7.057  -2.716   0.000  0.00  0.00    +0.000 N 
ATOM    120  CD  PRO A   2      -7.731  -3.192   0.000  0.00  0.00    +0.000 C 
ATOM    121  CG  PRO A   2      -7.474  -3.965   0.000  0.00  0.00    +0.000 C 
ATOM    122  CB  PRO A   2      -6.661  -3.965   0.000  0.00  0.00    +0.000 C 
ATOM    123  C   PHE A   1      -7.057  -1.883   0.000  0.00  0.00    +0.000 C 
ATOM    124  O   PHE A   1      -6.364  -1.467   0.000  0.00  0.00    +0.000 OA
BRANCH 123 125
ATOM    125  CA  PHE A   1      -7.771  -1.467   0.000  0.00  0.00    +0.000 C 
ATOM    126  N   PHE A   1      -8.485  -1.883   0.000  0.00  0.00    +0.000 NA
BRANCH 125 127
ATOM    127  CB  PHE A   1      -7.771  -0.654   0.000  0.00  0.00    +0.000 C 
BRANCH 127 128
ATOM    128  CG  PHE A   1      -8.485  -0.238   0.000  0.00  0.00    +0.000 A 
ATOM    129  CD1 PHE A   1      -8.485   0.575   0.000  0.00  0.00    +0.000 A 
ATOM    130  CD2 PHE A   1      -9.199  -0.654   0.000  0.00  0.00    +0.000 A 
ATOM    131  CE2 PHE A   1      -9.912  -0.238   0.000  0.00  0.00    +0.000 A 
ATOM    132  CE1 PHE A   1      -9.199   0.991   0.000  0.00  0.00    +0.000 A 
ATOM    133  CZ  PHE A   1      -9.912   0.575   0.000  0.00  0.00    +0.000 A 
ENDBRANCH 127 128
ENDBRANCH 125 127
ENDBRANCH 123 125
ENDBRANCH 116 118
ENDBRANCH 114 115
BRANCH 114 134
ATOM    134  CB  ARG A   3      -4.282  -1.963   0.000  0.00  0.00    +0.000 C 
BRANCH 134 135
ATOM    135  CG  ARG A   3      -3.568  -1.546   0.000  0.00  0.00    +0.000 C 
BRANCH 135 136
ATOM    136  CD  ARG A   3      -2.855  -1.963   0.000  0.00  0.00    +0.000 C 
BRANCH 136 139
ATOM    137  CZ  ARG A   3      -2.141  -0.733   0.000  0.00  0.00    +0.000 C 
ATOM    138  NH1 ARG A   3      -1.427  -0.317   0.000  0.00  0.00    +0.000 NA
ATOM    139  NE  ARG A   3      -2.141  -1.546   0.000  0.00  0.00    +0.000 NA
ATOM    140  NH2 ARG A   3      -2.855  -0.317   0.000  0.00  0.00    +0.000 NA
ENDBRANCH 136 139
ENDBRANCH 135 136
ENDBRANCH 134 135
ENDBRANCH 114 134
ENDBRANCH 112 114
ENDBRANCH 105 107
ENDBRANCH 103 104
ENDBRANCH 101 103
ENDBRANCH  99 100
ENDBRANCH  97  99
ENDBRANCH  95  96
ENDBRANCH  93  95
ENDBRANCH  91  92
ENDBRANCH  89  91
ENDBRANCH  87  88
BRANCH  87 141
ATOM    141  CB  ASN A   9       0.674   4.143   0.000  0.00  0.00    +0.000 C 
BRANCH 141 142
ATOM    142  CG  ASN A   9       0.674   3.330   0.000  0.00  0.00    +0.000 C 
ATOM    143  OD1 ASN A   9       1.368   2.914   0.000  0.00  0.00    +0.000 OA
ATOM    144  ND2 ASN A   9      -0.040   2.914   0.000  0.00  0.00    +0.000 NA
ENDBRANCH 141 142
ENDBRANCH  87 141
ENDBRANCH  85  87
ENDBRANCH  83  84
ENDBRANCH  81  83
ENDBRANCH  79  80
BRANCH  79 145
ATOM    145  CB  ASP A  11       5.650   5.392   0.000  0.00  0.00    +0.000 C 
BRANCH 145 148
ATOM    146  OD1 ASP A  11       6.364   6.621   0.000  0.00  0.00    +0.000 OA
ATOM    147  OD2 ASP A  11       7.057   5.392   0.000  0.00  0.00    +0.000 OA
ATOM    148  CG  ASP A  11       6.364   5.789   0.000  0.00  0.00    +0.000 C 
ENDBRANCH 145 148
ENDBRANCH  79 145
ENDBRANCH  78  79
ENDBRANCH   1  76
BRANCH   1 149
ATOM    149  CB  PHE A  12       8.485   4.559   0.000  0.00  0.00    +0.000 C 
BRANCH 149 150
ATOM    150  CG  PHE A  12       8.485   5.392   0.000  0.00  0.00    +0.000 A 
ATOM    151  CD1 PHE A  12       9.198   5.789   0.000  0.00  0.00    +0.000 A 
ATOM    152  CD2 PHE A  12       7.771   5.789   0.000  0.00  0.00    +0.000 A 
ATOM    153  CE2 PHE A  12       7.771   6.621   0.000  0.00  0.00    +0.000 A 
ATOM    154  CE1 PHE A  12       9.198   6.621   0.000  0.00  0.00    +0.000 A 
ATOM    155  CZ  PHE A  12       8.485   7.018   0.000  0.00  0.00    +0.000 A 
ENDBRANCH 149 150
ENDBRANCH   1 149
TORSDOF 66
