REMARK  Name = MOY
REMARK  3 active torsions:
REMARK  status: ('A' for Active; 'I' for Inactive)
REMARK    1  A    between atoms: C_8  and  C_12
REMARK    2  A    between atoms: C_9  and  C_19
REMARK    3  A    between atoms: C_12  and  C_13
REMARK                            x       y       z     vdW  Elec       q    Type
REMARK                         _______ _______ _______ _____ _____    ______ ____
ROOT
ATOM      1  S   UNL     1       1.952  -1.529   0.000  0.00  0.00    +0.000 S 
ATOM      2  N   UNL     1       1.237  -0.292   0.000  0.00  0.00    +0.000 NA
ATOM      3  N   UNL     1       0.523  -1.529   0.000  0.00  0.00    +0.000 N 
ATOM      4  C   UNL     1       1.237  -1.117   0.000  0.00  0.00    +0.000 C 
ATOM      5  C   UNL     1      -0.192  -1.117   0.000  0.00  0.00    +0.000 C 
ATOM      6  C   UNL     1      -0.192  -0.292   0.000  0.00  0.00    +0.000 C 
ATOM      7  C   UNL     1       0.523   0.121   0.000  0.00  0.00    +0.000 C 
ATOM      8  C   UNL     1       0.523  -2.354   0.000  0.00  0.00    +0.000 C 
ATOM      9  C   UNL     1      -0.906  -1.529   0.000  0.00  0.00    +0.000 C 
ENDROOT
BRANCH   7  11
ATOM     10  O   UNL     1      -0.906   2.596   0.000  0.00  0.00    +0.000 OA
ATOM     11  C   UNL     1       0.523   0.946   0.000  0.00  0.00    +0.000 A 
ATOM     12  C   UNL     1      -0.192   1.358   0.000  0.00  0.00    +0.000 A 
ATOM     13  C   UNL     1      -0.192   2.183   0.000  0.00  0.00    +0.000 A 
ATOM     14  C   UNL     1       0.523   2.596   0.000  0.00  0.00    +0.000 A 
ATOM     15  C   UNL     1       1.237   2.183   0.000  0.00  0.00    +0.000 A 
ATOM     16  C   UNL     1       1.237   1.358   0.000  0.00  0.00    +0.000 A 
ENDBRANCH   7  11
BRANCH   6  18
ATOM     17  O   UNL     1      -0.906   0.946   0.000  0.00  0.00    +0.000 OA
ATOM     18  C   UNL     1      -0.906   0.121   0.000  0.00  0.00    +0.000 C 
BRANCH  18  19
ATOM     19  C   UNL     1      -1.621  -0.292   0.000  0.00  0.00    +0.000 A 
ATOM     20  C   UNL     1      -2.335   0.121   0.000  0.00  0.00    +0.000 A 
ATOM     21  C   UNL     1      -3.049  -0.292   0.000  0.00  0.00    +0.000 A 
ATOM     22  C   UNL     1      -3.049  -1.117   0.000  0.00  0.00    +0.000 A 
ATOM     23  C   UNL     1      -2.335  -1.529   0.000  0.00  0.00    +0.000 A 
ATOM     24  C   UNL     1      -1.621  -1.117   0.000  0.00  0.00    +0.000 A 
ENDBRANCH  18  19
ENDBRANCH   6  18
TORSDOF 3
