REMARK  Name = MP2
REMARK  8 active torsions:
REMARK  status: ('A' for Active; 'I' for Inactive)
REMARK    1  A    between atoms: C_2  and  O_14
REMARK    2  A    between atoms: N_3  and  CA_4
REMARK    3  A    between atoms: CA_4  and  CB_5
REMARK    4  A    between atoms: CA_4  and  C_7
REMARK    5  A    between atoms: N_9  and  CA_10
REMARK    6  A    between atoms: CA_10  and  C_11
REMARK    7  A    between atoms: O_14  and  C_15
REMARK    8  A    between atoms: C_15  and  C_16
REMARK                            x       y       z     vdW  Elec       q    Type
REMARK                         _______ _______ _______ _____ _____    ______ ____
ROOT
ATOM      1  O   UNK A   0       0.165   0.926   0.000  0.00  0.00    +0.000 OA
ATOM      2  C   UNK A   0       0.165   0.101   0.000  0.00  0.00    +0.000 C 
ATOM      3  N   CYS A   1      -0.550  -0.311   0.000  0.00  0.00    +0.000 NA
ENDROOT
BRANCH   3   4
ATOM      4  CA  CYS A   1      -1.264   0.101   0.000  0.00  0.00    +0.000 C 
BRANCH   4   5
ATOM      5  C   CYS A   1      -1.979  -0.311   0.000  0.00  0.00    +0.000 C 
ATOM      6  O   CYS A   1      -1.979  -1.137   0.000  0.00  0.00    +0.000 OA
ATOM      7  N   GLY A   2      -2.693   0.101   0.000  0.00  0.00    +0.000 NA
BRANCH   7   8
ATOM      8  CA  GLY A   2      -3.408  -0.311   0.000  0.00  0.00    +0.000 C 
BRANCH   8   9
ATOM      9  C   GLY A   2      -4.122   0.101   0.000  0.00  0.00    +0.000 C 
ATOM     10  O   GLY A   2      -4.837  -0.311   0.000  0.00  0.00    +0.000 OA
ATOM     11  OXT GLY A   2      -4.122   0.926   0.000  0.00  0.00    +0.000 OA
ENDBRANCH   8   9
ENDBRANCH   7   8
ENDBRANCH   4   5
BRANCH   4  12
ATOM     12  CB  CYS A   1      -1.264   0.926   0.000  0.00  0.00    +0.000 C 
ATOM     13  SG  CYS A   1      -1.979   1.339   0.000  0.00  0.00    +0.000 S 
ENDBRANCH   4  12
ENDBRANCH   3   4
BRANCH   2  14
ATOM     14  O   UNK A   0       0.879  -0.311   0.000  0.00  0.00    +0.000 OA
BRANCH  14  15
ATOM     15  C   UNK A   0       1.594   0.101   0.000  0.00  0.00    +0.000 C 
BRANCH  15  16
ATOM     16  C   UNK A   0       2.308  -0.311   0.000  0.00  0.00    +0.000 A 
ATOM     17  C   UNK A   0       3.022   0.101   0.000  0.00  0.00    +0.000 A 
ATOM     18  C   UNK A   0       3.737  -0.311   0.000  0.00  0.00    +0.000 A 
ATOM     19  C   UNK A   0       3.737  -1.137   0.000  0.00  0.00    +0.000 A 
ATOM     20  C   UNK A   0       3.022  -1.549   0.000  0.00  0.00    +0.000 A 
ATOM     21  C   UNK A   0       2.308  -1.137   0.000  0.00  0.00    +0.000 A 
ENDBRANCH  15  16
ENDBRANCH  14  15
ENDBRANCH   2  14
TORSDOF 8
