REMARK  Name = MPE
REMARK  6 active torsions:
REMARK  status: ('A' for Active; 'I' for Inactive)
REMARK    1  A    between atoms: C_2  and  C_4
REMARK    2  A    between atoms: C_4  and  N_5
REMARK    3  A    between atoms: C_4  and  C_10
REMARK    4  A    between atoms: N_5  and  O_6
REMARK    5  A    between atoms: O_6  and  C_7
REMARK    6  A    between atoms: C_7  and  C_8
REMARK                            x       y       z     vdW  Elec       q    Type
REMARK                         _______ _______ _______ _____ _____    ______ ____
ROOT
ATOM      1  C   UNL     1       0.036   0.074   0.000  0.00  0.00    +0.000 C 
ENDROOT
BRANCH   1   2
ATOM      2  C   UNL     1      -0.679  -0.338   0.000  0.00  0.00    +0.000 A 
ATOM      3  C   UNL     1      -0.765  -1.159   0.000  0.00  0.00    +0.000 A 
ATOM      4  N   UNL     1      -1.572  -1.330   0.000  0.00  0.00    +0.000 NA
ATOM      5  C   UNL     1      -1.984  -0.616   0.000  0.00  0.00    +0.000 A 
ATOM      6  C   UNL     1      -2.791  -0.444   0.000  0.00  0.00    +0.000 A 
ATOM      7  C   UNL     1      -1.432  -0.003   0.000  0.00  0.00    +0.000 A 
ATOM      8  C   UNL     1      -1.687   0.782   0.000  0.00  0.00    +0.000 A 
ATOM      9  C   UNL     1      -2.494   0.953   0.000  0.00  0.00    +0.000 A 
ATOM     10  C   UNL     1      -3.046   0.340   0.000  0.00  0.00    +0.000 A 
ENDBRANCH   1   2
BRANCH   1  12
ATOM     11  O   UNL     1      -0.679   1.312   0.000  0.00  0.00    +0.000 OA
ATOM     12  C   UNL     1       0.036   0.899   0.000  0.00  0.00    +0.000 C 
ATOM     13  O   UNL     1       0.750   1.312   0.000  0.00  0.00    +0.000 OA
ENDBRANCH   1  12
BRANCH   1  14
ATOM     14  N   UNL     1       0.750  -0.338   0.000  0.00  0.00    +0.000 NA
BRANCH  14  15
ATOM     15  O   UNL     1       1.465   0.074   0.000  0.00  0.00    +0.000 OA
BRANCH  15  16
ATOM     16  C   UNL     1       2.179  -0.338   0.000  0.00  0.00    +0.000 C 
BRANCH  16  17
ATOM     17  C   UNL     1       2.894   0.074   0.000  0.00  0.00    +0.000 C 
ATOM     18  S   UNL     1       3.608  -0.338   0.000  0.00  0.00    +0.000 S 
ENDBRANCH  16  17
ENDBRANCH  15  16
ENDBRANCH  14  15
ENDBRANCH   1  14
TORSDOF 6
