REMARK  Name = MPX
REMARK  5 active torsions:
REMARK  status: ('A' for Active; 'I' for Inactive)
REMARK    1  A    between atoms: C_1  and  S_18
REMARK    2  A    between atoms: C_4  and  N_7
REMARK    3  A    between atoms: N_7  and  C_8
REMARK    4  A    between atoms: C_8  and  N_10
REMARK    5  A    between atoms: N_10  and  N_11
REMARK                            x       y       z     vdW  Elec       q    Type
REMARK                         _______ _______ _______ _____ _____    ______ ____
ROOT
ATOM      1  N   UNL     1       1.587   0.477   0.000  0.00  0.00    +0.000 NA
ENDROOT
BRANCH   1   5
ATOM      2  C   UNL     1       1.587   2.952   0.000  0.00  0.00    +0.000 A 
ATOM      3  C   UNL     1       2.302   2.539   0.000  0.00  0.00    +0.000 A 
ATOM      4  C   UNL     1       2.302   1.714   0.000  0.00  0.00    +0.000 A 
ATOM      5  C   UNL     1       1.587   1.302   0.000  0.00  0.00    +0.000 A 
ATOM      6  C   UNL     1       0.873   1.714   0.000  0.00  0.00    +0.000 A 
ATOM      7  C   UNL     1       0.873   2.539   0.000  0.00  0.00    +0.000 A 
BRANCH   2   8
ATOM      8  S   UNL     1       1.587   3.777   0.000  0.00  0.00    +0.000 S 
ATOM      9  N   UNL     1       1.587   4.602   0.000  0.00  0.00    +0.000 NA
ATOM     10  O   UNL     1       2.412   3.777   0.000  0.00  0.00    +0.000 OA
ATOM     11  O   UNL     1       0.762   3.777   0.000  0.00  0.00    +0.000 OA
ENDBRANCH   2   8
ENDBRANCH   1   5
BRANCH   1  12
ATOM     12  C   UNL     1       0.873   0.064   0.000  0.00  0.00    +0.000 C 
ATOM     13  S   UNL     1       0.158   0.477   0.000  0.00  0.00    +0.000 S 
BRANCH  12  14
ATOM     14  N   UNL     1       0.873  -0.761   0.000  0.00  0.00    +0.000 NA
BRANCH  14  15
ATOM     15  N   UNL     1       0.158  -1.173   0.000  0.00  0.00    +0.000 NA
ATOM     16  C   UNL     1       0.158  -1.998   0.000  0.00  0.00    +0.000 C 
ATOM     17  C   UNL     1      -0.556  -2.411   0.000  0.00  0.00    +0.000 C 
ATOM     18  N   UNL     1      -1.270  -1.998   0.000  0.00  0.00    +0.000 NA
ATOM     19  C   UNL     1      -1.985  -2.411   0.000  0.00  0.00    +0.000 C 
ATOM     20  C   UNL     1      -1.270  -1.173   0.000  0.00  0.00    +0.000 C 
ATOM     21  C   UNL     1      -0.556  -0.761   0.000  0.00  0.00    +0.000 C 
ENDBRANCH  14  15
ENDBRANCH  12  14
ENDBRANCH   1  12
TORSDOF 5
