REMARK  Name = MQ1
REMARK  3 active torsions:
REMARK  status: ('A' for Active; 'I' for Inactive)
REMARK    1  A    between atoms: C_11  and  O_13
REMARK    2  A    between atoms: O_13  and  C_14
REMARK    3  A    between atoms: C_17  and  O_20
REMARK                            x       y       z     vdW  Elec       q    Type
REMARK                         _______ _______ _______ _____ _____    ______ ____
ROOT
ATOM      1  C   UNL     1      -0.977  -1.733   0.000  0.00  0.00    +0.000 A 
ATOM      2  C   UNL     1      -0.977  -0.908   0.000  0.00  0.00    +0.000 A 
ATOM      3  C   UNL     1      -1.691  -0.495   0.000  0.00  0.00    +0.000 A 
ATOM      4  N   UNL     1      -2.406  -0.908   0.000  0.00  0.00    +0.000 NA
ATOM      5  C   UNL     1      -2.406  -1.733   0.000  0.00  0.00    +0.000 A 
ATOM      6  N   UNL     1      -1.691  -2.145   0.000  0.00  0.00    +0.000 NA
ATOM      7  N   UNL     1      -1.691   0.330   0.000  0.00  0.00    +0.000 NA
ATOM      8  C   UNL     1      -0.262  -2.145   0.000  0.00  0.00    +0.000 A 
ATOM      9  C   UNL     1       0.452  -1.733   0.000  0.00  0.00    +0.000 A 
ATOM     10  C   UNL     1       0.452  -0.908   0.000  0.00  0.00    +0.000 A 
ATOM     11  C   UNL     1      -0.262  -0.495   0.000  0.00  0.00    +0.000 A 
ATOM     12  N   UNL     1      -3.120  -2.145   0.000  0.00  0.00    +0.000 NA
ENDROOT
BRANCH  11  13
ATOM     13  O   UNL     1      -0.262   0.330   0.000  0.00  0.00    +0.000 OA
BRANCH  13  14
ATOM     14  C   UNL     1       0.452   0.742   0.000  0.00  0.00    +0.000 A 
ATOM     15  C   UNL     1       0.452   1.567   0.000  0.00  0.00    +0.000 A 
ATOM     16  C   UNL     1       1.167   1.980   0.000  0.00  0.00    +0.000 A 
ATOM     17  C   UNL     1       1.881   1.567   0.000  0.00  0.00    +0.000 A 
ATOM     18  C   UNL     1       1.881   0.742   0.000  0.00  0.00    +0.000 A 
ATOM     19  C   UNL     1       1.167   0.330   0.000  0.00  0.00    +0.000 A 
BRANCH  17  20
ATOM     20  O   UNL     1       2.596   1.980   0.000  0.00  0.00    +0.000 OA
ATOM     21  C   UNL     1       2.596   2.805   0.000  0.00  0.00    +0.000 C 
ENDBRANCH  17  20
ENDBRANCH  13  14
ENDBRANCH  11  13
TORSDOF 3
