REMARK  Name = MQU
REMARK  5 active torsions:
REMARK  status: ('A' for Active; 'I' for Inactive)
REMARK    1  A    between atoms: C_1  and  C_2
REMARK    2  A    between atoms: C_1  and  C_5
REMARK    3  A    between atoms: C_1  and  N_10
REMARK    4  A    between atoms: C_2  and  O_3
REMARK    5  A    between atoms: C_5  and  O_6
REMARK                            x       y       z     vdW  Elec       q    Type
REMARK                         _______ _______ _______ _____ _____    ______ ____
ROOT
ATOM      1  N   UNL     1       1.806  -2.102   0.000  0.00  0.00    +0.000 NA
ATOM      2  N   UNL     1       0.745  -3.058   0.000  0.00  0.00    +0.000 NA
ATOM      3  N   UNL     1      -0.517   0.222   0.000  0.00  0.00    +0.000 N 
ATOM      4  N   UNL     1       2.104  -3.499   0.000  0.00  0.00    +0.000 NA
ATOM      5  N   UNL     1      -0.614  -2.616   0.000  0.00  0.00    +0.000 NA
ATOM      6  C   UNL     1       1.254  -1.489   0.000  0.00  0.00    +0.000 A 
ATOM      7  C   UNL     1       1.552  -2.886   0.000  0.00  0.00    +0.000 A 
ATOM      8  C   UNL     1       0.193  -2.445   0.000  0.00  0.00    +0.000 A 
ATOM      9  C   UNL     1       0.448  -1.660   0.000  0.00  0.00    +0.000 A 
ATOM     10  C   UNL     1      -0.105  -1.047   0.000  0.00  0.00    +0.000 A 
ATOM     11  C   UNL     1      -0.930  -1.047   0.000  0.00  0.00    +0.000 A 
ATOM     12  C   UNL     1      -1.185  -0.263   0.000  0.00  0.00    +0.000 A 
ATOM     13  C   UNL     1       0.150  -0.263   0.000  0.00  0.00    +0.000 A 
ATOM     14  C   UNL     1       0.957  -0.091   0.000  0.00  0.00    +0.000 A 
ATOM     15  C   UNL     1       1.509  -0.704   0.000  0.00  0.00    +0.000 A 
ENDROOT
BRANCH   3  16
ATOM     16  C   UNL     1      -0.517   1.047   0.000  0.00  0.00    +0.000 C 
BRANCH  16  17
ATOM     17  C   UNL     1      -1.232   1.460   0.000  0.00  0.00    +0.000 C 
BRANCH  17  18
ATOM     18  O   UNL     1      -1.232   2.285   0.000  0.00  0.00    +0.000 OA
ATOM     19  C   UNL     1      -1.946   2.697   0.000  0.00  0.00    +0.000 C 
ENDBRANCH  17  18
ENDBRANCH  16  17
BRANCH  16  20
ATOM     20  C   UNL     1       0.197   1.460   0.000  0.00  0.00    +0.000 C 
BRANCH  20  21
ATOM     21  O   UNL     1       0.197   2.285   0.000  0.00  0.00    +0.000 OA
ATOM     22  C   UNL     1       0.912   2.697   0.000  0.00  0.00    +0.000 C 
ENDBRANCH  20  21
ENDBRANCH  16  20
ENDBRANCH   3  16
TORSDOF 5
