REMARK  Name = MR2
REMARK  3 active torsions:
REMARK  status: ('A' for Active; 'I' for Inactive)
REMARK    1  A    between atoms: C_7  and  N_25
REMARK    2  A    between atoms: C_12  and  C_13
REMARK    3  A    between atoms: C_12  and  C_19
REMARK                            x       y       z     vdW  Elec       q    Type
REMARK                         _______ _______ _______ _____ _____    ______ ____
ROOT
ATOM      1  C   UNL     1      -1.607  -0.372   0.000  0.00  0.00    +0.000 C 
ATOM      2  C   UNL     1      -1.607   0.453   0.000  0.00  0.00    +0.000 A 
ATOM      3  C   UNL     1      -2.322   0.866   0.000  0.00  0.00    +0.000 A 
ATOM      4  C   UNL     1      -2.322   1.691   0.000  0.00  0.00    +0.000 A 
ATOM      5  C   UNL     1      -1.607   2.103   0.000  0.00  0.00    +0.000 A 
ATOM      6  C   UNL     1      -0.893   1.691   0.000  0.00  0.00    +0.000 A 
ATOM      7  C   UNL     1      -0.178   2.103   0.000  0.00  0.00    +0.000 A 
ATOM      8  C   UNL     1       0.536   1.691   0.000  0.00  0.00    +0.000 A 
ATOM      9  C   UNL     1       0.536   0.866   0.000  0.00  0.00    +0.000 A 
ATOM     10  C   UNL     1      -0.178   0.453   0.000  0.00  0.00    +0.000 A 
ATOM     11  C   UNL     1      -0.893   0.866   0.000  0.00  0.00    +0.000 A 
ATOM     12  C   UNL     1      -0.178  -0.372   0.000  0.00  0.00    +0.000 C 
ATOM     13  O   UNL     1      -0.893  -0.784   0.000  0.00  0.00    +0.000 OA
ATOM     14  O   UNL     1      -2.322  -0.784   0.000  0.00  0.00    +0.000 OA
ENDROOT
BRANCH  12  15
ATOM     15  C   UNL     1       0.634  -0.229   0.000  0.00  0.00    +0.000 A 
ATOM     16  C   UNL     1       0.916   0.547   0.000  0.00  0.00    +0.000 A 
ATOM     17  C   UNL     1       1.729   0.690   0.000  0.00  0.00    +0.000 A 
ATOM     18  C   UNL     1       2.259   0.058   0.000  0.00  0.00    +0.000 A 
ATOM     19  C   UNL     1       1.977  -0.717   0.000  0.00  0.00    +0.000 A 
ATOM     20  C   UNL     1       1.164  -0.861   0.000  0.00  0.00    +0.000 A 
ATOM     21  O   UNL     1       3.071   0.201   0.000  0.00  0.00    +0.000 OA
ENDBRANCH  12  15
BRANCH  12  22
ATOM     22  C   UNL     1       0.104  -1.147   0.000  0.00  0.00    +0.000 A 
ATOM     23  C   UNL     1       0.916  -1.290   0.000  0.00  0.00    +0.000 A 
ATOM     24  C   UNL     1       1.198  -2.066   0.000  0.00  0.00    +0.000 A 
ATOM     25  C   UNL     1       0.668  -2.697   0.000  0.00  0.00    +0.000 A 
ATOM     26  C   UNL     1      -0.144  -2.554   0.000  0.00  0.00    +0.000 A 
ATOM     27  C   UNL     1      -0.426  -1.779   0.000  0.00  0.00    +0.000 A 
ATOM     28  O   UNL     1       0.950  -3.473   0.000  0.00  0.00    +0.000 OA
ENDBRANCH  12  22
BRANCH   7  29
ATOM     29  N   UNL     1      -0.178   2.928   0.000  0.00  0.00    +0.000 N 
ATOM     30  O   UNL     1      -0.893   3.341   0.000  0.00  0.00    +0.000 OA
ATOM     31  O   UNL     1       0.536   3.341   0.000  0.00  0.00    +0.000 OA
ENDBRANCH   7  29
TORSDOF 3
