REMARK  Name = MR4
REMARK  1 active torsions:
REMARK  status: ('A' for Active; 'I' for Inactive)
REMARK    1  A    between atoms: C_9  and  C_10
REMARK                            x       y       z     vdW  Elec       q    Type
REMARK                         _______ _______ _______ _____ _____    ______ ____
ROOT
ATOM      1  C   UNL     1      -2.111   1.409   0.000  0.00  0.00    +0.000 C 
ATOM      2  C   UNL     1      -1.698   0.695   0.000  0.00  0.00    +0.000 A 
ATOM      3  C   UNL     1      -0.874   0.695   0.000  0.00  0.00    +0.000 A 
ATOM      4  C   UNL     1      -2.111  -0.020   0.000  0.00  0.00    +0.000 A 
ATOM      5  O   UNL     1      -2.936  -0.020   0.000  0.00  0.00    +0.000 OA
ATOM      6  C   UNL     1      -1.698  -0.734   0.000  0.00  0.00    +0.000 A 
ATOM      7  C   UNL     1      -2.111  -1.449   0.000  0.00  0.00    +0.000 C 
ATOM      8  C   UNL     1      -0.874  -0.734   0.000  0.00  0.00    +0.000 A 
ATOM      9  C   UNL     1      -0.461  -0.020   0.000  0.00  0.00    +0.000 A 
ENDROOT
BRANCH   9  10
ATOM     10  C   UNL     1       0.364  -0.020   0.000  0.00  0.00    +0.000 A 
ATOM     11  O   UNL     1       0.849   0.647   0.000  0.00  0.00    +0.000 OA
ATOM     12  C   UNL     1       1.633   0.393   0.000  0.00  0.00    +0.000 A 
ATOM     13  C   UNL     1       2.348   0.805   0.000  0.00  0.00    +0.000 A 
ATOM     14  C   UNL     1       3.062   0.393   0.000  0.00  0.00    +0.000 A 
ATOM     15  C   UNL     1       3.062  -0.432   0.000  0.00  0.00    +0.000 A 
ATOM     16  C   UNL     1       2.348  -0.845   0.000  0.00  0.00    +0.000 A 
ATOM     17  C   UNL     1       1.633  -0.432   0.000  0.00  0.00    +0.000 A 
ATOM     18  N   UNL     1       0.849  -0.687   0.000  0.00  0.00    +0.000 NA
ENDBRANCH   9  10
TORSDOF 1
