REMARK  Name = MR5
REMARK  1 active torsions:
REMARK  status: ('A' for Active; 'I' for Inactive)
REMARK    1  A    between atoms: C_9  and  C_10
REMARK                            x       y       z     vdW  Elec       q    Type
REMARK                         _______ _______ _______ _____ _____    ______ ____
ROOT
ATOM      1  C   UNL     1      -0.192  -0.739   0.000  0.00  0.00    +0.000 A 
ATOM      2  C   UNL     1      -1.017  -0.739   0.000  0.00  0.00    +0.000 A 
ATOM      3 BR   UNL     1      -1.429  -1.454   0.000  0.00  0.00    +0.000 Br
ATOM      4  C   UNL     1      -1.429  -0.025   0.000  0.00  0.00    +0.000 A 
ATOM      5  O   UNL     1      -2.254  -0.025   0.000  0.00  0.00    +0.000 OA
ATOM      6  C   UNL     1      -1.017   0.690   0.000  0.00  0.00    +0.000 A 
ATOM      7 BR   UNL     1      -1.429   1.404   0.000  0.00  0.00    +0.000 Br
ATOM      8  C   UNL     1      -0.192   0.690   0.000  0.00  0.00    +0.000 A 
ATOM      9  C   UNL     1       0.221  -0.025   0.000  0.00  0.00    +0.000 A 
ENDROOT
BRANCH   9  10
ATOM     10  C   UNL     1       1.046  -0.025   0.000  0.00  0.00    +0.000 A 
ATOM     11  O   UNL     1       1.531  -0.692   0.000  0.00  0.00    +0.000 OA
ATOM     12  C   UNL     1       2.316  -0.437   0.000  0.00  0.00    +0.000 A 
ATOM     13  C   UNL     1       3.030  -0.850   0.000  0.00  0.00    +0.000 A 
ATOM     14  C   UNL     1       3.744  -0.437   0.000  0.00  0.00    +0.000 A 
ATOM     15  C   UNL     1       3.744   0.388   0.000  0.00  0.00    +0.000 A 
ATOM     16  C   UNL     1       3.030   0.800   0.000  0.00  0.00    +0.000 A 
ATOM     17  C   UNL     1       2.316   0.388   0.000  0.00  0.00    +0.000 A 
ATOM     18  N   UNL     1       1.531   0.643   0.000  0.00  0.00    +0.000 NA
ENDBRANCH   9  10
TORSDOF 1
