REMARK  Name = MR6
REMARK  1 active torsions:
REMARK  status: ('A' for Active; 'I' for Inactive)
REMARK    1  A    between atoms: C_8  and  C_9
REMARK                            x       y       z     vdW  Elec       q    Type
REMARK                         _______ _______ _______ _____ _____    ______ ____
ROOT
ATOM      1  C   UNL     1       0.641   0.006   0.000  0.00  0.00    +0.000 A 
ATOM      2  O   UNL     1       1.125  -0.662   0.000  0.00  0.00    +0.000 OA
ATOM      3  C   UNL     1       1.910  -0.407   0.000  0.00  0.00    +0.000 A 
ATOM      4  C   UNL     1       2.625  -0.819   0.000  0.00  0.00    +0.000 A 
ATOM      5  C   UNL     1       3.339  -0.407   0.000  0.00  0.00    +0.000 A 
ATOM      6  C   UNL     1       3.339   0.418   0.000  0.00  0.00    +0.000 A 
ATOM      7  C   UNL     1       2.625   0.831   0.000  0.00  0.00    +0.000 A 
ATOM      8  C   UNL     1       1.910   0.418   0.000  0.00  0.00    +0.000 A 
ATOM      9  N   UNL     1       1.125   0.673   0.000  0.00  0.00    +0.000 NA
ENDROOT
BRANCH   1  17
ATOM     10  C   UNL     1      -1.834  -1.423   0.000  0.00  0.00    +0.000 C 
ATOM     11  C   UNL     1      -1.422  -0.709   0.000  0.00  0.00    +0.000 A 
ATOM     12  C   UNL     1      -0.597  -0.709   0.000  0.00  0.00    +0.000 A 
ATOM     13  C   UNL     1      -1.834   0.006   0.000  0.00  0.00    +0.000 A 
ATOM     14  C   UNL     1      -1.422   0.720   0.000  0.00  0.00    +0.000 A 
ATOM     15  C   UNL     1      -1.834   1.435   0.000  0.00  0.00    +0.000 C 
ATOM     16  C   UNL     1      -0.597   0.720   0.000  0.00  0.00    +0.000 A 
ATOM     17  C   UNL     1      -0.184   0.006   0.000  0.00  0.00    +0.000 A 
ENDBRANCH   1  17
TORSDOF 1
