REMARK  Name = MRA
REMARK  7 active torsions:
REMARK  status: ('A' for Active; 'I' for Inactive)
REMARK    1  A    between atoms: C_3  and  N_9
REMARK    2  A    between atoms: C_6  and  C_7
REMARK    3  A    between atoms: N_9  and  C_10
REMARK    4  A    between atoms: C_11  and  C_18
REMARK    5  A    between atoms: N_20  and  O_21
REMARK    6  A    between atoms: O_21  and  C_22
REMARK    7  A    between atoms: C_22  and  C_23
REMARK                            x       y       z     vdW  Elec       q    Type
REMARK                         _______ _______ _______ _____ _____    ______ ____
ROOT
ATOM      1  C   UNL     1      -0.759   0.236   0.000  0.00  0.00    +0.000 A 
ATOM      2  C   UNL     1      -0.045   0.648   0.000  0.00  0.00    +0.000 A 
ATOM      3  C   UNL     1      -0.045   1.473   0.000  0.00  0.00    +0.000 A 
ATOM      4  C   UNL     1      -0.759   1.886   0.000  0.00  0.00    +0.000 A 
ATOM      5  C   UNL     1      -1.474   1.473   0.000  0.00  0.00    +0.000 A 
ATOM      6  C   UNL     1      -1.474   0.648   0.000  0.00  0.00    +0.000 A 
ATOM      7  F   UNL     1      -2.188   0.236   0.000  0.00  0.00    +0.000 F 
ATOM      8  F   UNL     1      -2.188   1.886   0.000  0.00  0.00    +0.000 F 
ENDROOT
BRANCH   2   9
ATOM      9  C   UNL     1       0.670   0.236   0.000  0.00  0.00    +0.000 C 
ATOM     10  O   UNL     1       0.670  -0.589   0.000  0.00  0.00    +0.000 OA
ATOM     11  N   UNL     1       1.384   0.648   0.000  0.00  0.00    +0.000 NA
BRANCH  11  12
ATOM     12  O   UNL     1       2.099   0.236   0.000  0.00  0.00    +0.000 OA
BRANCH  12  13
ATOM     13  C   UNL     1       2.813   0.648   0.000  0.00  0.00    +0.000 C 
BRANCH  13  14
ATOM     14  C   UNL     1       3.528   0.236   0.000  0.00  0.00    +0.000 C 
ATOM     15  O   UNL     1       4.242   0.648   0.000  0.00  0.00    +0.000 OA
ENDBRANCH  13  14
ENDBRANCH  12  13
ENDBRANCH  11  12
ENDBRANCH   2   9
BRANCH   1  16
ATOM     16  N   UNL     1      -0.759  -0.589   0.000  0.00  0.00    +0.000 NA
BRANCH  16  19
ATOM     17  C   UNL     1      -2.188  -2.239   0.000  0.00  0.00    +0.000 A 
ATOM     18  C   UNL     1      -1.474  -1.827   0.000  0.00  0.00    +0.000 A 
ATOM     19  C   UNL     1      -1.474  -1.002   0.000  0.00  0.00    +0.000 A 
ATOM     20  C   UNL     1      -2.188  -0.589   0.000  0.00  0.00    +0.000 A 
ATOM     21  C   UNL     1      -2.902  -1.002   0.000  0.00  0.00    +0.000 A 
ATOM     22  C   UNL     1      -2.902  -1.827   0.000  0.00  0.00    +0.000 A 
ATOM     23  F   UNL     1      -0.759  -2.239   0.000  0.00  0.00    +0.000 F 
BRANCH  22  24
ATOM     24  C   UNL     1      -3.617  -2.239   0.000  0.00  0.00    +0.000 C 
ATOM     25  C   UNL     1      -4.331  -2.652   0.000  0.00  0.00    +0.000 C 
ENDBRANCH  22  24
ENDBRANCH  16  19
ENDBRANCH   1  16
TORSDOF 7
