REMARK  Name = MRK
REMARK  3 active torsions:
REMARK  status: ('A' for Active; 'I' for Inactive)
REMARK    1  A    between atoms: C_7  and  C_10
REMARK    2  A    between atoms: C_12  and  S_16
REMARK    3  A    between atoms: S_16  and  C_18
REMARK                            x       y       z     vdW  Elec       q    Type
REMARK                         _______ _______ _______ _____ _____    ______ ____
ROOT
ATOM      1  C   UNL     1       1.081  -0.060   0.000  0.00  0.00    +0.000 A 
ATOM      2  C   UNL     1       0.366  -0.472   0.000  0.00  0.00    +0.000 A 
ATOM      3  C   UNL     1      -0.348  -0.060   0.000  0.00  0.00    +0.000 A 
ATOM      4  C   UNL     1      -0.348   0.765   0.000  0.00  0.00    +0.000 A 
ATOM      5  C   UNL     1       0.366   1.178   0.000  0.00  0.00    +0.000 A 
ATOM      6  F   UNL     1       0.366   2.003   0.000  0.00  0.00    +0.000 F 
ATOM      7  C   UNL     1       1.081   0.765   0.000  0.00  0.00    +0.000 A 
ATOM      8  N   UNL     1       1.795  -0.472   0.000  0.00  0.00    +0.000 NA
ENDROOT
BRANCH   2  15
ATOM      9  S   UNL     1       1.748  -3.019   0.000  0.00  0.00    +0.000 S 
ATOM     10  C   UNL     1       1.493  -3.804   0.000  0.00  0.00    +0.000 A 
ATOM     11  C   UNL     1       0.668  -3.804   0.000  0.00  0.00    +0.000 A 
ATOM     12  N   UNL     1       0.413  -3.019   0.000  0.00  0.00    +0.000 NA
ATOM     13  C   UNL     1       1.081  -2.535   0.000  0.00  0.00    +0.000 A 
ATOM     14  N   UNL     1       1.081  -1.710   0.000  0.00  0.00    +0.000 NA
ATOM     15  C   UNL     1       0.366  -1.297   0.000  0.00  0.00    +0.000 C 
ATOM     16  O   UNL     1      -0.348  -1.710   0.000  0.00  0.00    +0.000 OA
ENDBRANCH   2  15
BRANCH   4  17
ATOM     17  S   UNL     1      -1.063   1.178   0.000  0.00  0.00    +0.000 S 
BRANCH  17  19
ATOM     18  N   UNL     1      -1.730   2.488   0.000  0.00  0.00    +0.000 N 
ATOM     19  C   UNL     1      -1.063   2.003   0.000  0.00  0.00    +0.000 A 
ATOM     20  N   UNL     1      -0.396   2.488   0.000  0.00  0.00    +0.000 NA
ATOM     21  C   UNL     1      -0.650   3.272   0.000  0.00  0.00    +0.000 A 
ATOM     22  C   UNL     1      -1.476   3.272   0.000  0.00  0.00    +0.000 A 
ATOM     23  C   UNL     1      -2.515   2.233   0.000  0.00  0.00    +0.000 C 
ENDBRANCH  17  19
ENDBRANCH   4  17
TORSDOF 3
