REMARK  Name = 
REMARK  4 active torsions:
REMARK  status: ('A' for Active; 'I' for Inactive)
REMARK    1  A    between atoms: C_2  and  C_5
REMARK    2  A    between atoms: C_2  and  O_22
REMARK    3  A    between atoms: C_11  and  N_16
REMARK    4  A    between atoms: O_22  and  P_24
REMARK                            x       y       z     vdW  Elec       q    Type
REMARK                         _______ _______ _______ _____ _____    ______ ____
ROOT
ATOM      1  C   UNL     1       1.525   3.199   0.000  0.00  0.00    +0.000 C 
ATOM      2  C   UNL     1       0.740   2.945   0.000  0.00  0.00    +0.000 C 
ATOM      3  C   UNL     1       0.740   2.119   0.000  0.00  0.00    +0.000 C 
ATOM      4  C   UNL     1       1.525   1.865   0.000  0.00  0.00    +0.000 C 
ATOM      5  O   UNL     1       0.073   3.429   0.000  0.00  0.00    +0.000 OA
ATOM      6  O   UNL     1       0.073   1.635   0.000  0.00  0.00    +0.000 OA
ATOM      7  O   UNL     1       2.010   2.532   0.000  0.00  0.00    +0.000 OA
ENDROOT
BRANCH   4  18
ATOM      8  C   UNL     1       4.708  -0.412   0.000  0.00  0.00    +0.000 C 
ATOM      9  C   UNL     1       3.993   0.825   0.000  0.00  0.00    +0.000 A 
ATOM     10  C   UNL     1       1.295   0.412   0.000  0.00  0.00    +0.000 A 
ATOM     11  C   UNL     1       2.564   0.000   0.000  0.00  0.00    +0.000 A 
ATOM     12  C   UNL     1       3.279  -0.412   0.000  0.00  0.00    +0.000 A 
ATOM     13  C   UNL     1       2.564   0.825   0.000  0.00  0.00    +0.000 A 
ATOM     14  N   UNL     1       3.279  -1.238   0.000  0.00  0.00    +0.000 NA
ATOM     15  N   UNL     1       1.780  -0.255   0.000  0.00  0.00    +0.000 NA
ATOM     16  N   UNL     1       3.279   1.238   0.000  0.00  0.00    +0.000 NA
ATOM     17  N   UNL     1       3.993   0.000   0.000  0.00  0.00    +0.000 N 
ATOM     18  N   UNL     1       1.780   1.080   0.000  0.00  0.00    +0.000 N 
ATOM     19  H   UNL     1       3.993  -1.650   0.000  0.00  0.00    +0.000 HD
ENDBRANCH   4  18
BRANCH   1  20
ATOM     20  C   UNL     1       1.780   3.984   0.000  0.00  0.00    +0.000 C 
BRANCH  20  21
ATOM     21  O   UNL     1       2.587   4.156   0.000  0.00  0.00    +0.000 OA
BRANCH  21  25
ATOM     22  O   UNL     1       3.097   5.725   0.000  0.00  0.00    +0.000 OA
ATOM     23  O   UNL     1       3.626   4.685   0.000  0.00  0.00    +0.000 OA
ATOM     24  O   UNL     1       2.057   5.195   0.000  0.00  0.00    +0.000 OA
ATOM     25  P   UNL     1       2.842   4.940   0.000  0.00  0.00    +0.000 P 
ENDBRANCH  21  25
ENDBRANCH  20  21
ENDBRANCH   1  20
TORSDOF 4
