REMARK  Name = 
REMARK  5 active torsions:
REMARK  status: ('A' for Active; 'I' for Inactive)
REMARK    1  A    between atoms: C_6  and  C_11
REMARK    2  A    between atoms: C_6  and  CA_13
REMARK    3  A    between atoms: C_10  and  C_12
REMARK    4  A    between atoms: CA_13  and  C_18
REMARK    5  A    between atoms: C_14  and  N_20
REMARK                            x       y       z     vdW  Elec       q    Type
REMARK                         _______ _______ _______ _____ _____    ______ ____
ROOT
ATOM      1  C   UNL     1      -3.683   1.174   0.000  0.00  0.00    +0.000 C 
ATOM      2  C   UNL     1      -5.112   0.349   0.000  0.00  0.00    +0.000 C 
ATOM      3  C   UNL     1      -4.397   1.586   0.000  0.00  0.00    +0.000 C 
ATOM      4  C   UNL     1      -3.683   0.349   0.000  0.00  0.00    +0.000 C 
ATOM      5  C   UNL     1      -5.112   1.174   0.000  0.00  0.00    +0.000 C 
ATOM      6  C   UNL     1      -4.397  -0.064   0.000  0.00  0.00    +0.000 C 
ATOM      7  N   UNL     1      -2.968  -0.064   0.000  0.00  0.00    +0.000 NA
ATOM      8  O   UNL     1      -5.826   1.586   0.000  0.00  0.00    +0.000 OA
ATOM      9  O   UNL     1      -4.397  -0.889   0.000  0.00  0.00    +0.000 OA
ENDROOT
BRANCH   7  12
ATOM     10  C   UNL     1      -1.429   0.349   0.000  0.00  0.00    +0.000 C 
ATOM     11  C   UNL     1      -1.841   1.063   0.000  0.00  0.00    +0.000 C 
ATOM     12  C   UNL     1      -2.254   0.349   0.000  0.00  0.00    +0.000 C 
BRANCH  11  18
ATOM     13  C   UNL     1      -1.841   3.538   0.000  0.00  0.00    +0.000 A 
ATOM     14  C   UNL     1      -2.556   3.126   0.000  0.00  0.00    +0.000 A 
ATOM     15  C   UNL     1      -1.127   3.126   0.000  0.00  0.00    +0.000 A 
ATOM     16  C   UNL     1      -2.556   2.301   0.000  0.00  0.00    +0.000 A 
ATOM     17  C   UNL     1      -1.127   2.301   0.000  0.00  0.00    +0.000 A 
ATOM     18  C   UNL     1      -1.841   1.888   0.000  0.00  0.00    +0.000 A 
ENDBRANCH  11  18
ENDBRANCH   7  12
BRANCH   3  19
ATOM     19  C   UNL     1      -4.397   2.411   0.000  0.00  0.00    +0.000 C 
BRANCH  19  20
ATOM     20  CA  UNL     1      -5.112   2.824   0.000  0.00  0.00    +0.000 C 
ATOM     21  N   UNL     1      -5.826   2.411   0.000  0.00  0.00    +0.000 NA
BRANCH  20  22
ATOM     22  C   UNL     1      -5.112   3.649   0.000  0.00  0.00    +0.000 C 
ATOM     23  O   UNL     1      -5.826   4.061   0.000  0.00  0.00    +0.000 OA
ATOM     24  OXT UNL     1      -4.397   4.061   0.000  0.00  0.00    +0.000 OA
ENDBRANCH  20  22
ENDBRANCH  19  20
ENDBRANCH   3  19
TORSDOF 5
