REMARK  Name = 
REMARK  3 active torsions:
REMARK  status: ('A' for Active; 'I' for Inactive)
REMARK    1  A    between atoms: C_1  and  CA_5
REMARK    2  A    between atoms: C_1  and  C_6
REMARK    3  A    between atoms: C_3  and  CA_5
REMARK                            x       y       z     vdW  Elec       q    Type
REMARK                         _______ _______ _______ _____ _____    ______ ____
ROOT
ATOM      1  C   UNL     1      -0.568  -0.681   0.000  0.00  0.00    +0.000 A 
ATOM      2  C   UNL     1      -1.648  -1.465   0.000  0.00  0.00    +0.000 A 
ATOM      3  C   UNL     1      -1.235  -0.196   0.000  0.00  0.00    +0.000 A 
ATOM      4  C   UNL     1      -0.338  -2.133   0.000  0.00  0.00    +0.000 A 
ATOM      5  N   UNL     1      -1.903  -0.681   0.000  0.00  0.00    +0.000 NA
ATOM      6  N   UNL     1      -0.593  -2.917   0.000  0.00  0.00    +0.000 NA
ATOM      7  N   UNL     1       0.487  -2.133   0.000  0.00  0.00    +0.000 NA
ATOM      8  N   UNL     1       0.075  -3.402   0.000  0.00  0.00    +0.000 NA
ATOM      9  N   UNL     1       0.742  -2.917   0.000  0.00  0.00    +0.000 NA
ATOM     10  N   UNL     1      -0.823  -1.465   0.000  0.00  0.00    +0.000 N 
ENDROOT
BRANCH   3  11
ATOM     11  C   UNL     1      -1.235   0.629   0.000  0.00  0.00    +0.000 C 
BRANCH  11  12
ATOM     12  CA  UNL     1      -1.950   1.042   0.000  0.00  0.00    +0.000 C 
ATOM     13  N   UNL     1      -2.664   0.629   0.000  0.00  0.00    +0.000 NA
BRANCH  12  14
ATOM     14  C   UNL     1      -1.950   1.867   0.000  0.00  0.00    +0.000 C 
ATOM     15  O   UNL     1      -2.664   2.279   0.000  0.00  0.00    +0.000 OA
ENDBRANCH  12  14
ENDBRANCH  11  12
ENDBRANCH   3  11
TORSDOF 3
