REMARK  Name = 
REMARK  4 active torsions:
REMARK  status: ('A' for Active; 'I' for Inactive)
REMARK    1  A    between atoms: C_2  and  C_6
REMARK    2  A    between atoms: C_2  and  O_20
REMARK    3  A    between atoms: C_10  and  N_14
REMARK    4  A    between atoms: O_20  and  P_22
REMARK                            x       y       z     vdW  Elec       q    Type
REMARK                         _______ _______ _______ _____ _____    ______ ____
ROOT
ATOM      1  C   UNL     1       0.884   2.089   0.000  0.00  0.00    +0.000 C 
ATOM      2  C   UNL     1       0.099   1.834   0.000  0.00  0.00    +0.000 C 
ATOM      3  C   UNL     1       0.099   1.009   0.000  0.00  0.00    +0.000 C 
ATOM      4  C   UNL     1       0.884   0.754   0.000  0.00  0.00    +0.000 C 
ATOM      5  O   UNL     1      -0.568   2.319   0.000  0.00  0.00    +0.000 OA
ATOM      6  O   UNL     1      -0.568   0.524   0.000  0.00  0.00    +0.000 OA
ATOM      7  O   UNL     1       1.369   1.422   0.000  0.00  0.00    +0.000 OA
ENDROOT
BRANCH   4  16
ATOM      8  C   UNL     1       2.638   0.127   0.000  0.00  0.00    +0.000 A 
ATOM      9  C   UNL     1       3.352  -1.110   0.000  0.00  0.00    +0.000 A 
ATOM     10  C   UNL     1       0.654  -0.698   0.000  0.00  0.00    +0.000 A 
ATOM     11  C   UNL     1       1.923  -0.285   0.000  0.00  0.00    +0.000 A 
ATOM     12  C   UNL     1       1.923  -1.110   0.000  0.00  0.00    +0.000 A 
ATOM     13  N   UNL     1       3.352  -0.285   0.000  0.00  0.00    +0.000 NA
ATOM     14  N   UNL     1       2.638  -1.523   0.000  0.00  0.00    +0.000 NA
ATOM     15  N   UNL     1       1.139  -1.365   0.000  0.00  0.00    +0.000 NA
ATOM     16  N   UNL     1       1.139  -0.030   0.000  0.00  0.00    +0.000 N 
ENDBRANCH   4  16
BRANCH   1  17
ATOM     17  C   UNL     1       1.139   2.874   0.000  0.00  0.00    +0.000 C 
BRANCH  17  18
ATOM     18  O   UNL     1       1.946   3.045   0.000  0.00  0.00    +0.000 OA
BRANCH  18  22
ATOM     19  O   UNL     1       2.456   4.614   0.000  0.00  0.00    +0.000 OA
ATOM     20  O   UNL     1       2.985   3.575   0.000  0.00  0.00    +0.000 OA
ATOM     21  O   UNL     1       1.416   4.085   0.000  0.00  0.00    +0.000 OA
ATOM     22  P   UNL     1       2.201   3.830   0.000  0.00  0.00    +0.000 P 
ENDBRANCH  18  22
ENDBRANCH  17  18
ENDBRANCH   1  17
TORSDOF 4
