REMARK  Name = 
REMARK  6 active torsions:
REMARK  status: ('A' for Active; 'I' for Inactive)
REMARK    1  A    between atoms: C_1  and  CA_2
REMARK    2  A    between atoms: CA_2  and  C_3
REMARK    3  A    between atoms: CA_2  and  N_13
REMARK    4  A    between atoms: C_3  and  C_4
REMARK    5  A    between atoms: C_4  and  C_5
REMARK    6  A    between atoms: C_5  and  C_11
REMARK                            x       y       z     vdW  Elec       q    Type
REMARK                         _______ _______ _______ _____ _____    ______ ____
ROOT
ATOM      1  C   UNL     1      10.771  -5.450   0.000  0.00  0.00    +0.000 C 
ATOM      2  O   UNL     1      10.771  -4.625   0.000  0.00  0.00    +0.000 OA
ENDROOT
BRANCH   1   3
ATOM      3  C   UNL     1      10.056  -5.863   0.000  0.00  0.00    +0.000 C 
ATOM      4  O   UNL     1      10.056  -6.688   0.000  0.00  0.00    +0.000 OA
BRANCH   3   5
ATOM      5  C   UNL     1       9.342  -5.450   0.000  0.00  0.00    +0.000 C 
ATOM      6  O   UNL     1       9.342  -4.625   0.000  0.00  0.00    +0.000 OA
BRANCH   5   7
ATOM      7  C   UNL     1       8.627  -5.863   0.000  0.00  0.00    +0.000 C 
ATOM      8  O   UNL     1       7.913  -5.450   0.000  0.00  0.00    +0.000 OA
ENDBRANCH   5   7
ENDBRANCH   3   5
ENDBRANCH   1   3
BRANCH   1   9
ATOM      9  CA  UNL     1      11.485  -5.863   0.000  0.00  0.00    +0.000 C 
BRANCH   9  10
ATOM     10  N   UNL     1      11.485  -6.688   0.000  0.00  0.00    +0.000 NA
ATOM     11  C   UNL     1      12.200  -7.100   0.000  0.00  0.00    +0.000 C 
ATOM     12  O   UNL     1      12.914  -6.688   0.000  0.00  0.00    +0.000 OA
ATOM     13  C   UNL     1      12.200  -7.925   0.000  0.00  0.00    +0.000 C 
ENDBRANCH   9  10
BRANCH   9  14
ATOM     14  C   UNL     1      12.200  -5.450   0.000  0.00  0.00    +0.000 C 
ATOM     15  O   UNL     1      12.200  -4.625   0.000  0.00  0.00    +0.000 OA
ENDBRANCH   9  14
ENDBRANCH   1   9
TORSDOF 6
