REMARK  Name = 
REMARK  10 active torsions:
REMARK  status: ('A' for Active; 'I' for Inactive)
REMARK    1  A    between atoms: C_2  and  C_34
REMARK    2  A    between atoms: C_3  and  N_11
REMARK    3  A    between atoms: C_8  and  O_29
REMARK    4  A    between atoms: C_9  and  O_12
REMARK    5  A    between atoms: N_11  and  C_14
REMARK    6  A    between atoms: O_12  and  C_13
REMARK    7  A    between atoms: C_13  and  C_21
REMARK    8  A    between atoms: C_18  and  O_32
REMARK    9  A    between atoms: C_21  and  C_22
REMARK   10  A    between atoms: C_22  and  N_23
REMARK                            x       y       z     vdW  Elec       q    Type
REMARK                         _______ _______ _______ _____ _____    ______ ____
ROOT
ATOM      1  C   UNL     1       5.866 -12.769   0.000  0.00  0.00    +0.000 A 
ATOM      2  C   UNL     1       5.866 -13.594   0.000  0.00  0.00    +0.000 A 
ATOM      3  C   UNL     1       6.580 -14.007   0.000  0.00  0.00    +0.000 A 
ATOM      4  C   UNL     1       7.295 -13.594   0.000  0.00  0.00    +0.000 A 
ATOM      5  C   UNL     1       7.295 -12.769   0.000  0.00  0.00    +0.000 A 
ATOM      6  N   UNL     1       6.580 -12.357   0.000  0.00  0.00    +0.000 NA
ATOM      7  C   UNL     1       8.009 -14.007   0.000  0.00  0.00    +0.000 A 
ATOM      8  C   UNL     1       8.723 -13.594   0.000  0.00  0.00    +0.000 A 
ATOM      9  C   UNL     1       8.723 -12.769   0.000  0.00  0.00    +0.000 A 
ATOM     10  C   UNL     1       8.009 -12.357   0.000  0.00  0.00    +0.000 A 
ENDROOT
BRANCH   2  11
ATOM     11  C   UNL     1       5.129 -14.019   0.000  0.00  0.00    +0.000 C 
ATOM     12  N   UNL     1       4.410 -14.434   0.000  0.00  0.00    +0.000 NA
ENDBRANCH   2  11
BRANCH   8  13
ATOM     13  O   UNL     1       9.432 -14.024   0.000  0.00  0.00    +0.000 OA
ATOM     14  C   UNL     1      10.150 -13.609   0.000  0.00  0.00    +0.000 C 
ENDBRANCH   8  13
BRANCH   3  15
ATOM     15  N   UNL     1       6.580 -14.832   0.000  0.00  0.00    +0.000 NA
BRANCH  15  16
ATOM     16  C   UNL     1       7.295 -15.244   0.000  0.00  0.00    +0.000 A 
ATOM     17  C   UNL     1       7.295 -16.069   0.000  0.00  0.00    +0.000 A 
ATOM     18  C   UNL     1       8.009 -16.482   0.000  0.00  0.00    +0.000 A 
ATOM     19  C   UNL     1       8.724 -16.069   0.000  0.00  0.00    +0.000 A 
ATOM     20  C   UNL     1       8.724 -15.244   0.000  0.00  0.00    +0.000 A 
ATOM     21  C   UNL     1       8.009 -14.832   0.000  0.00  0.00    +0.000 A 
ATOM     22 CL   UNL     1       9.440 -16.482   0.000  0.00  0.00    +0.000 Cl
ATOM     23 CL   UNL     1       6.587 -16.478   0.000  0.00  0.00    +0.000 Cl
BRANCH  20  24
ATOM     24  O   UNL     1       9.442 -14.830   0.000  0.00  0.00    +0.000 OA
ATOM     25  C   UNL     1      10.166 -15.248   0.000  0.00  0.00    +0.000 C 
ENDBRANCH  20  24
ENDBRANCH  15  16
ENDBRANCH   3  15
BRANCH   9  26
ATOM     26  O   UNL     1       9.440 -12.357   0.000  0.00  0.00    +0.000 OA
BRANCH  26  27
ATOM     27  C   UNL     1      10.155 -12.770   0.000  0.00  0.00    +0.000 C 
BRANCH  27  28
ATOM     28  C   UNL     1      10.858 -12.365   0.000  0.00  0.00    +0.000 C 
BRANCH  28  29
ATOM     29  C   UNL     1      11.573 -12.778   0.000  0.00  0.00    +0.000 C 
BRANCH  29  30
ATOM     30  N   UNL     1      12.268 -12.376   0.000  0.00  0.00    +0.000 NA
ATOM     31  C   UNL     1      12.973 -12.784   0.000  0.00  0.00    +0.000 C 
ATOM     32  C   UNL     1      13.688 -12.371   0.000  0.00  0.00    +0.000 C 
ATOM     33  N   UNL     1      13.688 -11.546   0.000  0.00  0.00    +0.000 NA
ATOM     34  C   UNL     1      12.984 -11.138   0.000  0.00  0.00    +0.000 C 
ATOM     35  C   UNL     1      12.268 -11.551   0.000  0.00  0.00    +0.000 C 
ATOM     36  C   UNL     1      14.415 -11.127   0.000  0.00  0.00    +0.000 C 
ENDBRANCH  29  30
ENDBRANCH  28  29
ENDBRANCH  27  28
ENDBRANCH  26  27
ENDBRANCH   9  26
TORSDOF 10
