REMARK  Name = 
REMARK  4 active torsions:
REMARK  status: ('A' for Active; 'I' for Inactive)
REMARK    1  A    between atoms: C_5  and  C_7
REMARK    2  A    between atoms: C_5  and  C_9
REMARK    3  A    between atoms: C_9  and  P_19
REMARK    4  A    between atoms: C_9  and  P_20
REMARK                            x       y       z     vdW  Elec       q    Type
REMARK                         _______ _______ _______ _____ _____    ______ ____
ROOT
ATOM      1  C   UNL     1       0.884   2.975   0.000  0.00  0.00    +0.000 C 
ENDROOT
BRANCH   1   7
ATOM      2  C   UNL     1       3.352   1.110   0.000  0.00  0.00    +0.000 A 
ATOM      3  C   UNL     1       3.352   1.935   0.000  0.00  0.00    +0.000 A 
ATOM      4  C   UNL     1       2.638   0.698   0.000  0.00  0.00    +0.000 A 
ATOM      5  C   UNL     1       2.638   2.348   0.000  0.00  0.00    +0.000 A 
ATOM      6  C   UNL     1       0.654   1.523   0.000  0.00  0.00    +0.000 A 
ATOM      7  C   UNL     1       1.139   2.190   0.000  0.00  0.00    +0.000 A 
ATOM      8  C   UNL     1       1.923   1.110   0.000  0.00  0.00    +0.000 A 
ATOM      9  N   UNL     1       1.139   0.856   0.000  0.00  0.00    +0.000 NA
ATOM     10  N   UNL     1       1.923   1.935   0.000  0.00  0.00    +0.000 N 
ENDBRANCH   1   7
BRANCH   1  11
ATOM     11  C   UNL     1       0.077   3.147   0.000  0.00  0.00    +0.000 C 
ATOM     12  O   UNL     1      -0.730   3.318   0.000  0.00  0.00    +0.000 OA
BRANCH  11  16
ATOM     13  O   UNL     1      -0.266   1.533   0.000  0.00  0.00    +0.000 OA
ATOM     14  O   UNL     1      -0.902   2.511   0.000  0.00  0.00    +0.000 OA
ATOM     15  O   UNL     1       0.712   2.168   0.000  0.00  0.00    +0.000 OA
ATOM     16  P   UNL     1      -0.095   2.340   0.000  0.00  0.00    +0.000 P 
ENDBRANCH  11  16
BRANCH  11  20
ATOM     17  O   UNL     1      -0.559   4.125   0.000  0.00  0.00    +0.000 OA
ATOM     18  O   UNL     1       0.420   4.761   0.000  0.00  0.00    +0.000 OA
ATOM     19  O   UNL     1       1.055   3.782   0.000  0.00  0.00    +0.000 OA
ATOM     20  P   UNL     1       0.248   3.954   0.000  0.00  0.00    +0.000 P 
ENDBRANCH  11  20
ENDBRANCH   1  11
TORSDOF 4
