REMARK  Name = 
REMARK  7 active torsions:
REMARK  status: ('A' for Active; 'I' for Inactive)
REMARK    1  A    between atoms: C_4  and  S_5
REMARK    2  A    between atoms: S_5  and  C_6
REMARK    3  A    between atoms: C_10  and  C_11
REMARK    4  A    between atoms: C_10  and  C_23
REMARK    5  A    between atoms: C_11  and  C_12
REMARK    6  A    between atoms: C_12  and  C_13
REMARK    7  A    between atoms: C_28  and  C_32
REMARK                            x       y       z     vdW  Elec       q    Type
REMARK                         _______ _______ _______ _____ _____    ______ ____
ROOT
ATOM      1  C   UNL     1       1.872   0.581   0.000  0.00  0.00    +0.000 C 
ATOM      2  C   UNL     1       2.684   0.724   0.000  0.00  0.00    +0.000 C 
ATOM      3  O   UNL     1       2.967   1.499   0.000  0.00  0.00    +0.000 OA
ATOM      4  C   UNL     1       3.215   0.092   0.000  0.00  0.00    +0.000 C 
ATOM      5  C   UNL     1       2.933  -0.683   0.000  0.00  0.00    +0.000 C 
ATOM      6  O   UNL     1       2.120  -0.826   0.000  0.00  0.00    +0.000 OA
ATOM      7  C   UNL     1       1.590  -0.194   0.000  0.00  0.00    +0.000 C 
ATOM      8  O   UNL     1       0.777  -0.338   0.000  0.00  0.00    +0.000 OA
ENDROOT
BRANCH   5   9
ATOM      9  C   UNL     1       2.933  -1.508   0.000  0.00  0.00    +0.000 C 
ATOM     10  C   UNL     1       3.600  -1.993   0.000  0.00  0.00    +0.000 C 
ATOM     11  C   UNL     1       3.345  -2.778   0.000  0.00  0.00    +0.000 C 
ATOM     12  C   UNL     1       2.520  -2.778   0.000  0.00  0.00    +0.000 C 
ATOM     13  C   UNL     1       2.265  -1.993   0.000  0.00  0.00    +0.000 C 
ENDBRANCH   5   9
BRANCH   5  14
ATOM     14  C   UNL     1       3.745  -0.826   0.000  0.00  0.00    +0.000 C 
BRANCH  14  15
ATOM     15  C   UNL     1       4.275  -0.194   0.000  0.00  0.00    +0.000 C 
BRANCH  15  16
ATOM     16  C   UNL     1       5.088  -0.338   0.000  0.00  0.00    +0.000 A 
ATOM     17  C   UNL     1       5.618   0.294   0.000  0.00  0.00    +0.000 A 
ATOM     18  C   UNL     1       6.431   0.151   0.000  0.00  0.00    +0.000 A 
ATOM     19  C   UNL     1       6.713  -0.624   0.000  0.00  0.00    +0.000 A 
ATOM     20  O   UNL     1       7.525  -0.767   0.000  0.00  0.00    +0.000 OA
ATOM     21  C   UNL     1       6.182  -1.256   0.000  0.00  0.00    +0.000 A 
ATOM     22  C   UNL     1       5.370  -1.113   0.000  0.00  0.00    +0.000 A 
ENDBRANCH  15  16
ENDBRANCH  14  15
ENDBRANCH   5  14
BRANCH   1  23
ATOM     23  S   UNL     1       1.342   1.213   0.000  0.00  0.00    +0.000 S 
BRANCH  23  27
ATOM     24  C   UNL     1      -0.848  -0.624   0.000  0.00  0.00    +0.000 C 
ATOM     25  C   UNL     1      -0.566   0.151   0.000  0.00  0.00    +0.000 A 
ATOM     26  C   UNL     1       0.247   0.294   0.000  0.00  0.00    +0.000 A 
ATOM     27  C   UNL     1       0.529   1.070   0.000  0.00  0.00    +0.000 A 
ATOM     28  C   UNL     1      -0.001   1.702   0.000  0.00  0.00    +0.000 A 
ATOM     29  C   UNL     1      -0.814   1.558   0.000  0.00  0.00    +0.000 A 
ATOM     30  C   UNL     1      -1.096   0.783   0.000  0.00  0.00    +0.000 A 
ATOM     31  N   UNL     1      -1.908   0.640   0.000  0.00  0.00    +0.000 NA
BRANCH  28  32
ATOM     32  C   UNL     1       0.281   2.477   0.000  0.00  0.00    +0.000 C 
ATOM     33  C   UNL     1       0.563   3.252   0.000  0.00  0.00    +0.000 C 
ATOM     34  C   UNL     1      -0.494   2.759   0.000  0.00  0.00    +0.000 C 
ATOM     35  C   UNL     1       1.056   2.195   0.000  0.00  0.00    +0.000 C 
ENDBRANCH  28  32
ENDBRANCH  23  27
ENDBRANCH   1  23
TORSDOF 7
