REMARK  Name = 
REMARK  6 active torsions:
REMARK  status: ('A' for Active; 'I' for Inactive)
REMARK    1  A    between atoms: C_3  and  C_4
REMARK    2  A    between atoms: C_4  and  C_5
REMARK    3  A    between atoms: C_4  and  C_8
REMARK    4  A    between atoms: C_12  and  N_13
REMARK    5  A    between atoms: N_13  and  S_14
REMARK    6  A    between atoms: S_14  and  C_17
REMARK                            x       y       z     vdW  Elec       q    Type
REMARK                         _______ _______ _______ _____ _____    ______ ____
ROOT
ATOM      1  C   UNL     1      -1.643   0.028   0.000  0.00  0.00    +0.000 C 
ENDROOT
BRANCH   1   4
ATOM      2  O   UNL     1      -0.213   0.853   0.000  0.00  0.00    +0.000 OA
ATOM      3  C   UNL     1      -0.213   0.028   0.000  0.00  0.00    +0.000 A 
ATOM      4  C   UNL     1      -0.928  -0.384   0.000  0.00  0.00    +0.000 A 
ATOM      5  C   UNL     1      -0.928  -1.209   0.000  0.00  0.00    +0.000 A 
ATOM      6  O   UNL     1      -1.643  -1.622   0.000  0.00  0.00    +0.000 OA
ATOM      7  O   UNL     1      -0.213  -1.622   0.000  0.00  0.00    +0.000 OA
ATOM      8  C   UNL     1       0.501  -1.209   0.000  0.00  0.00    +0.000 A 
ATOM      9  C   UNL     1       0.501  -0.384   0.000  0.00  0.00    +0.000 A 
ATOM     10  C   UNL     1       1.084   0.199   0.000  0.00  0.00    +0.000 C 
ATOM     11  C   UNL     1       1.909   0.199   0.000  0.00  0.00    +0.000 C 
ATOM     12  C   UNL     1       2.493  -0.384   0.000  0.00  0.00    +0.000 C 
ATOM     13  C   UNL     1       2.493  -1.209   0.000  0.00  0.00    +0.000 C 
ATOM     14  C   UNL     1       1.909  -1.793   0.000  0.00  0.00    +0.000 C 
ATOM     15  C   UNL     1       1.084  -1.793   0.000  0.00  0.00    +0.000 C 
ENDBRANCH   1   4
BRANCH   1  16
ATOM     16  C   UNL     1      -2.357  -0.384   0.000  0.00  0.00    +0.000 A 
ATOM     17  C   UNL     1      -2.357  -1.209   0.000  0.00  0.00    +0.000 A 
ATOM     18  C   UNL     1      -3.071  -1.622   0.000  0.00  0.00    +0.000 A 
ATOM     19  C   UNL     1      -3.786  -1.209   0.000  0.00  0.00    +0.000 A 
ATOM     20  C   UNL     1      -3.786  -0.384   0.000  0.00  0.00    +0.000 A 
ATOM     21  C   UNL     1      -3.071   0.028   0.000  0.00  0.00    +0.000 A 
BRANCH  20  22
ATOM     22  N   UNL     1      -4.500   0.028   0.000  0.00  0.00    +0.000 NA
BRANCH  22  23
ATOM     23  S   UNL     1      -5.215  -0.384   0.000  0.00  0.00    +0.000 S 
ATOM     24  O   UNL     1      -4.802  -1.099   0.000  0.00  0.00    +0.000 OA
ATOM     25  O   UNL     1      -5.627   0.330   0.000  0.00  0.00    +0.000 OA
BRANCH  23  26
ATOM     26  C   UNL     1      -5.929  -0.797   0.000  0.00  0.00    +0.000 A 
ATOM     27  C   UNL     1      -5.929  -1.622   0.000  0.00  0.00    +0.000 A 
ATOM     28  C   UNL     1      -6.644  -2.034   0.000  0.00  0.00    +0.000 A 
ATOM     29  C   UNL     1      -7.358  -1.622   0.000  0.00  0.00    +0.000 A 
ATOM     30  C   UNL     1      -7.358  -0.797   0.000  0.00  0.00    +0.000 A 
ATOM     31  C   UNL     1      -6.644  -0.384   0.000  0.00  0.00    +0.000 A 
ENDBRANCH  23  26
ENDBRANCH  22  23
ENDBRANCH  20  22
ENDBRANCH   1  16
BRANCH   1  32
ATOM     32  C   UNL     1      -1.643   0.853   0.000  0.00  0.00    +0.000 C 
ATOM     33  C   UNL     1      -2.055   1.568   0.000  0.00  0.00    +0.000 C 
ATOM     34  C   UNL     1      -1.230   1.568   0.000  0.00  0.00    +0.000 C 
ENDBRANCH   1  32
TORSDOF 6
