REMARK  Name = 
REMARK  6 active torsions:
REMARK  status: ('A' for Active; 'I' for Inactive)
REMARK    1  A    between atoms: N_5  and  C_8
REMARK    2  A    between atoms: C_8  and  C_9
REMARK    3  A    between atoms: C_12  and  C_15
REMARK    4  A    between atoms: N_17  and  C_18
REMARK    5  A    between atoms: C_22  and  N_23
REMARK    6  A    between atoms: C_28  and  C_30
REMARK                            x       y       z     vdW  Elec       q    Type
REMARK                         _______ _______ _______ _____ _____    ______ ____
ROOT
ATOM      1  C   UNL     1       3.572 -10.312   0.000  0.00  0.00    +0.000 A 
ATOM      2  C   UNL     1       3.572 -11.137   0.000  0.00  0.00    +0.000 A 
ATOM      3  C   UNL     1       2.858 -11.550   0.000  0.00  0.00    +0.000 A 
ATOM      4  C   UNL     1       2.143 -11.137   0.000  0.00  0.00    +0.000 A 
ATOM      5  C   UNL     1       2.143 -10.312   0.000  0.00  0.00    +0.000 A 
ATOM      6  C   UNL     1       2.858  -9.900   0.000  0.00  0.00    +0.000 A 
ENDROOT
BRANCH   5   7
ATOM      7  N   UNL     1       1.429  -9.900   0.000  0.00  0.00    +0.000 NA
ATOM      8  C   UNL     1       0.715 -10.312   0.000  0.00  0.00    +0.000 A 
ATOM      9  N   UNL     1       0.715 -11.137   0.000  0.00  0.00    +0.000 NA
ATOM     10  C   UNL     1       0.000 -11.550   0.000  0.00  0.00    +0.000 A 
ATOM     11  C   UNL     1      -0.715 -11.137   0.000  0.00  0.00    +0.000 A 
ATOM     12  C   UNL     1      -0.715 -10.312   0.000  0.00  0.00    +0.000 A 
ATOM     13  N   UNL     1       0.000  -9.900   0.000  0.00  0.00    +0.000 NA
BRANCH  12  14
ATOM     14  C   UNL     1      -1.429  -9.900   0.000  0.00  0.00    +0.000 A 
ATOM     15  C   UNL     1      -2.143 -10.312   0.000  0.00  0.00    +0.000 A 
ATOM     16  N   UNL     1      -2.858  -9.900   0.000  0.00  0.00    +0.000 NA
ATOM     17  C   UNL     1      -2.858  -9.075   0.000  0.00  0.00    +0.000 A 
ATOM     18  C   UNL     1      -2.143  -8.662   0.000  0.00  0.00    +0.000 A 
ATOM     19  C   UNL     1      -1.429  -9.075   0.000  0.00  0.00    +0.000 A 
ENDBRANCH  12  14
ENDBRANCH   5   7
BRANCH   1  22
ATOM     20  C   UNL     1       5.001 -10.312   0.000  0.00  0.00    +0.000 C 
ATOM     21  O   UNL     1       5.001 -11.137   0.000  0.00  0.00    +0.000 OA
ATOM     22  N   UNL     1       4.287  -9.900   0.000  0.00  0.00    +0.000 NA
BRANCH  20  26
ATOM     23  C   UNL     1       7.145  -9.075   0.000  0.00  0.00    +0.000 A 
ATOM     24  C   UNL     1       7.145  -9.900   0.000  0.00  0.00    +0.000 A 
ATOM     25  C   UNL     1       6.430 -10.312   0.000  0.00  0.00    +0.000 A 
ATOM     26  C   UNL     1       5.716  -9.900   0.000  0.00  0.00    +0.000 A 
ATOM     27  C   UNL     1       5.716  -9.075   0.000  0.00  0.00    +0.000 A 
ATOM     28  C   UNL     1       6.430  -8.662   0.000  0.00  0.00    +0.000 A 
BRANCH  23  29
ATOM     29  C   UNL     1       7.859  -8.662   0.000  0.00  0.00    +0.000 C 
BRANCH  29  34
ATOM     30  C   UNL     1       7.859  -5.362   0.000  0.00  0.00    +0.000 C 
ATOM     31  N   UNL     1       7.859  -6.188   0.000  0.00  0.00    +0.000 NA
ATOM     32  C   UNL     1       8.574  -6.600   0.000  0.00  0.00    +0.000 C 
ATOM     33  C   UNL     1       8.574  -7.425   0.000  0.00  0.00    +0.000 C 
ATOM     34  N   UNL     1       7.859  -7.838   0.000  0.00  0.00    +0.000 NA
ATOM     35  C   UNL     1       7.145  -7.425   0.000  0.00  0.00    +0.000 C 
ATOM     36  C   UNL     1       7.145  -6.600   0.000  0.00  0.00    +0.000 C 
ENDBRANCH  29  34
ENDBRANCH  23  29
ENDBRANCH  20  26
ENDBRANCH   1  22
TORSDOF 6
