REMARK  Name = 
REMARK  8 active torsions:
REMARK  status: ('A' for Active; 'I' for Inactive)
REMARK    1  A    between atoms: C_1  and  C_2
REMARK    2  A    between atoms: C_2  and  C_3
REMARK    3  A    between atoms: C_3  and  C_4
REMARK    4  A    between atoms: N_5  and  C_6
REMARK    5  A    between atoms: C_6  and  C_7
REMARK    6  A    between atoms: C_6  and  C_18
REMARK    7  A    between atoms: C_7  and  C_8
REMARK    8  A    between atoms: C_18  and  O_20
REMARK                            x       y       z     vdW  Elec       q    Type
REMARK                         _______ _______ _______ _____ _____    ______ ____
ROOT
ATOM      1  C   UNL     1      -1.024  -0.471   0.000  0.00  0.00    +0.000 C 
ENDROOT
BRANCH   1   3
ATOM      2  C   UNL     1      -2.453  -0.471   0.000  0.00  0.00    +0.000 C 
ATOM      3  N   UNL     1      -1.738  -0.884   0.000  0.00  0.00    +0.000 NA
ATOM      4  O   UNL     1      -2.453   0.354   0.000  0.00  0.00    +0.000 OA
BRANCH   2   5
ATOM      5  C   UNL     1      -3.167  -0.884   0.000  0.00  0.00    +0.000 C 
ATOM      6  N   UNL     1      -3.167  -1.709   0.000  0.00  0.00    +0.000 NA
BRANCH   5   7
ATOM      7  C   UNL     1      -3.882  -0.471   0.000  0.00  0.00    +0.000 C 
BRANCH   7   8
ATOM      8  C   UNL     1      -4.596  -0.884   0.000  0.00  0.00    +0.000 C 
ATOM      9  O   UNL     1      -4.596  -1.709   0.000  0.00  0.00    +0.000 OA
ATOM     10  O   UNL     1      -5.311  -0.471   0.000  0.00  0.00    +0.000 OA
ENDBRANCH   7   8
ENDBRANCH   5   7
ENDBRANCH   2   5
ENDBRANCH   1   3
BRANCH   1  11
ATOM     11  C   UNL     1      -1.024   0.354   0.000  0.00  0.00    +0.000 C 
ATOM     12  O   UNL     1      -1.738   0.766   0.000  0.00  0.00    +0.000 OA
BRANCH  11  13
ATOM     13  O   UNL     1      -0.310   0.766   0.000  0.00  0.00    +0.000 OA
ATOM     14  C   UNL     1      -0.310   1.591   0.000  0.00  0.00    +0.000 C 
ENDBRANCH  11  13
ENDBRANCH   1  11
BRANCH   1  15
ATOM     15  C   UNL     1      -0.310  -0.884   0.000  0.00  0.00    +0.000 C 
BRANCH  15  16
ATOM     16  C   UNL     1       0.405  -0.471   0.000  0.00  0.00    +0.000 A 
ATOM     17  C   UNL     1       1.119   0.766   0.000  0.00  0.00    +0.000 A 
ATOM     18  C   UNL     1       0.405   0.354   0.000  0.00  0.00    +0.000 A 
ATOM     19  C   UNL     1       1.119  -0.884   0.000  0.00  0.00    +0.000 A 
ATOM     20  C   UNL     1       1.834  -0.471   0.000  0.00  0.00    +0.000 A 
ATOM     21  C   UNL     1       1.834   0.354   0.000  0.00  0.00    +0.000 A 
ENDBRANCH  15  16
ENDBRANCH   1  15
TORSDOF 8
