REMARK  Name = 
REMARK  4 active torsions:
REMARK  status: ('A' for Active; 'I' for Inactive)
REMARK    1  A    between atoms: C_5  and  C_9
REMARK    2  A    between atoms: C_6  and  C_14
REMARK    3  A    between atoms: N_8  and  C_9
REMARK    4  A    between atoms: C_13  and  N_19
REMARK                            x       y       z     vdW  Elec       q    Type
REMARK                         _______ _______ _______ _____ _____    ______ ____
ROOT
ATOM      1  C   UNL     1       9.864  -8.006   0.000  0.00  0.00    +0.000 A 
ATOM      2  N   UNL     1       9.864  -7.181   0.000  0.00  0.00    +0.000 N 
ATOM      3  N   UNL     1      10.578  -8.419   0.000  0.00  0.00    +0.000 N 
ATOM      4  C   UNL     1      11.293  -8.006   0.000  0.00  0.00    +0.000 A 
ATOM      5  C   UNL     1      11.293  -7.181   0.000  0.00  0.00    +0.000 A 
ATOM      6  C   UNL     1      10.578  -6.769   0.000  0.00  0.00    +0.000 A 
ATOM      7  O   UNL     1       9.140  -8.424   0.000  0.00  0.00    +0.000 OA
ATOM      8  C   UNL     1      10.578  -9.243   0.000  0.00  0.00    +0.000 C 
ATOM      9  O   UNL     1      12.009  -8.420   0.000  0.00  0.00    +0.000 OA
ENDROOT
BRANCH   6  10
ATOM     10  N   UNL     1      10.578  -5.944   0.000  0.00  0.00    +0.000 N 
ATOM     11  C   UNL     1      11.305  -5.524   0.000  0.00  0.00    +0.000 C 
ATOM     12  C   UNL     1      11.305  -4.699   0.000  0.00  0.00    +0.000 C 
ATOM     13  C   UNL     1      10.590  -4.287   0.000  0.00  0.00    +0.000 C 
ATOM     14  C   UNL     1       9.863  -4.707   0.000  0.00  0.00    +0.000 C 
ATOM     15  C   UNL     1       9.863  -5.532   0.000  0.00  0.00    +0.000 C 
ATOM     16  N   UNL     1       9.140  -4.289   0.000  0.00  0.00    +0.000 NA
ENDBRANCH   6  10
BRANCH   2  17
ATOM     17  C   UNL     1       9.149  -6.769   0.000  0.00  0.00    +0.000 C 
BRANCH  17  22
ATOM     18  C   UNL     1       7.006  -7.181   0.000  0.00  0.00    +0.000 A 
ATOM     19  C   UNL     1       7.006  -8.006   0.000  0.00  0.00    +0.000 A 
ATOM     20  C   UNL     1       7.720  -8.419   0.000  0.00  0.00    +0.000 A 
ATOM     21  C   UNL     1       8.435  -8.006   0.000  0.00  0.00    +0.000 A 
ATOM     22  C   UNL     1       8.435  -7.181   0.000  0.00  0.00    +0.000 A 
ATOM     23  C   UNL     1       7.720  -6.769   0.000  0.00  0.00    +0.000 A 
BRANCH  23  24
ATOM     24  C   UNL     1       7.720  -5.944   0.000  0.00  0.00    +0.000 C 
ATOM     25  N   UNL     1       7.720  -5.119   0.000  0.00  0.00    +0.000 NA
ENDBRANCH  23  24
ENDBRANCH  17  22
ENDBRANCH   2  17
TORSDOF 4
