REMARK  Name = 
REMARK  8 active torsions:
REMARK  status: ('A' for Active; 'I' for Inactive)
REMARK    1  A    between atoms: C_2  and  C_3
REMARK    2  A    between atoms: C_4  and  C_5
REMARK    3  A    between atoms: C_7  and  C_18
REMARK    4  A    between atoms: C_18  and  N_21
REMARK    5  A    between atoms: C_19  and  C_22
REMARK    6  A    between atoms: C_22  and  C_23
REMARK    7  A    between atoms: C_25  and  C_26
REMARK    8  A    between atoms: C_29  and  C_30
REMARK                            x       y       z     vdW  Elec       q    Type
REMARK                         _______ _______ _______ _____ _____    ______ ____
ROOT
ATOM      1  C   UNL     1       0.000   0.825   0.000  0.00  0.00    +0.000 A 
ATOM      2  C   UNL     1       0.715   0.412   0.000  0.00  0.00    +0.000 A 
ATOM      3  C   UNL     1       0.715   2.062   0.000  0.00  0.00    +0.000 A 
ATOM      4  C   UNL     1       0.000   1.650   0.000  0.00  0.00    +0.000 A 
ATOM      5  C   UNL     1       1.429   0.825   0.000  0.00  0.00    +0.000 A 
ATOM      6  C   UNL     1       1.429   1.650   0.000  0.00  0.00    +0.000 A 
ENDROOT
BRANCH   2   7
ATOM      7  C   UNL     1       0.715  -0.412   0.000  0.00  0.00    +0.000 A 
ATOM      8  C   UNL     1       0.000  -0.825   0.000  0.00  0.00    +0.000 A 
ATOM      9  C   UNL     1       0.000  -1.650   0.000  0.00  0.00    +0.000 A 
ATOM     10  C   UNL     1       0.715  -2.062   0.000  0.00  0.00    +0.000 A 
ATOM     11  C   UNL     1       1.429  -1.650   0.000  0.00  0.00    +0.000 A 
ATOM     12  C   UNL     1       1.429  -0.825   0.000  0.00  0.00    +0.000 A 
BRANCH   8  13
ATOM     13  C   UNL     1      -0.715  -0.412   0.000  0.00  0.00    +0.000 A 
ATOM     14  N   UNL     1      -0.715   0.412   0.000  0.00  0.00    +0.000 NA
ATOM     15  N   UNL     1      -1.499   0.667   0.000  0.00  0.00    +0.000 NA
ATOM     16  N   UNL     1      -1.984   0.000   0.000  0.00  0.00    +0.000 NA
ATOM     17  N   UNL     1      -1.499  -0.667   0.000  0.00  0.00    +0.000 NA
ENDBRANCH   8  13
ENDBRANCH   2   7
BRANCH   3  18
ATOM     18  C   UNL     1       0.715   2.888   0.000  0.00  0.00    +0.000 C 
BRANCH  18  21
ATOM     19  C   UNL     1       2.214   3.045   0.000  0.00  0.00    +0.000 A 
ATOM     20  N   UNL     1       2.699   3.712   0.000  0.00  0.00    +0.000 NA
ATOM     21  N   UNL     1       1.429   3.300   0.000  0.00  0.00    +0.000 N 
ATOM     22  C   UNL     1       1.429   4.125   0.000  0.00  0.00    +0.000 A 
ATOM     23  C   UNL     1       2.214   4.380   0.000  0.00  0.00    +0.000 A 
BRANCH  23  24
ATOM     24  C   UNL     1       2.469   5.165   0.000  0.00  0.00    +0.000 C 
ATOM     25  C   UNL     1       1.917   5.778   0.000  0.00  0.00    +0.000 C 
ATOM     26  C   UNL     1       3.276   5.336   0.000  0.00  0.00    +0.000 C 
ATOM     27  O   UNL     1       2.723   5.949   0.000  0.00  0.00    +0.000 OA
ENDBRANCH  23  24
BRANCH  22  28
ATOM     28  C   UNL     1       0.715   4.537   0.000  0.00  0.00    +0.000 C 
ATOM     29  O   UNL     1       0.715   5.362   0.000  0.00  0.00    +0.000 OA
ATOM     30  O   UNL     1       0.000   4.125   0.000  0.00  0.00    +0.000 OA
ENDBRANCH  22  28
BRANCH  19  31
ATOM     31  C   UNL     1       2.469   2.260   0.000  0.00  0.00    +0.000 C 
BRANCH  31  32
ATOM     32  C   UNL     1       3.276   2.089   0.000  0.00  0.00    +0.000 C 
ATOM     33  C   UNL     1       3.530   1.304   0.000  0.00  0.00    +0.000 C 
ENDBRANCH  31  32
ENDBRANCH  19  31
ENDBRANCH  18  21
ENDBRANCH   3  18
TORSDOF 8
