REMARK  Name = 
REMARK  8 active torsions:
REMARK  status: ('A' for Active; 'I' for Inactive)
REMARK    1  A    between atoms: C_4  and  C_5
REMARK    2  A    between atoms: C_4  and  C_6
REMARK    3  A    between atoms: C_6  and  C_10
REMARK    4  A    between atoms: C_7  and  C_8
REMARK    5  A    between atoms: C_8  and  S_19
REMARK    6  A    between atoms: O_16  and  P_17
REMARK    7  A    between atoms: O_16  and  P_18
REMARK    8  A    between atoms: P_18  and  S_19
REMARK                            x       y       z     vdW  Elec       q    Type
REMARK                         _______ _______ _______ _____ _____    ______ ____
ROOT
ATOM      1  C   UNL     1       1.238   0.715   0.000  0.00  0.00    +0.000 C 
ENDROOT
BRANCH   1   3
ATOM      2  C   UNL     1      -0.412   0.715   0.000  0.00  0.00    +0.000 C 
ATOM      3  C   UNL     1       0.825   0.000   0.000  0.00  0.00    +0.000 C 
ATOM      4  C   UNL     1       0.000   0.000   0.000  0.00  0.00    +0.000 C 
BRANCH   4   5
ATOM      5  C   UNL     1      -0.412  -0.715   0.000  0.00  0.00    +0.000 C 
BRANCH   5   6
ATOM      6  C   UNL     1      -1.238  -0.715   0.000  0.00  0.00    +0.000 C 
BRANCH   6   9
ATOM      7  C   UNL     1      -2.888  -2.143   0.000  0.00  0.00    +0.000 C 
ATOM      8  C   UNL     1      -2.888  -0.715   0.000  0.00  0.00    +0.000 C 
ATOM      9  C   UNL     1      -1.650  -1.429   0.000  0.00  0.00    +0.000 C 
ATOM     10  C   UNL     1      -2.475  -1.429   0.000  0.00  0.00    +0.000 C 
ENDBRANCH   6   9
ENDBRANCH   5   6
ENDBRANCH   4   5
ENDBRANCH   1   3
BRANCH   1  11
ATOM     11  S   UNL     1       0.825   1.429   0.000  0.00  0.00    +0.000 S 
BRANCH  11  14
ATOM     12  O   UNL     1       1.952   1.731   0.000  0.00  0.00    +0.000 OA
ATOM     13  O   UNL     1       0.523   2.556   0.000  0.00  0.00    +0.000 OA
ATOM     14  P   UNL     1       1.238   2.143   0.000  0.00  0.00    +0.000 P 
BRANCH  14  15
ATOM     15  O   UNL     1       1.650   2.858   0.000  0.00  0.00    +0.000 OA
BRANCH  15  19
ATOM     16  O   UNL     1       0.825   4.287   0.000  0.00  0.00    +0.000 OA
ATOM     17  O   UNL     1       1.952   3.985   0.000  0.00  0.00    +0.000 OA
ATOM     18  O   UNL     1       0.523   3.160   0.000  0.00  0.00    +0.000 OA
ATOM     19  P   UNL     1       1.238   3.572   0.000  0.00  0.00    +0.000 P 
ENDBRANCH  15  19
ENDBRANCH  14  15
ENDBRANCH  11  14
ENDBRANCH   1  11
TORSDOF 8
