REMARK  Name = 
REMARK  1 active torsions:
REMARK  status: ('A' for Active; 'I' for Inactive)
REMARK    1  A    between atoms: C_2  and  C_3
REMARK                            x       y       z     vdW  Elec       q    Type
REMARK                         _______ _______ _______ _____ _____    ______ ____
ROOT
ATOM      1  C   UNL     1      -4.530   5.362   0.000  0.00  0.00    +0.000 C 
ATOM      2  C   UNL     1      -3.816   4.950   0.000  0.00  0.00    +0.000 C 
ATOM      3  O   UNL     1      -3.816   4.125   0.000  0.00  0.00    +0.000 OA
ENDROOT
BRANCH   2   4
ATOM      4  C   UNL     1      -3.101   5.362   0.000  0.00  0.00    +0.000 C 
ATOM      5  C   UNL     1      -2.387   4.950   0.000  0.00  0.00    +0.000 C 
ATOM      6  O   UNL     1      -3.101   6.188   0.000  0.00  0.00    +0.000 OA
ENDBRANCH   2   4
TORSDOF 1
