REMARK  Name = 
REMARK  4 active torsions:
REMARK  status: ('A' for Active; 'I' for Inactive)
REMARK    1  A    between atoms: C_2  and  C_4
REMARK    2  A    between atoms: C_4  and  C_5
REMARK    3  A    between atoms: C_9  and  O_10
REMARK    4  A    between atoms: O_10  and  C_11
REMARK                            x       y       z     vdW  Elec       q    Type
REMARK                         _______ _______ _______ _____ _____    ______ ____
ROOT
ATOM      1  C   UNL     1       2.143  -1.238   0.000  0.00  0.00    +0.000 A 
ATOM      2  C   UNL     1       2.858  -1.650   0.000  0.00  0.00    +0.000 A 
ATOM      3  C   UNL     1       2.858  -2.475   0.000  0.00  0.00    +0.000 A 
ATOM      4  I   UNL     1       3.572  -2.888   0.000  0.00  0.00    +0.000 I 
ATOM      5  C   UNL     1       2.143  -2.888   0.000  0.00  0.00    +0.000 A 
ATOM      6  C   UNL     1       1.429  -2.475   0.000  0.00  0.00    +0.000 A 
ATOM      7  I   UNL     1       0.715  -2.888   0.000  0.00  0.00    +0.000 I 
ATOM      8  C   UNL     1       1.429  -1.650   0.000  0.00  0.00    +0.000 A 
ENDROOT
BRANCH   1   9
ATOM      9  C   UNL     1       2.143  -0.412   0.000  0.00  0.00    +0.000 C 
BRANCH   9  11
ATOM     10  O   UNL     1       1.429   0.825   0.000  0.00  0.00    +0.000 OA
ATOM     11  C   UNL     1       1.429   0.000   0.000  0.00  0.00    +0.000 C 
ATOM     12  O   UNL     1       0.715  -0.412   0.000  0.00  0.00    +0.000 OA
ENDBRANCH   9  11
ENDBRANCH   1   9
BRANCH   5  13
ATOM     13  O   UNL     1       2.143  -3.712   0.000  0.00  0.00    +0.000 OA
BRANCH  13  14
ATOM     14  C   UNL     1       1.429  -4.125   0.000  0.00  0.00    +0.000 A 
ATOM     15  C   UNL     1       1.429  -4.950   0.000  0.00  0.00    +0.000 A 
ATOM     16  C   UNL     1       0.715  -5.362   0.000  0.00  0.00    +0.000 A 
ATOM     17  C   UNL     1       0.000  -4.950   0.000  0.00  0.00    +0.000 A 
ATOM     18  O   UNL     1      -0.715  -5.362   0.000  0.00  0.00    +0.000 OA
ATOM     19  C   UNL     1       0.000  -4.125   0.000  0.00  0.00    +0.000 A 
ATOM     20  I   UNL     1      -0.715  -3.712   0.000  0.00  0.00    +0.000 I 
ATOM     21  C   UNL     1       0.715  -3.712   0.000  0.00  0.00    +0.000 A 
ENDBRANCH  13  14
ENDBRANCH   5  13
TORSDOF 4
