REMARK  Name = 
REMARK  7 active torsions:
REMARK  status: ('A' for Active; 'I' for Inactive)
REMARK    1  A    between atoms: C_1  and  CA_2
REMARK    2  A    between atoms: CA_2  and  CB_6
REMARK    3  A    between atoms: SG_5  and  CB_6
REMARK    4  A    between atoms: SG_5  and  SG_12
REMARK    5  A    between atoms: C_8  and  CA_9
REMARK    6  A    between atoms: CA_9  and  CB_13
REMARK    7  A    between atoms: SG_12  and  CB_13
REMARK                            x       y       z     vdW  Elec       q    Type
REMARK                         _______ _______ _______ _____ _____    ______ ____
ROOT
ATOM      1  SG  CYS A   1       0.364  -0.235   0.000  0.00  0.00    +0.000 S 
ENDROOT
BRANCH   1   2
ATOM      2  CB  CYS A   1       1.079   0.177   0.000  0.00  0.00    +0.000 C 
BRANCH   2   3
ATOM      3  CA  CYS A   1       1.793  -0.235   0.000  0.00  0.00    +0.000 C 
ATOM      4  N   CYS A   1       1.793  -1.060   0.000  0.00  0.00    +0.000 NA
BRANCH   3   5
ATOM      5  C   CYS A   1       2.508   0.177   0.000  0.00  0.00    +0.000 C 
ATOM      6  O   CYS A   1       2.508   1.002   0.000  0.00  0.00    +0.000 OA
ATOM      7  OXT CYS A   1       3.222  -0.235   0.000  0.00  0.00    +0.000 OA
ENDBRANCH   3   5
ENDBRANCH   2   3
ENDBRANCH   1   2
BRANCH   1   8
ATOM      8  SG  CYS A   1      -0.350   0.177   0.000  0.00  0.00    +0.000 S 
BRANCH   8   9
ATOM      9  CB  CYS A   1      -1.065  -0.235   0.000  0.00  0.00    +0.000 C 
BRANCH   9  10
ATOM     10  CA  CYS A   1      -1.779   0.177   0.000  0.00  0.00    +0.000 C 
ATOM     11  N   CYS A   1      -1.779   1.002   0.000  0.00  0.00    +0.000 NA
BRANCH  10  12
ATOM     12  C   CYS A   1      -2.494  -0.235   0.000  0.00  0.00    +0.000 C 
ATOM     13  O   CYS A   1      -2.494  -1.060   0.000  0.00  0.00    +0.000 OA
ATOM     14  OXT CYS A   1      -3.208   0.177   0.000  0.00  0.00    +0.000 OA
ENDBRANCH  10  12
ENDBRANCH   9  10
ENDBRANCH   8   9
ENDBRANCH   1   8
TORSDOF 7
