REMARK  Name = 
REMARK  5 active torsions:
REMARK  status: ('A' for Active; 'I' for Inactive)
REMARK    1  A    between atoms: C_2  and  C_4
REMARK    2  A    between atoms: N_8  and  C_10
REMARK    3  A    between atoms: C_12  and  C_13
REMARK    4  A    between atoms: C_13  and  O_14
REMARK    5  A    between atoms: O_14  and  P_15
REMARK                            x       y       z     vdW  Elec       q    Type
REMARK                         _______ _______ _______ _____ _____    ______ ____
ROOT
ATOM      1  C   UNL     1       2.751   2.290   0.000  0.00  0.00    +0.000 C 
ATOM      2  O   UNL     1       3.419   1.805   0.000  0.00  0.00    +0.000 OA
ATOM      3  C   UNL     1       3.164   1.021   0.000  0.00  0.00    +0.000 C 
ATOM      4  C   UNL     1       2.339   1.021   0.000  0.00  0.00    +0.000 C 
ATOM      5  O   UNL     1       1.854   0.353   0.000  0.00  0.00    +0.000 OA
ATOM      6  C   UNL     1       2.084   1.805   0.000  0.00  0.00    +0.000 C 
ATOM      7  O   UNL     1       1.299   2.060   0.000  0.00  0.00    +0.000 OA
ENDROOT
BRANCH   1  12
ATOM      8  C   UNL     1       2.037   4.353   0.000  0.00  0.00    +0.000 A 
ATOM      9  C   UNL     1       2.751   4.765   0.000  0.00  0.00    +0.000 A 
ATOM     10  C   UNL     1       3.466   4.353   0.000  0.00  0.00    +0.000 A 
ATOM     11  C   UNL     1       3.466   3.528   0.000  0.00  0.00    +0.000 A 
ATOM     12  N   UNL     1       2.751   3.115   0.000  0.00  0.00    +0.000 N 
ATOM     13  C   UNL     1       2.037   3.528   0.000  0.00  0.00    +0.000 A 
BRANCH   8  15
ATOM     14  N   UNL     1       1.322   5.590   0.000  0.00  0.00    +0.000 NA
ATOM     15  C   UNL     1       1.322   4.765   0.000  0.00  0.00    +0.000 C 
ATOM     16  O   UNL     1       0.608   4.353   0.000  0.00  0.00    +0.000 OA
ENDBRANCH   8  15
ENDBRANCH   1  12
BRANCH   3  17
ATOM     17  C   UNL     1       3.649   0.353   0.000  0.00  0.00    +0.000 C 
BRANCH  17  18
ATOM     18  O   UNL     1       3.313  -0.401   0.000  0.00  0.00    +0.000 OA
BRANCH  18  19
ATOM     19  P   UNL     1       3.798  -1.068   0.000  0.00  0.00    +0.000 P 
ATOM     20  O   UNL     1       4.283  -1.735   0.000  0.00  0.00    +0.000 OA
ATOM     21  O   UNL     1       3.131  -1.553   0.000  0.00  0.00    +0.000 OA
ATOM     22  O   UNL     1       4.465  -0.583   0.000  0.00  0.00    +0.000 OA
ENDBRANCH  18  19
ENDBRANCH  17  18
ENDBRANCH   3  17
TORSDOF 5
