REMARK  Name = 
REMARK  5 active torsions:
REMARK  status: ('A' for Active; 'I' for Inactive)
REMARK    1  A    between atoms: C_4  and  C_5
REMARK    2  A    between atoms: C_6  and  C_7
REMARK    3  A    between atoms: C_7  and  O_9
REMARK    4  A    between atoms: O_9  and  C_10
REMARK    5  A    between atoms: C_10  and  N_11
REMARK                            x       y       z     vdW  Elec       q    Type
REMARK                         _______ _______ _______ _____ _____    ______ ____
ROOT
ATOM      1  O   UNL     1      -1.866  -1.412   0.000  0.00  0.00    +0.000 OA
ENDROOT
BRANCH   1   2
ATOM      2  C   UNL     1      -2.691  -1.412   0.000  0.00  0.00    +0.000 C 
ATOM      3  O   UNL     1      -3.103  -0.698   0.000  0.00  0.00    +0.000 OA
BRANCH   2   5
ATOM      4  C   UNL     1      -3.818  -2.539   0.000  0.00  0.00    +0.000 C 
ATOM      5  C   UNL     1      -3.103  -2.127   0.000  0.00  0.00    +0.000 C 
ATOM      6  C   UNL     1      -3.103  -2.952   0.000  0.00  0.00    +0.000 C 
ATOM      7  C   UNL     1      -2.356  -3.300   0.000  0.00  0.00    +0.000 C 
ATOM      8  C   UNL     1      -3.175  -3.774   0.000  0.00  0.00    +0.000 C 
BRANCH   4  12
ATOM      9  C   UNL     1      -5.880  -3.254   0.000  0.00  0.00    +0.000 C 
ATOM     10  C   UNL     1      -5.055  -3.254   0.000  0.00  0.00    +0.000 C 
ATOM     11  C   UNL     1      -4.643  -3.968   0.000  0.00  0.00    +0.000 C 
ATOM     12  C   UNL     1      -4.643  -2.539   0.000  0.00  0.00    +0.000 C 
ENDBRANCH   4  12
ENDBRANCH   2   5
ENDBRANCH   1   2
BRANCH   1  13
ATOM     13  C   UNL     1      -1.453  -0.698   0.000  0.00  0.00    +0.000 C 
BRANCH  13  14
ATOM     14  N   UNL     1      -0.628  -0.698   0.000  0.00  0.00    +0.000 N 
ATOM     15  C   UNL     1      -0.143  -1.365   0.000  0.00  0.00    +0.000 C 
ATOM     16  O   UNL     1      -0.398  -2.150   0.000  0.00  0.00    +0.000 OA
ATOM     17  C   UNL     1       0.641  -1.110   0.000  0.00  0.00    +0.000 C 
ATOM     18  C   UNL     1       0.641  -0.285   0.000  0.00  0.00    +0.000 C 
ATOM     19  C   UNL     1       1.356   0.127   0.000  0.00  0.00    +0.000 C 
ATOM     20  C   UNL     1       2.070  -0.285   0.000  0.00  0.00    +0.000 C 
ATOM     21  C   UNL     1       2.070  -1.110   0.000  0.00  0.00    +0.000 C 
ATOM     22  C   UNL     1       1.356  -1.523   0.000  0.00  0.00    +0.000 C 
ATOM     23  C   UNL     1      -0.143  -0.030   0.000  0.00  0.00    +0.000 C 
ATOM     24  O   UNL     1      -0.398   0.754   0.000  0.00  0.00    +0.000 OA
ENDBRANCH  13  14
ENDBRANCH   1  13
TORSDOF 5
