REMARK  Name = 
REMARK  9 active torsions:
REMARK  status: ('A' for Active; 'I' for Inactive)
REMARK    1  A    between atoms: O_1  and  C_9
REMARK    2  A    between atoms: O_2  and  C_10
REMARK    3  A    between atoms: O_2  and  C_25
REMARK    4  A    between atoms: O_5  and  C_26
REMARK    5  A    between atoms: O_6  and  C_27
REMARK    6  A    between atoms: C_9  and  C_10
REMARK    7  A    between atoms: C_9  and  C_11
REMARK    8  A    between atoms: C_9  and  C_12
REMARK    9  A    between atoms: C_10  and  C_17
REMARK                            x       y       z     vdW  Elec       q    Type
REMARK                         _______ _______ _______ _____ _____    ______ ____
ROOT
ATOM      1  C   UNL     1       3.793  -0.372   0.000  0.00  0.00    +0.000 C 
ENDROOT
BRANCH   1   2
ATOM      2  C   UNL     1       3.079  -0.785   0.000  0.00  0.00    +0.000 A 
ATOM      3  C   UNL     1       2.365  -0.372   0.000  0.00  0.00    +0.000 A 
ATOM      4  C   UNL     1       3.079  -1.610   0.000  0.00  0.00    +0.000 A 
ATOM      5  C   UNL     1       1.650  -0.785   0.000  0.00  0.00    +0.000 A 
ATOM      6  C   UNL     1       2.365  -2.022   0.000  0.00  0.00    +0.000 A 
ATOM      7  C   UNL     1       1.650  -1.610   0.000  0.00  0.00    +0.000 A 
ENDBRANCH   1   2
BRANCH   1   8
ATOM      8  C   UNL     1       4.206  -1.087   0.000  0.00  0.00    +0.000 A 
ATOM      9  C   UNL     1       3.793  -1.801   0.000  0.00  0.00    +0.000 A 
ATOM     10  C   UNL     1       5.031  -1.087   0.000  0.00  0.00    +0.000 A 
ATOM     11  C   UNL     1       4.206  -2.515   0.000  0.00  0.00    +0.000 A 
ATOM     12  C   UNL     1       5.444  -1.801   0.000  0.00  0.00    +0.000 A 
ATOM     13  C   UNL     1       5.031  -2.515   0.000  0.00  0.00    +0.000 A 
ENDBRANCH   1   8
BRANCH   1  14
ATOM     14  O   UNL     1       3.381   0.343   0.000  0.00  0.00    +0.000 OA
ATOM     15  C   UNL     1       2.556   0.343   0.000  0.00  0.00    +0.000 C 
ENDBRANCH   1  14
BRANCH   1  16
ATOM     16  C   UNL     1       4.508   0.040   0.000  0.00  0.00    +0.000 C 
BRANCH  16  19
ATOM     17  O   UNL     1       5.222   1.278   0.000  0.00  0.00    +0.000 OA
ATOM     18  O   UNL     1       3.793   1.278   0.000  0.00  0.00    +0.000 OA
ATOM     19  C   UNL     1       4.508   0.865   0.000  0.00  0.00    +0.000 C 
ENDBRANCH  16  19
BRANCH  16  20
ATOM     20  O   UNL     1       5.222  -0.372   0.000  0.00  0.00    +0.000 OA
BRANCH  20  23
ATOM     21  N   UNL     1       5.937   0.865   0.000  0.00  0.00    +0.000 NA
ATOM     22  N   UNL     1       6.652  -0.372   0.000  0.00  0.00    +0.000 NA
ATOM     23  C   UNL     1       5.937   0.040   0.000  0.00  0.00    +0.000 A 
ATOM     24  C   UNL     1       6.652   1.278   0.000  0.00  0.00    +0.000 A 
ATOM     25  C   UNL     1       7.366   0.040   0.000  0.00  0.00    +0.000 A 
ATOM     26  C   UNL     1       7.366   0.865   0.000  0.00  0.00    +0.000 A 
BRANCH  25  27
ATOM     27  O   UNL     1       8.080  -0.372   0.000  0.00  0.00    +0.000 OA
ATOM     28  C   UNL     1       8.795   0.040   0.000  0.00  0.00    +0.000 C 
ENDBRANCH  25  27
BRANCH  24  29
ATOM     29  O   UNL     1       6.652   2.103   0.000  0.00  0.00    +0.000 OA
ATOM     30  C   UNL     1       7.366   2.515   0.000  0.00  0.00    +0.000 C 
ENDBRANCH  24  29
ENDBRANCH  20  23
ENDBRANCH  16  20
ENDBRANCH   1  16
TORSDOF 9
