REMARK  Name = 
REMARK  38 active torsions:
REMARK  status: ('A' for Active; 'I' for Inactive)
REMARK    1  A    between atoms: C_1  and  C_28
REMARK    2  A    between atoms: C_2  and  C_3
REMARK    3  A    between atoms: C_2  and  C_83
REMARK    4  A    between atoms: C_3  and  N_4
REMARK    5  A    between atoms: C_3  and  C_48
REMARK    6  A    between atoms: C_5  and  C_6
REMARK    7  A    between atoms: C_6  and  N_7
REMARK    8  A    between atoms: C_8  and  C_9
REMARK    9  A    between atoms: C_9  and  N_10
REMARK   10  A    between atoms: C_9  and  C_42
REMARK   11  A    between atoms: C_11  and  C_12
REMARK   12  A    between atoms: C_12  and  C_13
REMARK   13  A    between atoms: C_12  and  N_21
REMARK   14  A    between atoms: C_13  and  C_14
REMARK   15  A    between atoms: C_17  and  O_20
REMARK   16  A    between atoms: O_20  and  S_92
REMARK   17  A    between atoms: C_22  and  C_23
REMARK   18  A    between atoms: C_23  and  N_24
REMARK   19  A    between atoms: C_23  and  C_36
REMARK   20  A    between atoms: C_25  and  C_26
REMARK   21  A    between atoms: C_26  and  N_27
REMARK   22  A    between atoms: C_26  and  C_30
REMARK   23  A    between atoms: C_30  and  C_31
REMARK   24  A    between atoms: C_31  and  C_32
REMARK   25  A    between atoms: C_36  and  C_37
REMARK   26  A    between atoms: N_49  and  C_51
REMARK   27  A    between atoms: C_51  and  C_52
REMARK   28  A    between atoms: C_51  and  C_56
REMARK   29  A    between atoms: C_52  and  C_53
REMARK   30  A    between atoms: C_53  and  S_54
REMARK   31  A    between atoms: N_57  and  C_58
REMARK   32  A    between atoms: C_58  and  C_59
REMARK   33  A    between atoms: C_58  and  C_63
REMARK   34  A    between atoms: C_59  and  C_60
REMARK   35  A    between atoms: N_66  and  C_67
REMARK   36  A    between atoms: C_67  and  C_68
REMARK   37  A    between atoms: C_67  and  C_69
REMARK   38  A    between atoms: C_68  and  C_72
REMARK                            x       y       z     vdW  Elec       q    Type
REMARK                         _______ _______ _______ _____ _____    ______ ____
ROOT
ATOM      1  N   UNL     1      14.372  -8.026   0.000  0.00  0.00    +0.000 NA
ATOM      2  C   UNL     1      13.611  -8.470   0.000  0.00  0.00    +0.000 C 
ATOM      3  O   UNL     1      13.611  -9.232   0.000  0.00  0.00    +0.000 OA
ENDROOT
BRANCH   1   4
ATOM      4  C   UNL     1      15.070  -8.470   0.000  0.00  0.00    +0.000 C 
BRANCH   4   6
ATOM      5  N   UNL     1      16.467  -8.470   0.000  0.00  0.00    +0.000 NA
ATOM      6  C   UNL     1      15.768  -8.026   0.000  0.00  0.00    +0.000 C 
ATOM      7  O   UNL     1      15.768  -7.264   0.000  0.00  0.00    +0.000 OA
BRANCH   5   8
ATOM      8  C   UNL     1      17.228  -8.026   0.000  0.00  0.00    +0.000 C 
BRANCH   8   9
ATOM      9  C   UNL     1      17.228  -7.264   0.000  0.00  0.00    +0.000 C 
ATOM     10  N   UNL     1      16.467  -6.820   0.000  0.00  0.00    +0.000 NA
ATOM     11  O   UNL     1      17.926  -6.820   0.000  0.00  0.00    +0.000 OA
BRANCH  10  12
ATOM     12  C   UNL     1      16.467  -5.995   0.000  0.00  0.00    +0.000 C 
BRANCH  12  13
ATOM     13  C   UNL     1      17.228  -5.614   0.000  0.00  0.00    +0.000 C 
ATOM     14  N   UNL     1      17.926  -5.995   0.000  0.00  0.00    +0.000 NA
ATOM     15  O   UNL     1      17.228  -4.789   0.000  0.00  0.00    +0.000 OA
BRANCH  14  16
ATOM     16  C   UNL     1      18.624  -5.614   0.000  0.00  0.00    +0.000 C 
BRANCH  16  17
ATOM     17  C   UNL     1      18.624  -4.789   0.000  0.00  0.00    +0.000 C 
ATOM     18  O   UNL     1      17.926  -4.409   0.000  0.00  0.00    +0.000 OA
ATOM     19  N   UNL     1      19.322  -4.409   0.000  0.00  0.00    +0.000 NA
BRANCH  19  20
ATOM     20  C   UNL     1      19.322  -3.584   0.000  0.00  0.00    +0.000 C 
BRANCH  20  21
ATOM     21  C   UNL     1      20.084  -3.203   0.000  0.00  0.00    +0.000 C 
ATOM     22  O   UNL     1      20.084  -2.378   0.000  0.00  0.00    +0.000 OA
ATOM     23  N   UNL     1      20.782  -3.584   0.000  0.00  0.00    +0.000 NA
ENDBRANCH  20  21
BRANCH  20  24
ATOM     24  C   UNL     1      18.624  -3.203   0.000  0.00  0.00    +0.000 C 
BRANCH  24  25
ATOM     25  C   UNL     1      18.624  -2.378   0.000  0.00  0.00    +0.000 A 
ATOM     26  C   UNL     1      17.926  -1.997   0.000  0.00  0.00    +0.000 A 
ATOM     27  C   UNL     1      17.926  -1.172   0.000  0.00  0.00    +0.000 A 
ATOM     28  C   UNL     1      18.688  -0.791   0.000  0.00  0.00    +0.000 A 
ATOM     29  C   UNL     1      19.386  -1.172   0.000  0.00  0.00    +0.000 A 
ATOM     30  C   UNL     1      19.386  -1.997   0.000  0.00  0.00    +0.000 A 
ENDBRANCH  24  25
ENDBRANCH  20  24
ENDBRANCH  19  20
ENDBRANCH  16  17
BRANCH  16  31
ATOM     31  C   UNL     1      19.322  -6.059   0.000  0.00  0.00    +0.000 C 
BRANCH  31  32
ATOM     32  C   UNL     1      20.084  -5.614   0.000  0.00  0.00    +0.000 C 
ATOM     33  O   UNL     1      20.782  -6.059   0.000  0.00  0.00    +0.000 OA
ATOM     34  O   UNL     1      20.084  -4.789   0.000  0.00  0.00    +0.000 OA
ENDBRANCH  31  32
ENDBRANCH  16  31
ENDBRANCH  14  16
ENDBRANCH  12  13
BRANCH  12  35
ATOM     35  C   UNL     1      15.768  -5.614   0.000  0.00  0.00    +0.000 C 
BRANCH  35  36
ATOM     36  C   UNL     1      15.070  -5.995   0.000  0.00  0.00    +0.000 C 
BRANCH  36  37
ATOM     37  S   UNL     1      14.372  -5.614   0.000  0.00  0.00    +0.000 S 
ATOM     38  C   UNL     1      13.611  -5.995   0.000  0.00  0.00    +0.000 C 
ENDBRANCH  36  37
ENDBRANCH  35  36
ENDBRANCH  12  35
ENDBRANCH  10  12
ENDBRANCH   8   9
BRANCH   8  39
ATOM     39  C   UNL     1      17.926  -8.470   0.000  0.00  0.00    +0.000 C 
BRANCH  39  40
ATOM     40  C   UNL     1      18.658  -8.089   0.000  0.00  0.00    +0.000 A 
ATOM     41  C   UNL     1      18.726  -7.267   0.000  0.00  0.00    +0.000 A 
ATOM     42  N   UNL     1      19.529  -7.077   0.000  0.00  0.00    +0.000 NA
ATOM     43  C   UNL     1      19.957  -7.783   0.000  0.00  0.00    +0.000 A 
ATOM     44  C   UNL     1      20.768  -7.936   0.000  0.00  0.00    +0.000 A 
ATOM     45  C   UNL     1      21.040  -8.715   0.000  0.00  0.00    +0.000 A 
ATOM     46  C   UNL     1      20.502  -9.340   0.000  0.00  0.00    +0.000 A 
ATOM     47  C   UNL     1      19.419  -8.408   0.000  0.00  0.00    +0.000 A 
ATOM     48  C   UNL     1      19.691  -9.187   0.000  0.00  0.00    +0.000 A 
ENDBRANCH  39  40
ENDBRANCH   8  39
ENDBRANCH   5   8
ENDBRANCH   4   6
ENDBRANCH   1   4
BRANCH   2  49
ATOM     49  C   UNL     1      12.913  -8.026   0.000  0.00  0.00    +0.000 C 
BRANCH  49  50
ATOM     50  N   UNL     1      12.215  -8.470   0.000  0.00  0.00    +0.000 NA
ATOM     51  C   UNL     1      11.517  -8.026   0.000  0.00  0.00    +0.000 C 
ATOM     52  O   UNL     1      11.517  -7.201   0.000  0.00  0.00    +0.000 OA
BRANCH  51  53
ATOM     53  C   UNL     1      10.819  -8.470   0.000  0.00  0.00    +0.000 C 
BRANCH  53  54
ATOM     54  N   UNL     1      10.120  -8.026   0.000  0.00  0.00    +0.000 NA
ATOM     55  C   UNL     1       9.359  -8.470   0.000  0.00  0.00    +0.000 C 
ATOM     56  O   UNL     1       9.359  -9.232   0.000  0.00  0.00    +0.000 OA
BRANCH  55  57
ATOM     57  C   UNL     1       8.661  -8.026   0.000  0.00  0.00    +0.000 C 
BRANCH  57  58
ATOM     58  N   UNL     1       7.963  -8.470   0.000  0.00  0.00    +0.000 NA
ATOM     59  C   UNL     1       7.265  -8.026   0.000  0.00  0.00    +0.000 C 
ATOM     60  O   UNL     1       7.265  -7.201   0.000  0.00  0.00    +0.000 OA
BRANCH  59  61
ATOM     61  C   UNL     1       6.503  -8.470   0.000  0.00  0.00    +0.000 C 
BRANCH  61  62
ATOM     62  N   UNL     1       5.805  -8.026   0.000  0.00  0.00    +0.000 NA
ATOM     63  C   UNL     1       5.107  -8.407   0.000  0.00  0.00    +0.000 C 
ATOM     64  O   UNL     1       5.107  -9.232   0.000  0.00  0.00    +0.000 OA
BRANCH  63  65
ATOM     65  C   UNL     1       4.409  -8.026   0.000  0.00  0.00    +0.000 C 
ATOM     66  N   UNL     1       3.741  -8.510   0.000  0.00  0.00    +0.000 NA
ATOM     67  C   UNL     1       4.155  -7.241   0.000  0.00  0.00    +0.000 C 
ATOM     68  C   UNL     1       3.074  -8.025   0.000  0.00  0.00    +0.000 C 
ATOM     69  C   UNL     1       3.329  -7.240   0.000  0.00  0.00    +0.000 C 
ATOM     70  O   UNL     1       2.289  -8.279   0.000  0.00  0.00    +0.000 OA
ENDBRANCH  63  65
ENDBRANCH  61  62
BRANCH  61  71
ATOM     71  C   UNL     1       6.503  -9.232   0.000  0.00  0.00    +0.000 C 
BRANCH  71  72
ATOM     72  C   UNL     1       5.805  -9.613   0.000  0.00  0.00    +0.000 C 
BRANCH  72  73
ATOM     73  C   UNL     1       5.805 -10.438   0.000  0.00  0.00    +0.000 C 
ATOM     74  N   UNL     1       5.107 -10.882   0.000  0.00  0.00    +0.000 NA
ATOM     75  O   UNL     1       6.503 -10.882   0.000  0.00  0.00    +0.000 OA
ENDBRANCH  72  73
ENDBRANCH  71  72
ENDBRANCH  61  71
ENDBRANCH  59  61
ENDBRANCH  57  58
BRANCH  57  76
ATOM     76  C   UNL     1       8.661  -7.201   0.000  0.00  0.00    +0.000 C 
BRANCH  76  77
ATOM     77  C   UNL     1       9.359  -6.820   0.000  0.00  0.00    +0.000 C 
ATOM     78  O   UNL     1       9.359  -5.995   0.000  0.00  0.00    +0.000 OA
ATOM     79  O   UNL     1      10.120  -7.201   0.000  0.00  0.00    +0.000 OA
ENDBRANCH  76  77
ENDBRANCH  57  76
ENDBRANCH  55  57
ENDBRANCH  53  54
BRANCH  53  80
ATOM     80  C   UNL     1      10.819  -9.232   0.000  0.00  0.00    +0.000 C 
BRANCH  80  81
ATOM     81  C   UNL     1      11.517  -9.676   0.000  0.00  0.00    +0.000 A 
ATOM     82  C   UNL     1      12.215  -9.232   0.000  0.00  0.00    +0.000 A 
ATOM     83  C   UNL     1      12.913  -9.676   0.000  0.00  0.00    +0.000 A 
ATOM     84  C   UNL     1      12.913 -10.501   0.000  0.00  0.00    +0.000 A 
ATOM     85  C   UNL     1      12.215 -10.882   0.000  0.00  0.00    +0.000 A 
ATOM     86  C   UNL     1      11.517 -10.438   0.000  0.00  0.00    +0.000 A 
BRANCH  84  87
ATOM     87  O   UNL     1      13.611 -10.882   0.000  0.00  0.00    +0.000 OA
BRANCH  87  88
ATOM     88  S   UNL     1      14.315 -10.452   0.000  0.00  0.00    +0.000 S 
ATOM     89  O   UNL     1      15.039 -10.847   0.000  0.00  0.00    +0.000 OA
ATOM     90  O   UNL     1      14.721  -9.741   0.000  0.00  0.00    +0.000 OA
ATOM     91  O   UNL     1      13.906  -9.741   0.000  0.00  0.00    +0.000 OA
ENDBRANCH  87  88
ENDBRANCH  84  87
ENDBRANCH  80  81
ENDBRANCH  53  80
ENDBRANCH  51  53
ENDBRANCH  49  50
BRANCH  49  92
ATOM     92  C   UNL     1      12.913  -7.201   0.000  0.00  0.00    +0.000 C 
ATOM     93  C   UNL     1      12.215  -6.820   0.000  0.00  0.00    +0.000 C 
ATOM     94  O   UNL     1      13.611  -6.820   0.000  0.00  0.00    +0.000 OA
ENDBRANCH  49  92
ENDBRANCH   2  49
TORSDOF 38
