REMARK  Name = 
REMARK  4 active torsions:
REMARK  status: ('A' for Active; 'I' for Inactive)
REMARK    1  A    between atoms: C_1  and  O_2
REMARK    2  A    between atoms: O_2  and  C_5
REMARK    3  A    between atoms: C_6  and  C_12
REMARK    4  A    between atoms: C_14  and  C_20
REMARK                            x       y       z     vdW  Elec       q    Type
REMARK                         _______ _______ _______ _____ _____    ______ ____
ROOT
ATOM      1  O   UNL     1       0.000   0.000   0.000  0.00  0.00    +0.000 OA
ENDROOT
BRANCH   1   2
ATOM      2  C   UNL     1       0.712   0.416   0.000  0.00  0.00    +0.000 C 
ATOM      3  O   UNL     1       1.430   0.000   0.000  0.00  0.00    +0.000 OA
ATOM      4  C   UNL     1       0.712   1.241   0.000  0.00  0.00    +0.000 C 
ATOM      5  C   UNL     1       2.142   0.416   0.000  0.00  0.00    +0.000 C 
ATOM      6  C   UNL     1       1.430   1.650   0.000  0.00  0.00    +0.000 C 
ATOM      7  O   UNL     1       0.000   1.650   0.000  0.00  0.00    +0.000 OA
ATOM      8  C   UNL     1       2.142   1.241   0.000  0.00  0.00    +0.000 C 
ATOM      9  O   UNL     1       1.430   2.475   0.000  0.00  0.00    +0.000 OA
ATOM     10  O   UNL     1       2.857   1.650   0.000  0.00  0.00    +0.000 OA
BRANCH   5  11
ATOM     11  C   UNL     1       2.857   0.000   0.000  0.00  0.00    +0.000 C 
ATOM     12  O   UNL     1       3.482   0.536   0.000  0.00  0.00    +0.000 OA
ENDBRANCH   5  11
ENDBRANCH   1   2
BRANCH   1  13
ATOM     13  C   UNL     1      -0.712  -0.416   0.000  0.00  0.00    +0.000 C 
ATOM     14  O   UNL     1      -1.430   0.000   0.000  0.00  0.00    +0.000 OA
ATOM     15  C   UNL     1      -0.712  -1.241   0.000  0.00  0.00    +0.000 C 
ATOM     16  C   UNL     1      -2.142  -0.416   0.000  0.00  0.00    +0.000 C 
ATOM     17  C   UNL     1      -1.430  -1.650   0.000  0.00  0.00    +0.000 C 
ATOM     18  O   UNL     1       0.000  -1.650   0.000  0.00  0.00    +0.000 OA
ATOM     19  C   UNL     1      -2.142  -1.241   0.000  0.00  0.00    +0.000 C 
ATOM     20  O   UNL     1      -1.430  -2.475   0.000  0.00  0.00    +0.000 OA
ATOM     21  O   UNL     1      -2.857  -1.650   0.000  0.00  0.00    +0.000 OA
BRANCH  16  22
ATOM     22  C   UNL     1      -2.857   0.000   0.000  0.00  0.00    +0.000 C 
ATOM     23  O   UNL     1      -3.482  -0.540   0.000  0.00  0.00    +0.000 OA
ENDBRANCH  16  22
ENDBRANCH   1  13
TORSDOF 4
