REMARK  Name = 
REMARK  4 active torsions:
REMARK  status: ('A' for Active; 'I' for Inactive)
REMARK    1  A    between atoms: C_21  and  C_24
REMARK    2  A    between atoms: N_26  and  C_27
REMARK    3  A    between atoms: C_29  and  C_39
REMARK    4  A    between atoms: C_32  and  C_33
REMARK                            x       y       z     vdW  Elec       q    Type
REMARK                         _______ _______ _______ _____ _____    ______ ____
ROOT
ATOM      1  C   UNL     1       5.564  -5.636   0.000  0.00  0.00    +0.000 C 
ATOM      2  C   UNL     1       5.564  -6.461   0.000  0.00  0.00    +0.000 C 
ATOM      3  N   UNL     1       6.277  -6.870   0.000  0.00  0.00    +0.000 NA
ATOM      4  C   UNL     1       6.277  -5.220   0.000  0.00  0.00    +0.000 C 
ATOM      5  C   UNL     1       6.989  -5.636   0.000  0.00  0.00    +0.000 C 
ATOM      6  C   UNL     1       6.985  -6.461   0.000  0.00  0.00    +0.000 C 
ATOM      7  C   UNL     1       7.694  -6.875   0.000  0.00  0.00    +0.000 C 
ATOM      8  C   UNL     1       8.411  -6.468   0.000  0.00  0.00    +0.000 C 
ATOM      9  C   UNL     1       7.701  -5.225   0.000  0.00  0.00    +0.000 C 
ATOM     10  C   UNL     1       8.414  -5.647   0.000  0.00  0.00    +0.000 C 
ATOM     11  C   UNL     1       8.431  -3.992   0.000  0.00  0.00    +0.000 C 
ATOM     12  O   UNL     1       4.851  -6.875   0.000  0.00  0.00    +0.000 OA
ATOM     13  C   UNL     1       7.659  -4.478   0.000  0.00  0.00    +0.000 C 
ATOM     14  C   UNL     1       9.148  -4.414   0.000  0.00  0.00    +0.000 C 
ATOM     15  C   UNL     1       9.131  -5.245   0.000  0.00  0.00    +0.000 C 
ATOM     16  C   UNL     1       9.916  -5.518   0.000  0.00  0.00    +0.000 C 
ATOM     17  C   UNL     1      10.418  -4.856   0.000  0.00  0.00    +0.000 C 
ATOM     18  C   UNL     1       9.944  -4.173   0.000  0.00  0.00    +0.000 C 
ATOM     19  C   UNL     1       9.144  -3.636   0.000  0.00  0.00    +0.000 C 
ATOM     20  C   UNL     1       6.981  -4.807   0.000  0.00  0.00    +0.000 C 
ENDROOT
BRANCH  18  21
ATOM     21  C   UNL     1       9.948  -3.347   0.000  0.00  0.00    +0.000 C 
ATOM     22  O   UNL     1       9.236  -2.931   0.000  0.00  0.00    +0.000 OA
ATOM     23  N   UNL     1      10.665  -2.939   0.000  0.00  0.00    +0.000 NA
BRANCH  23  24
ATOM     24  C   UNL     1      11.377  -3.355   0.000  0.00  0.00    +0.000 A 
ATOM     25  C   UNL     1      11.369  -4.179   0.000  0.00  0.00    +0.000 A 
ATOM     26  C   UNL     1      12.081  -4.596   0.000  0.00  0.00    +0.000 A 
ATOM     27  C   UNL     1      12.798  -4.187   0.000  0.00  0.00    +0.000 A 
ATOM     28  C   UNL     1      12.800  -3.358   0.000  0.00  0.00    +0.000 A 
ATOM     29  C   UNL     1      12.088  -2.945   0.000  0.00  0.00    +0.000 A 
BRANCH  29  30
ATOM     30  C   UNL     1      12.090  -2.120   0.000  0.00  0.00    +0.000 C 
ATOM     31  F   UNL     1      12.805  -1.709   0.000  0.00  0.00    +0.000 F 
ATOM     32  F   UNL     1      11.376  -1.707   0.000  0.00  0.00    +0.000 F 
ATOM     33  F   UNL     1      12.087  -1.292   0.000  0.00  0.00    +0.000 F 
ENDBRANCH  29  30
BRANCH  26  34
ATOM     34  C   UNL     1      12.075  -5.421   0.000  0.00  0.00    +0.000 C 
ATOM     35  F   UNL     1      11.359  -5.829   0.000  0.00  0.00    +0.000 F 
ATOM     36  F   UNL     1      12.787  -5.838   0.000  0.00  0.00    +0.000 F 
ATOM     37  F   UNL     1      12.077  -6.242   0.000  0.00  0.00    +0.000 F 
ENDBRANCH  26  34
ENDBRANCH  23  24
ENDBRANCH  18  21
TORSDOF 4
