REMARK  Name = 
REMARK  4 active torsions:
REMARK  status: ('A' for Active; 'I' for Inactive)
REMARK    1  A    between atoms: P_1  and  O_3
REMARK    2  A    between atoms: P_2  and  O_4
REMARK    3  A    between atoms: O_3  and  C_15
REMARK    4  A    between atoms: O_4  and  C_16
REMARK                            x       y       z     vdW  Elec       q    Type
REMARK                         _______ _______ _______ _____ _____    ______ ____
ROOT
ATOM      1  O   UNL     1      16.426  -5.332   0.000  0.00  0.00    +0.000 OA
ATOM      2  O   UNL     1      19.284  -5.332   0.000  0.00  0.00    +0.000 OA
ATOM      3  O   UNL     1      17.855  -7.807   0.000  0.00  0.00    +0.000 OA
ATOM      4  O   UNL     1      19.284  -6.982   0.000  0.00  0.00    +0.000 OA
ATOM      5  C   UNL     1      17.855  -5.332   0.000  0.00  0.00    +0.000 C 
ATOM      6  C   UNL     1      17.140  -6.570   0.000  0.00  0.00    +0.000 C 
ATOM      7  C   UNL     1      17.140  -5.745   0.000  0.00  0.00    +0.000 C 
ATOM      8  C   UNL     1      18.569  -5.745   0.000  0.00  0.00    +0.000 C 
ATOM      9  C   UNL     1      17.855  -6.982   0.000  0.00  0.00    +0.000 C 
ATOM     10  C   UNL     1      18.569  -6.570   0.000  0.00  0.00    +0.000 C 
ENDROOT
BRANCH   5  11
ATOM     11  O   UNL     1      17.855  -4.507   0.000  0.00  0.00    +0.000 OA
BRANCH  11  12
ATOM     12  P   UNL     1      18.569  -4.095   0.000  0.00  0.00    +0.000 P 
ATOM     13  O   UNL     1      19.284  -3.682   0.000  0.00  0.00    +0.000 OA
ATOM     14  O   UNL     1      18.157  -3.380   0.000  0.00  0.00    +0.000 OA
ATOM     15  O   UNL     1      18.982  -4.809   0.000  0.00  0.00    +0.000 OA
ENDBRANCH  11  12
ENDBRANCH   5  11
BRANCH   6  16
ATOM     16  O   UNL     1      16.426  -6.982   0.000  0.00  0.00    +0.000 OA
BRANCH  16  17
ATOM     17  P   UNL     1      16.426  -7.807   0.000  0.00  0.00    +0.000 P 
ATOM     18  O   UNL     1      15.601  -7.807   0.000  0.00  0.00    +0.000 OA
ATOM     19  O   UNL     1      16.426  -8.632   0.000  0.00  0.00    +0.000 OA
ATOM     20  O   UNL     1      17.251  -7.807   0.000  0.00  0.00    +0.000 OA
ENDBRANCH  16  17
ENDBRANCH   6  16
TORSDOF 4
