REMARK  Name = 
REMARK  2 active torsions:
REMARK  status: ('A' for Active; 'I' for Inactive)
REMARK    1  A    between atoms: C_3  and  C_4
REMARK    2  A    between atoms: C_5  and  C_15
REMARK                            x       y       z     vdW  Elec       q    Type
REMARK                         _______ _______ _______ _____ _____    ______ ____
ROOT
ATOM      1  C   UNL     1      -2.036   1.437   0.000  0.00  0.00    +0.000 C 
ATOM      2  C   UNL     1       0.509   4.022   0.000  0.00  0.00    +0.000 C 
ATOM      3  C   UNL     1      -0.303   3.877   0.000  0.00  0.00    +0.000 C 
ATOM      4  C   UNL     1      -2.047   3.462   0.000  0.00  0.00    +0.000 C 
ATOM      5  C   UNL     1      -2.730   2.999   0.000  0.00  0.00    +0.000 C 
ATOM      6  C   UNL     1      -0.332   1.694   0.000  0.00  0.00    +0.000 C 
ATOM      7  C   UNL     1      -1.144   1.549   0.000  0.00  0.00    +0.000 C 
ATOM      8  C   UNL     1       1.292   1.984   0.000  0.00  0.00    +0.000 A 
ATOM      9  C   UNL     1       1.853   3.536   0.000  0.00  0.00    +0.000 A 
ATOM     10  C   UNL     1       1.040   3.391   0.000  0.00  0.00    +0.000 A 
ATOM     11  C   UNL     1       2.104   2.130   0.000  0.00  0.00    +0.000 A 
ATOM     12  C   UNL     1      -0.052   2.470   0.000  0.00  0.00    +0.000 C 
ATOM     13  C   UNL     1      -0.584   3.101   0.000  0.00  0.00    +0.000 C 
ATOM     14  C   UNL     1       0.760   2.615   0.000  0.00  0.00    +0.000 A 
ATOM     15  C   UNL     1      -1.396   2.955   0.000  0.00  0.00    +0.000 C 
ATOM     16  C   UNL     1       2.384   2.906   0.000  0.00  0.00    +0.000 A 
ATOM     17  C   UNL     1      -2.501   2.206   0.000  0.00  0.00    +0.000 C 
ATOM     18  C   UNL     1      -1.676   2.180   0.000  0.00  0.00    +0.000 C 
ATOM     19  O   UNL     1       3.196   3.051   0.000  0.00  0.00    +0.000 OA
ATOM     20  O   UNL     1      -3.007   1.555   0.000  0.00  0.00    +0.000 OA
ENDROOT
BRANCH  11  22
ATOM     21  C   UNL     1       3.448   1.644   0.000  0.00  0.00    +0.000 C 
ATOM     22  C   UNL     1       2.636   1.499   0.000  0.00  0.00    +0.000 C 
BRANCH  21  24
ATOM     23  C   UNL     1       4.540   2.565   0.000  0.00  0.00    +0.000 C 
ATOM     24  C   UNL     1       3.728   2.420   0.000  0.00  0.00    +0.000 C 
ENDBRANCH  21  24
ENDBRANCH  11  22
TORSDOF 2
