REMARK  Name = 
REMARK  3 active torsions:
REMARK  status: ('A' for Active; 'I' for Inactive)
REMARK    1  A    between atoms: C_1  and  C_2
REMARK    2  A    between atoms: C_1  and  C_3
REMARK    3  A    between atoms: C_3  and  S_8
REMARK                            x       y       z     vdW  Elec       q    Type
REMARK                         _______ _______ _______ _____ _____    ______ ____
ROOT
ATOM      1  C   UNL     1       0.000   0.825   0.000  0.00  0.00    +0.000 C 
ENDROOT
BRANCH   1   5
ATOM      2  O   UNL     1       0.000  -0.825   0.000  0.00  0.00    +0.000 OA
ATOM      3  O   UNL     1      -0.825   0.000   0.000  0.00  0.00    +0.000 OA
ATOM      4  O   UNL     1       0.825   0.000   0.000  0.00  0.00    +0.000 OA
ATOM      5  S   UNL     1       0.000   0.000   0.000  0.00  0.00    +0.000 S 
ENDBRANCH   1   5
BRANCH   1   6
ATOM      6  C   UNL     1       0.715   1.238   0.000  0.00  0.00    +0.000 C 
BRANCH   6   7
ATOM      7  C   UNL     1       0.715   2.062   0.000  0.00  0.00    +0.000 C 
ATOM      8  N   UNL     1       1.429   2.475   0.000  0.00  0.00    +0.000 NA
ENDBRANCH   6   7
ENDBRANCH   1   6
TORSDOF 3
