REMARK  Name = 
REMARK  4 active torsions:
REMARK  status: ('A' for Active; 'I' for Inactive)
REMARK    1  A    between atoms: S_2  and  N_8
REMARK    2  A    between atoms: S_2  and  C_14
REMARK    3  A    between atoms: S_3  and  C_18
REMARK    4  A    between atoms: N_8  and  C_12
REMARK                            x       y       z     vdW  Elec       q    Type
REMARK                         _______ _______ _______ _____ _____    ______ ____
ROOT
ATOM      1  S   UNL     1       5.665   0.468   0.000  0.00  0.00    +0.000 S 
ATOM      2  O   UNL     1       5.253  -0.246   0.000  0.00  0.00    +0.000 OA
ATOM      3  O   UNL     1       6.078   1.183   0.000  0.00  0.00    +0.000 OA
ENDROOT
BRANCH   1   4
ATOM      4  C   UNL     1       4.951   0.881   0.000  0.00  0.00    +0.000 A 
ATOM      5  C   UNL     1       3.522   1.706   0.000  0.00  0.00    +0.000 A 
ATOM      6  C   UNL     1       4.951   1.706   0.000  0.00  0.00    +0.000 A 
ATOM      7  C   UNL     1       4.237   0.468   0.000  0.00  0.00    +0.000 A 
ATOM      8  C   UNL     1       4.237   2.118   0.000  0.00  0.00    +0.000 A 
ATOM      9  C   UNL     1       3.522   0.881   0.000  0.00  0.00    +0.000 A 
BRANCH   5  10
ATOM     10  S   UNL     1       2.808   2.118   0.000  0.00  0.00    +0.000 S 
ATOM     11  O   UNL     1       3.220   2.833   0.000  0.00  0.00    +0.000 OA
ATOM     12  O   UNL     1       2.395   1.404   0.000  0.00  0.00    +0.000 OA
ATOM     13  N   UNL     1       2.093   2.531   0.000  0.00  0.00    +0.000 NA
ENDBRANCH   5  10
ENDBRANCH   1   4
BRANCH   1  14
ATOM     14  N   UNL     1       6.380   0.056   0.000  0.00  0.00    +0.000 NA
BRANCH  14  18
ATOM     15 CL   UNL     1       8.131  -3.042   0.000  0.00  0.00    +0.000 Cl
ATOM     16  N   UNL     1       7.875  -0.930   0.000  0.00  0.00    +0.000 NA
ATOM     17  C   UNL     1       7.094  -1.182   0.000  0.00  0.00    +0.000 A 
ATOM     18  C   UNL     1       6.380  -0.769   0.000  0.00  0.00    +0.000 A 
ATOM     19  C   UNL     1       7.094  -2.007   0.000  0.00  0.00    +0.000 A 
ATOM     20  C   UNL     1       5.665  -1.182   0.000  0.00  0.00    +0.000 A 
ATOM     21  C   UNL     1       7.875  -2.258   0.000  0.00  0.00    +0.000 A 
ATOM     22  C   UNL     1       6.380  -2.419   0.000  0.00  0.00    +0.000 A 
ATOM     23  C   UNL     1       8.357  -1.594   0.000  0.00  0.00    +0.000 A 
ATOM     24  C   UNL     1       5.665  -2.007   0.000  0.00  0.00    +0.000 A 
ENDBRANCH  14  18
ENDBRANCH   1  14
TORSDOF 4
