REMARK  Name = 
REMARK  5 active torsions:
REMARK  status: ('A' for Active; 'I' for Inactive)
REMARK    1  A    between atoms: N_1  and  C_2
REMARK    2  A    between atoms: C_7  and  C_13
REMARK    3  A    between atoms: C_10  and  C_14
REMARK    4  A    between atoms: C_14  and  O_18
REMARK    5  A    between atoms: O_18  and  P_19
REMARK                            x       y       z     vdW  Elec       q    Type
REMARK                         _______ _______ _______ _____ _____    ______ ____
ROOT
ATOM      1  C   UNL     1       0.341  -0.621   0.000  0.00  0.00    +0.000 C 
ATOM      2  O   UNL     1      -0.333  -0.144   0.000  0.00  0.00    +0.000 OA
ATOM      3  C   UNL     1       0.083  -1.408   0.000  0.00  0.00    +0.000 C 
ATOM      4  C   UNL     1      -0.991  -0.621   0.000  0.00  0.00    +0.000 C 
ATOM      5  C   UNL     1      -0.742  -1.408   0.000  0.00  0.00    +0.000 C 
ATOM      6  O   UNL     1       0.568  -2.074   0.000  0.00  0.00    +0.000 OA
ATOM      7  O   UNL     1      -1.230  -2.074   0.000  0.00  0.00    +0.000 OA
ENDROOT
BRANCH   1   8
ATOM      8  N   UNL     1       0.908   0.106   0.000  0.00  0.00    +0.000 N 
ATOM      9  C   UNL     1       1.737   0.106   0.000  0.00  0.00    +0.000 A 
ATOM     10  C   UNL     1       0.658   0.893   0.000  0.00  0.00    +0.000 A 
ATOM     11  C   UNL     1       1.990   0.893   0.000  0.00  0.00    +0.000 A 
ATOM     12  N   UNL     1       2.221  -0.560   0.000  0.00  0.00    +0.000 NA
ATOM     13  N   UNL     1       1.321   1.370   0.000  0.00  0.00    +0.000 NA
BRANCH  11  14
ATOM     14  C   UNL     1       2.770   1.150   0.000  0.00  0.00    +0.000 C 
ATOM     15  N   UNL     1       3.383   0.598   0.000  0.00  0.00    +0.000 NA
ATOM     16  O   UNL     1       2.936   1.956   0.000  0.00  0.00    +0.000 OA
ENDBRANCH  11  14
ENDBRANCH   1   8
BRANCH   4  17
ATOM     17  C   UNL     1      -1.775  -0.363   0.000  0.00  0.00    +0.000 C 
BRANCH  17  18
ATOM     18  O   UNL     1      -1.941   0.443   0.000  0.00  0.00    +0.000 OA
BRANCH  18  19
ATOM     19  P   UNL     1      -2.770   0.443   0.000  0.00  0.00    +0.000 P 
ATOM     20  O   UNL     1      -3.591   0.443   0.000  0.00  0.00    +0.000 OA
ATOM     21  O   UNL     1      -2.766   1.264   0.000  0.00  0.00    +0.000 OA
ATOM     22  O   UNL     1      -2.774  -0.382   0.000  0.00  0.00    +0.000 OA
ENDBRANCH  18  19
ENDBRANCH  17  18
ENDBRANCH   4  17
TORSDOF 5
