REMARK  Name = 
REMARK  1 active torsions:
REMARK  status: ('A' for Active; 'I' for Inactive)
REMARK    1  A    between atoms: N_2  and  C_5
REMARK                            x       y       z     vdW  Elec       q    Type
REMARK                         _______ _______ _______ _____ _____    ______ ____
ROOT
ATOM      1  C   UNL     1      -0.198   0.431   0.000  0.00  0.00    +0.000 C 
ATOM      2  C   UNL     1      -0.452  -0.313   0.000  0.00  0.00    +0.000 C 
ATOM      3  O   UNL     1      -0.872   0.934   0.000  0.00  0.00    +0.000 OA
ATOM      4  C   UNL     1      -1.271  -0.313   0.000  0.00  0.00    +0.000 C 
ATOM      5  O   UNL     1      -0.063  -0.990   0.000  0.00  0.00    +0.000 OA
ATOM      6  C   UNL     1      -1.528   0.466   0.000  0.00  0.00    +0.000 C 
ATOM      7  O   UNL     1      -1.862  -0.900   0.000  0.00  0.00    +0.000 OA
ATOM      8  C   UNL     1      -2.320   0.723   0.000  0.00  0.00    +0.000 C 
ATOM      9  P   UNL     1      -2.765  -0.646   0.000  0.00  0.00    +0.000 P 
ATOM     10  O   UNL     1      -2.939   0.167   0.000  0.00  0.00    +0.000 OA
ATOM     11  O   UNL     1      -2.772  -1.476   0.000  0.00  0.00    +0.000 OA
ATOM     12  O   UNL     1      -3.543  -0.354   0.000  0.00  0.00    +0.000 OA
ENDROOT
BRANCH   1  14
ATOM     13  C   UNL     1       1.202   0.240   0.000  0.00  0.00    +0.000 A 
ATOM     14  N   UNL     1       0.570   0.677   0.000  0.00  0.00    +0.000 N 
ATOM     15  C   UNL     1       1.935   0.778   0.000  0.00  0.00    +0.000 A 
ATOM     16  N   UNL     1       1.282  -0.604   0.000  0.00  0.00    +0.000 NA
ATOM     17  C   UNL     1       0.851   1.508   0.000  0.00  0.00    +0.000 A 
ATOM     18  N   UNL     1       1.712   1.504   0.000  0.00  0.00    +0.000 NA
ATOM     19  C   UNL     1       2.682   0.448   0.000  0.00  0.00    +0.000 A 
ATOM     20  C   UNL     1       2.070  -0.955   0.000  0.00  0.00    +0.000 A 
ATOM     21  N   UNL     1       2.776  -0.434   0.000  0.00  0.00    +0.000 NA
ATOM     22  O   UNL     1       3.338   0.938   0.000  0.00  0.00    +0.000 OA
ATOM     23  N   UNL     1       2.164  -1.831   0.000  0.00  0.00    +0.000 NA
ENDBRANCH   1  14
TORSDOF 1
