REMARK  Name = 
REMARK  5 active torsions:
REMARK  status: ('A' for Active; 'I' for Inactive)
REMARK    1  A    between atoms: C_14  and  N_23
REMARK    2  A    between atoms: C_16  and  C_19
REMARK    3  A    between atoms: C_17  and  C_21
REMARK    4  A    between atoms: C_18  and  N_23
REMARK    5  A    between atoms: C_20  and  C_22
REMARK                            x       y       z     vdW  Elec       q    Type
REMARK                         _______ _______ _______ _____ _____    ______ ____
ROOT
ATOM      1  C   UNL     1       3.513  -0.546   0.000  0.00  0.00    +0.000 A 
ATOM      2  C   UNL     1       4.180  -0.062   0.000  0.00  0.00    +0.000 A 
ATOM      3  C   UNL     1       3.768  -1.331   0.000  0.00  0.00    +0.000 A 
ATOM      4  C   UNL     1       4.848  -0.546   0.000  0.00  0.00    +0.000 A 
ATOM      5  S   UNL     1       4.593  -1.331   0.000  0.00  0.00    +0.000 S 
ENDROOT
BRANCH   3  11
ATOM      6  C   UNL     1       2.313  -3.333   0.000  0.00  0.00    +0.000 A 
ATOM      7  C   UNL     1       3.133  -3.420   0.000  0.00  0.00    +0.000 A 
ATOM      8  C   UNL     1       1.977  -2.580   0.000  0.00  0.00    +0.000 A 
ATOM      9  C   UNL     1       3.618  -2.752   0.000  0.00  0.00    +0.000 A 
ATOM     10  C   UNL     1       2.462  -1.912   0.000  0.00  0.00    +0.000 A 
ATOM     11  C   UNL     1       3.283  -1.999   0.000  0.00  0.00    +0.000 A 
ENDBRANCH   3  11
BRANCH   2  13
ATOM     12  C   UNL     1       3.466   1.176   0.000  0.00  0.00    +0.000 C 
ATOM     13  N   UNL     1       4.180   0.763   0.000  0.00  0.00    +0.000 N 
ATOM     14  O   UNL     1       2.751   0.763   0.000  0.00  0.00    +0.000 OA
BRANCH  12  21
ATOM     15  C   UNL     1       3.466   4.476   0.000  0.00  0.00    +0.000 C 
ATOM     16  C   UNL     1       2.751   3.238   0.000  0.00  0.00    +0.000 C 
ATOM     17  C   UNL     1       4.180   3.238   0.000  0.00  0.00    +0.000 C 
ATOM     18  C   UNL     1       2.751   2.413   0.000  0.00  0.00    +0.000 C 
ATOM     19  C   UNL     1       4.180   2.413   0.000  0.00  0.00    +0.000 C 
ATOM     20  C   UNL     1       3.466   3.651   0.000  0.00  0.00    +0.000 C 
ATOM     21  C   UNL     1       3.466   2.001   0.000  0.00  0.00    +0.000 C 
ENDBRANCH  12  21
BRANCH  13  24
ATOM     22  C   UNL     1       4.895   2.001   0.000  0.00  0.00    +0.000 C 
ATOM     23  C   UNL     1       5.609   0.763   0.000  0.00  0.00    +0.000 C 
ATOM     24  C   UNL     1       4.895   1.176   0.000  0.00  0.00    +0.000 C 
ENDBRANCH  13  24
ENDBRANCH   2  13
BRANCH   4  25
ATOM     25  C   UNL     1       5.632  -0.292   0.000  0.00  0.00    +0.000 C 
ATOM     26  O   UNL     1       6.245  -0.844   0.000  0.00  0.00    +0.000 OA
ATOM     27  O   UNL     1       5.804   0.515   0.000  0.00  0.00    +0.000 OA
ENDBRANCH   4  25
TORSDOF 5
