REMARK  Name = 
REMARK  2 active torsions:
REMARK  status: ('A' for Active; 'I' for Inactive)
REMARK    1  A    between atoms: N_8  and  C1*_12
REMARK    2  A    between atoms: C4*_15  and  C5*_16
REMARK                            x       y       z     vdW  Elec       q    Type
REMARK                         _______ _______ _______ _____ _____    ______ ____
ROOT
ATOM      1  S   UNL     1       5.017  -1.813   0.000  0.00  0.00    +0.000 S 
ATOM      2  O   UNL     1       6.324  -1.149   0.000  0.00  0.00    +0.000 OA
ATOM      3  O   UNL     1       3.522  -2.799   0.000  0.00  0.00    +0.000 OA
ATOM      4  N   UNL     1       5.017  -0.485   0.000  0.00  0.00    +0.000 N 
ATOM      5  N   UNL     1       3.522  -0.324   0.000  0.00  0.00    +0.000 NA
ATOM      6  N   UNL     1       2.808  -1.561   0.000  0.00  0.00    +0.000 NA
ATOM      7  N   UNL     1       2.093  -0.324   0.000  0.00  0.00    +0.000 NA
ATOM      8  C   UNL     1       4.237  -0.736   0.000  0.00  0.00    +0.000 A 
ATOM      9  C   UNL     1       5.499  -1.149   0.000  0.00  0.00    +0.000 A 
ATOM     10  C   UNL     1       4.237  -1.561   0.000  0.00  0.00    +0.000 A 
ATOM     11  C   UNL     1       3.522  -1.974   0.000  0.00  0.00    +0.000 A 
ATOM     12  C   UNL     1       2.808  -0.736   0.000  0.00  0.00    +0.000 A 
ENDROOT
BRANCH   4  16
ATOM     13  O4* UNL     1       6.059   0.553   0.000  0.00  0.00    +0.000 OA
ATOM     14  O2* UNL     1       3.965   0.969   0.000  0.00  0.00    +0.000 OA
ATOM     15  O3* UNL     1       5.022   2.419   0.000  0.00  0.00    +0.000 OA
ATOM     16  C1* UNL     1       5.273   0.299   0.000  0.00  0.00    +0.000 C 
ATOM     17  C2* UNL     1       4.790   0.968   0.000  0.00  0.00    +0.000 C 
ATOM     18  C3* UNL     1       5.276   1.634   0.000  0.00  0.00    +0.000 C 
ATOM     19  C4* UNL     1       6.060   1.378   0.000  0.00  0.00    +0.000 C 
BRANCH  19  21
ATOM     20  O5* UNL     1       7.481   1.525   0.000  0.00  0.00    +0.000 OA
ATOM     21  C5* UNL     1       6.728   1.862   0.000  0.00  0.00    +0.000 C 
ENDBRANCH  19  21
ENDBRANCH   4  16
TORSDOF 2
