REMARK  Name = 
REMARK  13 active torsions:
REMARK  status: ('A' for Active; 'I' for Inactive)
REMARK    1  A    between atoms: C_1  and  C_3
REMARK    2  A    between atoms: C_2  and  C_4
REMARK    3  A    between atoms: C_2  and  O_8
REMARK    4  A    between atoms: C_3  and  C_5
REMARK    5  A    between atoms: C_4  and  C_5
REMARK    6  A    between atoms: C_4  and  C_20
REMARK    7  A    between atoms: N_6  and  C_16
REMARK    8  A    between atoms: C_7  and  C_10
REMARK    9  A    between atoms: O_8  and  C_9
REMARK   10  A    between atoms: C_20  and  O_23
REMARK   11  A    between atoms: O_23  and  C_26
REMARK   12  A    between atoms: O_24  and  C_25
REMARK   13  A    between atoms: C_25  and  C_26
REMARK                            x       y       z     vdW  Elec       q    Type
REMARK                         _______ _______ _______ _____ _____    ______ ____
ROOT
ATOM      1  C   UNL     1      10.207  -8.469   0.000  0.00  0.00    +0.000 C 
ENDROOT
BRANCH   1   2
ATOM      2  C   UNL     1       9.484  -8.057   0.000  0.00  0.00    +0.000 C 
ATOM      3  O   UNL     1       9.488  -7.232   0.000  0.00  0.00    +0.000 OA
BRANCH   2   4
ATOM      4  O   UNL     1       8.782  -8.482   0.000  0.00  0.00    +0.000 OA
BRANCH   4   5
ATOM      5  C   UNL     1       8.059  -8.057   0.000  0.00  0.00    +0.000 A 
ATOM      6  C   UNL     1       8.059  -7.232   0.000  0.00  0.00    +0.000 A 
ATOM      7  C   UNL     1       7.345  -6.820   0.000  0.00  0.00    +0.000 A 
ATOM      8  C   UNL     1       7.345  -8.470   0.000  0.00  0.00    +0.000 A 
ATOM      9  C   UNL     1       6.630  -7.232   0.000  0.00  0.00    +0.000 A 
ATOM     10  C   UNL     1       6.630  -8.057   0.000  0.00  0.00    +0.000 A 
ATOM     11  C   UNL     1       5.846  -6.978   0.000  0.00  0.00    +0.000 C 
ATOM     12  C   UNL     1       5.361  -7.645   0.000  0.00  0.00    +0.000 C 
ATOM     13  C   UNL     1       5.845  -8.312   0.000  0.00  0.00    +0.000 C 
ENDBRANCH   4   5
ENDBRANCH   2   4
ENDBRANCH   1   2
BRANCH   1  14
ATOM     14  C   UNL     1      10.212  -9.294   0.000  0.00  0.00    +0.000 C 
BRANCH  14  15
ATOM     15  O   UNL     1       9.495  -9.710   0.000  0.00  0.00    +0.000 OA
BRANCH  15  16
ATOM     16  C   UNL     1       8.780  -9.303   0.000  0.00  0.00    +0.000 C 
BRANCH  16  17
ATOM     17  C   UNL     1       8.066  -9.720   0.000  0.00  0.00    +0.000 C 
BRANCH  17  18
ATOM     18  O   UNL     1       7.352  -9.312   0.000  0.00  0.00    +0.000 OA
ATOM     19  C   UNL     1       6.642  -9.729   0.000  0.00  0.00    +0.000 C 
ENDBRANCH  17  18
ENDBRANCH  16  17
ENDBRANCH  15  16
ENDBRANCH  14  15
ENDBRANCH   1  14
BRANCH   1  20
ATOM     20  C   UNL     1      10.918  -8.056   0.000  0.00  0.00    +0.000 C 
BRANCH  20  21
ATOM     21  C   UNL     1      11.632  -8.469   0.000  0.00  0.00    +0.000 C 
ATOM     22  C   UNL     1      10.962  -8.944   0.000  0.00  0.00    +0.000 C 
ATOM     23  C   UNL     1      12.307  -8.944   0.000  0.00  0.00    +0.000 C 
ATOM     24  C   UNL     1      11.212  -9.730   0.000  0.00  0.00    +0.000 C 
ATOM     25  C   UNL     1      12.036  -9.730   0.000  0.00  0.00    +0.000 C 
BRANCH  21  26
ATOM     26  C   UNL     1      12.338  -8.049   0.000  0.00  0.00    +0.000 C 
ATOM     27  N   UNL     1      13.057  -8.454   0.000  0.00  0.00    +0.000 NA
ATOM     28  O   UNL     1      12.330  -7.224   0.000  0.00  0.00    +0.000 OA
BRANCH  27  32
ATOM     29  C   UNL     1      15.188  -7.181   0.000  0.00  0.00    +0.000 C 
ATOM     30  C   UNL     1      14.461  -6.789   0.000  0.00  0.00    +0.000 C 
ATOM     31  C   UNL     1      15.188  -8.006   0.000  0.00  0.00    +0.000 C 
ATOM     32  C   UNL     1      13.776  -8.033   0.000  0.00  0.00    +0.000 C 
ATOM     33  C   UNL     1      13.763  -7.208   0.000  0.00  0.00    +0.000 C 
ATOM     34  C   UNL     1      14.482  -8.439   0.000  0.00  0.00    +0.000 C 
BRANCH  29  35
ATOM     35  C   UNL     1      15.885  -6.761   0.000  0.00  0.00    +0.000 C 
ATOM     36  O   UNL     1      16.612  -7.166   0.000  0.00  0.00    +0.000 OA
ATOM     37  O   UNL     1      15.881  -5.936   0.000  0.00  0.00    +0.000 OA
ENDBRANCH  29  35
ENDBRANCH  27  32
ENDBRANCH  21  26
ENDBRANCH  20  21
ENDBRANCH   1  20
TORSDOF 13
