REMARK  Name = 
REMARK  1 active torsions:
REMARK  status: ('A' for Active; 'I' for Inactive)
REMARK    1  A    between atoms: C_9  and  C_11
REMARK                            x       y       z     vdW  Elec       q    Type
REMARK                         _______ _______ _______ _____ _____    ______ ____
ROOT
ATOM      1  C   UNL     1      -3.418   0.766   0.000  0.00  0.00    +0.000 A 
ATOM      2  C   UNL     1      -4.132   1.179   0.000  0.00  0.00    +0.000 A 
ATOM      3  C   UNL     1      -4.847   0.766   0.000  0.00  0.00    +0.000 A 
ATOM      4  C   UNL     1      -4.847  -0.059   0.000  0.00  0.00    +0.000 A 
ATOM      5  C   UNL     1      -4.132  -0.471   0.000  0.00  0.00    +0.000 A 
ATOM      6  C   UNL     1      -3.418  -0.059   0.000  0.00  0.00    +0.000 A 
ATOM      7  S   UNL     1      -2.703  -0.471   0.000  0.00  0.00    +0.000 S 
ATOM      8  N   UNL     1      -1.989  -0.059   0.000  0.00  0.00    +0.000 N 
ATOM      9  C   UNL     1      -1.989   0.766   0.000  0.00  0.00    +0.000 C 
ATOM     10  C   UNL     1      -2.703   1.179   0.000  0.00  0.00    +0.000 C 
ATOM     11  C   UNL     1      -1.274  -0.471   0.000  0.00  0.00    +0.000 C 
ATOM     12  O   UNL     1      -2.703   2.004   0.000  0.00  0.00    +0.000 OA
ATOM     13  O   UNL     1      -3.287  -1.055   0.000  0.00  0.00    +0.000 OA
ATOM     14  O   UNL     1      -2.120  -1.055   0.000  0.00  0.00    +0.000 OA
ENDROOT
BRANCH   9  15
ATOM     15  C   UNL     1      -1.274   1.179   0.000  0.00  0.00    +0.000 C 
ATOM     16  N   UNL     1      -1.274   2.004   0.000  0.00  0.00    +0.000 NA
ATOM     17  C   UNL     1      -0.560   2.416   0.000  0.00  0.00    +0.000 A 
ATOM     18  C   UNL     1       0.154   3.654   0.000  0.00  0.00    +0.000 A 
ATOM     19  N   UNL     1      -0.560   3.241   0.000  0.00  0.00    +0.000 NA
ATOM     20  C   UNL     1       0.154   2.004   0.000  0.00  0.00    +0.000 A 
ATOM     21  C   UNL     1       0.869   2.416   0.000  0.00  0.00    +0.000 A 
ATOM     22  C   UNL     1       0.869   3.241   0.000  0.00  0.00    +0.000 A 
ATOM     23  O   UNL     1      -0.560   0.766   0.000  0.00  0.00    +0.000 OA
ENDBRANCH   9  15
TORSDOF 1
