REMARK  Name = 
REMARK  11 active torsions:
REMARK  status: ('A' for Active; 'I' for Inactive)
REMARK    1  A    between atoms: C_2  and  C_3
REMARK    2  A    between atoms: C_2  and  C_9
REMARK    3  A    between atoms: C_3  and  O_32
REMARK    4  A    between atoms: C_4  and  C_8
REMARK    5  A    between atoms: C_4  and  O_33
REMARK    6  A    between atoms: C_15  and  C_17
REMARK    7  A    between atoms: C_16  and  N_23
REMARK    8  A    between atoms: O_32  and  P_36
REMARK    9  A    between atoms: O_33  and  P_37
REMARK   10  A    between atoms: O_35  and  P_36
REMARK   11  A    between atoms: O_35  and  P_37
REMARK                            x       y       z     vdW  Elec       q    Type
REMARK                         _______ _______ _______ _____ _____    ______ ____
ROOT
ATOM      1  O   UNL     1      -1.322  -1.158   0.000  0.00  0.00    +0.000 OA
ENDROOT
BRANCH   1   4
ATOM      2  O   UNL     1      -2.474  -0.976   0.000  0.00  0.00    +0.000 OA
ATOM      3  O   UNL     1      -1.504  -2.311   0.000  0.00  0.00    +0.000 OA
ATOM      4  P   UNL     1      -1.989  -1.643   0.000  0.00  0.00    +0.000 P 
BRANCH   4   5
ATOM      5  O   UNL     1      -2.657  -2.128   0.000  0.00  0.00    +0.000 OA
BRANCH   5   8
ATOM      6  O   UNL     1      -3.075  -1.039   0.000  0.00  0.00    +0.000 OA
ATOM      7  O   UNL     1      -3.746  -2.546   0.000  0.00  0.00    +0.000 OA
ATOM      8  P   UNL     1      -3.410  -1.793   0.000  0.00  0.00    +0.000 P 
BRANCH   8   9
ATOM      9  O   UNL     1      -4.164  -1.457   0.000  0.00  0.00    +0.000 OA
BRANCH   9  10
ATOM     10  C   UNL     1      -4.832  -1.942   0.000  0.00  0.00    +0.000 C 
BRANCH  10  11
ATOM     11  C   UNL     1      -5.585  -1.607   0.000  0.00  0.00    +0.000 C 
BRANCH  11  14
ATOM     12  C   UNL     1      -5.585  -3.401   0.000  0.00  0.00    +0.000 C 
ATOM     13  C   UNL     1      -6.253  -2.916   0.000  0.00  0.00    +0.000 A 
ATOM     14  C   UNL     1      -6.253  -2.091   0.000  0.00  0.00    +0.000 A 
ATOM     15  C   UNL     1      -7.522  -2.504   0.000  0.00  0.00    +0.000 A 
ATOM     16  N   UNL     1      -7.037  -3.171   0.000  0.00  0.00    +0.000 NA
ATOM     17  S   UNL     1      -7.037  -1.837   0.000  0.00  0.00    +0.000 S 
BRANCH  15  18
ATOM     18  C   UNL     1      -8.347  -2.504   0.000  0.00  0.00    +0.000 C 
ATOM     19  O   UNL     1      -8.760  -3.218   0.000  0.00  0.00    +0.000 OA
ATOM     20  O   UNL     1      -8.760  -1.790   0.000  0.00  0.00    +0.000 OA
ENDBRANCH  15  18
ENDBRANCH  11  14
ENDBRANCH  10  11
ENDBRANCH   9  10
ENDBRANCH   8   9
ENDBRANCH   5   8
ENDBRANCH   4   5
ENDBRANCH   1   4
BRANCH   1  21
ATOM     21  C   UNL     1      -0.568  -1.494   0.000  0.00  0.00    +0.000 C 
BRANCH  21  22
ATOM     22  C   UNL     1       0.099  -1.009   0.000  0.00  0.00    +0.000 C 
ATOM     23  C   UNL     1       0.884  -1.264   0.000  0.00  0.00    +0.000 C 
ATOM     24  C   UNL     1       1.369  -0.597   0.000  0.00  0.00    +0.000 C 
ATOM     25  C   UNL     1       0.884   0.071   0.000  0.00  0.00    +0.000 C 
ATOM     26  O   UNL     1       1.139  -2.049   0.000  0.00  0.00    +0.000 OA
ATOM     27  O   UNL     1       2.194  -0.597   0.000  0.00  0.00    +0.000 OA
ATOM     28  O   UNL     1       0.099  -0.184   0.000  0.00  0.00    +0.000 OA
BRANCH  25  38
ATOM     29  C   UNL     1       3.352   1.110   0.000  0.00  0.00    +0.000 A 
ATOM     30  C   UNL     1       0.654   1.523   0.000  0.00  0.00    +0.000 A 
ATOM     31  C   UNL     1       1.923   1.935   0.000  0.00  0.00    +0.000 A 
ATOM     32  C   UNL     1       2.638   2.348   0.000  0.00  0.00    +0.000 A 
ATOM     33  C   UNL     1       1.923   1.110   0.000  0.00  0.00    +0.000 A 
ATOM     34  N   UNL     1       2.638   3.173   0.000  0.00  0.00    +0.000 NA
ATOM     35  N   UNL     1       3.352   1.935   0.000  0.00  0.00    +0.000 NA
ATOM     36  N   UNL     1       2.638   0.698   0.000  0.00  0.00    +0.000 NA
ATOM     37  N   UNL     1       1.139   2.190   0.000  0.00  0.00    +0.000 NA
ATOM     38  N   UNL     1       1.139   0.856   0.000  0.00  0.00    +0.000 N 
ENDBRANCH  25  38
ENDBRANCH  21  22
ENDBRANCH   1  21
TORSDOF 11
