REMARK  Name = 
REMARK  0 active torsions:
REMARK  status: ('A' for Active; 'I' for Inactive)
REMARK                            x       y       z     vdW  Elec       q    Type
REMARK                         _______ _______ _______ _____ _____    ______ ____
ROOT
ATOM      1  C   UNL     1      -0.534   1.874   0.000  0.00  0.00    +0.000 A 
ATOM      2  C   UNL     1      -0.448   1.053   0.000  0.00  0.00    +0.000 A 
ATOM      3  C   UNL     1       2.902   1.874   0.000  0.00  0.00    +0.000 A 
ATOM      4  C   UNL     1       0.771   0.167   0.000  0.00  0.00    +0.000 A 
ATOM      5  C   UNL     1       1.596   1.596   0.000  0.00  0.00    +0.000 A 
ATOM      6  C   UNL     1       2.009   0.882   0.000  0.00  0.00    +0.000 A 
ATOM      7  C   UNL     1       0.771   1.596   0.000  0.00  0.00    +0.000 A 
ATOM      8  N   UNL     1       0.219   2.209   0.000  0.00  0.00    +0.000 NA
ATOM      9  N   UNL     1       2.148   2.209   0.000  0.00  0.00    +0.000 NA
ATOM     10  N   UNL     1       2.816   1.053   0.000  0.00  0.00    +0.000 NA
ATOM     11  N   UNL     1       1.596   0.167   0.000  0.00  0.00    +0.000 NA
ATOM     12  N   UNL     1       0.359   0.882   0.000  0.00  0.00    +0.000 N 
ENDROOT
TORSDOF 0
