REMARK  Name = 
REMARK  3 active torsions:
REMARK  status: ('A' for Active; 'I' for Inactive)
REMARK    1  A    between atoms: O_1  and  C_6
REMARK    2  A    between atoms: C_3  and  C_4
REMARK    3  A    between atoms: C_4  and  C_10
REMARK                            x       y       z     vdW  Elec       q    Type
REMARK                         _______ _______ _______ _____ _____    ______ ____
ROOT
ATOM      1  O   UNL     1      15.747  -4.606   0.000  0.00  0.00    +0.000 OA
ATOM      2  C   UNL     1      17.890  -5.844   0.000  0.00  0.00    +0.000 A 
ATOM      3  C   UNL     1      17.890  -5.019   0.000  0.00  0.00    +0.000 A 
ATOM      4  C   UNL     1      17.176  -4.606   0.000  0.00  0.00    +0.000 A 
ATOM      5  C   UNL     1      17.176  -6.256   0.000  0.00  0.00    +0.000 A 
ATOM      6  C   UNL     1      16.461  -5.019   0.000  0.00  0.00    +0.000 A 
ATOM      7  C   UNL     1      16.461  -5.844   0.000  0.00  0.00    +0.000 A 
ENDROOT
BRANCH   4   8
ATOM      8  O   UNL     1      17.176  -3.781   0.000  0.00  0.00    +0.000 OA
ATOM      9  C   UNL     1      17.890  -3.369   0.000  0.00  0.00    +0.000 C 
ENDBRANCH   4   8
BRANCH   2  10
ATOM     10  C   UNL     1      18.605  -6.256   0.000  0.00  0.00    +0.000 C 
BRANCH  10  11
ATOM     11  C   UNL     1      18.605  -7.081   0.000  0.00  0.00    +0.000 C 
ATOM     12  C   UNL     1      19.319  -7.494   0.000  0.00  0.00    +0.000 C 
ENDBRANCH  10  11
ENDBRANCH   2  10
TORSDOF 3
