REMARK  Name = 
REMARK  3 active torsions:
REMARK  status: ('A' for Active; 'I' for Inactive)
REMARK    1  A    between atoms: C_3  and  C_5
REMARK    2  A    between atoms: C_6  and  N_10
REMARK    3  A    between atoms: C_9  and  O_15
REMARK                            x       y       z     vdW  Elec       q    Type
REMARK                         _______ _______ _______ _____ _____    ______ ____
ROOT
ATOM      1  C   UNL     1       1.429   0.825   0.000  0.00  0.00    +0.000 C 
ATOM      2  C   UNL     1       0.000   0.000   0.000  0.00  0.00    +0.000 C 
ATOM      3  C   UNL     1       0.715   1.238   0.000  0.00  0.00    +0.000 C 
ATOM      4  C   UNL     1       0.000   0.825   0.000  0.00  0.00    +0.000 C 
ATOM      5  C   UNL     1       0.715  -0.412   0.000  0.00  0.00    +0.000 C 
ATOM      6  O   UNL     1       0.715   2.062   0.000  0.00  0.00    +0.000 OA
ATOM      7  O   UNL     1      -0.715   1.238   0.000  0.00  0.00    +0.000 OA
ATOM      8  O   UNL     1       1.429   0.000   0.000  0.00  0.00    +0.000 OA
ENDROOT
BRANCH   2  11
ATOM      9  C   UNL     1      -1.429  -1.650   0.000  0.00  0.00    +0.000 C 
ATOM     10  C   UNL     1      -0.715  -1.238   0.000  0.00  0.00    +0.000 C 
ATOM     11  N   UNL     1      -0.715  -0.412   0.000  0.00  0.00    +0.000 NA
ATOM     12  O   UNL     1       0.000  -1.650   0.000  0.00  0.00    +0.000 OA
ENDBRANCH   2  11
BRANCH   5  14
ATOM     13  C   UNL     1       1.429  -1.650   0.000  0.00  0.00    +0.000 C 
ATOM     14  O   UNL     1       0.715  -1.238   0.000  0.00  0.00    +0.000 OA
ENDBRANCH   5  14
BRANCH   1  15
ATOM     15  C   UNL     1       2.143   1.238   0.000  0.00  0.00    +0.000 C 
ATOM     16  O   UNL     1       2.143   2.062   0.000  0.00  0.00    +0.000 OA
ENDBRANCH   1  15
TORSDOF 3
