REMARK  Name = 
REMARK  5 active torsions:
REMARK  status: ('A' for Active; 'I' for Inactive)
REMARK    1  A    between atoms: C_14  and  C_21
REMARK    2  A    between atoms: C_15  and  C_24
REMARK    3  A    between atoms: C_16  and  N_32
REMARK    4  A    between atoms: C_22  and  C_27
REMARK    5  A    between atoms: C_23  and  C_28
REMARK                            x       y       z     vdW  Elec       q    Type
REMARK                         _______ _______ _______ _____ _____    ______ ____
ROOT
ATOM      1  C   UNL     1       7.515  -0.412   0.000  0.00  0.00    +0.000 C 
ATOM      2  C   UNL     1       6.801   0.825   0.000  0.00  0.00    +0.000 A 
ATOM      3  C   UNL     1       6.086   1.238   0.000  0.00  0.00    +0.000 A 
ATOM      4  C   UNL     1       6.086  -0.412   0.000  0.00  0.00    +0.000 A 
ATOM      5  C   UNL     1       6.801   0.000   0.000  0.00  0.00    +0.000 A 
ATOM      6  C   UNL     1       5.372   0.825   0.000  0.00  0.00    +0.000 A 
ATOM      7  C   UNL     1       5.372   0.000   0.000  0.00  0.00    +0.000 A 
ATOM      8  C   UNL     1       2.833   0.000   0.000  0.00  0.00    +0.000 C 
ATOM      9  C   UNL     1       3.617  -0.255   0.000  0.00  0.00    +0.000 C 
ATOM     10  C   UNL     1       2.833   0.825   0.000  0.00  0.00    +0.000 C 
ATOM     11  C   UNL     1       4.587   1.080   0.000  0.00  0.00    +0.000 C 
ATOM     12  C   UNL     1       4.587  -0.255   0.000  0.00  0.00    +0.000 C 
ATOM     13  C   UNL     1       4.102   0.412   0.000  0.00  0.00    +0.000 C 
ATOM     14  O   UNL     1       4.332   1.865   0.000  0.00  0.00    +0.000 OA
ATOM     15  O   UNL     1       4.332  -1.040   0.000  0.00  0.00    +0.000 OA
ATOM     16  O   UNL     1       3.617   1.080   0.000  0.00  0.00    +0.000 OA
ENDROOT
BRANCH  10  20
ATOM     17  C   UNL     1       2.251   2.130   0.000  0.00  0.00    +0.000 A 
ATOM     18  C   UNL     1       1.584   2.615   0.000  0.00  0.00    +0.000 A 
ATOM     19  C   UNL     1       1.411   0.974   0.000  0.00  0.00    +0.000 A 
ATOM     20  C   UNL     1       2.165   1.310   0.000  0.00  0.00    +0.000 A 
ATOM     21  C   UNL     1       0.830   2.280   0.000  0.00  0.00    +0.000 A 
ATOM     22  C   UNL     1       0.744   1.459   0.000  0.00  0.00    +0.000 A 
ATOM     23 CL   UNL     1       0.163   2.765   0.000  0.00  0.00    +0.000 Cl
ATOM     24 CL   UNL     1      -0.010   1.124   0.000  0.00  0.00    +0.000 Cl
ENDBRANCH  10  20
BRANCH   8  25
ATOM     25  C   UNL     1       2.165  -0.485   0.000  0.00  0.00    +0.000 C 
ATOM     26  N   UNL     1       2.251  -1.305   0.000  0.00  0.00    +0.000 NA
ATOM     27  O   UNL     1       1.411  -0.149   0.000  0.00  0.00    +0.000 OA
BRANCH  26  33
ATOM     28  C   UNL     1       1.003  -3.096   0.000  0.00  0.00    +0.000 A 
ATOM     29  C   UNL     1       0.163  -1.940   0.000  0.00  0.00    +0.000 A 
ATOM     30  C   UNL     1       1.670  -2.611   0.000  0.00  0.00    +0.000 A 
ATOM     31  C   UNL     1       0.830  -1.455   0.000  0.00  0.00    +0.000 A 
ATOM     32  C   UNL     1       0.249  -2.760   0.000  0.00  0.00    +0.000 A 
ATOM     33  C   UNL     1       1.584  -1.790   0.000  0.00  0.00    +0.000 A 
BRANCH  32  35
ATOM     34  C   UNL     1      -0.418  -4.070   0.000  0.00  0.00    +0.000 A 
ATOM     35  C   UNL     1      -0.418  -3.245   0.000  0.00  0.00    +0.000 A 
ATOM     36  N   UNL     1      -1.203  -2.990   0.000  0.00  0.00    +0.000 NA
ATOM     37  N   UNL     1      -1.688  -3.658   0.000  0.00  0.00    +0.000 NA
ATOM     38  S   UNL     1      -1.203  -4.325   0.000  0.00  0.00    +0.000 S 
ENDBRANCH  32  35
ENDBRANCH  26  33
ENDBRANCH   8  25
BRANCH   9  39
ATOM     39  C   UNL     1       3.872  -1.040   0.000  0.00  0.00    +0.000 C 
ATOM     40  O   UNL     1       4.587  -1.452   0.000  0.00  0.00    +0.000 OA
ATOM     41  O   UNL     1       3.320  -1.653   0.000  0.00  0.00    +0.000 OA
ENDBRANCH   9  39
TORSDOF 5
