REMARK  Name = 
REMARK  6 active torsions:
REMARK  status: ('A' for Active; 'I' for Inactive)
REMARK    1  A    between atoms: C_2  and  C_7
REMARK    2  A    between atoms: C_7  and  N_8
REMARK    3  A    between atoms: C_9  and  C_11
REMARK    4  A    between atoms: C_11  and  C_12
REMARK    5  A    between atoms: C_11  and  N_15
REMARK    6  A    between atoms: C_12  and  O_13
REMARK                            x       y       z     vdW  Elec       q    Type
REMARK                         _______ _______ _______ _____ _____    ______ ____
ROOT
ATOM      1  N   UNL     1       5.488   1.532   0.000  0.00  0.00    +0.000 NA
ATOM      2  C   UNL     1       4.773   1.945   0.000  0.00  0.00    +0.000 C 
ATOM      3  O   UNL     1       4.773   2.770   0.000  0.00  0.00    +0.000 OA
ENDROOT
BRANCH   1   4
ATOM      4  C   UNL     1       6.202   1.945   0.000  0.00  0.00    +0.000 C 
BRANCH   4   6
ATOM      5  C   UNL     1       7.631   1.945   0.000  0.00  0.00    +0.000 A 
ATOM      6  C   UNL     1       6.917   1.532   0.000  0.00  0.00    +0.000 A 
ATOM      7  C   UNL     1       6.917   0.707   0.000  0.00  0.00    +0.000 A 
ATOM      8  C   UNL     1       7.631   0.295   0.000  0.00  0.00    +0.000 A 
ATOM      9  C   UNL     1       8.346   0.707   0.000  0.00  0.00    +0.000 A 
ATOM     10  C   UNL     1       8.346   1.532   0.000  0.00  0.00    +0.000 A 
ENDBRANCH   4   6
ENDBRANCH   1   4
BRANCH   2  11
ATOM     11  C   UNL     1       4.059   1.532   0.000  0.00  0.00    +0.000 C 
BRANCH  11  12
ATOM     12  N   UNL     1       3.262   1.746   0.000  0.00  0.00    +0.000 NA
ATOM     13  C   UNL     1       2.547   1.333   0.000  0.00  0.00    +0.000 C 
ATOM     14  O   UNL     1       2.547   0.508   0.000  0.00  0.00    +0.000 OA
ATOM     15  C   UNL     1       1.833   1.746   0.000  0.00  0.00    +0.000 C 
ENDBRANCH  11  12
BRANCH  11  16
ATOM     16  C   UNL     1       4.059   0.707   0.000  0.00  0.00    +0.000 C 
BRANCH  16  17
ATOM     17  O   UNL     1       4.773   0.295   0.000  0.00  0.00    +0.000 OA
ATOM     18  C   UNL     1       4.773  -0.530   0.000  0.00  0.00    +0.000 C 
ENDBRANCH  16  17
ENDBRANCH  11  16
ENDBRANCH   2  11
TORSDOF 6
