REMARK  Name = 
REMARK  5 active torsions:
REMARK  status: ('A' for Active; 'I' for Inactive)
REMARK    1  A    between atoms: C_1  and  C_2
REMARK    2  A    between atoms: C_2  and  C_3
REMARK    3  A    between atoms: C_3  and  C_4
REMARK    4  A    between atoms: C_4  and  O_5
REMARK    5  A    between atoms: O_5  and  P_6
REMARK                            x       y       z     vdW  Elec       q    Type
REMARK                         _______ _______ _______ _____ _____    ______ ____
ROOT
ATOM      1  C   UNL     1      17.424  -9.986   0.000  0.00  0.00    +0.000 C 
ATOM      2  N   UNL     1      17.423 -10.817   0.000  0.00  0.00    +0.000 NA
ENDROOT
BRANCH   1   3
ATOM      3  C   UNL     1      18.136  -9.581   0.000  0.00  0.00    +0.000 C 
BRANCH   3   4
ATOM      4  C   UNL     1      18.844  -9.986   0.000  0.00  0.00    +0.000 A 
ATOM      5  C   UNL     1      18.935 -10.813   0.000  0.00  0.00    +0.000 A 
ATOM      6  N   UNL     1      19.751 -10.983   0.000  0.00  0.00    +0.000 NA
ATOM      7  C   UNL     1      20.163 -10.260   0.000  0.00  0.00    +0.000 A 
ATOM      8  N   UNL     1      19.604  -9.644   0.000  0.00  0.00    +0.000 NA
ENDBRANCH   3   4
ENDBRANCH   1   3
BRANCH   1   9
ATOM      9  C   UNL     1      16.715  -9.581   0.000  0.00  0.00    +0.000 C 
BRANCH   9  10
ATOM     10  O   UNL     1      16.004  -9.986   0.000  0.00  0.00    +0.000 OA
BRANCH  10  11
ATOM     11  P   UNL     1      15.171  -9.985   0.000  0.00  0.00    +0.000 P 
ATOM     12  O   UNL     1      15.166  -9.153   0.000  0.00  0.00    +0.000 OA
ATOM     13  O   UNL     1      14.339  -9.985   0.000  0.00  0.00    +0.000 OA
ATOM     14  O   UNL     1      15.166 -10.816   0.000  0.00  0.00    +0.000 OA
ENDBRANCH  10  11
ENDBRANCH   9  10
ENDBRANCH   1   9
TORSDOF 5
