REMARK  Name = 
REMARK  1 active torsions:
REMARK  status: ('A' for Active; 'I' for Inactive)
REMARK    1  A    between atoms: B_2  and  C_4
REMARK                            x       y       z     vdW  Elec       q    Type
REMARK                         _______ _______ _______ _____ _____    ______ ____
ROOT
ATOM      1  C   UNL     1      -0.628  -0.698   0.000  0.00  0.00    +0.000 A 
ATOM      2  C   UNL     1      -0.143  -1.365   0.000  0.00  0.00    +0.000 A 
ATOM      3  C   UNL     1       0.641  -1.110   0.000  0.00  0.00    +0.000 A 
ATOM      4  C   UNL     1       0.641  -0.285   0.000  0.00  0.00    +0.000 A 
ATOM      5  S   UNL     1      -0.143  -0.030   0.000  0.00  0.00    +0.000 S 
ATOM      6  C   UNL     1       1.356   0.127   0.000  0.00  0.00    +0.000 A 
ATOM      7  C   UNL     1       2.070  -0.285   0.000  0.00  0.00    +0.000 A 
ATOM      8  C   UNL     1       2.070  -1.110   0.000  0.00  0.00    +0.000 A 
ATOM      9  C   UNL     1       1.356  -1.523   0.000  0.00  0.00    +0.000 A 
ENDROOT
BRANCH   1  11
ATOM     10  O   UNL     1      -1.866  -1.412   0.000  0.00  0.00    +0.000 OA
ATOM     11  B   UNL     1      -1.453  -0.698   0.000  0.00  0.00    +0.000 B 
ATOM     12  O   UNL     1      -1.866   0.017   0.000  0.00  0.00    +0.000 OA
ENDBRANCH   1  11
TORSDOF 1
