REMARK  Name = 
REMARK  16 active torsions:
REMARK  status: ('A' for Active; 'I' for Inactive)
REMARK    1  A    between atoms: C_2  and  C_4
REMARK    2  A    between atoms: C_4  and  C_5
REMARK    3  A    between atoms: C_5  and  C_6
REMARK    4  A    between atoms: C_6  and  N_7
REMARK    5  A    between atoms: C_6  and  C_29
REMARK    6  A    between atoms: C_8  and  C_10
REMARK    7  A    between atoms: C_10  and  N_11
REMARK    8  A    between atoms: C_10  and  C_25
REMARK    9  A    between atoms: N_11  and  S_12
REMARK   10  A    between atoms: S_12  and  C_15
REMARK   11  A    between atoms: C_15  and  C_16
REMARK   12  A    between atoms: C_18  and  C_22
REMARK   13  A    between atoms: C_25  and  C_27
REMARK   14  A    between atoms: N_31  and  C_32
REMARK   15  A    between atoms: C_32  and  C_33
REMARK   16  A    between atoms: C_36  and  C_39
REMARK                            x       y       z     vdW  Elec       q    Type
REMARK                         _______ _______ _______ _____ _____    ______ ____
ROOT
ATOM      1  N   UNL     1       6.430  -6.188   0.000  0.00  0.00    +0.000 NA
ATOM      2  C   UNL     1       5.716  -6.600   0.000  0.00  0.00    +0.000 C 
ATOM      3  O   UNL     1       5.716  -7.425   0.000  0.00  0.00    +0.000 OA
ENDROOT
BRANCH   1   4
ATOM      4  C   UNL     1       7.145  -6.600   0.000  0.00  0.00    +0.000 C 
BRANCH   4   5
ATOM      5  C   UNL     1       7.859  -6.188   0.000  0.00  0.00    +0.000 C 
ATOM      6  O   UNL     1       7.859  -5.362   0.000  0.00  0.00    +0.000 OA
ATOM      7  N   UNL     1       8.574  -6.600   0.000  0.00  0.00    +0.000 NA
BRANCH   7   8
ATOM      8  C   UNL     1       9.288  -6.188   0.000  0.00  0.00    +0.000 C 
BRANCH   8   9
ATOM      9  C   UNL     1      10.003  -6.600   0.000  0.00  0.00    +0.000 A 
ATOM     10  C   UNL     1      10.717  -6.188   0.000  0.00  0.00    +0.000 A 
ATOM     11  C   UNL     1      11.431  -6.600   0.000  0.00  0.00    +0.000 A 
ATOM     12  C   UNL     1      11.431  -7.425   0.000  0.00  0.00    +0.000 A 
ATOM     13  C   UNL     1      10.717  -7.838   0.000  0.00  0.00    +0.000 A 
ATOM     14  C   UNL     1      10.003  -7.425   0.000  0.00  0.00    +0.000 A 
BRANCH  12  15
ATOM     15  C   UNL     1      12.146  -7.838   0.000  0.00  0.00    +0.000 C 
ATOM     16  N   UNL     1      12.861  -7.425   0.000  0.00  0.00    +0.000 NA
ATOM     17  N   UNL     1      12.146  -8.662   0.000  0.00  0.00    +0.000 NA
ENDBRANCH  12  15
ENDBRANCH   8   9
ENDBRANCH   7   8
ENDBRANCH   4   5
BRANCH   4  18
ATOM     18  C   UNL     1       7.145  -7.425   0.000  0.00  0.00    +0.000 C 
BRANCH  18  19
ATOM     19  C   UNL     1       7.859  -7.838   0.000  0.00  0.00    +0.000 C 
BRANCH  19  21
ATOM     20  N   UNL     1       8.574  -9.075   0.000  0.00  0.00    +0.000 NA
ATOM     21  C   UNL     1       7.859  -8.662   0.000  0.00  0.00    +0.000 C 
ATOM     22  N   UNL     1       7.145  -9.075   0.000  0.00  0.00    +0.000 NA
ENDBRANCH  19  21
ENDBRANCH  18  19
ENDBRANCH   4  18
ENDBRANCH   1   4
BRANCH   2  23
ATOM     23  C   UNL     1       5.001  -6.188   0.000  0.00  0.00    +0.000 C 
BRANCH  23  24
ATOM     24  C   UNL     1       5.001  -5.362   0.000  0.00  0.00    +0.000 C 
ATOM     25  C   UNL     1       5.716  -4.950   0.000  0.00  0.00    +0.000 C 
BRANCH  24  26
ATOM     26  C   UNL     1       4.287  -4.950   0.000  0.00  0.00    +0.000 C 
ATOM     27  C   UNL     1       4.287  -4.125   0.000  0.00  0.00    +0.000 C 
ENDBRANCH  24  26
ENDBRANCH  23  24
BRANCH  23  28
ATOM     28  N   UNL     1       4.287  -6.600   0.000  0.00  0.00    +0.000 NA
BRANCH  28  29
ATOM     29  S   UNL     1       3.572  -6.188   0.000  0.00  0.00    +0.000 S 
ATOM     30  O   UNL     1       3.160  -6.902   0.000  0.00  0.00    +0.000 OA
ATOM     31  O   UNL     1       3.985  -5.473   0.000  0.00  0.00    +0.000 OA
BRANCH  29  32
ATOM     32  C   UNL     1       2.858  -5.775   0.000  0.00  0.00    +0.000 C 
BRANCH  32  33
ATOM     33  C   UNL     1       2.143  -6.188   0.000  0.00  0.00    +0.000 A 
ATOM     34  C   UNL     1       2.143  -7.013   0.000  0.00  0.00    +0.000 A 
ATOM     35  C   UNL     1       1.429  -7.425   0.000  0.00  0.00    +0.000 A 
ATOM     36  C   UNL     1       0.715  -7.013   0.000  0.00  0.00    +0.000 A 
ATOM     37  C   UNL     1       0.715  -6.188   0.000  0.00  0.00    +0.000 A 
ATOM     38  C   UNL     1       1.429  -5.775   0.000  0.00  0.00    +0.000 A 
BRANCH  35  39
ATOM     39  C   UNL     1       1.429  -8.250   0.000  0.00  0.00    +0.000 C 
ATOM     40  O   UNL     1       0.715  -8.662   0.000  0.00  0.00    +0.000 OA
ATOM     41  O   UNL     1       2.143  -8.662   0.000  0.00  0.00    +0.000 OA
ENDBRANCH  35  39
ENDBRANCH  32  33
ENDBRANCH  29  32
ENDBRANCH  28  29
ENDBRANCH  23  28
ENDBRANCH   2  23
TORSDOF 16
