REMARK  Name = 
REMARK  2 active torsions:
REMARK  status: ('A' for Active; 'I' for Inactive)
REMARK    1  A    between atoms: C_3  and  S_5
REMARK    2  A    between atoms: C_3  and  S_6
REMARK                            x       y       z     vdW  Elec       q    Type
REMARK                         _______ _______ _______ _____ _____    ______ ____
ROOT
ATOM      1  C   UNL     1      -0.412  -0.715   0.000  0.00  0.00    +0.000 C 
ENDROOT
BRANCH   1   4
ATOM      2  C   UNL     1      -0.412   0.715   0.000  0.00  0.00    +0.000 C 
ATOM      3  O   UNL     1       0.825   0.000   0.000  0.00  0.00    +0.000 OA
ATOM      4  S   UNL     1       0.000   0.000   0.000  0.00  0.00    +0.000 S 
ENDBRANCH   1   4
BRANCH   1   6
ATOM      5  C   UNL     1      -0.412  -2.143   0.000  0.00  0.00    +0.000 C 
ATOM      6  S   UNL     1       0.000  -1.429   0.000  0.00  0.00    +0.000 S 
ENDBRANCH   1   6
TORSDOF 2
