REMARK  Name = 
REMARK  1 active torsions:
REMARK  status: ('A' for Active; 'I' for Inactive)
REMARK    1  A    between atoms: C_5  and  C_8
REMARK                            x       y       z     vdW  Elec       q    Type
REMARK                         _______ _______ _______ _____ _____    ______ ____
ROOT
ATOM      1  O   UNL     1       5.166  -0.968   0.000  0.00  0.00    +0.000 OA
ATOM      2  N   UNL     1       3.860  -1.632   0.000  0.00  0.00    +0.000 NA
ATOM      3  C   UNL     1       3.860  -0.304   0.000  0.00  0.00    +0.000 C 
ATOM      4  C   UNL     1       3.079  -0.556   0.000  0.00  0.00    +0.000 A 
ATOM      5  C   UNL     1       4.116   0.480   0.000  0.00  0.00    +0.000 C 
ATOM      6  C   UNL     1       3.079  -1.381   0.000  0.00  0.00    +0.000 A 
ATOM      7  C   UNL     1       4.341  -0.968   0.000  0.00  0.00    +0.000 C 
ATOM      8  C   UNL     1       2.365  -0.143   0.000  0.00  0.00    +0.000 A 
ATOM      9  C   UNL     1       2.365  -1.793   0.000  0.00  0.00    +0.000 A 
ATOM     10  C   UNL     1       1.650  -0.556   0.000  0.00  0.00    +0.000 A 
ATOM     11  C   UNL     1       1.650  -1.381   0.000  0.00  0.00    +0.000 A 
ENDROOT
BRANCH   5  13
ATOM     12  N   UNL     1       5.535   0.097   0.000  0.00  0.00    +0.000 NA
ATOM     13  C   UNL     1       4.923   0.650   0.000  0.00  0.00    +0.000 A 
ATOM     14  C   UNL     1       5.260   1.403   0.000  0.00  0.00    +0.000 A 
ATOM     15  C   UNL     1       6.251   0.508   0.000  0.00  0.00    +0.000 A 
ATOM     16  C   UNL     1       6.080   1.315   0.000  0.00  0.00    +0.000 A 
ATOM     17  C   UNL     1       4.849   2.118   0.000  0.00  0.00    +0.000 C 
ATOM     18  C   UNL     1       7.004   0.171   0.000  0.00  0.00    +0.000 C 
ENDBRANCH   5  13
TORSDOF 1
