REMARK  Name = 
REMARK  25 active torsions:
REMARK  status: ('A' for Active; 'I' for Inactive)
REMARK    1  A    between atoms: C_1  and  C_2
REMARK    2  A    between atoms: C_1  and  N_3
REMARK    3  A    between atoms: C_1  and  C_4
REMARK    4  A    between atoms: C_2  and  S_5
REMARK    5  A    between atoms: S_5  and  C_9
REMARK    6  A    between atoms: C_6  and  C_10
REMARK    7  A    between atoms: N_7  and  CA_12
REMARK    8  A    between atoms: C_9  and  C_13
REMARK    9  A    between atoms: C_9  and  C_14
REMARK   10  A    between atoms: C_10  and  C_15
REMARK   11  A    between atoms: CA_12  and  C_16
REMARK   12  A    between atoms: C_13  and  C_17
REMARK   13  A    between atoms: C_15  and  C_20
REMARK   14  A    between atoms: C_17  and  C_23
REMARK   15  A    between atoms: C_19  and  C_24
REMARK   16  A    between atoms: C_20  and  C_25
REMARK   17  A    between atoms: C_23  and  C_27
REMARK   18  A    between atoms: C_27  and  C_31
REMARK   19  A    between atoms: C_28  and  C_32
REMARK   20  A    between atoms: C_35  and  C_36
REMARK   21  A    between atoms: C_36  and  C_37
REMARK   22  A    between atoms: C_38  and  C_39
REMARK   23  A    between atoms: C_39  and  C_40
REMARK   24  A    between atoms: C_40  and  C_41
REMARK   25  A    between atoms: C_41  and  C_42
REMARK                            x       y       z     vdW  Elec       q    Type
REMARK                         _______ _______ _______ _____ _____    ______ ____
ROOT
ATOM      1  C   UNK A   1      -0.350   1.701   0.000  0.00  0.00    +0.000 C 
ENDROOT
BRANCH   1   2
ATOM      2  C   UNK A   1       0.357   2.109   0.000  0.00  0.00    +0.000 C 
ATOM      3  O   UNK A   1       0.357   2.939   0.000  0.00  0.00    +0.000 OA
BRANCH   2   4
ATOM      4  C   UNK A   1       1.076   1.697   0.000  0.00  0.00    +0.000 C 
BRANCH   4   5
ATOM      5  C   UNK A   1       1.791   2.109   0.000  0.00  0.00    +0.000 C 
BRANCH   5   6
ATOM      6  C   UNK A   1       2.506   1.697   0.000  0.00  0.00    +0.000 C 
BRANCH   6   7
ATOM      7  C   UNK A   1       3.221   2.105   0.000  0.00  0.00    +0.000 C 
ATOM      8  O   UNK A   1       3.936   1.694   0.000  0.00  0.00    +0.000 OA
ATOM      9  O   UNK A   1       3.221   2.958   0.000  0.00  0.00    +0.000 OA
ENDBRANCH   6   7
ENDBRANCH   5   6
ENDBRANCH   4   5
ENDBRANCH   2   4
ENDBRANCH   1   2
BRANCH   1  10
ATOM     10  C   UNK A   1      -1.073   2.112   0.000  0.00  0.00    +0.000 C 
ATOM     11  C   UNK A   1      -1.784   1.701   0.000  0.00  0.00    +0.000 C 
BRANCH  11  12
ATOM     12  C   UNK A   1      -2.499   2.112   0.000  0.00  0.00    +0.000 C 
ATOM     13  C   UNK A   1      -3.217   1.704   0.000  0.00  0.00    +0.000 C 
BRANCH  13  14
ATOM     14  C   UNK A   1      -3.933   2.112   0.000  0.00  0.00    +0.000 C 
ATOM     15  C   UNK A   1      -4.756   2.109   0.000  0.00  0.00    +0.000 C 
BRANCH  15  16
ATOM     16  C   UNK A   1      -5.460   0.726   0.000  0.00  0.00    +0.000 C 
BRANCH  16  17
ATOM     17  C   UNK A   1      -4.806  -0.686   0.000  0.00  0.00    +0.000 C 
ATOM     18  C   UNK A   1      -3.983  -0.682   0.000  0.00  0.00    +0.000 C 
BRANCH  18  19
ATOM     19  C   UNK A   1      -3.272  -0.264   0.000  0.00  0.00    +0.000 C 
BRANCH  19  20
ATOM     20  C   UNK A   1      -2.546  -0.675   0.000  0.00  0.00    +0.000 C 
BRANCH  20  21
ATOM     21  C   UNK A   1      -1.838  -0.256   0.000  0.00  0.00    +0.000 C 
BRANCH  21  22
ATOM     22  C   UNK A   1      -1.116  -0.664   0.000  0.00  0.00    +0.000 C 
ATOM     23  C   UNK A   1      -0.527  -0.130   0.000  0.00  0.00    +0.000 C 
ENDBRANCH  21  22
ENDBRANCH  20  21
ENDBRANCH  19  20
ENDBRANCH  18  19
ENDBRANCH  16  17
ENDBRANCH  15  16
ENDBRANCH  13  14
ENDBRANCH  11  12
ENDBRANCH   1  10
BRANCH   1  24
ATOM     24  S   UNK A   1       0.040   0.661   0.000  0.00  0.00    +0.000 S 
BRANCH  24  25
ATOM     25  C   UNK A   1       0.863   0.664   0.000  0.00  0.00    +0.000 C 
BRANCH  25  26
ATOM     26  C   UNK A   1       1.271  -0.051   0.000  0.00  0.00    +0.000 C 
BRANCH  26  27
ATOM     27  N   UNK A   1       0.867  -0.769   0.000  0.00  0.00    +0.000 NA
ATOM     28  C   UNK A   1       1.275  -1.484   0.000  0.00  0.00    +0.000 C 
ATOM     29  O   UNK A   1       2.098  -1.484   0.000  0.00  0.00    +0.000 OA
BRANCH  28  30
ATOM     30  C   UNK A   1       0.870  -2.196   0.000  0.00  0.00    +0.000 C 
BRANCH  30  31
ATOM     31  C   UNK A   1       0.043  -2.199   0.000  0.00  0.00    +0.000 C 
BRANCH  31  32
ATOM     32  C   UNK A   1      -0.372  -2.918   0.000  0.00  0.00    +0.000 C 
ATOM     33  N   UNK A   1       0.047  -3.629   0.000  0.00  0.00    +0.000 NA
BRANCH  32  34
ATOM     34  C   UNK A   1      -1.195  -2.918   0.000  0.00  0.00    +0.000 C 
ATOM     35  O   UNK A   1      -1.607  -2.203   0.000  0.00  0.00    +0.000 OA
ATOM     36  O   UNK A   1      -1.607  -3.633   0.000  0.00  0.00    +0.000 OA
ENDBRANCH  32  34
ENDBRANCH  31  32
ENDBRANCH  30  31
ENDBRANCH  28  30
ENDBRANCH  26  27
BRANCH  26  37
ATOM     37  C   UNK A   1       2.091  -0.051   0.000  0.00  0.00    +0.000 C 
ATOM     38  N   GLY A   2       2.510  -0.769   0.000  0.00  0.00    +0.000 NA
ATOM     39  O   UNK A   1       2.510   0.668   0.000  0.00  0.00    +0.000 OA
BRANCH  38  40
ATOM     40  CA  GLY A   2       3.337  -0.769   0.000  0.00  0.00    +0.000 C 
BRANCH  40  41
ATOM     41  C   GLY A   2       3.745  -1.484   0.000  0.00  0.00    +0.000 C 
ATOM     42  O   GLY A   2       4.572  -1.481   0.000  0.00  0.00    +0.000 OA
ATOM     43  OXT GLY A   2       3.337  -2.196   0.000  0.00  0.00    +0.000 OA
ENDBRANCH  40  41
ENDBRANCH  38  40
ENDBRANCH  26  37
ENDBRANCH  25  26
ENDBRANCH  24  25
ENDBRANCH   1  24
TORSDOF 25
