REMARK  Name = 
REMARK  7 active torsions:
REMARK  status: ('A' for Active; 'I' for Inactive)
REMARK    1  A    between atoms: O_1  and  C_21
REMARK    2  A    between atoms: O_3  and  C_31
REMARK    3  A    between atoms: O_4  and  C_42
REMARK    4  A    between atoms: C_11  and  C_21
REMARK    5  A    between atoms: C_13  and  C_19
REMARK    6  A    between atoms: C_28  and  C_29
REMARK    7  A    between atoms: C_33  and  C_42
REMARK                            x       y       z     vdW  Elec       q    Type
REMARK                         _______ _______ _______ _____ _____    ______ ____
ROOT
ATOM      1  N   UNL     1       8.301   3.206   0.000  0.00  0.00    +0.000 NA
ATOM      2  N   UNL     1       7.776   0.586   0.000  0.00  0.00    +0.000 NA
ATOM      3  C   UNL     1       8.815   2.561   0.000  0.00  0.00    +0.000 C 
ATOM      4  C   UNL     1       8.632   1.756   0.000  0.00  0.00    +0.000 C 
ATOM      5  C   UNL     1      10.075   1.409   0.000  0.00  0.00    +0.000 C 
ATOM      6  C   UNL     1       9.632   2.826   0.000  0.00  0.00    +0.000 C 
ATOM      7  C   UNL     1       9.252   1.162   0.000  0.00  0.00    +0.000 C 
ATOM      8  C   UNL     1      10.267   2.247   0.000  0.00  0.00    +0.000 C 
ATOM      9  C   UNL     1       9.707   2.820   0.000  0.00  0.00    +0.000 C 
ATOM     10  C   UNL     1       7.888   1.398   0.000  0.00  0.00    +0.000 A 
ATOM     11  C   UNL     1       7.476   3.206   0.000  0.00  0.00    +0.000 C 
ATOM     12  C   UNL     1       7.145   1.756   0.000  0.00  0.00    +0.000 A 
ATOM     13  C   UNL     1       6.961   2.561   0.000  0.00  0.00    +0.000 C 
ATOM     14  C   UNL     1       6.580   1.162   0.000  0.00  0.00    +0.000 A 
ATOM     15  C   UNL     1       6.969   0.440   0.000  0.00  0.00    +0.000 A 
ATOM     16  C   UNL     1       5.726   1.200   0.000  0.00  0.00    +0.000 A 
ATOM     17  C   UNL     1       6.532  -0.294   0.000  0.00  0.00    +0.000 A 
ATOM     18  C   UNL     1       5.678  -0.276   0.000  0.00  0.00    +0.000 A 
ATOM     19  C   UNL     1       5.272   0.476   0.000  0.00  0.00    +0.000 A 
ENDROOT
BRANCH  18  22
ATOM     20  N   UNL     1       3.311  -2.973   0.000  0.00  0.00    +0.000 NA
ATOM     21  N   UNL     1       6.543  -1.519   0.000  0.00  0.00    +0.000 NA
ATOM     22  C   UNL     1       5.247  -0.979   0.000  0.00  0.00    +0.000 C 
ATOM     23  C   UNL     1       3.765  -1.337   0.000  0.00  0.00    +0.000 C 
ATOM     24  C   UNL     1       4.432  -0.851   0.000  0.00  0.00    +0.000 C 
ATOM     25  C   UNL     1       3.637  -2.152   0.000  0.00  0.00    +0.000 C 
ATOM     26  C   UNL     1       4.123  -2.819   0.000  0.00  0.00    +0.000 C 
ATOM     27  C   UNL     1       5.733  -1.646   0.000  0.00  0.00    +0.000 A 
ATOM     28  C   UNL     1       4.938  -2.947   0.000  0.00  0.00    +0.000 C 
ATOM     29  C   UNL     1       2.973  -1.569   0.000  0.00  0.00    +0.000 C 
ATOM     30  C   UNL     1       5.605  -2.461   0.000  0.00  0.00    +0.000 A 
ATOM     31  C   UNL     1       2.751  -2.365   0.000  0.00  0.00    +0.000 C 
ATOM     32  C   UNL     1       6.337  -2.831   0.000  0.00  0.00    +0.000 A 
ATOM     33  C   UNL     1       6.916  -2.250   0.000  0.00  0.00    +0.000 A 
ATOM     34  C   UNL     1       3.478  -3.781   0.000  0.00  0.00    +0.000 C 
ATOM     35  C   UNL     1       2.385  -0.990   0.000  0.00  0.00    +0.000 C 
ATOM     36  C   UNL     1       6.547  -3.659   0.000  0.00  0.00    +0.000 A 
ATOM     37  C   UNL     1       7.745  -2.457   0.000  0.00  0.00    +0.000 A 
ATOM     38  C   UNL     1       2.593  -0.192   0.000  0.00  0.00    +0.000 C 
ATOM     39  C   UNL     1       7.370  -3.885   0.000  0.00  0.00    +0.000 A 
ATOM     40  C   UNL     1       7.973  -3.280   0.000  0.00  0.00    +0.000 A 
BRANCH  25  42
ATOM     41  O   UNL     1       2.806  -3.511   0.000  0.00  0.00    +0.000 OA
ATOM     42  C   UNL     1       3.039  -2.720   0.000  0.00  0.00    +0.000 C 
BRANCH  42  43
ATOM     43  O   UNL     1       2.248  -2.486   0.000  0.00  0.00    +0.000 OA
ATOM     44  C   UNL     1       1.650  -3.055   0.000  0.00  0.00    +0.000 C 
ENDBRANCH  42  43
ENDBRANCH  25  42
ENDBRANCH  18  22
BRANCH  19  45
ATOM     45  O   UNL     1       4.448   0.503   0.000  0.00  0.00    +0.000 OA
ATOM     46  C   UNL     1       4.059   1.231   0.000  0.00  0.00    +0.000 C 
ENDBRANCH  19  45
BRANCH   4  48
ATOM     47  O   UNL     1       7.624   0.993   0.000  0.00  0.00    +0.000 OA
ATOM     48  C   UNL     1       8.448   0.952   0.000  0.00  0.00    +0.000 C 
BRANCH  48  49
ATOM     49  O   UNL     1       9.053   0.391   0.000  0.00  0.00    +0.000 OA
ATOM     50  C   UNL     1       8.869  -0.414   0.000  0.00  0.00    +0.000 C 
ENDBRANCH  48  49
ENDBRANCH   4  48
BRANCH   6  51
ATOM     51  C   UNL     1       9.807   3.633   0.000  0.00  0.00    +0.000 C 
ATOM     52  C   UNL     1      10.592   3.885   0.000  0.00  0.00    +0.000 C 
ENDBRANCH   6  51
TORSDOF 7
