REMARK  Name = 
REMARK  2 active torsions:
REMARK  status: ('A' for Active; 'I' for Inactive)
REMARK    1  A    between atoms: C5*_1  and  C4*_3
REMARK    2  A    between atoms: C1*_9  and  N_16
REMARK                            x       y       z     vdW  Elec       q    Type
REMARK                         _______ _______ _______ _____ _____    ______ ____
ROOT
ATOM      1  C   UNL     1      -1.270   0.412   0.000  0.00  0.00    +0.000 A 
ATOM      2  C   UNL     1       0.000   0.000   0.000  0.00  0.00    +0.000 A 
ATOM      3  C   UNL     1       0.715  -0.412   0.000  0.00  0.00    +0.000 A 
ATOM      4  C   UNL     1       0.000   0.825   0.000  0.00  0.00    +0.000 A 
ATOM      5  C   UNL     1       1.429   0.825   0.000  0.00  0.00    +0.000 A 
ATOM      6  F   UNL     1       2.143   1.238   0.000  0.00  0.00    +0.000 F 
ATOM      7  N   UNL     1       0.715  -1.238   0.000  0.00  0.00    +0.000 NA
ATOM      8  N   UNL     1      -0.785  -0.255   0.000  0.00  0.00    +0.000 NA
ATOM      9  N   UNL     1       1.429   0.000   0.000  0.00  0.00    +0.000 NA
ATOM     10  N   UNL     1       0.715   1.238   0.000  0.00  0.00    +0.000 NA
ATOM     11  N   UNL     1      -0.785   1.080   0.000  0.00  0.00    +0.000 N 
ENDROOT
BRANCH  11  15
ATOM     12  C4* UNL     1      -1.040   3.199   0.000  0.00  0.00    +0.000 C 
ATOM     13  C3* UNL     1      -1.824   2.945   0.000  0.00  0.00    +0.000 C 
ATOM     14  C2* UNL     1      -1.824   2.119   0.000  0.00  0.00    +0.000 C 
ATOM     15  C1* UNL     1      -1.040   1.865   0.000  0.00  0.00    +0.000 C 
ATOM     16  O3* UNL     1      -2.492   3.429   0.000  0.00  0.00    +0.000 OA
ATOM     17  O2* UNL     1      -2.492   1.635   0.000  0.00  0.00    +0.000 OA
ATOM     18  O4* UNL     1      -0.555   2.532   0.000  0.00  0.00    +0.000 OA
BRANCH  12  19
ATOM     19  C5* UNL     1      -0.785   3.984   0.000  0.00  0.00    +0.000 C 
ATOM     20  O5* UNL     1      -1.337   4.597   0.000  0.00  0.00    +0.000 OA
ENDBRANCH  12  19
ENDBRANCH  11  15
TORSDOF 2
