REMARK  Name = 
REMARK  6 active torsions:
REMARK  status: ('A' for Active; 'I' for Inactive)
REMARK    1  A    between atoms: O_3  and  N_6
REMARK    2  A    between atoms: O_3  and  C_15
REMARK    3  A    between atoms: N_5  and  C_13
REMARK    4  A    between atoms: C_13  and  C_14
REMARK    5  A    between atoms: C_14  and  C_15
REMARK    6  A    between atoms: C_16  and  C_17
REMARK                            x       y       z     vdW  Elec       q    Type
REMARK                         _______ _______ _______ _____ _____    ______ ____
ROOT
ATOM      1  O   UNL     1       4.508   0.000   0.000  0.00  0.00    +0.000 OA
ENDROOT
BRANCH   1   3
ATOM      2 CL   UNL     1       4.508  -1.650   0.000  0.00  0.00    +0.000 Cl
ATOM      3  N   UNL     1       5.222  -0.412   0.000  0.00  0.00    +0.000 NA
ATOM      4  C   UNL     1       5.222  -1.238   0.000  0.00  0.00    +0.000 C 
BRANCH   4   7
ATOM      5  O   UNL     1       6.652  -3.713   0.000  0.00  0.00    +0.000 OA
ATOM      6  N   UNL     1       6.652  -2.888   0.000  0.00  0.00    +0.000 N 
ATOM      7  C   UNL     1       5.937  -1.650   0.000  0.00  0.00    +0.000 A 
ATOM      8  C   UNL     1       5.937  -2.475   0.000  0.00  0.00    +0.000 A 
ATOM      9  C   UNL     1       6.652  -1.238   0.000  0.00  0.00    +0.000 A 
ATOM     10  C   UNL     1       7.366  -1.650   0.000  0.00  0.00    +0.000 A 
ATOM     11  C   UNL     1       7.366  -2.475   0.000  0.00  0.00    +0.000 A 
ENDBRANCH   4   7
ENDBRANCH   1   3
BRANCH   1  12
ATOM     12  C   UNL     1       4.508   0.825   0.000  0.00  0.00    +0.000 C 
BRANCH  12  14
ATOM     13  O   UNL     1       3.079   0.825   0.000  0.00  0.00    +0.000 OA
ATOM     14  C   UNL     1       3.793   1.238   0.000  0.00  0.00    +0.000 C 
BRANCH  14  15
ATOM     15  C   UNL     1       3.793   2.062   0.000  0.00  0.00    +0.000 C 
BRANCH  15  16
ATOM     16  N   UNL     1       3.079   2.475   0.000  0.00  0.00    +0.000 NA
ATOM     17  C   UNL     1       3.079   3.300   0.000  0.00  0.00    +0.000 C 
ATOM     18  C   UNL     1       2.365   2.062   0.000  0.00  0.00    +0.000 C 
ATOM     19  C   UNL     1       2.365   3.713   0.000  0.00  0.00    +0.000 C 
ATOM     20  C   UNL     1       1.650   2.475   0.000  0.00  0.00    +0.000 C 
ATOM     21  C   UNL     1       1.650   3.300   0.000  0.00  0.00    +0.000 C 
ENDBRANCH  15  16
ENDBRANCH  14  15
ENDBRANCH  12  14
ENDBRANCH   1  12
TORSDOF 6
