REMARK  Name = 
REMARK  2 active torsions:
REMARK  status: ('A' for Active; 'I' for Inactive)
REMARK    1  A    between atoms: C_1  and  C_4
REMARK    2  A    between atoms: C_4  and  C_7
REMARK                            x       y       z     vdW  Elec       q    Type
REMARK                         _______ _______ _______ _____ _____    ______ ____
ROOT
ATOM      1  C   UNL     1      -0.148   0.204   0.000  0.00  0.00    +0.000 A 
ATOM      2  C   UNL     1      -0.148  -0.621   0.000  0.00  0.00    +0.000 A 
ATOM      3  C   UNL     1      -0.863   0.617   0.000  0.00  0.00    +0.000 A 
ATOM      4  C   UNL     1      -0.863  -1.033   0.000  0.00  0.00    +0.000 A 
ATOM      5  C   UNL     1      -1.577   0.204   0.000  0.00  0.00    +0.000 A 
ATOM      6  C   UNL     1      -1.577  -0.621   0.000  0.00  0.00    +0.000 A 
ENDROOT
BRANCH   1   7
ATOM      7  C   UNL     1       0.567   0.617   0.000  0.00  0.00    +0.000 C 
BRANCH   7   8
ATOM      8  C   UNL     1       1.281   0.204   0.000  0.00  0.00    +0.000 C 
ATOM      9  C   UNL     1       1.281  -0.621   0.000  0.00  0.00    +0.000 C 
ATOM     10  N   UNL     1       1.995   0.617   0.000  0.00  0.00    +0.000 NA
ENDBRANCH   7   8
ENDBRANCH   1   7
TORSDOF 2
