REMARK  Name = 
REMARK  13 active torsions:
REMARK  status: ('A' for Active; 'I' for Inactive)
REMARK    1  A    between atoms: C_2  and  C_3
REMARK    2  A    between atoms: C_3  and  C_4
REMARK    3  A    between atoms: C_4  and  C_5
REMARK    4  A    between atoms: C_5  and  C_6
REMARK    5  A    between atoms: C_6  and  C_7
REMARK    6  A    between atoms: C_7  and  C_13
REMARK    7  A    between atoms: C_8  and  C_11
REMARK    8  A    between atoms: C_9  and  C_12
REMARK    9  A    between atoms: C_9  and  O_29
REMARK   10  A    between atoms: C_10  and  C_20
REMARK   11  A    between atoms: C_13  and  O_29
REMARK   12  A    between atoms: C_19  and  O_32
REMARK   13  A    between atoms: C_20  and  O_32
REMARK                            x       y       z     vdW  Elec       q    Type
REMARK                         _______ _______ _______ _____ _____    ______ ____
ROOT
ATOM      1  C   UNL     1      11.636   8.849   0.000  0.00  0.00    +0.000 C 
ATOM      2  C   UNL     1      11.722   8.028   0.000  0.00  0.00    +0.000 C 
ATOM      3  C   UNL     1      12.529   7.857   0.000  0.00  0.00    +0.000 C 
ATOM      4  C   UNL     1      12.942   8.571   0.000  0.00  0.00    +0.000 C 
ATOM      5  O   UNL     1      11.109   7.476   0.000  0.00  0.00    +0.000 OA
ATOM      6  O   UNL     1      12.865   7.103   0.000  0.00  0.00    +0.000 OA
ATOM      7  O   UNL     1      12.390   9.184   0.000  0.00  0.00    +0.000 OA
ENDROOT
BRANCH   4   8
ATOM      8  C   UNL     1      13.494   9.184   0.000  0.00  0.00    +0.000 C 
ATOM      9  O   UNL     1      13.239   9.969   0.000  0.00  0.00    +0.000 OA
ENDBRANCH   4   8
BRANCH   1  10
ATOM     10  C   UNL     1      10.922   9.261   0.000  0.00  0.00    +0.000 C 
BRANCH  10  11
ATOM     11  O   UNL     1      10.207   8.849   0.000  0.00  0.00    +0.000 OA
BRANCH  11  12
ATOM     12  C   UNL     1       9.493   9.261   0.000  0.00  0.00    +0.000 C 
ATOM     13  O   UNL     1       9.493  10.086   0.000  0.00  0.00    +0.000 OA
BRANCH  12  14
ATOM     14  C   UNL     1       8.778   8.849   0.000  0.00  0.00    +0.000 C 
BRANCH  14  15
ATOM     15  C   UNL     1       8.064   9.261   0.000  0.00  0.00    +0.000 C 
BRANCH  15  16
ATOM     16  C   UNL     1       7.349   8.849   0.000  0.00  0.00    +0.000 C 
BRANCH  16  17
ATOM     17  C   UNL     1       6.635   9.261   0.000  0.00  0.00    +0.000 C 
BRANCH  17  18
ATOM     18  C   UNL     1       5.920   8.849   0.000  0.00  0.00    +0.000 C 
BRANCH  18  20
ATOM     19  C   UNL     1       4.491   8.849   0.000  0.00  0.00    +0.000 C 
ATOM     20  C   UNL     1       5.206   9.261   0.000  0.00  0.00    +0.000 C 
ENDBRANCH  18  20
ENDBRANCH  17  18
ENDBRANCH  16  17
ENDBRANCH  15  16
ENDBRANCH  14  15
ENDBRANCH  12  14
ENDBRANCH  11  12
ENDBRANCH  10  11
ENDBRANCH   1  10
BRANCH   4  21
ATOM     21  O   UNL     1      13.609   8.086   0.000  0.00  0.00    +0.000 OA
BRANCH  21  26
ATOM     22  C   UNL     1      15.784   8.273   0.000  0.00  0.00    +0.000 C 
ATOM     23  C   UNL     1      15.870   9.093   0.000  0.00  0.00    +0.000 C 
ATOM     24  C   UNL     1      15.203   9.578   0.000  0.00  0.00    +0.000 C 
ATOM     25  C   UNL     1      14.449   9.243   0.000  0.00  0.00    +0.000 C 
ATOM     26  C   UNL     1      14.363   8.422   0.000  0.00  0.00    +0.000 C 
ATOM     27  O   UNL     1      16.624   9.429   0.000  0.00  0.00    +0.000 OA
ATOM     28  O   UNL     1      15.289  10.399   0.000  0.00  0.00    +0.000 OA
ATOM     29  O   UNL     1      13.782   9.727   0.000  0.00  0.00    +0.000 OA
ATOM     30  O   UNL     1      15.030   7.937   0.000  0.00  0.00    +0.000 OA
BRANCH  22  31
ATOM     31  C   UNL     1      16.451   7.788   0.000  0.00  0.00    +0.000 C 
ATOM     32  O   UNL     1      17.205   8.123   0.000  0.00  0.00    +0.000 OA
ENDBRANCH  22  31
ENDBRANCH  21  26
ENDBRANCH   4  21
TORSDOF 13
