REMARK  Name = 
REMARK  8 active torsions:
REMARK  status: ('A' for Active; 'I' for Inactive)
REMARK    1  A    between atoms: C_2  and  C_12
REMARK    2  A    between atoms: C_6  and  C_13
REMARK    3  A    between atoms: C_15  and  O_21
REMARK    4  A    between atoms: C_16  and  O_22
REMARK    5  A    between atoms: O_21  and  C_26
REMARK    6  A    between atoms: O_22  and  C_27
REMARK    7  A    between atoms: C_25  and  C_26
REMARK    8  A    between atoms: C_25  and  C_27
REMARK                            x       y       z     vdW  Elec       q    Type
REMARK                         _______ _______ _______ _____ _____    ______ ____
ROOT
ATOM      1  C   UNL     1       1.444  -3.094   0.000  0.00  0.00    +0.000 C 
ATOM      2  O   UNL     1       1.444  -3.919   0.000  0.00  0.00    +0.000 OA
ENDROOT
BRANCH   1   3
ATOM      3  C   UNL     1       0.722  -2.687   0.000  0.00  0.00    +0.000 C 
BRANCH   3   4
ATOM      4  O   UNL     1       0.006  -3.099   0.000  0.00  0.00    +0.000 OA
BRANCH   4  11
ATOM      5  C   UNL     1      -1.404  -3.936   0.000  0.00  0.00    +0.000 A 
ATOM      6  C   UNL     1      -2.126  -5.162   0.000  0.00  0.00    +0.000 A 
ATOM      7  C   UNL     1      -0.699  -4.337   0.000  0.00  0.00    +0.000 A 
ATOM      8  C   UNL     1      -2.126  -4.337   0.000  0.00  0.00    +0.000 A 
ATOM      9  O   UNL     1      -1.404  -5.574   0.000  0.00  0.00    +0.000 OA
ATOM     10  C   UNL     1      -0.699  -5.162   0.000  0.00  0.00    +0.000 A 
ATOM     11  C   UNL     1       0.017  -3.925   0.000  0.00  0.00    +0.000 A 
ATOM     12  O   UNL     1      -1.404  -3.111   0.000  0.00  0.00    +0.000 OA
ATOM     13  C   UNL     1       0.017  -5.574   0.000  0.00  0.00    +0.000 A 
ATOM     14  C   UNL     1       0.728  -5.162   0.000  0.00  0.00    +0.000 A 
ATOM     15  C   UNL     1       0.728  -4.337   0.000  0.00  0.00    +0.000 A 
BRANCH   6  16
ATOM     16  C   UNL     1      -2.830  -5.574   0.000  0.00  0.00    +0.000 C 
ATOM     17  O   UNL     1      -2.847  -6.399   0.000  0.00  0.00    +0.000 OA
ATOM     18  O   UNL     1      -3.523  -5.111   0.000  0.00  0.00    +0.000 OA
ENDBRANCH   6  16
ENDBRANCH   4  11
ENDBRANCH   3   4
ENDBRANCH   1   3
BRANCH   1  19
ATOM     19  C   UNL     1       2.154  -2.670   0.000  0.00  0.00    +0.000 C 
BRANCH  19  20
ATOM     20  O   UNL     1       2.870  -3.082   0.000  0.00  0.00    +0.000 OA
BRANCH  20  27
ATOM     21  C   UNL     1       4.297  -3.890   0.000  0.00  0.00    +0.000 A 
ATOM     22  C   UNL     1       5.007  -5.122   0.000  0.00  0.00    +0.000 A 
ATOM     23  C   UNL     1       5.007  -4.303   0.000  0.00  0.00    +0.000 A 
ATOM     24  C   UNL     1       3.592  -4.303   0.000  0.00  0.00    +0.000 A 
ATOM     25  C   UNL     1       3.598  -5.128   0.000  0.00  0.00    +0.000 A 
ATOM     26  O   UNL     1       4.303  -5.534   0.000  0.00  0.00    +0.000 OA
ATOM     27  C   UNL     1       2.876  -3.907   0.000  0.00  0.00    +0.000 A 
ATOM     28  O   UNL     1       4.285  -3.065   0.000  0.00  0.00    +0.000 OA
ATOM     29  C   UNL     1       2.888  -5.557   0.000  0.00  0.00    +0.000 A 
ATOM     30  C   UNL     1       2.166  -5.145   0.000  0.00  0.00    +0.000 A 
ATOM     31  C   UNL     1       2.166  -4.320   0.000  0.00  0.00    +0.000 A 
BRANCH  22  32
ATOM     32  C   UNL     1       5.729  -5.534   0.000  0.00  0.00    +0.000 C 
ATOM     33  O   UNL     1       6.445  -5.111   0.000  0.00  0.00    +0.000 OA
ATOM     34  O   UNL     1       5.729  -6.359   0.000  0.00  0.00    +0.000 OA
ENDBRANCH  22  32
ENDBRANCH  20  27
ENDBRANCH  19  20
ENDBRANCH   1  19
TORSDOF 8
