REMARK  Name = 
REMARK  9 active torsions:
REMARK  status: ('A' for Active; 'I' for Inactive)
REMARK    1  A    between atoms: C_2  and  C_3
REMARK    2  A    between atoms: C_2  and  C_9
REMARK    3  A    between atoms: C_3  and  O_4
REMARK    4  A    between atoms: O_4  and  P_5
REMARK    5  A    between atoms: C_9  and  C_11
REMARK    6  A    between atoms: C_11  and  C_13
REMARK    7  A    between atoms: C_13  and  C_15
REMARK    8  A    between atoms: C_15  and  O_16
REMARK    9  A    between atoms: O_16  and  P_17
REMARK                            x       y       z     vdW  Elec       q    Type
REMARK                         _______ _______ _______ _____ _____    ______ ____
ROOT
ATOM      1  C   UNL     1       7.093  -3.270   0.000  0.00  0.00    +0.000 C 
ATOM      2  O   UNL     1       7.093  -4.095   0.000  0.00  0.00    +0.000 OA
ENDROOT
BRANCH   1   4
ATOM      3  O   UNL     1       6.379  -2.033   0.000  0.00  0.00    +0.000 OA
ATOM      4  C   UNL     1       6.379  -2.858   0.000  0.00  0.00    +0.000 C 
BRANCH   4   5
ATOM      5  C   UNL     1       5.665  -3.270   0.000  0.00  0.00    +0.000 C 
BRANCH   5   6
ATOM      6  O   UNL     1       4.950  -2.858   0.000  0.00  0.00    +0.000 OA
BRANCH   6   7
ATOM      7  P   UNL     1       4.236  -3.270   0.000  0.00  0.00    +0.000 P 
ATOM      8  O   UNL     1       3.521  -3.683   0.000  0.00  0.00    +0.000 OA
ATOM      9  O   UNL     1       4.648  -3.985   0.000  0.00  0.00    +0.000 OA
ATOM     10  O   UNL     1       3.823  -2.556   0.000  0.00  0.00    +0.000 OA
ENDBRANCH   6   7
ENDBRANCH   5   6
ENDBRANCH   4   5
ENDBRANCH   1   4
BRANCH   1  11
ATOM     11  C   UNL     1       7.808  -2.858   0.000  0.00  0.00    +0.000 C 
ATOM     12  O   UNL     1       7.808  -2.033   0.000  0.00  0.00    +0.000 OA
BRANCH  11  13
ATOM     13  C   UNL     1       8.522  -3.270   0.000  0.00  0.00    +0.000 C 
ATOM     14  O   UNL     1       8.522  -4.095   0.000  0.00  0.00    +0.000 OA
BRANCH  13  15
ATOM     15  C   UNL     1       9.237  -2.858   0.000  0.00  0.00    +0.000 C 
BRANCH  15  16
ATOM     16  O   UNL     1       9.951  -3.270   0.000  0.00  0.00    +0.000 OA
BRANCH  16  17
ATOM     17  P   UNL     1      10.666  -2.858   0.000  0.00  0.00    +0.000 P 
ATOM     18  O   UNL     1      11.380  -2.445   0.000  0.00  0.00    +0.000 OA
ATOM     19  O   UNL     1      11.078  -3.572   0.000  0.00  0.00    +0.000 OA
ATOM     20  O   UNL     1      10.253  -2.143   0.000  0.00  0.00    +0.000 OA
ENDBRANCH  16  17
ENDBRANCH  15  16
ENDBRANCH  13  15
ENDBRANCH  11  13
ENDBRANCH   1  11
TORSDOF 9
