REMARK  Name = 
REMARK  6 active torsions:
REMARK  status: ('A' for Active; 'I' for Inactive)
REMARK    1  A    between atoms: C_2  and  C_3
REMARK    2  A    between atoms: C_3  and  N_4
REMARK    3  A    between atoms: C_5  and  C_27
REMARK    4  A    between atoms: C_7  and  C_8
REMARK    5  A    between atoms: C_16  and  C_17
REMARK    6  A    between atoms: N_22  and  C_23
REMARK                            x       y       z     vdW  Elec       q    Type
REMARK                         _______ _______ _______ _____ _____    ______ ____
ROOT
ATOM      1  N   UNL     1      -2.312  -0.461   0.000  0.00  0.00    +0.000 N 
ATOM      2  C   UNL     1      -2.057   0.324   0.000  0.00  0.00    +0.000 A 
ATOM      3  N   UNL     1      -1.232   0.324   0.000  0.00  0.00    +0.000 NA
ATOM      4  C   UNL     1      -0.977  -0.461   0.000  0.00  0.00    +0.000 A 
ATOM      5  C   UNL     1      -1.645  -0.946   0.000  0.00  0.00    +0.000 A 
ENDROOT
BRANCH   4   6
ATOM      6  C   UNL     1      -0.193  -0.716   0.000  0.00  0.00    +0.000 A 
ATOM      7  C   UNL     1       0.420  -0.164   0.000  0.00  0.00    +0.000 A 
ATOM      8  C   UNL     1       1.205  -0.419   0.000  0.00  0.00    +0.000 A 
ATOM      9  C   UNL     1       1.377  -1.226   0.000  0.00  0.00    +0.000 A 
ATOM     10 CL   UNL     1       2.161  -1.481   0.000  0.00  0.00    +0.000 Cl
ATOM     11  C   UNL     1       0.763  -1.778   0.000  0.00  0.00    +0.000 A 
ATOM     12 CL   UNL     1       0.935  -2.585   0.000  0.00  0.00    +0.000 Cl
ATOM     13  C   UNL     1      -0.021  -1.523   0.000  0.00  0.00    +0.000 A 
ENDBRANCH   4   6
BRANCH   2  14
ATOM     14  C   UNL     1      -2.542   0.991   0.000  0.00  0.00    +0.000 C 
ATOM     15  C   UNL     1      -3.363   0.905   0.000  0.00  0.00    +0.000 C 
ATOM     16  C   UNL     1      -3.848   1.572   0.000  0.00  0.00    +0.000 C 
ATOM     17  N   UNL     1      -3.512   2.326   0.000  0.00  0.00    +0.000 NA
ATOM     18  C   UNL     1      -3.997   2.993   0.000  0.00  0.00    +0.000 C 
ATOM     19  C   UNL     1      -2.692   2.412   0.000  0.00  0.00    +0.000 C 
ATOM     20  C   UNL     1      -2.207   1.745   0.000  0.00  0.00    +0.000 C 
ENDBRANCH   2  14
BRANCH   5  21
ATOM     21  C   UNL     1      -1.645  -1.771   0.000  0.00  0.00    +0.000 A 
ATOM     22  C   UNL     1      -0.930  -2.183   0.000  0.00  0.00    +0.000 A 
ATOM     23  C   UNL     1      -0.930  -3.008   0.000  0.00  0.00    +0.000 A 
ATOM     24  N   UNL     1      -1.645  -3.421   0.000  0.00  0.00    +0.000 NA
ATOM     25  C   UNL     1      -2.359  -3.008   0.000  0.00  0.00    +0.000 A 
ATOM     26  N   UNL     1      -3.074  -3.421   0.000  0.00  0.00    +0.000 NA
ATOM     27  N   UNL     1      -2.359  -2.183   0.000  0.00  0.00    +0.000 NA
BRANCH  26  28
ATOM     28  C   UNL     1      -3.074  -4.246   0.000  0.00  0.00    +0.000 C 
ATOM     29  C   UNL     1      -2.661  -4.960   0.000  0.00  0.00    +0.000 C 
ATOM     30  C   UNL     1      -3.486  -4.960   0.000  0.00  0.00    +0.000 C 
ENDBRANCH  26  28
ENDBRANCH   5  21
BRANCH   1  31
ATOM     31  C   UNL     1      -3.097  -0.716   0.000  0.00  0.00    +0.000 C 
BRANCH  31  33
ATOM     32  C   UNL     1      -4.053  -1.778   0.000  0.00  0.00    +0.000 C 
ATOM     33  C   UNL     1      -3.268  -1.523   0.000  0.00  0.00    +0.000 C 
ENDBRANCH  31  33
ENDBRANCH   1  31
TORSDOF 6
