REMARK  Name = 
REMARK  0 active torsions:
REMARK  status: ('A' for Active; 'I' for Inactive)
REMARK                            x       y       z     vdW  Elec       q    Type
REMARK                         _______ _______ _______ _____ _____    ______ ____
ROOT
ATOM      1  C   UNL     1      23.397 -11.475   0.000  0.00  0.00    +0.000 C 
ATOM      2  C   UNL     1      23.397 -12.300   0.000  0.00  0.00    +0.000 C 
ATOM      3  C   UNL     1      24.112 -12.713   0.000  0.00  0.00    +0.000 C 
ATOM      4  C   UNL     1      24.826 -12.300   0.000  0.00  0.00    +0.000 C 
ATOM      5  C   UNL     1      24.826 -11.475   0.000  0.00  0.00    +0.000 C 
ATOM      6  C   UNL     1      24.112 -11.063   0.000  0.00  0.00    +0.000 C 
ATOM      7  C   UNL     1      25.541 -12.713   0.000  0.00  0.00    +0.000 C 
ATOM      8  C   UNL     1      26.255 -12.300   0.000  0.00  0.00    +0.000 C 
ATOM      9  C   UNL     1      26.255 -11.475   0.000  0.00  0.00    +0.000 C 
ATOM     10  C   UNL     1      25.541 -11.063   0.000  0.00  0.00    +0.000 C 
ATOM     11  C   UNL     1      26.970 -11.063   0.000  0.00  0.00    +0.000 C 
ATOM     12  C   UNL     1      26.970 -10.238   0.000  0.00  0.00    +0.000 C 
ATOM     13  C   UNL     1      26.255  -9.825   0.000  0.00  0.00    +0.000 C 
ATOM     14  C   UNL     1      25.541 -10.238   0.000  0.00  0.00    +0.000 C 
ATOM     15  C   UNL     1      27.754 -11.318   0.000  0.00  0.00    +0.000 C 
ATOM     16  C   UNL     1      28.239 -10.650   0.000  0.00  0.00    +0.000 C 
ATOM     17  C   UNL     1      27.754  -9.983   0.000  0.00  0.00    +0.000 C 
ATOM     18  O   UNL     1      22.683 -12.713   0.000  0.00  0.00    +0.000 OA
ATOM     19  C   UNL     1      27.056  -9.417   0.000  0.00  0.00    +0.000 C 
ATOM     20  O   UNL     1      28.009  -9.198   0.000  0.00  0.00    +0.000 OA
ATOM     21  C   UNL     1      24.826 -10.650   0.000  0.00  0.00    +0.000 C 
ENDROOT
TORSDOF 0
