REMARK  Name = 
REMARK  14 active torsions:
REMARK  status: ('A' for Active; 'I' for Inactive)
REMARK    1  A    between atoms: C_2  and  C_4
REMARK    2  A    between atoms: C_7  and  C_8
REMARK    3  A    between atoms: C_8  and  N_9
REMARK    4  A    between atoms: C_10  and  C_12
REMARK    5  A    between atoms: C_12  and  C_13
REMARK    6  A    between atoms: C_12  and  N_17
REMARK    7  A    between atoms: C_13  and  C_14
REMARK    8  A    between atoms: C_14  and  S_15
REMARK    9  A    between atoms: C_18  and  C_20
REMARK   10  A    between atoms: C_20  and  N_21
REMARK   11  A    between atoms: C_20  and  C_28
REMARK   12  A    between atoms: N_21  and  S_22
REMARK   13  A    between atoms: S_22  and  C_25
REMARK   14  A    between atoms: C_25  and  C_26
REMARK                            x       y       z     vdW  Elec       q    Type
REMARK                         _______ _______ _______ _____ _____    ______ ____
ROOT
ATOM      1  C   UNL     1       5.048   0.371   0.000  0.00  0.00    +0.000 C 
ENDROOT
BRANCH   1   2
ATOM      2  N   UNL     1       5.867   0.466   0.000  0.00  0.00    +0.000 NA
ATOM      3  C   UNL     1       6.359  -0.197   0.000  0.00  0.00    +0.000 C 
ATOM      4  O   UNL     1       6.031  -0.954   0.000  0.00  0.00    +0.000 OA
BRANCH   3   5
ATOM      5  C   UNL     1       7.178  -0.102   0.000  0.00  0.00    +0.000 C 
BRANCH   5   6
ATOM      6  C   UNL     1       7.506   0.655   0.000  0.00  0.00    +0.000 C 
ATOM      7  C   UNL     1       8.326   0.750   0.000  0.00  0.00    +0.000 C 
ATOM      8  O   UNL     1       7.014   1.318   0.000  0.00  0.00    +0.000 OA
ENDBRANCH   5   6
BRANCH   5   9
ATOM      9  N   UNL     1       7.670  -0.764   0.000  0.00  0.00    +0.000 NA
BRANCH   9  10
ATOM     10  S   UNL     1       8.490  -0.670   0.000  0.00  0.00    +0.000 S 
ATOM     11  O   UNL     1       8.584  -1.489   0.000  0.00  0.00    +0.000 OA
ATOM     12  O   UNL     1       8.395   0.150   0.000  0.00  0.00    +0.000 OA
BRANCH  10  13
ATOM     13  C   UNL     1       9.309  -0.575   0.000  0.00  0.00    +0.000 C 
BRANCH  13  14
ATOM     14  C   UNL     1       9.801  -1.238   0.000  0.00  0.00    +0.000 C 
ATOM     15  C   UNL     1      10.620  -1.143   0.000  0.00  0.00    +0.000 C 
ENDBRANCH  13  14
ENDBRANCH  10  13
ENDBRANCH   9  10
ENDBRANCH   5   9
ENDBRANCH   3   5
ENDBRANCH   1   2
BRANCH   1  17
ATOM     16  N   UNL     1       3.736   0.939   0.000  0.00  0.00    +0.000 NA
ATOM     17  C   UNL     1       4.556   1.034   0.000  0.00  0.00    +0.000 C 
ATOM     18  O   UNL     1       4.884   1.791   0.000  0.00  0.00    +0.000 OA
BRANCH  16  19
ATOM     19  C   UNL     1       3.244   1.601   0.000  0.00  0.00    +0.000 C 
BRANCH  19  23
ATOM     20  C   UNL     1       0.786   1.318   0.000  0.00  0.00    +0.000 A 
ATOM     21  C   UNL     1       1.114   2.075   0.000  0.00  0.00    +0.000 A 
ATOM     22  C   UNL     1       1.933   2.169   0.000  0.00  0.00    +0.000 A 
ATOM     23  C   UNL     1       2.425   1.507   0.000  0.00  0.00    +0.000 A 
ATOM     24  C   UNL     1       2.097   0.750   0.000  0.00  0.00    +0.000 A 
ATOM     25  C   UNL     1       1.278   0.655   0.000  0.00  0.00    +0.000 A 
BRANCH  20  27
ATOM     26  N   UNL     1      -0.361   0.466   0.000  0.00  0.00    +0.000 NA
ATOM     27  C   UNL     1      -0.034   1.223   0.000  0.00  0.00    +0.000 C 
ATOM     28  N   UNL     1      -0.525   1.885   0.000  0.00  0.00    +0.000 NA
ENDBRANCH  20  27
ENDBRANCH  19  23
ENDBRANCH  16  19
ENDBRANCH   1  17
BRANCH   1  29
ATOM     29  C   UNL     1       4.720  -0.386   0.000  0.00  0.00    +0.000 C 
BRANCH  29  30
ATOM     30  C   UNL     1       3.900  -0.480   0.000  0.00  0.00    +0.000 C 
BRANCH  30  31
ATOM     31  S   UNL     1       3.572  -1.238   0.000  0.00  0.00    +0.000 S 
ATOM     32  C   UNL     1       2.753  -1.332   0.000  0.00  0.00    +0.000 C 
ENDBRANCH  30  31
ENDBRANCH  29  30
ENDBRANCH   1  29
TORSDOF 14
