REMARK  Name = 
REMARK  2 active torsions:
REMARK  status: ('A' for Active; 'I' for Inactive)
REMARK    1  A    between atoms: P_2  and  C_5
REMARK    2  A    between atoms: C_5  and  C_6
REMARK                            x       y       z     vdW  Elec       q    Type
REMARK                         _______ _______ _______ _____ _____    ______ ____
ROOT
ATOM      1  O   UNL     1       2.888  -0.715   0.000  0.00  0.00    +0.000 OA
ATOM      2  P   UNL     1       2.062  -0.715   0.000  0.00  0.00    +0.000 P 
ATOM      3  O   UNL     1       2.062   0.111   0.000  0.00  0.00    +0.000 OA
ATOM      4  O   UNL     1       2.062  -1.540   0.000  0.00  0.00    +0.000 OA
ENDROOT
BRANCH   2   5
ATOM      5  C   UNL     1       1.238  -0.715   0.000  0.00  0.00    +0.000 C 
BRANCH   5   6
ATOM      6  C   UNL     1       0.825   0.000   0.000  0.00  0.00    +0.000 C 
ATOM      7  O   UNL     1       0.000   0.000   0.000  0.00  0.00    +0.000 OA
ENDBRANCH   5   6
ENDBRANCH   2   5
TORSDOF 2
