REMARK  Name = 
REMARK  2 active torsions:
REMARK  status: ('A' for Active; 'I' for Inactive)
REMARK    1  A    between atoms: C_4  and  C_5
REMARK    2  A    between atoms: C_5  and  C_6
REMARK                            x       y       z     vdW  Elec       q    Type
REMARK                         _______ _______ _______ _____ _____    ______ ____
ROOT
ATOM      1  C   UNL     1       0.568   1.939   0.000  0.00  0.00    +0.000 C 
ATOM      2  N   UNL     1      -0.147   2.352   0.000  0.00  0.00    +0.000 NA
ENDROOT
BRANCH   1   5
ATOM      3  C   UNL     1       0.155  -0.155   0.000  0.00  0.00    +0.000 A 
ATOM      4  C   UNL     1       0.980  -0.155   0.000  0.00  0.00    +0.000 A 
ATOM      5  C   UNL     1       0.568   1.114   0.000  0.00  0.00    +0.000 A 
ATOM      6  N   UNL     1      -0.100   0.629   0.000  0.00  0.00    +0.000 NA
ATOM      7  S   UNL     1       1.235   0.629   0.000  0.00  0.00    +0.000 S 
ENDBRANCH   1   5
BRANCH   1   9
ATOM      8  C   UNL     1       1.282   3.177   0.000  0.00  0.00    +0.000 C 
ATOM      9  C   UNL     1       1.282   2.352   0.000  0.00  0.00    +0.000 C 
ATOM     10  O   UNL     1       1.997   1.939   0.000  0.00  0.00    +0.000 OA
ENDBRANCH   1   9
TORSDOF 2
