REMARK  Name = 
REMARK  9 active torsions:
REMARK  status: ('A' for Active; 'I' for Inactive)
REMARK    1  A    between atoms: C_8  and  C_11
REMARK    2  A    between atoms: C_8  and  C_19
REMARK    3  A    between atoms: C_9  and  C_11
REMARK    4  A    between atoms: C_14  and  N_24
REMARK    5  A    between atoms: C_15  and  O_30
REMARK    6  A    between atoms: C_17  and  N_25
REMARK    7  A    between atoms: C_18  and  N_24
REMARK    8  A    between atoms: C_19  and  S_31
REMARK    9  A    between atoms: N_25  and  S_31
REMARK                            x       y       z     vdW  Elec       q    Type
REMARK                         _______ _______ _______ _____ _____    ______ ____
ROOT
ATOM      1  C   UNL     1      -0.445   5.206   0.000  0.00  0.00    +0.000 A 
ATOM      2  C   UNL     1      -0.794   4.458   0.000  0.00  0.00    +0.000 A 
ATOM      3  C   UNL     1       0.377   5.278   0.000  0.00  0.00    +0.000 A 
ATOM      4  C   UNL     1      -0.321   3.782   0.000  0.00  0.00    +0.000 A 
ATOM      5  C   UNL     1       0.850   4.602   0.000  0.00  0.00    +0.000 A 
ATOM      6  C   UNL     1       0.501   3.854   0.000  0.00  0.00    +0.000 A 
ATOM      7  F   UNL     1      -1.616   4.386   0.000  0.00  0.00    +0.000 F 
ATOM      8  F   UNL     1      -0.669   3.035   0.000  0.00  0.00    +0.000 F 
ENDROOT
BRANCH   3  10
ATOM      9  C   UNL     1       1.547   6.097   0.000  0.00  0.00    +0.000 C 
ATOM     10  O   UNL     1       0.725   6.026   0.000  0.00  0.00    +0.000 OA
ENDBRANCH   3  10
BRANCH   6  11
ATOM     11  N   UNL     1       0.974   3.179   0.000  0.00  0.00    +0.000 NA
BRANCH  11  17
ATOM     12  C   UNL     1      -0.545   1.611   0.000  0.00  0.00    +0.000 A 
ATOM     13  C   UNL     1      -0.196   2.359   0.000  0.00  0.00    +0.000 A 
ATOM     14  C   UNL     1       0.750   1.007   0.000  0.00  0.00    +0.000 A 
ATOM     15  C   UNL     1      -0.072   0.935   0.000  0.00  0.00    +0.000 A 
ATOM     16  C   UNL     1       1.099   1.755   0.000  0.00  0.00    +0.000 A 
ATOM     17  C   UNL     1       0.625   2.431   0.000  0.00  0.00    +0.000 A 
ATOM     18  F   UNL     1       1.921   1.827   0.000  0.00  0.00    +0.000 F 
ATOM     19  I   UNL     1      -0.420   0.188   0.000  0.00  0.00    +0.000 I 
ENDBRANCH  11  17
ENDBRANCH   6  11
BRANCH   5  20
ATOM     20  N   UNL     1       1.671   4.674   0.000  0.00  0.00    +0.000 NA
BRANCH  20  23
ATOM     21  O   UNL     1       1.469   3.525   0.000  0.00  0.00    +0.000 OA
ATOM     22  O   UNL     1       2.821   4.471   0.000  0.00  0.00    +0.000 OA
ATOM     23  S   UNL     1       2.145   3.998   0.000  0.00  0.00    +0.000 S 
BRANCH  23  26
ATOM     24  C   UNL     1       3.030   2.608   0.000  0.00  0.00    +0.000 C 
ATOM     25  C   UNL     1       2.205   2.608   0.000  0.00  0.00    +0.000 C 
ATOM     26  C   UNL     1       2.618   3.322   0.000  0.00  0.00    +0.000 C 
BRANCH  26  27
ATOM     27  C   UNL     1       3.091   3.998   0.000  0.00  0.00    +0.000 C 
BRANCH  27  28
ATOM     28  C   UNL     1       3.913   3.926   0.000  0.00  0.00    +0.000 C 
ATOM     29  O   UNL     1       4.386   4.602   0.000  0.00  0.00    +0.000 OA
BRANCH  28  30
ATOM     30  C   UNL     1       4.262   3.179   0.000  0.00  0.00    +0.000 C 
ATOM     31  O   UNL     1       5.083   3.107   0.000  0.00  0.00    +0.000 OA
ENDBRANCH  28  30
ENDBRANCH  27  28
ENDBRANCH  26  27
ENDBRANCH  23  26
ENDBRANCH  20  23
ENDBRANCH   5  20
TORSDOF 9
