REMARK  Name = 
REMARK  1 active torsions:
REMARK  status: ('A' for Active; 'I' for Inactive)
REMARK    1  A    between atoms: C_6  and  S_12
REMARK                            x       y       z     vdW  Elec       q    Type
REMARK                         _______ _______ _______ _____ _____    ______ ____
ROOT
ATOM      1  C   UNL     1       1.429   0.000   0.000  0.00  0.00    +0.000 A 
ATOM      2  C   UNL     1       1.429   0.825   0.000  0.00  0.00    +0.000 A 
ATOM      3  C   UNL     1       0.000   0.000   0.000  0.00  0.00    +0.000 A 
ATOM      4  C   UNL     1       0.715  -0.412   0.000  0.00  0.00    +0.000 A 
ATOM      5  C   UNL     1       0.715   1.238   0.000  0.00  0.00    +0.000 A 
ATOM      6  C   UNL     1       0.000   0.825   0.000  0.00  0.00    +0.000 A 
ATOM      7  O   UNL     1       0.715  -1.238   0.000  0.00  0.00    +0.000 OA
ATOM      8  O   UNL     1       0.715   2.062   0.000  0.00  0.00    +0.000 OA
ENDROOT
BRANCH   6  12
ATOM      9  O   UNL     1      -1.429   1.650   0.000  0.00  0.00    +0.000 OA
ATOM     10  O   UNL     1      -0.302   1.952   0.000  0.00  0.00    +0.000 OA
ATOM     11  O   UNL     1      -1.127   0.523   0.000  0.00  0.00    +0.000 OA
ATOM     12  S   UNL     1      -0.715   1.238   0.000  0.00  0.00    +0.000 S 
ENDBRANCH   6  12
TORSDOF 1
