REMARK  Name = 
REMARK  8 active torsions:
REMARK  status: ('A' for Active; 'I' for Inactive)
REMARK    1  A    between atoms: C_11  and  C_35
REMARK    2  A    between atoms: C_22  and  C_34
REMARK    3  A    between atoms: C_31  and  C_47
REMARK    4  A    between atoms: C_37  and  O_65
REMARK    5  A    between atoms: C_42  and  O_65
REMARK    6  A    between atoms: C_43  and  O_62
REMARK    7  A    between atoms: C_44  and  O_63
REMARK    8  A    between atoms: C_45  and  O_64
REMARK                            x       y       z     vdW  Elec       q    Type
REMARK                         _______ _______ _______ _____ _____    ______ ____
ROOT
ATOM      1  C   UNL     1      -0.210  -0.946   0.000  0.00  0.00    +0.000 C 
ATOM      2  C   UNL     1       2.136  -0.159   0.000  0.00  0.00    +0.000 C 
ATOM      3  C   UNL     1       5.822  -3.463   0.000  0.00  0.00    +0.000 C 
ATOM      4  C   UNL     1       2.920   0.098   0.000  0.00  0.00    +0.000 C 
ATOM      5  C   UNL     1       7.285   0.023   0.000  0.00  0.00    +0.000 C 
ATOM      6  C   UNL     1       7.408  -0.593   0.000  0.00  0.00    +0.000 C 
ATOM      7  C   UNL     1       6.671   0.574   0.000  0.00  0.00    +0.000 C 
ATOM      8  C   UNL     1       6.522  -1.334   0.000  0.00  0.00    +0.000 C 
ATOM      9  C   UNL     1       0.715   0.218   0.000  0.00  0.00    +0.000 C 
ATOM     10  C   UNL     1       2.581  -1.517   0.000  0.00  0.00    +0.000 C 
ATOM     11  C   UNL     1       4.424  -3.169   0.000  0.00  0.00    +0.000 C 
ATOM     12  C   UNL     1       1.606   1.212   0.000  0.00  0.00    +0.000 C 
ATOM     13  C   UNL     1       0.568  -0.672   0.000  0.00  0.00    +0.000 C 
ATOM     14  C   UNL     1       1.966  -0.966   0.000  0.00  0.00    +0.000 C 
ATOM     15  C   UNL     1       5.208  -2.912   0.000  0.00  0.00    +0.000 C 
ATOM     16  C   UNL     1       3.090   0.905   0.000  0.00  0.00    +0.000 C 
ATOM     17  C   UNL     1       0.301   0.932   0.000  0.00  0.00    +0.000 C 
ATOM     18  C   UNL     1       5.887   0.317   0.000  0.00  0.00    +0.000 C 
ATOM     19  C   UNL     1       2.475   1.456   0.000  0.00  0.00    +0.000 C 
ATOM     20  C   UNL     1       0.852   1.546   0.000  0.00  0.00    +0.000 C 
ATOM     21  C   UNL     1       3.365  -1.260   0.000  0.00  0.00    +0.000 C 
ATOM     22  C   UNL     1       3.809  -2.618   0.000  0.00  0.00    +0.000 C 
ATOM     23  C   UNL     1       1.182  -1.223   0.000  0.00  0.00    +0.000 C 
ATOM     24  C   UNL     1       3.874   1.162   0.000  0.00  0.00    +0.000 C 
ATOM     25  C   UNL     1       3.979  -1.811   0.000  0.00  0.00    +0.000 C 
ATOM     26  C   UNL     1       6.162  -1.848   0.000  0.00  0.00    +0.000 C 
ATOM     27  C   UNL     1       6.331  -1.041   0.000  0.00  0.00    +0.000 C 
ATOM     28  C   UNL     1       5.272   0.868   0.000  0.00  0.00    +0.000 C 
ATOM     29  C   UNL     1       5.377  -2.105   0.000  0.00  0.00    +0.000 C 
ATOM     30  N   UNL     1       5.717  -0.490   0.000  0.00  0.00    +0.000 N 
ATOM     31  O   UNL     1       2.663   2.259   0.000  0.00  0.00    +0.000 OA
ATOM     32  O   UNL     1       0.678   2.353   0.000  0.00  0.00    +0.000 OA
ATOM     33  O   UNL     1       1.013  -2.030   0.000  0.00  0.00    +0.000 OA
ATOM     34  O   UNL     1       6.776  -2.399   0.000  0.00  0.00    +0.000 OA
ATOM     35  O   UNL     1       7.115  -0.784   0.000  0.00  0.00    +0.000 OA
ATOM     36  O   UNL     1       5.442   1.675   0.000  0.00  0.00    +0.000 OA
ATOM     37  O   UNL     1       5.992  -2.655   0.000  0.00  0.00    +0.000 OA
ATOM     38  O   UNL     1       4.488   0.611   0.000  0.00  0.00    +0.000 OA
ATOM     39  O   UNL     1       4.763  -1.554   0.000  0.00  0.00    +0.000 OA
ENDROOT
BRANCH  24  42
ATOM     40  C   UNL     1       3.429   2.520   0.000  0.00  0.00    +0.000 C 
ATOM     41  C   UNL     1       4.828   2.226   0.000  0.00  0.00    +0.000 C 
ATOM     42  C   UNL     1       4.044   1.969   0.000  0.00  0.00    +0.000 C 
BRANCH  41  46
ATOM     43  C   UNL     1       5.782   3.290   0.000  0.00  0.00    +0.000 C 
ATOM     44  C   UNL     1       5.951   4.097   0.000  0.00  0.00    +0.000 C 
ATOM     45  C   UNL     1       4.383   3.584   0.000  0.00  0.00    +0.000 C 
ATOM     46  C   UNL     1       4.997   3.033   0.000  0.00  0.00    +0.000 C 
ATOM     47  C   UNL     1       5.337   4.648   0.000  0.00  0.00    +0.000 C 
ATOM     48  C   UNL     1       4.553   4.391   0.000  0.00  0.00    +0.000 C 
BRANCH  48  50
ATOM     49  C   UNL     1       4.108   5.749   0.000  0.00  0.00    +0.000 C 
ATOM     50  O   UNL     1       3.938   4.942   0.000  0.00  0.00    +0.000 OA
ENDBRANCH  48  50
BRANCH  47  51
ATOM     51  O   UNL     1       5.507   5.455   0.000  0.00  0.00    +0.000 OA
BRANCH  51  59
ATOM     52  C   UNL     1       9.090   7.029   0.000  0.00  0.00    +0.000 C 
ATOM     53  C   UNL     1       6.460   6.519   0.000  0.00  0.00    +0.000 A 
ATOM     54  C   UNL     1       7.244   6.776   0.000  0.00  0.00    +0.000 A 
ATOM     55  C   UNL     1       8.404   5.007   0.000  0.00  0.00    +0.000 A 
ATOM     56  C   UNL     1       9.016   5.561   0.000  0.00  0.00    +0.000 A 
ATOM     57  C   UNL     1       6.905   5.161   0.000  0.00  0.00    +0.000 A 
ATOM     58  C   UNL     1       7.689   5.418   0.000  0.00  0.00    +0.000 A 
ATOM     59  C   UNL     1       6.291   5.712   0.000  0.00  0.00    +0.000 A 
ATOM     60  C   UNL     1       7.859   6.225   0.000  0.00  0.00    +0.000 A 
ATOM     61  N   UNL     1       8.679   6.314   0.000  0.00  0.00    +0.000 N 
ENDBRANCH  51  59
ENDBRANCH  47  51
ENDBRANCH  41  46
ENDBRANCH  24  42
BRANCH  21  63
ATOM     62  C   UNL     1       2.411  -2.324   0.000  0.00  0.00    +0.000 C 
ATOM     63  O   UNL     1       3.195  -2.067   0.000  0.00  0.00    +0.000 OA
ENDBRANCH  21  63
BRANCH  22  65
ATOM     64  C   UNL     1       2.856  -3.682   0.000  0.00  0.00    +0.000 C 
ATOM     65  O   UNL     1       3.025  -2.875   0.000  0.00  0.00    +0.000 OA
ENDBRANCH  22  65
BRANCH  17  67
ATOM     66  C   UNL     1      -0.857   1.769   0.000  0.00  0.00    +0.000 C 
ATOM     67  C   UNL     1      -0.520   1.016   0.000  0.00  0.00    +0.000 C 
ENDBRANCH  17  67
TORSDOF 8
