REMARK  Name = 
REMARK  4 active torsions:
REMARK  status: ('A' for Active; 'I' for Inactive)
REMARK    1  A    between atoms: O_1  and  C_12
REMARK    2  A    between atoms: O_1  and  C_15
REMARK    3  A    between atoms: C_13  and  C_26
REMARK    4  A    between atoms: C_15  and  C_27
REMARK                            x       y       z     vdW  Elec       q    Type
REMARK                         _______ _______ _______ _____ _____    ______ ____
ROOT
ATOM      1  O   UNL     1      27.592 -16.186   0.000  0.00  0.00    +0.000 OA
ATOM      2  O   UNL     1      29.062 -13.662   0.000  0.00  0.00    +0.000 OA
ATOM      3  O   UNL     1      26.150 -13.682   0.000  0.00  0.00    +0.000 OA
ATOM      4  C   UNL     1      25.435 -14.920   0.000  0.00  0.00    +0.000 C 
ATOM      5  C   UNL     1      25.435 -14.095   0.000  0.00  0.00    +0.000 C 
ATOM      6  C   UNL     1      26.150 -15.332   0.000  0.00  0.00    +0.000 C 
ATOM      7  C   UNL     1      27.602 -15.361   0.000  0.00  0.00    +0.000 A 
ATOM      8  C   UNL     1      28.349 -14.078   0.000  0.00  0.00    +0.000 A 
ATOM      9  C   UNL     1      26.864 -14.095   0.000  0.00  0.00    +0.000 A 
ATOM     10  C   UNL     1      26.864 -14.920   0.000  0.00  0.00    +0.000 A 
ATOM     11  C   UNL     1      28.349 -14.937   0.000  0.00  0.00    +0.000 A 
ATOM     12  C   UNL     1      27.602 -13.653   0.000  0.00  0.00    +0.000 A 
ENDROOT
BRANCH   5  19
ATOM     13  O   UNL     1      22.577 -12.445   0.000  0.00  0.00    +0.000 OA
ATOM     14  O   UNL     1      24.006 -11.620   0.000  0.00  0.00    +0.000 OA
ATOM     15  O   UNL     1      22.577 -14.095   0.000  0.00  0.00    +0.000 OA
ATOM     16  C   UNL     1      23.292 -12.857   0.000  0.00  0.00    +0.000 A 
ATOM     17  C   UNL     1      23.292 -13.682   0.000  0.00  0.00    +0.000 A 
ATOM     18  C   UNL     1      24.006 -12.445   0.000  0.00  0.00    +0.000 A 
ATOM     19  C   UNL     1      24.721 -13.682   0.000  0.00  0.00    +0.000 A 
ATOM     20  C   UNL     1      24.721 -12.857   0.000  0.00  0.00    +0.000 A 
ATOM     21  C   UNL     1      24.006 -14.095   0.000  0.00  0.00    +0.000 A 
ENDBRANCH   5  19
BRANCH   4  22
ATOM     22  O   UNL     1      24.721 -15.332   0.000  0.00  0.00    +0.000 OA
BRANCH  22  24
ATOM     23  O   UNL     1      25.435 -16.570   0.000  0.00  0.00    +0.000 OA
ATOM     24  C   UNL     1      24.721 -16.157   0.000  0.00  0.00    +0.000 C 
BRANCH  24  31
ATOM     25  O   UNL     1      21.863 -17.807   0.000  0.00  0.00    +0.000 OA
ATOM     26  O   UNL     1      21.863 -16.157   0.000  0.00  0.00    +0.000 OA
ATOM     27  O   UNL     1      23.292 -18.632   0.000  0.00  0.00    +0.000 OA
ATOM     28  C   UNL     1      22.577 -17.395   0.000  0.00  0.00    +0.000 A 
ATOM     29  C   UNL     1      23.292 -17.807   0.000  0.00  0.00    +0.000 A 
ATOM     30  C   UNL     1      22.577 -16.570   0.000  0.00  0.00    +0.000 A 
ATOM     31  C   UNL     1      24.006 -16.570   0.000  0.00  0.00    +0.000 A 
ATOM     32  C   UNL     1      23.292 -16.157   0.000  0.00  0.00    +0.000 A 
ATOM     33  C   UNL     1      24.006 -17.395   0.000  0.00  0.00    +0.000 A 
ENDBRANCH  24  31
ENDBRANCH  22  24
ENDBRANCH   4  22
TORSDOF 4
