REMARK  Name = 
REMARK  4 active torsions:
REMARK  status: ('A' for Active; 'I' for Inactive)
REMARK    1  A    between atoms: C_2  and  C_3
REMARK    2  A    between atoms: C_2  and  N_9
REMARK    3  A    between atoms: C_3  and  C_4
REMARK    4  A    between atoms: C_4  and  C_5
REMARK                            x       y       z     vdW  Elec       q    Type
REMARK                         _______ _______ _______ _____ _____    ______ ____
ROOT
ATOM      1  C   UNL     1       1.238   0.715   0.000  0.00  0.00    +0.000 C 
ENDROOT
BRANCH   1   3
ATOM      2  C   UNL     1       1.952   1.952   0.000  0.00  0.00    +0.000 C 
ATOM      3  C   UNL     1       1.952   1.127   0.000  0.00  0.00    +0.000 C 
BRANCH   3   4
ATOM      4  N   UNL     1       2.666   0.715   0.000  0.00  0.00    +0.000 NA
ATOM      5  C   UNL     1       3.381   1.127   0.000  0.00  0.00    +0.000 C 
ENDBRANCH   3   4
ENDBRANCH   1   3
BRANCH   1   6
ATOM      6  C   UNL     1       0.523   1.127   0.000  0.00  0.00    +0.000 C 
BRANCH   6   7
ATOM      7  C   UNL     1      -0.191   0.715   0.000  0.00  0.00    +0.000 C 
ATOM      8  C   UNL     1      -0.906   1.127   0.000  0.00  0.00    +0.000 C 
ATOM      9  C   UNL     1      -1.620   0.715   0.000  0.00  0.00    +0.000 C 
ATOM     10  C   UNL     1      -0.906   1.952   0.000  0.00  0.00    +0.000 C 
ENDBRANCH   6   7
ENDBRANCH   1   6
TORSDOF 4
