REMARK  Name = 
REMARK  9 active torsions:
REMARK  status: ('A' for Active; 'I' for Inactive)
REMARK    1  A    between atoms: O_2  and  C_3
REMARK    2  A    between atoms: C_3  and  N_4
REMARK    3  A    between atoms: C_5  and  C_7
REMARK    4  A    between atoms: C_7  and  C_8
REMARK    5  A    between atoms: C_7  and  C_11
REMARK    6  A    between atoms: C_21  and  C_22
REMARK    7  A    between atoms: C_22  and  S_23
REMARK    8  A    between atoms: S_23  and  C_24
REMARK    9  A    between atoms: C_30  and  C_34
REMARK                            x       y       z     vdW  Elec       q    Type
REMARK                         _______ _______ _______ _____ _____    ______ ____
ROOT
ATOM      1  C   UNL     1       0.866  -0.151   0.000  0.00  0.00    +0.000 C 
ATOM      2  C   UNL     1       1.690  -0.151   0.000  0.00  0.00    +0.000 C 
ATOM      3  O   UNL     1       2.405   0.262   0.000  0.00  0.00    +0.000 OA
ATOM      4  C   UNL     1       3.119  -0.151   0.000  0.00  0.00    +0.000 C 
ATOM      5  C   UNL     1       3.119  -0.976   0.000  0.00  0.00    +0.000 C 
ATOM      6  C   UNL     1       2.405  -1.389   0.000  0.00  0.00    +0.000 C 
ATOM      7  N   UNL     1       1.690  -0.976   0.000  0.00  0.00    +0.000 N 
ATOM      8  C   UNL     1       0.866  -0.976   0.000  0.00  0.00    +0.000 C 
ATOM      9  O   UNL     1       0.282  -1.559   0.000  0.00  0.00    +0.000 OA
ENDROOT
BRANCH   6  10
ATOM     10  C   UNL     1       2.405  -2.213   0.000  0.00  0.00    +0.000 C 
ATOM     11  O   UNL     1       1.690  -2.626   0.000  0.00  0.00    +0.000 OA
ATOM     12  O   UNL     1       3.119  -2.626   0.000  0.00  0.00    +0.000 OA
ENDBRANCH   6  10
BRANCH   1  13
ATOM     13  N   UNL     1       0.866   0.674   0.000  0.00  0.00    +0.000 NA
ATOM     14  C   UNL     1       0.151   1.087   0.000  0.00  0.00    +0.000 C 
ATOM     15  O   UNL     1      -0.564   0.674   0.000  0.00  0.00    +0.000 OA
BRANCH  14  16
ATOM     16  C   UNL     1       0.151   1.911   0.000  0.00  0.00    +0.000 C 
BRANCH  16  17
ATOM     17  C   UNL     1       0.866   2.324   0.000  0.00  0.00    +0.000 A 
ATOM     18  C   UNL     1       0.866   3.149   0.000  0.00  0.00    +0.000 A 
ATOM     19  C   UNL     1       1.580   3.562   0.000  0.00  0.00    +0.000 A 
ATOM     20  C   UNL     1       2.294   3.149   0.000  0.00  0.00    +0.000 A 
ATOM     21  O   UNL     1       3.009   3.562   0.000  0.00  0.00    +0.000 OA
ATOM     22  C   UNL     1       2.294   2.324   0.000  0.00  0.00    +0.000 A 
ATOM     23  C   UNL     1       1.580   1.911   0.000  0.00  0.00    +0.000 A 
ENDBRANCH  16  17
BRANCH  16  24
ATOM     24  C   UNL     1      -0.564   2.324   0.000  0.00  0.00    +0.000 C 
ATOM     25  O   UNL     1      -1.278   1.911   0.000  0.00  0.00    +0.000 OA
ATOM     26  O   UNL     1      -0.564   3.149   0.000  0.00  0.00    +0.000 OA
ENDBRANCH  16  24
ENDBRANCH  14  16
ENDBRANCH   1  13
BRANCH   1  28
ATOM     27  C   UNL     1      -0.372  -0.866   0.000  0.00  0.00    +0.000 C 
ATOM     28  O   UNL     1       0.041  -0.151   0.000  0.00  0.00    +0.000 OA
ENDBRANCH   1  28
BRANCH   5  29
ATOM     29  C   UNL     1       3.834  -1.389   0.000  0.00  0.00    +0.000 C 
BRANCH  29  30
ATOM     30  S   UNL     1       4.548  -0.976   0.000  0.00  0.00    +0.000 S 
BRANCH  30  31
ATOM     31  C   UNL     1       4.548  -0.151   0.000  0.00  0.00    +0.000 A 
ATOM     32  N   UNL     1       3.881   0.334   0.000  0.00  0.00    +0.000 NA
ATOM     33  N   UNL     1       4.136   1.119   0.000  0.00  0.00    +0.000 NA
ATOM     34  N   UNL     1       4.961   1.119   0.000  0.00  0.00    +0.000 NA
ATOM     35  N   UNL     1       5.216   0.334   0.000  0.00  0.00    +0.000 N 
ATOM     36  C   UNL     1       6.000   0.079   0.000  0.00  0.00    +0.000 C 
ENDBRANCH  30  31
ENDBRANCH  29  30
ENDBRANCH   5  29
TORSDOF 9
