REMARK  Name = 
REMARK  2 active torsions:
REMARK  status: ('A' for Active; 'I' for Inactive)
REMARK    1  A    between atoms: C_6  and  N_7
REMARK    2  A    between atoms: C_21  and  C_22
REMARK                            x       y       z     vdW  Elec       q    Type
REMARK                         _______ _______ _______ _____ _____    ______ ____
ROOT
ATOM      1  C   UNL     1      -2.143   1.238   0.000  0.00  0.00    +0.000 C 
ATOM      2  C   UNL     1      -1.429   0.825   0.000  0.00  0.00    +0.000 C 
ATOM      3  C   UNL     1      -1.429   0.000   0.000  0.00  0.00    +0.000 C 
ATOM      4  O   UNL     1      -0.715  -0.412   0.000  0.00  0.00    +0.000 OA
ATOM      5  C   UNL     1       0.000   0.000   0.000  0.00  0.00    +0.000 A 
ATOM      6  C   UNL     1       0.715  -0.412   0.000  0.00  0.00    +0.000 A 
ATOM      7  C   UNL     1       1.429   0.000   0.000  0.00  0.00    +0.000 A 
ATOM      8  F   UNL     1       2.143  -0.412   0.000  0.00  0.00    +0.000 F 
ATOM      9  C   UNL     1       1.429   0.825   0.000  0.00  0.00    +0.000 A 
ATOM     10  C   UNL     1       0.715   1.238   0.000  0.00  0.00    +0.000 A 
ATOM     11  C   UNL     1       0.000   0.825   0.000  0.00  0.00    +0.000 A 
ATOM     12  N   UNL     1      -0.715   1.238   0.000  0.00  0.00    +0.000 N 
ATOM     13  C   UNL     1      -0.715   2.062   0.000  0.00  0.00    +0.000 A 
ATOM     14  C   UNL     1       0.000   2.475   0.000  0.00  0.00    +0.000 A 
ATOM     15  C   UNL     1       0.715   2.062   0.000  0.00  0.00    +0.000 A 
ATOM     16  O   UNL     1       1.429   2.475   0.000  0.00  0.00    +0.000 OA
ENDROOT
BRANCH   6  17
ATOM     17  N   UNL     1       0.715  -1.238   0.000  0.00  0.00    +0.000 N 
ATOM     18  C   UNL     1       1.429  -1.650   0.000  0.00  0.00    +0.000 C 
ATOM     19  C   UNL     1       1.429  -2.475   0.000  0.00  0.00    +0.000 C 
ATOM     20  N   UNL     1       0.715  -2.888   0.000  0.00  0.00    +0.000 NA
ATOM     21  C   UNL     1       0.715  -3.712   0.000  0.00  0.00    +0.000 C 
ATOM     22  C   UNL     1       0.000  -2.475   0.000  0.00  0.00    +0.000 C 
ATOM     23  C   UNL     1       0.000  -1.650   0.000  0.00  0.00    +0.000 C 
ENDBRANCH   6  17
BRANCH  14  24
ATOM     24  C   UNL     1       0.000   3.300   0.000  0.00  0.00    +0.000 C 
ATOM     25  O   UNL     1      -0.715   3.712   0.000  0.00  0.00    +0.000 OA
ATOM     26  O   UNL     1       0.715   3.712   0.000  0.00  0.00    +0.000 OA
ENDBRANCH  14  24
TORSDOF 2
