REMARK  Name = 
REMARK  4 active torsions:
REMARK  status: ('A' for Active; 'I' for Inactive)
REMARK    1  A    between atoms: C_3  and  O_19
REMARK    2  A    between atoms: C_14  and  C_16
REMARK    3  A    between atoms: C_15  and  C_16
REMARK    4  A    between atoms: C_15  and  O_19
REMARK                            x       y       z     vdW  Elec       q    Type
REMARK                         _______ _______ _______ _____ _____    ______ ____
ROOT
ATOM      1  C   UNL     1       0.006   2.028   0.000  0.00  0.00    +0.000 C 
ATOM      2  C   UNL     1      -0.213  -0.154   0.000  0.00  0.00    +0.000 C 
ATOM      3  C   UNL     1       0.486  -0.593   0.000  0.00  0.00    +0.000 C 
ATOM      4  C   UNL     1       1.537   0.458   0.000  0.00  0.00    +0.000 C 
ATOM      5  C   UNL     1      -0.305   0.666   0.000  0.00  0.00    +0.000 C 
ATOM      6  C   UNL     1       1.098   1.157   0.000  0.00  0.00    +0.000 C 
ATOM      7  C   UNL     1       1.264  -0.320   0.000  0.00  0.00    +0.000 C 
ATOM      8  N   UNL     1       0.278   1.249   0.000  0.00  0.00    +0.000 NA
ENDROOT
BRANCH   7  14
ATOM      9  C   UNL     1       1.264  -2.795   0.000  0.00  0.00    +0.000 A 
ATOM     10  C   UNL     1       1.979  -2.383   0.000  0.00  0.00    +0.000 A 
ATOM     11  C   UNL     1       0.550  -2.383   0.000  0.00  0.00    +0.000 A 
ATOM     12  C   UNL     1       1.979  -1.558   0.000  0.00  0.00    +0.000 A 
ATOM     13  C   UNL     1       0.550  -1.558   0.000  0.00  0.00    +0.000 A 
ATOM     14  C   UNL     1       1.264  -1.145   0.000  0.00  0.00    +0.000 A 
ENDBRANCH   7  14
BRANCH   7  15
ATOM     15  C   UNL     1       2.049  -0.575   0.000  0.00  0.00    +0.000 C 
ATOM     16  O   UNL     1       2.662  -0.023   0.000  0.00  0.00    +0.000 OA
BRANCH  15  17
ATOM     17  O   UNL     1       2.221  -1.382   0.000  0.00  0.00    +0.000 OA
BRANCH  17  19
ATOM     18  C   UNL     1       3.618  -1.085   0.000  0.00  0.00    +0.000 C 
ATOM     19  C   UNL     1       3.005  -1.637   0.000  0.00  0.00    +0.000 C 
ENDBRANCH  17  19
ENDBRANCH  15  17
ENDBRANCH   7  15
TORSDOF 4
