REMARK  Name = 
REMARK  5 active torsions:
REMARK  status: ('A' for Active; 'I' for Inactive)
REMARK    1  A    between atoms: C_2  and  C_3
REMARK    2  A    between atoms: C_2  and  O_15
REMARK    3  A    between atoms: C_3  and  N_4
REMARK    4  A    between atoms: O_15  and  C_16
REMARK    5  A    between atoms: C_16  and  P_17
REMARK                            x       y       z     vdW  Elec       q    Type
REMARK                         _______ _______ _______ _____ _____    ______ ____
ROOT
ATOM      1  N   UNL     1      -2.135  -0.793   0.000  0.00  0.00    +0.000 N 
ATOM      2  C   UNL     1      -2.888  -0.457   0.000  0.00  0.00    +0.000 A 
ATOM      3  N   UNL     1      -3.440  -1.071   0.000  0.00  0.00    +0.000 NA
ATOM      4  C   UNL     1      -3.028  -1.785   0.000  0.00  0.00    +0.000 A 
ATOM      5  C   UNL     1      -2.221  -1.613   0.000  0.00  0.00    +0.000 A 
ATOM      6  N   UNL     1      -1.669  -2.227   0.000  0.00  0.00    +0.000 NA
ATOM      7  C   UNL     1      -1.924  -3.011   0.000  0.00  0.00    +0.000 A 
ATOM      8  N   UNL     1      -1.372  -3.624   0.000  0.00  0.00    +0.000 NA
ATOM      9  N   UNL     1      -2.731  -3.183   0.000  0.00  0.00    +0.000 NA
ATOM     10  C   UNL     1      -3.283  -2.570   0.000  0.00  0.00    +0.000 A 
ATOM     11  N   UNL     1      -4.090  -2.741   0.000  0.00  0.00    +0.000 NA
ENDROOT
BRANCH   1  12
ATOM     12  C   UNL     1      -1.420  -0.381   0.000  0.00  0.00    +0.000 C 
BRANCH  12  14
ATOM     13  C   UNL     1      -0.706  -1.618   0.000  0.00  0.00    +0.000 C 
ATOM     14  C   UNL     1      -0.706  -0.793   0.000  0.00  0.00    +0.000 C 
BRANCH  14  15
ATOM     15  O   UNL     1       0.009  -0.381   0.000  0.00  0.00    +0.000 OA
BRANCH  15  16
ATOM     16  C   UNL     1       0.723  -0.793   0.000  0.00  0.00    +0.000 C 
BRANCH  16  17
ATOM     17  P   UNL     1       1.438  -0.381   0.000  0.00  0.00    +0.000 P 
ATOM     18  O   UNL     1       2.152   0.032   0.000  0.00  0.00    +0.000 OA
ATOM     19  O   UNL     1       1.850  -1.095   0.000  0.00  0.00    +0.000 OA
ATOM     20  O   UNL     1       1.025   0.334   0.000  0.00  0.00    +0.000 OA
ENDBRANCH  16  17
ENDBRANCH  15  16
ENDBRANCH  14  15
ENDBRANCH  12  14
ENDBRANCH   1  12
TORSDOF 5
