REMARK  Name = 
REMARK  8 active torsions:
REMARK  status: ('A' for Active; 'I' for Inactive)
REMARK    1  A    between atoms: N_1  and  C_2
REMARK    2  A    between atoms: C_10  and  C_13
REMARK    3  A    between atoms: C_13  and  O_16
REMARK    4  A    between atoms: O_16  and  P_17
REMARK    5  A    between atoms: P_17  and  O_18
REMARK    6  A    between atoms: O_18  and  P_21
REMARK    7  A    between atoms: P_21  and  O_22
REMARK    8  A    between atoms: O_22  and  P_25
REMARK                            x       y       z     vdW  Elec       q    Type
REMARK                         _______ _______ _______ _____ _____    ______ ____
ROOT
ATOM      1  C   UNL     1       2.159   0.124   0.000  0.00  0.00    +0.000 C 
ATOM      2  O   UNL     1       1.516   0.595   0.000  0.00  0.00    +0.000 OA
ATOM      3  C   UNL     1       1.915  -0.684   0.000  0.00  0.00    +0.000 C 
ATOM      4  C   UNL     1       0.842   0.103   0.000  0.00  0.00    +0.000 C 
ATOM      5  C   UNL     1       1.090  -0.684   0.000  0.00  0.00    +0.000 C 
ATOM      6  O   UNL     1       0.602  -1.344   0.000  0.00  0.00    +0.000 OA
ENDROOT
BRANCH   1   7
ATOM      7  N   UNL     1       2.946   0.382   0.000  0.00  0.00    +0.000 N 
ATOM      8  C   UNL     1       3.565  -0.169   0.000  0.00  0.00    +0.000 A 
ATOM      9  C   UNL     1       3.118   1.189   0.000  0.00  0.00    +0.000 A 
ATOM     10  N   UNL     1       4.352   0.093   0.000  0.00  0.00    +0.000 NA
ATOM     11  O   UNL     1       3.400  -0.973   0.000  0.00  0.00    +0.000 OA
ATOM     12  C   UNL     1       3.898   1.451   0.000  0.00  0.00    +0.000 A 
ATOM     13  C   UNL     1       4.520   0.901   0.000  0.00  0.00    +0.000 A 
ATOM     14  N   UNL     1       5.304   1.158   0.000  0.00  0.00    +0.000 NA
ENDBRANCH   1   7
BRANCH   4  15
ATOM     15  C   UNL     1       0.055   0.357   0.000  0.00  0.00    +0.000 C 
BRANCH  15  16
ATOM     16  O   UNL     1      -0.553  -0.196   0.000  0.00  0.00    +0.000 OA
BRANCH  16  17
ATOM     17  P   UNL     1      -1.375  -0.196   0.000  0.00  0.00    +0.000 P 
ATOM     18  O   UNL     1      -1.378  -1.018   0.000  0.00  0.00    +0.000 OA
ATOM     19  O   UNL     1      -1.378   0.626   0.000  0.00  0.00    +0.000 OA
BRANCH  17  20
ATOM     20  O   UNL     1      -2.196  -0.196   0.000  0.00  0.00    +0.000 OA
BRANCH  20  21
ATOM     21  P   UNL     1      -3.018  -0.193   0.000  0.00  0.00    +0.000 P 
ATOM     22  O   UNL     1      -3.025  -1.014   0.000  0.00  0.00    +0.000 OA
ATOM     23  O   UNL     1      -3.025   0.629   0.000  0.00  0.00    +0.000 OA
BRANCH  21  24
ATOM     24  O   UNL     1      -3.843  -0.193   0.000  0.00  0.00    +0.000 OA
BRANCH  24  25
ATOM     25  P   UNL     1      -4.665  -0.189   0.000  0.00  0.00    +0.000 P 
ATOM     26  O   UNL     1      -4.668  -1.011   0.000  0.00  0.00    +0.000 OA
ATOM     27  O   UNL     1      -5.486  -0.182   0.000  0.00  0.00    +0.000 OA
ATOM     28  O   UNL     1      -4.668   0.636   0.000  0.00  0.00    +0.000 OA
ENDBRANCH  24  25
ENDBRANCH  21  24
ENDBRANCH  20  21
ENDBRANCH  17  20
ENDBRANCH  16  17
ENDBRANCH  15  16
ENDBRANCH   4  15
TORSDOF 8
