REMARK  Name = 
REMARK  4 active torsions:
REMARK  status: ('A' for Active; 'I' for Inactive)
REMARK    1  A    between atoms: C_2  and  C_11
REMARK    2  A    between atoms: C_6  and  O_7
REMARK    3  A    between atoms: O_7  and  C_15
REMARK    4  A    between atoms: C_14  and  C_22
REMARK                            x       y       z     vdW  Elec       q    Type
REMARK                         _______ _______ _______ _____ _____    ______ ____
ROOT
ATOM      1  O   UNL     1      -0.810  -2.210   0.000  0.00  0.00    +0.000 OA
ENDROOT
BRANCH   1   7
ATOM      2  O   UNL     1      -2.239  -2.210   0.000  0.00  0.00    +0.000 OA
ATOM      3  C   UNL     1      -2.954  -2.622   0.000  0.00  0.00    +0.000 C 
ATOM      4  C   UNL     1      -2.954  -3.447   0.000  0.00  0.00    +0.000 C 
ATOM      5  C   UNL     1      -2.239  -3.860   0.000  0.00  0.00    +0.000 C 
ATOM      6  C   UNL     1      -1.525  -3.447   0.000  0.00  0.00    +0.000 C 
ATOM      7  C   UNL     1      -1.525  -2.622   0.000  0.00  0.00    +0.000 C 
ATOM      8  O   UNL     1      -0.810  -3.860   0.000  0.00  0.00    +0.000 OA
ATOM      9  O   UNL     1      -2.239  -4.685   0.000  0.00  0.00    +0.000 OA
ATOM     10  O   UNL     1      -3.668  -3.860   0.000  0.00  0.00    +0.000 OA
BRANCH   3  11
ATOM     11  C   UNL     1      -3.668  -2.210   0.000  0.00  0.00    +0.000 C 
ATOM     12  O   UNL     1      -4.383  -2.622   0.000  0.00  0.00    +0.000 OA
ENDBRANCH   3  11
ENDBRANCH   1   7
BRANCH   1  15
ATOM     13  O   UNL     1       0.619  -0.560   0.000  0.00  0.00    +0.000 OA
ATOM     14  C   UNL     1      -0.096  -0.972   0.000  0.00  0.00    +0.000 C 
ATOM     15  C   UNL     1      -0.096  -1.797   0.000  0.00  0.00    +0.000 C 
ATOM     16  C   UNL     1       0.619  -2.210   0.000  0.00  0.00    +0.000 C 
ATOM     17  C   UNL     1       1.333  -1.797   0.000  0.00  0.00    +0.000 C 
ATOM     18  C   UNL     1       1.333  -0.972   0.000  0.00  0.00    +0.000 C 
ATOM     19  O   UNL     1       2.047  -0.560   0.000  0.00  0.00    +0.000 OA
ATOM     20  O   UNL     1       2.047  -2.210   0.000  0.00  0.00    +0.000 OA
ATOM     21  O   UNL     1       0.619  -3.035   0.000  0.00  0.00    +0.000 OA
BRANCH  14  22
ATOM     22  C   UNL     1      -0.810  -0.560   0.000  0.00  0.00    +0.000 C 
ATOM     23  O   UNL     1      -1.525  -0.972   0.000  0.00  0.00    +0.000 OA
ENDBRANCH  14  22
ENDBRANCH   1  15
TORSDOF 4
