REMARK  Name = 
REMARK  1 active torsions:
REMARK  status: ('A' for Active; 'I' for Inactive)
REMARK    1  A    between atoms: C_2  and  C_7
REMARK                            x       y       z     vdW  Elec       q    Type
REMARK                         _______ _______ _______ _____ _____    ______ ____
ROOT
ATOM      1  C   UNL     1       3.431  -0.285   0.000  0.00  0.00    +0.000 A 
ATOM      2  C   UNL     1       4.146   0.128   0.000  0.00  0.00    +0.000 A 
ATOM      3  C   UNL     1       2.717   0.128   0.000  0.00  0.00    +0.000 A 
ATOM      4  C   UNL     1       4.146   0.953   0.000  0.00  0.00    +0.000 A 
ATOM      5  C   UNL     1       2.717   0.953   0.000  0.00  0.00    +0.000 A 
ATOM      6  C   UNL     1       3.431   1.365   0.000  0.00  0.00    +0.000 A 
ATOM      7  C   UNL     1       3.431   2.190   0.000  0.00  0.00    +0.000 C 
ENDROOT
BRANCH   1   9
ATOM      8  N   UNL     1       2.162  -1.522   0.000  0.00  0.00    +0.000 NA
ATOM      9  C   UNL     1       3.431  -1.110   0.000  0.00  0.00    +0.000 C 
ATOM     10  C   UNL     1       3.431  -1.935   0.000  0.00  0.00    +0.000 C 
ATOM     11  C   UNL     1       4.146  -1.522   0.000  0.00  0.00    +0.000 C 
ATOM     12  C   UNL     1       2.646  -0.855   0.000  0.00  0.00    +0.000 C 
ATOM     13  C   UNL     1       2.646  -2.190   0.000  0.00  0.00    +0.000 C 
ENDBRANCH   1   9
TORSDOF 1
