REMARK  Name = 
REMARK  8 active torsions:
REMARK  status: ('A' for Active; 'I' for Inactive)
REMARK    1  A    between atoms: N_3  and  CA_17
REMARK    2  A    between atoms: N_4  and  C_18
REMARK    3  A    between atoms: C_6  and  C_9
REMARK    4  A    between atoms: C_9  and  C_12
REMARK    5  A    between atoms: C_9  and  C_13
REMARK    6  A    between atoms: C_16  and  C_18
REMARK    7  A    between atoms: CA_17  and  C_23
REMARK    8  A    between atoms: CA_17  and  C_24
REMARK                            x       y       z     vdW  Elec       q    Type
REMARK                         _______ _______ _______ _____ _____    ______ ____
ROOT
ATOM      1  C   UNL     1       5.222   1.444   0.000  0.00  0.00    +0.000 A 
ATOM      2  C   UNL     1       5.937   1.031   0.000  0.00  0.00    +0.000 A 
ATOM      3  C   UNL     1       5.222   2.269   0.000  0.00  0.00    +0.000 A 
ATOM      4  C   UNL     1       6.652   1.444   0.000  0.00  0.00    +0.000 A 
ATOM      5  C   UNL     1       5.937   2.681   0.000  0.00  0.00    +0.000 A 
ATOM      6  C   UNL     1       6.652   2.269   0.000  0.00  0.00    +0.000 A 
ENDROOT
BRANCH   4   7
ATOM      7  C   UNL     1       7.366   1.031   0.000  0.00  0.00    +0.000 C 
BRANCH   7   8
ATOM      8  N   UNL     1       7.366   0.206   0.000  0.00  0.00    +0.000 N 
ATOM      9  N   UNL     1       8.871  -0.087   0.000  0.00  0.00    +0.000 NA
ATOM     10  C   UNL     1       6.699  -0.279   0.000  0.00  0.00    +0.000 A 
ATOM     11  C   UNL     1       8.033  -0.279   0.000  0.00  0.00    +0.000 A 
ATOM     12  C   UNL     1       7.778  -1.063   0.000  0.00  0.00    +0.000 A 
ATOM     13  C   UNL     1       6.953  -1.063   0.000  0.00  0.00    +0.000 A 
ATOM     14  C   UNL     1       8.344  -1.711   0.000  0.00  0.00    +0.000 A 
ATOM     15  C   UNL     1       5.861  -0.087   0.000  0.00  0.00    +0.000 A 
ATOM     16  C   UNL     1       6.388  -1.711   0.000  0.00  0.00    +0.000 A 
ATOM     17  C   UNL     1       9.185  -1.539   0.000  0.00  0.00    +0.000 A 
ATOM     18  C   UNL     1       9.451  -0.721   0.000  0.00  0.00    +0.000 A 
ATOM     19  C   UNL     1       5.281  -0.721   0.000  0.00  0.00    +0.000 A 
ATOM     20  C   UNL     1       5.546  -1.539   0.000  0.00  0.00    +0.000 A 
ATOM     21  C   UNL     1       8.080  -2.492   0.000  0.00  0.00    +0.000 C 
ATOM     22  C   UNL     1      10.257  -0.547   0.000  0.00  0.00    +0.000 C 
ENDBRANCH   7   8
ENDBRANCH   4   7
BRANCH   1  23
ATOM     23  C   UNL     1       4.508   1.031   0.000  0.00  0.00    +0.000 C 
BRANCH  23  24
ATOM     24  C   UNL     1       3.793   1.444   0.000  0.00  0.00    +0.000 C 
ATOM     25  C   UNL     1       3.040   1.108   0.000  0.00  0.00    +0.000 C 
ATOM     26  C   UNL     1       3.707   2.264   0.000  0.00  0.00    +0.000 C 
ATOM     27  C   UNL     1       2.488   1.721   0.000  0.00  0.00    +0.000 C 
ATOM     28  C   UNL     1       2.900   2.436   0.000  0.00  0.00    +0.000 C 
ENDBRANCH  23  24
BRANCH  23  31
ATOM     29  O   UNL     1       5.222  -0.206   0.000  0.00  0.00    +0.000 OA
ATOM     30  N   UNL     1       3.793  -0.206   0.000  0.00  0.00    +0.000 NA
ATOM     31  C   UNL     1       4.508   0.206   0.000  0.00  0.00    +0.000 C 
BRANCH  30  32
ATOM     32  CA  UNL     1       3.793  -1.031   0.000  0.00  0.00    +0.000 C 
BRANCH  32  33
ATOM     33  C   UNL     1       3.079  -1.444   0.000  0.00  0.00    +0.000 A 
ATOM     34  C   UNL     1       3.079  -2.269   0.000  0.00  0.00    +0.000 A 
ATOM     35  C   UNL     1       2.365  -1.031   0.000  0.00  0.00    +0.000 A 
ATOM     36  C   UNL     1       2.365  -2.681   0.000  0.00  0.00    +0.000 A 
ATOM     37  C   UNL     1       1.650  -1.444   0.000  0.00  0.00    +0.000 A 
ATOM     38  C   UNL     1       1.650  -2.269   0.000  0.00  0.00    +0.000 A 
ENDBRANCH  32  33
BRANCH  32  40
ATOM     39  O   UNL     1       4.508  -2.269   0.000  0.00  0.00    +0.000 OA
ATOM     40  C   UNL     1       4.508  -1.444   0.000  0.00  0.00    +0.000 C 
ENDBRANCH  32  40
ENDBRANCH  30  32
ENDBRANCH  23  31
ENDBRANCH   1  23
TORSDOF 8
