REMARK  Name = 
REMARK  0 active torsions:
REMARK  status: ('A' for Active; 'I' for Inactive)
REMARK                            x       y       z     vdW  Elec       q    Type
REMARK                         _______ _______ _______ _____ _____    ______ ____
ROOT
ATOM      1  O   UNL     1      16.252  -9.828   0.000  0.00  0.00    +0.000 OA
ATOM      2  P   UNL     1      16.665 -10.542   0.000  0.00  0.00    +0.000 P 
ATOM      3  O   UNL     1      15.950 -10.954   0.000  0.00  0.00    +0.000 OA
ATOM      4  O   UNL     1      17.077 -11.256   0.000  0.00  0.00    +0.000 OA
ATOM      5  O   UNL     1      17.379 -10.129   0.000  0.00  0.00    +0.000 OA
ENDROOT
TORSDOF 0
