REMARK  Name = 
REMARK  4 active torsions:
REMARK  status: ('A' for Active; 'I' for Inactive)
REMARK    1  A    between atoms: C_1  and  N_26
REMARK    2  A    between atoms: C_10  and  C_14
REMARK    3  A    between atoms: N_12  and  C_18
REMARK    4  A    between atoms: C_17  and  N_23
REMARK                            x       y       z     vdW  Elec       q    Type
REMARK                         _______ _______ _______ _____ _____    ______ ____
ROOT
ATOM      1  C   UNL     1       0.721  -0.160   0.000  0.00  0.00    +0.000 A 
ATOM      2  C   UNL     1       0.000   0.241   0.000  0.00  0.00    +0.000 A 
ATOM      3  C   UNL     1       0.000   1.042   0.000  0.00  0.00    +0.000 A 
ATOM      4  C   UNL     1       0.721   1.443   0.000  0.00  0.00    +0.000 A 
ATOM      5  C   UNL     1       1.443   1.042   0.000  0.00  0.00    +0.000 A 
ATOM      6  C   UNL     1       1.443   0.241   0.000  0.00  0.00    +0.000 A 
ATOM      7  F   UNL     1       2.165  -0.160   0.000  0.00  0.00    +0.000 F 
ATOM      8  O   UNL     1       1.443   2.646   0.000  0.00  0.00    +0.000 OA
ATOM      9  C   UNL     1       0.721   2.245   0.000  0.00  0.00    +0.000 A 
ATOM     10  C   UNL     1       0.000   2.646   0.000  0.00  0.00    +0.000 A 
ATOM     11  C   UNL     1      -0.721   2.245   0.000  0.00  0.00    +0.000 A 
ATOM     12  N   UNL     1      -0.721   1.443   0.000  0.00  0.00    +0.000 N 
ENDROOT
BRANCH   1  18
ATOM     13  C   UNL     1       1.443  -1.443   0.000  0.00  0.00    +0.000 C 
ATOM     14  C   UNL     1       1.443  -2.245   0.000  0.00  0.00    +0.000 C 
ATOM     15  N   UNL     1       0.721  -2.646   0.000  0.00  0.00    +0.000 NA
ATOM     16  C   UNL     1       0.000  -2.245   0.000  0.00  0.00    +0.000 C 
ATOM     17  C   UNL     1       0.000  -1.443   0.000  0.00  0.00    +0.000 C 
ATOM     18  N   UNL     1       0.721  -1.042   0.000  0.00  0.00    +0.000 N 
BRANCH  15  20
ATOM     19  C   UNL     1       1.443  -3.849   0.000  0.00  0.00    +0.000 C 
ATOM     20  C   UNL     1       0.721  -3.448   0.000  0.00  0.00    +0.000 C 
ENDBRANCH  15  20
ENDBRANCH   1  18
BRANCH  10  22
ATOM     21  O   UNL     1      -0.721   3.849   0.000  0.00  0.00    +0.000 OA
ATOM     22  C   UNL     1       0.000   3.448   0.000  0.00  0.00    +0.000 C 
ATOM     23  O   UNL     1       0.721   3.849   0.000  0.00  0.00    +0.000 OA
ENDBRANCH  10  22
BRANCH  12  24
ATOM     24  C   UNL     1      -1.363   1.042   0.000  0.00  0.00    +0.000 C 
ATOM     25  C   UNL     1      -2.165   1.042   0.000  0.00  0.00    +0.000 C 
ATOM     26  C   UNL     1      -1.764   0.321   0.000  0.00  0.00    +0.000 C 
ENDBRANCH  12  24
TORSDOF 4
