REMARK  Name = 
REMARK  11 active torsions:
REMARK  status: ('A' for Active; 'I' for Inactive)
REMARK    1  A    between atoms: N_12  and  C_13
REMARK    2  A    between atoms: C_13  and  C_14
REMARK    3  A    between atoms: C_14  and  C_15
REMARK    4  A    between atoms: C_15  and  C_16
REMARK    5  A    between atoms: C_16  and  C_17
REMARK    6  A    between atoms: C_17  and  C_18
REMARK    7  A    between atoms: C_18  and  C_19
REMARK    8  A    between atoms: C_19  and  C_20
REMARK    9  A    between atoms: C_20  and  C_21
REMARK   10  A    between atoms: C_21  and  C_22
REMARK   11  A    between atoms: C_22  and  N_23
REMARK                            x       y       z     vdW  Elec       q    Type
REMARK                         _______ _______ _______ _____ _____    ______ ____
ROOT
ATOM      1  C   UNL     1      -2.143   5.362   0.000  0.00  0.00    +0.000 C 
ENDROOT
BRANCH   1   2
ATOM      2  C   UNL     1      -2.858   4.950   0.000  0.00  0.00    +0.000 C 
BRANCH   2   3
ATOM      3  C   UNL     1      -3.572   5.362   0.000  0.00  0.00    +0.000 C 
BRANCH   3   4
ATOM      4  C   UNL     1      -4.287   4.950   0.000  0.00  0.00    +0.000 C 
BRANCH   4   5
ATOM      5  C   UNL     1      -5.001   5.362   0.000  0.00  0.00    +0.000 C 
BRANCH   5  17
ATOM      6  C   UNL     1      -5.001   3.712   0.000  0.00  0.00    +0.000 C 
ATOM      7  C   UNL     1      -5.716   4.125   0.000  0.00  0.00    +0.000 A 
ATOM      8  C   UNL     1      -6.430   3.712   0.000  0.00  0.00    +0.000 A 
ATOM      9  C   UNL     1      -7.145   4.125   0.000  0.00  0.00    +0.000 A 
ATOM     10  N   UNL     1      -7.859   3.712   0.000  0.00  0.00    +0.000 NA
ATOM     11  C   UNL     1      -7.145   4.950   0.000  0.00  0.00    +0.000 A 
ATOM     12  C   UNL     1      -7.859   5.362   0.000  0.00  0.00    +0.000 A 
ATOM     13  C   UNL     1      -7.859   6.188   0.000  0.00  0.00    +0.000 A 
ATOM     14  C   UNL     1      -7.145   6.600   0.000  0.00  0.00    +0.000 A 
ATOM     15  C   UNL     1      -6.430   6.188   0.000  0.00  0.00    +0.000 A 
ATOM     16  C   UNL     1      -6.430   5.362   0.000  0.00  0.00    +0.000 A 
ATOM     17  N   UNL     1      -5.716   4.950   0.000  0.00  0.00    +0.000 N 
ENDBRANCH   5  17
ENDBRANCH   4   5
ENDBRANCH   3   4
ENDBRANCH   2   3
ENDBRANCH   1   2
BRANCH   1  18
ATOM     18  C   UNL     1      -1.429   4.950   0.000  0.00  0.00    +0.000 C 
BRANCH  18  19
ATOM     19  C   UNL     1      -0.715   5.362   0.000  0.00  0.00    +0.000 C 
BRANCH  19  20
ATOM     20  C   UNL     1       0.000   4.950   0.000  0.00  0.00    +0.000 C 
BRANCH  20  21
ATOM     21  C   UNL     1       0.715   5.362   0.000  0.00  0.00    +0.000 C 
BRANCH  21  22
ATOM     22  C   UNL     1       1.429   4.950   0.000  0.00  0.00    +0.000 C 
BRANCH  22  23
ATOM     23  N   UNL     1       2.143   5.362   0.000  0.00  0.00    +0.000 N 
ATOM     24  C   UNL     1       2.858   4.950   0.000  0.00  0.00    +0.000 A 
ATOM     25  C   UNL     1       2.858   4.125   0.000  0.00  0.00    +0.000 C 
ATOM     26  C   UNL     1       3.572   5.362   0.000  0.00  0.00    +0.000 A 
ATOM     27  C   UNL     1       3.572   6.188   0.000  0.00  0.00    +0.000 A 
ATOM     28  N   UNL     1       4.287   6.600   0.000  0.00  0.00    +0.000 NA
ATOM     29  C   UNL     1       2.858   6.600   0.000  0.00  0.00    +0.000 A 
ATOM     30  C   UNL     1       2.143   6.188   0.000  0.00  0.00    +0.000 A 
ATOM     31  C   UNL     1       1.429   6.600   0.000  0.00  0.00    +0.000 A 
ATOM     32  C   UNL     1       1.429   7.425   0.000  0.00  0.00    +0.000 A 
ATOM     33  C   UNL     1       2.143   7.838   0.000  0.00  0.00    +0.000 A 
ATOM     34  C   UNL     1       2.858   7.425   0.000  0.00  0.00    +0.000 A 
ENDBRANCH  22  23
ENDBRANCH  21  22
ENDBRANCH  20  21
ENDBRANCH  19  20
ENDBRANCH  18  19
ENDBRANCH   1  18
TORSDOF 11
