REMARK  Name = 
REMARK  8 active torsions:
REMARK  status: ('A' for Active; 'I' for Inactive)
REMARK    1  A    between atoms: C_7  and  C_40
REMARK    2  A    between atoms: C_23  and  N_41
REMARK    3  A    between atoms: C_27  and  O_53
REMARK    4  A    between atoms: C_28  and  O_54
REMARK    5  A    between atoms: C_29  and  O_53
REMARK    6  A    between atoms: C_30  and  O_55
REMARK    7  A    between atoms: C_37  and  O_55
REMARK    8  A    between atoms: C_38  and  O_54
REMARK                            x       y       z     vdW  Elec       q    Type
REMARK                         _______ _______ _______ _____ _____    ______ ____
ROOT
ATOM      1  C   UNL     1      -0.715   4.537   0.000  0.00  0.00    +0.000 C 
ATOM      2  C   UNL     1       1.429   5.775   0.000  0.00  0.00    +0.000 C 
ATOM      3  C   UNL     1       0.000   4.950   0.000  0.00  0.00    +0.000 C 
ATOM      4  C   UNL     1       0.715   6.188   0.000  0.00  0.00    +0.000 C 
ATOM      5  C   UNL     1       1.429   4.950   0.000  0.00  0.00    +0.000 C 
ATOM      6  C   UNL     1       0.000   5.775   0.000  0.00  0.00    +0.000 C 
ATOM      7  O   UNL     1       0.715   4.537   0.000  0.00  0.00    +0.000 OA
ENDROOT
BRANCH   4  10
ATOM      8  C   UNL     1       0.000   7.425   0.000  0.00  0.00    +0.000 C 
ATOM      9  C   UNL     1       1.429   7.425   0.000  0.00  0.00    +0.000 C 
ATOM     10  N   UNL     1       0.715   7.013   0.000  0.00  0.00    +0.000 NA
ENDBRANCH   4  10
BRANCH   5  11
ATOM     11  O   UNL     1       2.143   4.537   0.000  0.00  0.00    +0.000 OA
BRANCH  11  21
ATOM     12  C   UNL     1       7.145   2.475   0.000  0.00  0.00    +0.000 A 
ATOM     13  C   UNL     1       6.430   2.062   0.000  0.00  0.00    +0.000 A 
ATOM     14  C   UNL     1       7.145   3.300   0.000  0.00  0.00    +0.000 A 
ATOM     15  C   UNL     1       3.572   2.062   0.000  0.00  0.00    +0.000 A 
ATOM     16  C   UNL     1       1.429   3.300   0.000  0.00  0.00    +0.000 C 
ATOM     17  C   UNL     1       5.716   2.475   0.000  0.00  0.00    +0.000 A 
ATOM     18  C   UNL     1       4.287   2.475   0.000  0.00  0.00    +0.000 A 
ATOM     19  C   UNL     1       2.858   2.475   0.000  0.00  0.00    +0.000 A 
ATOM     20  C   UNL     1       6.430   3.712   0.000  0.00  0.00    +0.000 A 
ATOM     21  C   UNL     1       2.143   3.712   0.000  0.00  0.00    +0.000 C 
ATOM     22  C   UNL     1       5.716   3.300   0.000  0.00  0.00    +0.000 A 
ATOM     23  C   UNL     1       2.858   3.300   0.000  0.00  0.00    +0.000 A 
ATOM     24  C   UNL     1       4.287   3.300   0.000  0.00  0.00    +0.000 A 
ATOM     25  C   UNL     1       5.001   2.062   0.000  0.00  0.00    +0.000 C 
ATOM     26  C   UNL     1       5.001   3.712   0.000  0.00  0.00    +0.000 C 
ATOM     27  C   UNL     1       3.572   3.712   0.000  0.00  0.00    +0.000 A 
ATOM     28  C   UNL     1       2.143   2.062   0.000  0.00  0.00    +0.000 C 
ATOM     29  C   UNL     1       1.429   2.475   0.000  0.00  0.00    +0.000 C 
ATOM     30  O   UNL     1       6.430   4.537   0.000  0.00  0.00    +0.000 OA
ATOM     31  O   UNL     1       5.001   1.238   0.000  0.00  0.00    +0.000 OA
ATOM     32  O   UNL     1       5.001   4.537   0.000  0.00  0.00    +0.000 OA
ATOM     33  O   UNL     1       3.572   4.537   0.000  0.00  0.00    +0.000 OA
ATOM     34  O   UNL     1       2.143   1.238   0.000  0.00  0.00    +0.000 OA
ATOM     35  O   UNL     1       0.617   2.618   0.000  0.00  0.00    +0.000 OA
BRANCH  29  37
ATOM     36  C   UNL     1       1.677   1.068   0.000  0.00  0.00    +0.000 C 
ATOM     37  C   UNL     1       1.147   1.700   0.000  0.00  0.00    +0.000 C 
ENDBRANCH  29  37
ENDBRANCH  11  21
ENDBRANCH   5  11
BRANCH   6  38
ATOM     38  O   UNL     1      -0.715   6.188   0.000  0.00  0.00    +0.000 OA
BRANCH  38  43
ATOM     39  C   UNL     1      -2.143   3.712   0.000  0.00  0.00    +0.000 C 
ATOM     40  C   UNL     1      -2.143   6.188   0.000  0.00  0.00    +0.000 C 
ATOM     41  C   UNL     1      -2.143   4.537   0.000  0.00  0.00    +0.000 C 
ATOM     42  C   UNL     1      -2.858   5.775   0.000  0.00  0.00    +0.000 C 
ATOM     43  C   UNL     1      -1.429   5.775   0.000  0.00  0.00    +0.000 C 
ATOM     44  C   UNL     1      -2.858   4.950   0.000  0.00  0.00    +0.000 C 
ATOM     45  O   UNL     1      -3.572   6.188   0.000  0.00  0.00    +0.000 OA
ATOM     46  O   UNL     1      -1.429   4.950   0.000  0.00  0.00    +0.000 OA
BRANCH  44  47
ATOM     47  O   UNL     1      -3.572   4.537   0.000  0.00  0.00    +0.000 OA
BRANCH  47  53
ATOM     48  C   UNL     1      -5.001   7.013   0.000  0.00  0.00    +0.000 C 
ATOM     49  C   UNL     1      -5.716   4.950   0.000  0.00  0.00    +0.000 C 
ATOM     50  C   UNL     1      -5.001   4.537   0.000  0.00  0.00    +0.000 C 
ATOM     51  C   UNL     1      -5.001   6.188   0.000  0.00  0.00    +0.000 C 
ATOM     52  C   UNL     1      -5.716   5.775   0.000  0.00  0.00    +0.000 C 
ATOM     53  C   UNL     1      -4.287   4.950   0.000  0.00  0.00    +0.000 C 
ATOM     54  O   UNL     1      -6.430   6.188   0.000  0.00  0.00    +0.000 OA
ATOM     55  O   UNL     1      -4.287   5.775   0.000  0.00  0.00    +0.000 OA
ENDBRANCH  47  53
ENDBRANCH  44  47
ENDBRANCH  38  43
ENDBRANCH   6  38
TORSDOF 8
