REMARK  Name = 
REMARK  9 active torsions:
REMARK  status: ('A' for Active; 'I' for Inactive)
REMARK    1  A    between atoms: N_2  and  C_4
REMARK    2  A    between atoms: C_13  and  S_14
REMARK    3  A    between atoms: S_14  and  N_17
REMARK    4  A    between atoms: N_17  and  C_18
REMARK    5  A    between atoms: C_18  and  C_19
REMARK    6  A    between atoms: C_19  and  C_20
REMARK    7  A    between atoms: C_20  and  C_21
REMARK    8  A    between atoms: C_21  and  C_22
REMARK    9  A    between atoms: C_22  and  C_24
REMARK                            x       y       z     vdW  Elec       q    Type
REMARK                         _______ _______ _______ _____ _____    ______ ____
ROOT
ATOM      1  C   UNK     1      -0.715  -0.412   0.000  0.00  0.00    +0.000 A 
ATOM      2  C   UNK     1      -0.715  -1.238   0.000  0.00  0.00    +0.000 A 
ATOM      3  C   UNK     1       0.000  -1.650   0.000  0.00  0.00    +0.000 A 
ATOM      4  C   UNK     1       0.715  -1.238   0.000  0.00  0.00    +0.000 A 
ATOM      5  C   UNK     1       0.715  -0.412   0.000  0.00  0.00    +0.000 A 
ATOM      6  C   UNK     1       0.000   0.000   0.000  0.00  0.00    +0.000 A 
ATOM      7  C   UNK     1       0.000   0.825   0.000  0.00  0.00    +0.000 A 
ATOM      8  C   UNK     1       0.715   1.238   0.000  0.00  0.00    +0.000 A 
ATOM      9  C   UNK     1       1.429   0.825   0.000  0.00  0.00    +0.000 A 
ATOM     10  C   UNK     1       1.429   0.000   0.000  0.00  0.00    +0.000 A 
ENDROOT
BRANCH   1  12
ATOM     11  C   UNK     1      -2.143  -0.412   0.000  0.00  0.00    +0.000 C 
ATOM     12  N   UNK     1      -1.429   0.000   0.000  0.00  0.00    +0.000 N 
ATOM     13  C   UNK     1      -1.429   0.825   0.000  0.00  0.00    +0.000 C 
ENDBRANCH   1  12
BRANCH  10  14
ATOM     14  S   UNK     1       2.143  -0.412   0.000  0.00  0.00    +0.000 S 
ATOM     15  O   UNK     1       1.731  -1.127   0.000  0.00  0.00    +0.000 OA
ATOM     16  O   UNK     1       2.556   0.302   0.000  0.00  0.00    +0.000 OA
BRANCH  14  17
ATOM     17  N   UNK     1       2.858  -0.825   0.000  0.00  0.00    +0.000 NA
BRANCH  17  18
ATOM     18  C   UNK     1       3.572  -0.412   0.000  0.00  0.00    +0.000 C 
BRANCH  18  19
ATOM     19  C   UNK     1       4.287  -0.825   0.000  0.00  0.00    +0.000 C 
BRANCH  19  20
ATOM     20  C   UNK     1       5.001  -0.412   0.000  0.00  0.00    +0.000 C 
BRANCH  20  21
ATOM     21  C   UNK     1       5.716  -0.825   0.000  0.00  0.00    +0.000 C 
BRANCH  21  22
ATOM     22  C   UNK     1       6.430  -0.412   0.000  0.00  0.00    +0.000 C 
ATOM     23  N   UNK     1       6.430   0.412   0.000  0.00  0.00    +0.000 NA
BRANCH  22  24
ATOM     24  C   UNK     1       7.145  -0.825   0.000  0.00  0.00    +0.000 C 
ATOM     25  O   UNK     1       7.859  -0.412   0.000  0.00  0.00    +0.000 OA
ATOM     26  O   UNK     1       7.145  -1.650   0.000  0.00  0.00    +0.000 OA
ENDBRANCH  22  24
ENDBRANCH  21  22
ENDBRANCH  20  21
ENDBRANCH  19  20
ENDBRANCH  18  19
ENDBRANCH  17  18
ENDBRANCH  14  17
ENDBRANCH  10  14
TORSDOF 9
