REMARK  Name = 
REMARK  2 active torsions:
REMARK  status: ('A' for Active; 'I' for Inactive)
REMARK    1  A    between atoms: C_1  and  C_4
REMARK    2  A    between atoms: C_2  and  C_6
REMARK                            x       y       z     vdW  Elec       q    Type
REMARK                         _______ _______ _______ _____ _____    ______ ____
ROOT
ATOM      1  C   UNL     1      -0.117   0.416   0.000  0.00  0.00    +0.000 A 
ATOM      2  C   UNL     1       0.598   0.003   0.000  0.00  0.00    +0.000 A 
ATOM      3  C   UNL     1      -0.838   0.003   0.000  0.00  0.00    +0.000 A 
ATOM      4  C   UNL     1       0.598  -0.828   0.000  0.00  0.00    +0.000 A 
ATOM      5  C   UNL     1      -0.838  -0.828   0.000  0.00  0.00    +0.000 A 
ATOM      6  O   UNL     1      -1.546   0.416   0.000  0.00  0.00    +0.000 OA
ATOM      7  N   UNL     1      -0.117  -1.247   0.000  0.00  0.00    +0.000 NA
ATOM      8  C   UNL     1      -1.550  -1.237   0.000  0.00  0.00    +0.000 C 
ENDROOT
BRANCH   1   9
ATOM      9  C   UNL     1      -0.113   1.237   0.000  0.00  0.00    +0.000 C 
ATOM     10  N   UNL     1       0.598   1.646   0.000  0.00  0.00    +0.000 NA
ENDBRANCH   1   9
BRANCH   2  11
ATOM     11  C   UNL     1       1.306   0.416   0.000  0.00  0.00    +0.000 C 
ATOM     12  O   UNL     1       2.020   0.003   0.000  0.00  0.00    +0.000 OA
ENDBRANCH   2  11
TORSDOF 2
