REMARK  Name = 
REMARK  6 active torsions:
REMARK  status: ('A' for Active; 'I' for Inactive)
REMARK    1  A    between atoms: C_1  and  C_4
REMARK    2  A    between atoms: C_1  and  O_23
REMARK    3  A    between atoms: C_7  and  O_25
REMARK    4  A    between atoms: C_10  and  N_15
REMARK    5  A    between atoms: O_23  and  P_26
REMARK    6  A    between atoms: O_25  and  P_27
REMARK                            x       y       z     vdW  Elec       q    Type
REMARK                         _______ _______ _______ _____ _____    ______ ____
ROOT
ATOM      1  C   UNL     1       0.099  -1.009   0.000  0.00  0.00    +0.000 C 
ATOM      2  C   UNL     1       0.884  -1.264   0.000  0.00  0.00    +0.000 C 
ATOM      3  C   UNL     1       1.369  -0.597   0.000  0.00  0.00    +0.000 C 
ATOM      4  C   UNL     1       0.884   0.071   0.000  0.00  0.00    +0.000 C 
ATOM      5  O   UNL     1       1.139  -2.049   0.000  0.00  0.00    +0.000 OA
ATOM      6  O   UNL     1       0.099  -0.184   0.000  0.00  0.00    +0.000 OA
ENDROOT
BRANCH   4  16
ATOM      7  C   UNL     1       3.352   1.110   0.000  0.00  0.00    +0.000 A 
ATOM      8  C   UNL     1       0.654   1.523   0.000  0.00  0.00    +0.000 A 
ATOM      9  C   UNL     1       1.923   1.935   0.000  0.00  0.00    +0.000 A 
ATOM     10  C   UNL     1       2.638   2.348   0.000  0.00  0.00    +0.000 A 
ATOM     11  C   UNL     1       1.923   1.110   0.000  0.00  0.00    +0.000 A 
ATOM     12  N   UNL     1       2.638   3.173   0.000  0.00  0.00    +0.000 NA
ATOM     13  N   UNL     1       3.352   1.935   0.000  0.00  0.00    +0.000 NA
ATOM     14  N   UNL     1       2.638   0.698   0.000  0.00  0.00    +0.000 NA
ATOM     15  N   UNL     1       1.139   2.190   0.000  0.00  0.00    +0.000 NA
ATOM     16  N   UNL     1       1.139   0.856   0.000  0.00  0.00    +0.000 N 
ENDBRANCH   4  16
BRANCH   1  17
ATOM     17  C   UNL     1      -0.568  -1.494   0.000  0.00  0.00    +0.000 C 
BRANCH  17  18
ATOM     18  O   UNL     1      -1.322  -1.158   0.000  0.00  0.00    +0.000 OA
BRANCH  18  22
ATOM     19  O   UNL     1      -2.657  -2.128   0.000  0.00  0.00    +0.000 OA
ATOM     20  O   UNL     1      -2.474  -0.976   0.000  0.00  0.00    +0.000 OA
ATOM     21  O   UNL     1      -1.504  -2.311   0.000  0.00  0.00    +0.000 OA
ATOM     22  P   UNL     1      -1.989  -1.643   0.000  0.00  0.00    +0.000 P 
ENDBRANCH  18  22
ENDBRANCH  17  18
ENDBRANCH   1  17
BRANCH   3  23
ATOM     23  O   UNL     1       2.194  -0.597   0.000  0.00  0.00    +0.000 OA
BRANCH  23  27
ATOM     24  O   UNL     1       1.892  -1.724   0.000  0.00  0.00    +0.000 OA
ATOM     25  O   UNL     1       3.321  -0.898   0.000  0.00  0.00    +0.000 OA
ATOM     26  O   UNL     1       3.019  -2.026   0.000  0.00  0.00    +0.000 OA
ATOM     27  P   UNL     1       2.606  -1.311   0.000  0.00  0.00    +0.000 P 
ENDBRANCH  23  27
ENDBRANCH   3  23
TORSDOF 6
