REMARK  Name = 
REMARK  4 active torsions:
REMARK  status: ('A' for Active; 'I' for Inactive)
REMARK    1  A    between atoms: N_3  and  C_10
REMARK    2  A    between atoms: N_4  and  C_11
REMARK    3  A    between atoms: C_10  and  C_12
REMARK    4  A    between atoms: C_20  and  C_24
REMARK                            x       y       z     vdW  Elec       q    Type
REMARK                         _______ _______ _______ _____ _____    ______ ____
ROOT
ATOM      1  N   UNL     1       5.937   0.988   0.000  0.00  0.00    +0.000 NA
ATOM      2  N   UNL     1       5.937  -0.662   0.000  0.00  0.00    +0.000 N 
ATOM      3  C   UNL     1       6.652   0.575   0.000  0.00  0.00    +0.000 C 
ATOM      4  C   UNL     1       5.222   0.575   0.000  0.00  0.00    +0.000 C 
ATOM      5  C   UNL     1       6.652  -0.250   0.000  0.00  0.00    +0.000 C 
ATOM      6  C   UNL     1       5.222  -0.250   0.000  0.00  0.00    +0.000 C 
ENDROOT
BRANCH   2  10
ATOM      7  O   UNL     1       7.432  -1.649   0.000  0.00  0.00    +0.000 OA
ATOM      8  O   UNL     1       8.739  -2.312   0.000  0.00  0.00    +0.000 OA
ATOM      9  N   UNL     1       7.432  -2.976   0.000  0.00  0.00    +0.000 NA
ATOM     10  C   UNL     1       5.937  -1.488   0.000  0.00  0.00    +0.000 A 
ATOM     11  C   UNL     1       6.652  -1.900   0.000  0.00  0.00    +0.000 A 
ATOM     12  C   UNL     1       5.222  -1.900   0.000  0.00  0.00    +0.000 A 
ATOM     13  C   UNL     1       6.652  -2.725   0.000  0.00  0.00    +0.000 A 
ATOM     14  C   UNL     1       5.222  -2.725   0.000  0.00  0.00    +0.000 A 
ATOM     15  C   UNL     1       5.937  -3.138   0.000  0.00  0.00    +0.000 A 
ATOM     16  C   UNL     1       7.914  -2.312   0.000  0.00  0.00    +0.000 A 
ENDBRANCH   2  10
BRANCH   1  17
ATOM     17  C   UNL     1       5.937   1.813   0.000  0.00  0.00    +0.000 C 
BRANCH  17  18
ATOM     18  C   UNL     1       5.222   2.225   0.000  0.00  0.00    +0.000 A 
ATOM     19  C   UNL     1       4.508   1.813   0.000  0.00  0.00    +0.000 A 
ATOM     20  C   UNL     1       5.222   3.050   0.000  0.00  0.00    +0.000 A 
ATOM     21  C   UNL     1       3.793   2.225   0.000  0.00  0.00    +0.000 A 
ATOM     22  C   UNL     1       4.508   3.463   0.000  0.00  0.00    +0.000 A 
ATOM     23  C   UNL     1       3.793   3.050   0.000  0.00  0.00    +0.000 A 
BRANCH  21  24
ATOM     24  C   UNL     1       3.079   1.813   0.000  0.00  0.00    +0.000 A 
ATOM     25  C   UNL     1       3.079   0.988   0.000  0.00  0.00    +0.000 A 
ATOM     26  C   UNL     1       2.365   2.225   0.000  0.00  0.00    +0.000 A 
ATOM     27  C   UNL     1       2.365   0.575   0.000  0.00  0.00    +0.000 A 
ATOM     28  C   UNL     1       1.650   1.813   0.000  0.00  0.00    +0.000 A 
ATOM     29  C   UNL     1       1.650   0.988   0.000  0.00  0.00    +0.000 A 
ENDBRANCH  21  24
ENDBRANCH  17  18
ENDBRANCH   1  17
TORSDOF 4
