REMARK  Name = 
REMARK  6 active torsions:
REMARK  status: ('A' for Active; 'I' for Inactive)
REMARK    1  A    between atoms: C_1  and  C_6
REMARK    2  A    between atoms: C_1  and  C_8
REMARK    3  A    between atoms: C_3  and  C_9
REMARK    4  A    between atoms: C_3  and  N_16
REMARK    5  A    between atoms: C_4  and  CA_7
REMARK    6  A    between atoms: CA_7  and  C_10
REMARK                            x       y       z     vdW  Elec       q    Type
REMARK                         _______ _______ _______ _____ _____    ______ ____
ROOT
ATOM      1  C   UNL     1       0.207  -0.064   0.000  0.00  0.00    +0.000 C 
ATOM      2  C   UNL     1       1.100   0.928   0.000  0.00  0.00    +0.000 C 
ATOM      3  C   UNL     1       0.960  -0.400   0.000  0.00  0.00    +0.000 C 
ATOM      4  N   UNL     1       0.293   0.756   0.000  0.00  0.00    +0.000 NA
ATOM      5  N   UNL     1       1.512   0.213   0.000  0.00  0.00    +0.000 N 
ATOM      6  O   UNL     1       1.132  -1.207   0.000  0.00  0.00    +0.000 OA
ENDROOT
BRANCH   2   7
ATOM      7  CA  UNL     1       1.435   1.682   0.000  0.00  0.00    +0.000 C 
ATOM      8  N   UNL     1       2.256   1.768   0.000  0.00  0.00    +0.000 NA
BRANCH   7   9
ATOM      9  C   UNL     1       0.951   2.349   0.000  0.00  0.00    +0.000 C 
ATOM     10  O   UNL     1       0.130   2.263   0.000  0.00  0.00    +0.000 OA
ENDBRANCH   7   9
ENDBRANCH   2   7
BRANCH   5  11
ATOM     11  C   UNL     1       2.333   0.127   0.000  0.00  0.00    +0.000 C 
BRANCH  11  12
ATOM     12  C   UNL     1       2.668  -0.626   0.000  0.00  0.00    +0.000 C 
ATOM     13  O   UNL     1       3.489  -0.713   0.000  0.00  0.00    +0.000 OA
ATOM     14  O   UNL     1       2.183  -1.294   0.000  0.00  0.00    +0.000 OA
ENDBRANCH  11  12
ENDBRANCH   5  11
BRANCH   1  15
ATOM     15  C   UNL     1      -0.508  -0.477   0.000  0.00  0.00    +0.000 C 
BRANCH  15  18
ATOM     16  C   UNL     1       0.160  -1.786   0.000  0.00  0.00    +0.000 A 
ATOM     17  C   UNL     1      -0.920  -2.571   0.000  0.00  0.00    +0.000 A 
ATOM     18  C   UNL     1      -0.508  -1.302   0.000  0.00  0.00    +0.000 A 
ATOM     19  N   UNL     1      -0.095  -2.571   0.000  0.00  0.00    +0.000 NA
ATOM     20  N   UNL     1      -1.175  -1.786   0.000  0.00  0.00    +0.000 NA
ENDBRANCH  15  18
ENDBRANCH   1  15
TORSDOF 6
