REMARK  Name = 
REMARK  13 active torsions:
REMARK  status: ('A' for Active; 'I' for Inactive)
REMARK    1  A    between atoms: C_2  and  C_4
REMARK    2  A    between atoms: C_2  and  C_9
REMARK    3  A    between atoms: C_4  and  C_13
REMARK    4  A    between atoms: CA_6  and  C_14
REMARK    5  A    between atoms: CA_6  and  N_18
REMARK    6  A    between atoms: C_7  and  C_10
REMARK    7  A    between atoms: C_7  and  S_32
REMARK    8  A    between atoms: C_8  and  N_20
REMARK    9  A    between atoms: C_9  and  C_16
REMARK   10  A    between atoms: C_10  and  C_15
REMARK   11  A    between atoms: C_10  and  N_19
REMARK   12  A    between atoms: C_11  and  N_21
REMARK   13  A    between atoms: C_12  and  S_32
REMARK                            x       y       z     vdW  Elec       q    Type
REMARK                         _______ _______ _______ _____ _____    ______ ____
ROOT
ATOM      1  C   UNK A   1       5.541  -0.081   0.000  0.00  0.00    +0.000 C 
ENDROOT
BRANCH   1   3
ATOM      2  C   UNK A   1       6.622  -1.017   0.000  0.00  0.00    +0.000 C 
ATOM      3  N   UNK A   1       6.351  -0.237   0.000  0.00  0.00    +0.000 NA
ATOM      4  O   UNK A   1       6.082  -1.640   0.000  0.00  0.00    +0.000 OA
BRANCH   2   5
ATOM      5  C   UNK A   1       7.432  -1.173   0.000  0.00  0.00    +0.000 C 
BRANCH   5   6
ATOM      6  C   UNK A   1       7.702  -1.952   0.000  0.00  0.00    +0.000 C 
BRANCH   6   7
ATOM      7  C   UNK A   1       8.512  -2.108   0.000  0.00  0.00    +0.000 C 
ATOM      8  N   UNK A   1       9.052  -1.484   0.000  0.00  0.00    +0.000 NA
BRANCH   7   9
ATOM      9  C   UNK A   1       8.782  -2.888   0.000  0.00  0.00    +0.000 C 
ATOM     10  O   UNK A   1       9.592  -3.043   0.000  0.00  0.00    +0.000 OA
ATOM     11  O   UNK A   1       8.242  -3.511   0.000  0.00  0.00    +0.000 OA
ENDBRANCH   7   9
ENDBRANCH   6   7
ENDBRANCH   5   6
ENDBRANCH   2   5
ENDBRANCH   1   3
BRANCH   1  12
ATOM     12  C   UNK A   1       5.001  -0.705   0.000  0.00  0.00    +0.000 C 
ATOM     13  N   GLY A   2       5.271  -1.484   0.000  0.00  0.00    +0.000 NA
ATOM     14  O   UNK A   1       4.191  -0.549   0.000  0.00  0.00    +0.000 OA
BRANCH  13  15
ATOM     15  CA  GLY A   2       4.731  -2.108   0.000  0.00  0.00    +0.000 C 
BRANCH  15  16
ATOM     16  C   GLY A   2       5.001  -2.888   0.000  0.00  0.00    +0.000 C 
ATOM     17  O   GLY A   2       5.811  -3.043   0.000  0.00  0.00    +0.000 OA
ATOM     18  OXT GLY A   2       4.461  -3.511   0.000  0.00  0.00    +0.000 OA
ENDBRANCH  15  16
ENDBRANCH  13  15
ENDBRANCH   1  12
BRANCH   1  19
ATOM     19  C   UNK A   1       5.271   0.698   0.000  0.00  0.00    +0.000 C 
BRANCH  19  20
ATOM     20  S   UNK A   1       4.461   0.854   0.000  0.00  0.00    +0.000 S 
BRANCH  20  26
ATOM     21  C   UNK A   1       3.111   2.569   0.000  0.00  0.00    +0.000 A 
ATOM     22  C   UNK A   1       3.381   1.790   0.000  0.00  0.00    +0.000 A 
ATOM     23  C   UNK A   1       4.461   3.037   0.000  0.00  0.00    +0.000 A 
ATOM     24  C   UNK A   1       3.651   3.193   0.000  0.00  0.00    +0.000 A 
ATOM     25  C   UNK A   1       4.731   2.257   0.000  0.00  0.00    +0.000 A 
ATOM     26  C   UNK A   1       4.191   1.634   0.000  0.00  0.00    +0.000 A 
BRANCH  25  27
ATOM     27  N   UNK A   1       5.541   2.102   0.000  0.00  0.00    +0.000 N 
ATOM     28  O   UNK A   1       5.811   1.322   0.000  0.00  0.00    +0.000 OA
ATOM     29  O   UNK A   1       6.082   2.725   0.000  0.00  0.00    +0.000 OA
ENDBRANCH  25  27
BRANCH  24  30
ATOM     30  N   UNK A   1       3.381   3.973   0.000  0.00  0.00    +0.000 N 
ATOM     31  O   UNK A   1       2.571   4.128   0.000  0.00  0.00    +0.000 OA
ATOM     32  O   UNK A   1       3.921   4.596   0.000  0.00  0.00    +0.000 OA
ENDBRANCH  24  30
ENDBRANCH  20  26
ENDBRANCH  19  20
ENDBRANCH   1  19
TORSDOF 13
