REMARK  Name = 
REMARK  6 active torsions:
REMARK  status: ('A' for Active; 'I' for Inactive)
REMARK    1  A    between atoms: C_2  and  C_3
REMARK    2  A    between atoms: C_3  and  C_12
REMARK    3  A    between atoms: O_19  and  C_20
REMARK    4  A    between atoms: C_23  and  C_30
REMARK    5  A    between atoms: C_30  and  C_31
REMARK    6  A    between atoms: C_38  and  C_39
REMARK                            x       y       z     vdW  Elec       q    Type
REMARK                         _______ _______ _______ _____ _____    ______ ____
ROOT
ATOM      1  C   UNL     1      -0.264  -0.075   0.000  0.00  0.00    +0.000 C 
ATOM      2  C   UNL     1       0.450  -0.488   0.000  0.00  0.00    +0.000 C 
ATOM      3  O   UNL     1       1.165  -0.075   0.000  0.00  0.00    +0.000 OA
ATOM      4  N   UNL     1       0.450  -1.313   0.000  0.00  0.00    +0.000 NA
ATOM      5  C   UNL     1      -0.264  -1.725   0.000  0.00  0.00    +0.000 C 
ATOM      6  O   UNL     1      -0.264  -2.550   0.000  0.00  0.00    +0.000 OA
ATOM      7  N   UNL     1      -0.979  -1.313   0.000  0.00  0.00    +0.000 NA
ATOM      8  C   UNL     1      -0.979  -0.488   0.000  0.00  0.00    +0.000 C 
ATOM      9  O   UNL     1      -1.693  -0.075   0.000  0.00  0.00    +0.000 OA
ENDROOT
BRANCH   1  10
ATOM     10  C   UNL     1       0.266   0.557   0.000  0.00  0.00    +0.000 A 
ATOM     11  C   UNL     1      -0.016   1.332   0.000  0.00  0.00    +0.000 A 
ATOM     12  C   UNL     1       0.514   1.964   0.000  0.00  0.00    +0.000 A 
ATOM     13  C   UNL     1       1.327   1.821   0.000  0.00  0.00    +0.000 A 
ATOM     14  C   UNL     1       1.609   1.045   0.000  0.00  0.00    +0.000 A 
ATOM     15  C   UNL     1       1.079   0.413   0.000  0.00  0.00    +0.000 A 
ENDBRANCH   1  10
BRANCH   1  17
ATOM     16  C   UNL     1      -1.607   0.413   0.000  0.00  0.00    +0.000 C 
ATOM     17  C   UNL     1      -0.794   0.557   0.000  0.00  0.00    +0.000 C 
ENDBRANCH   1  17
TORSDOF 2
REMARK  Name = 
REMARK  6 active torsions:
REMARK  status: ('A' for Active; 'I' for Inactive)
REMARK    1  A    between atoms: C_2  and  C_3
REMARK    2  A    between atoms: C_3  and  C_12
REMARK    3  A    between atoms: O_19  and  C_20
REMARK    4  A    between atoms: C_23  and  C_30
REMARK    5  A    between atoms: C_30  and  C_31
REMARK    6  A    between atoms: C_38  and  C_39
REMARK                            x       y       z     vdW  Elec       q    Type
REMARK                         _______ _______ _______ _____ _____    ______ ____
ROOT
ATOM      1  C   UNL     1       6.588  -0.229   0.000  0.00  0.00    +0.000 A 
ATOM      2  C   UNL     1       5.874   0.184   0.000  0.00  0.00    +0.000 A 
ATOM      3  C   UNL     1       5.874   1.009   0.000  0.00  0.00    +0.000 A 
ATOM      4  C   UNL     1       5.159   1.421   0.000  0.00  0.00    +0.000 A 
ATOM      5  C   UNL     1       5.159   2.246   0.000  0.00  0.00    +0.000 A 
ATOM      6  C   UNL     1       5.874   2.659   0.000  0.00  0.00    +0.000 A 
ATOM      7  N   UNL     1       6.588   2.246   0.000  0.00  0.00    +0.000 NA
ATOM      8  C   UNL     1       6.588   1.421   0.000  0.00  0.00    +0.000 A 
ATOM      9  C   UNL     1       7.303   1.009   0.000  0.00  0.00    +0.000 A 
ATOM     10  C   UNL     1       7.303   0.184   0.000  0.00  0.00    +0.000 A 
ENDROOT
BRANCH   1  12
ATOM     11  C   UNL     1       7.303  -1.466   0.000  0.00  0.00    +0.000 C 
ATOM     12  O   UNL     1       6.588  -1.054   0.000  0.00  0.00    +0.000 OA
ENDBRANCH   1  12
BRANCH   4  13
ATOM     13  C   UNL     1       4.445   1.009   0.000  0.00  0.00    +0.000 C 
ATOM     14  O   UNL     1       3.730   1.421   0.000  0.00  0.00    +0.000 OA
BRANCH  13  15
ATOM     15  C   UNL     1       4.445   0.184   0.000  0.00  0.00    +0.000 C 
ATOM     16  C   UNL     1       4.093  -0.510   0.000  0.00  0.00    +0.000 C 
ATOM     17  C   UNL     1       4.467  -1.228   0.000  0.00  0.00    +0.000 C 
ATOM     18  C   UNL     1       3.883  -1.909   0.000  0.00  0.00    +0.000 C 
ATOM     19  C   UNL     1       4.066  -1.281   0.000  0.00  0.00    +0.000 C 
ATOM     20  N   UNL     1       4.818  -0.552   0.000  0.00  0.00    +0.000 NA
ATOM     21  C   UNL     1       5.700  -0.789   0.000  0.00  0.00    +0.000 C 
ATOM     22  C   UNL     1       5.316  -1.449   0.000  0.00  0.00    +0.000 C 
BRANCH  22  23
ATOM     23  C   UNL     1       5.634  -2.210   0.000  0.00  0.00    +0.000 C 
ATOM     24  C   UNL     1       6.452  -2.316   0.000  0.00  0.00    +0.000 C 
ENDBRANCH  22  23
ENDBRANCH  13  15
ENDBRANCH   4  13
TORSDOF 4
