REMARK  Name = 
REMARK  16 active torsions:
REMARK  status: ('A' for Active; 'I' for Inactive)
REMARK    1  A    between atoms: C_1  and  N_35
REMARK    2  A    between atoms: C_4  and  C_33
REMARK    3  A    between atoms: C_7  and  C_8
REMARK    4  A    between atoms: C_7  and  N_9
REMARK    5  A    between atoms: C_10  and  C_14
REMARK    6  A    between atoms: C_13  and  C_14
REMARK    7  A    between atoms: C_13  and  N_15
REMARK    8  A    between atoms: C_17  and  C_22
REMARK    9  A    between atoms: C_18  and  C_20
REMARK   10  A    between atoms: C_18  and  O_24
REMARK   11  A    between atoms: C_20  and  C_22
REMARK   12  A    between atoms: O_24  and  P_31
REMARK   13  A    between atoms: O_25  and  P_31
REMARK   14  A    between atoms: O_25  and  P_32
REMARK   15  A    between atoms: O_26  and  P_32
REMARK   16  A    between atoms: O_26  and  C_33
REMARK                            x       y       z     vdW  Elec       q    Type
REMARK                         _______ _______ _______ _____ _____    ______ ____
ROOT
ATOM      1  O   UNL     1      16.413  -2.216   0.000  0.00  0.00    +0.000 OA
ENDROOT
BRANCH   1   4
ATOM      2  O   UNL     1      17.238  -1.391   0.000  0.00  0.00    +0.000 OA
ATOM      3  O   UNL     1      17.238  -3.042   0.000  0.00  0.00    +0.000 OA
ATOM      4  P   UNL     1      17.238  -2.216   0.000  0.00  0.00    +0.000 P 
BRANCH   4   5
ATOM      5  O   UNL     1      18.063  -2.216   0.000  0.00  0.00    +0.000 OA
BRANCH   5   6
ATOM      6  C   UNL     1      18.647  -1.633   0.000  0.00  0.00    +0.000 C 
BRANCH   6  10
ATOM      7  C   UNL     1      20.766  -1.888   0.000  0.00  0.00    +0.000 C 
ATOM      8  O   UNL     1      20.099  -1.403   0.000  0.00  0.00    +0.000 OA
ATOM      9  C   UNL     1      20.511  -2.673   0.000  0.00  0.00    +0.000 C 
ATOM     10  C   UNL     1      19.431  -1.888   0.000  0.00  0.00    +0.000 C 
ATOM     11  C   UNL     1      19.686  -2.673   0.000  0.00  0.00    +0.000 C 
ATOM     12  O   UNL     1      20.996  -3.340   0.000  0.00  0.00    +0.000 OA
ATOM     13  O   UNL     1      19.201  -3.340   0.000  0.00  0.00    +0.000 OA
BRANCH   7  14
ATOM     14  N   UNL     1      21.551  -1.633   0.000  0.00  0.00    +0.000 N 
ATOM     15  C   UNL     1      22.164  -2.185   0.000  0.00  0.00    +0.000 A 
ATOM     16  C   UNL     1      21.886  -0.879   0.000  0.00  0.00    +0.000 A 
ATOM     17  C   UNL     1      22.878  -1.773   0.000  0.00  0.00    +0.000 A 
ATOM     18  N   UNL     1      22.164  -3.010   0.000  0.00  0.00    +0.000 NA
ATOM     19  N   UNL     1      22.707  -0.966   0.000  0.00  0.00    +0.000 NA
ATOM     20  C   UNL     1      23.593  -2.185   0.000  0.00  0.00    +0.000 A 
ATOM     21  C   UNL     1      22.878  -3.423   0.000  0.00  0.00    +0.000 A 
ATOM     22  N   UNL     1      23.593  -3.010   0.000  0.00  0.00    +0.000 NA
ATOM     23  N   UNL     1      24.307  -1.773   0.000  0.00  0.00    +0.000 NA
ENDBRANCH   7  14
ENDBRANCH   6  10
ENDBRANCH   5   6
ENDBRANCH   4   5
ENDBRANCH   1   4
BRANCH   1  26
ATOM     24  O   UNL     1      15.588  -1.391   0.000  0.00  0.00    +0.000 OA
ATOM     25  O   UNL     1      15.588  -3.042   0.000  0.00  0.00    +0.000 OA
ATOM     26  P   UNL     1      15.588  -2.216   0.000  0.00  0.00    +0.000 P 
BRANCH  26  27
ATOM     27  O   UNL     1      14.763  -2.216   0.000  0.00  0.00    +0.000 OA
BRANCH  27  28
ATOM     28  C   UNL     1      14.049  -2.629   0.000  0.00  0.00    +0.000 C 
BRANCH  28  30
ATOM     29  C   UNL     1      12.922  -1.502   0.000  0.00  0.00    +0.000 C 
ATOM     30  C   UNL     1      13.334  -2.216   0.000  0.00  0.00    +0.000 C 
ATOM     31  C   UNL     1      13.747  -1.502   0.000  0.00  0.00    +0.000 C 
BRANCH  30  32
ATOM     32  C   UNL     1      12.620  -2.629   0.000  0.00  0.00    +0.000 C 
ATOM     33  O   UNL     1      11.905  -2.216   0.000  0.00  0.00    +0.000 OA
BRANCH  32  36
ATOM     34  N   UNL     1      13.334  -3.867   0.000  0.00  0.00    +0.000 NA
ATOM     35  O   UNL     1      11.905  -3.867   0.000  0.00  0.00    +0.000 OA
ATOM     36  C   UNL     1      12.620  -3.454   0.000  0.00  0.00    +0.000 C 
BRANCH  34  37
ATOM     37  C   UNL     1      13.334  -4.692   0.000  0.00  0.00    +0.000 C 
BRANCH  37  38
ATOM     38  C   UNL     1      12.592  -5.104   0.000  0.00  0.00    +0.000 C 
BRANCH  38  40
ATOM     39  N   UNL     1      13.306  -6.342   0.000  0.00  0.00    +0.000 NA
ATOM     40  C   UNL     1      12.592  -5.929   0.000  0.00  0.00    +0.000 C 
ATOM     41  O   UNL     1      11.877  -6.342   0.000  0.00  0.00    +0.000 OA
BRANCH  39  42
ATOM     42  C   UNL     1      14.021  -5.929   0.000  0.00  0.00    +0.000 C 
BRANCH  42  43
ATOM     43  C   UNL     1      14.763  -6.342   0.000  0.00  0.00    +0.000 C 
ATOM     44  S   UNL     1      15.478  -5.929   0.000  0.00  0.00    +0.000 S 
ENDBRANCH  42  43
ENDBRANCH  39  42
ENDBRANCH  38  40
ENDBRANCH  37  38
ENDBRANCH  34  37
ENDBRANCH  32  36
ENDBRANCH  30  32
ENDBRANCH  28  30
ENDBRANCH  27  28
ENDBRANCH  26  27
ENDBRANCH   1  26
TORSDOF 16
