REMARK  Name = 
REMARK  11 active torsions:
REMARK  status: ('A' for Active; 'I' for Inactive)
REMARK    1  A    between atoms: SG_1  and  CB_17
REMARK    2  A    between atoms: SG_1  and  C_21
REMARK    3  A    between atoms: N_9  and  CA_12
REMARK    4  A    between atoms: N_10  and  CA_20
REMARK    5  A    between atoms: CA_12  and  CB_17
REMARK    6  A    between atoms: CA_12  and  C_18
REMARK    7  A    between atoms: C_13  and  C_14
REMARK    8  A    between atoms: C_13  and  CA_15
REMARK    9  A    between atoms: C_14  and  C_16
REMARK   10  A    between atoms: CA_15  and  C_19
REMARK   11  A    between atoms: CA_20  and  C_22
REMARK                            x       y       z     vdW  Elec       q    Type
REMARK                         _______ _______ _______ _____ _____    ______ ____
ROOT
ATOM      1  CA  UNL     1       7.094   0.747   0.000  0.00  0.00    +0.000 C 
ENDROOT
BRANCH   1   3
ATOM      2  O   UNL     1       5.665  -0.078   0.000  0.00  0.00    +0.000 OA
ATOM      3  N   UNL     1       6.379   1.159   0.000  0.00  0.00    +0.000 NA
ATOM      4  C   UNL     1       5.665   0.747   0.000  0.00  0.00    +0.000 C 
BRANCH   4   5
ATOM      5  C   UNL     1       4.950   1.159   0.000  0.00  0.00    +0.000 C 
BRANCH   5   6
ATOM      6  C   UNL     1       4.236   0.747   0.000  0.00  0.00    +0.000 C 
BRANCH   6   8
ATOM      7  N   UNL     1       3.522   1.984   0.000  0.00  0.00    +0.000 NA
ATOM      8  CA  UNL     1       3.522   1.159   0.000  0.00  0.00    +0.000 C 
BRANCH   8  11
ATOM      9  O   UNL     1       2.093   1.159   0.000  0.00  0.00    +0.000 OA
ATOM     10  OXT UNL     1       2.807  -0.078   0.000  0.00  0.00    +0.000 OA
ATOM     11  C   UNL     1       2.807   0.747   0.000  0.00  0.00    +0.000 C 
ENDBRANCH   8  11
ENDBRANCH   6   8
ENDBRANCH   5   6
ENDBRANCH   4   5
ENDBRANCH   1   3
BRANCH   1  14
ATOM     12  O   UNL     1       7.808   1.984   0.000  0.00  0.00    +0.000 OA
ATOM     13  N   UNL     1       8.523   0.747   0.000  0.00  0.00    +0.000 NA
ATOM     14  C   ACE A   1       7.808   1.159   0.000  0.00  0.00    +0.000 C 
BRANCH  13  15
ATOM     15  CA  UNL     1       9.237   1.159   0.000  0.00  0.00    +0.000 C 
BRANCH  15  18
ATOM     16  O   UNL     1      10.666   1.159   0.000  0.00  0.00    +0.000 OA
ATOM     17  OXT UNL     1       9.951  -0.078   0.000  0.00  0.00    +0.000 OA
ATOM     18  C   UNL     1       9.951   0.747   0.000  0.00  0.00    +0.000 C 
ENDBRANCH  15  18
ENDBRANCH  13  15
ENDBRANCH   1  14
BRANCH   1  19
ATOM     19  CB  UNL     1       7.094  -0.078   0.000  0.00  0.00    +0.000 C 
BRANCH  19  20
ATOM     20  SG  UNL     1       6.379  -0.491   0.000  0.00  0.00    +0.000 S 
BRANCH  20  22
ATOM     21  O   UNL     1       5.665  -1.728   0.000  0.00  0.00    +0.000 OA
ATOM     22  C   UNL     1       6.379  -1.316   0.000  0.00  0.00    +0.000 C 
ENDBRANCH  20  22
ENDBRANCH  19  20
ENDBRANCH   1  19
TORSDOF 11
