REMARK  Name = 
REMARK  5 active torsions:
REMARK  status: ('A' for Active; 'I' for Inactive)
REMARK    1  A    between atoms: S_2  and  C_13
REMARK    2  A    between atoms: S_2  and  C_14
REMARK    3  A    between atoms: N_7  and  C_8
REMARK    4  A    between atoms: C_12  and  C_13
REMARK    5  A    between atoms: C_14  and  C_15
REMARK                            x       y       z     vdW  Elec       q    Type
REMARK                         _______ _______ _______ _____ _____    ______ ____
ROOT
ATOM      1  O   UNL     1       4.531  -0.937   0.000  0.00  0.00    +0.000 OA
ATOM      2  N   UNL     1       3.102  -0.937   0.000  0.00  0.00    +0.000 NA
ATOM      3  C   UNL     1       3.817  -0.524   0.000  0.00  0.00    +0.000 C 
ENDROOT
BRANCH   2   6
ATOM      4  S   UNL     1       2.690  -3.031   0.000  0.00  0.00    +0.000 S 
ATOM      5  O   UNL     1       1.650  -1.992   0.000  0.00  0.00    +0.000 OA
ATOM      6  C   UNL     1       3.102  -1.762   0.000  0.00  0.00    +0.000 C 
ATOM      7  C   UNL     1       3.770  -2.247   0.000  0.00  0.00    +0.000 C 
ATOM      8  C   UNL     1       3.515  -3.031   0.000  0.00  0.00    +0.000 C 
ATOM      9  C   UNL     1       2.435  -2.247   0.000  0.00  0.00    +0.000 C 
ENDBRANCH   2   6
BRANCH   3  10
ATOM     10  C   UNL     1       3.817   0.301   0.000  0.00  0.00    +0.000 C 
BRANCH  10  11
ATOM     11  S   UNL     1       4.531   0.713   0.000  0.00  0.00    +0.000 S 
BRANCH  11  12
ATOM     12  C   UNL     1       4.531   1.538   0.000  0.00  0.00    +0.000 C 
BRANCH  12  15
ATOM     13  O   UNL     1       5.245   2.776   0.000  0.00  0.00    +0.000 OA
ATOM     14  O   UNL     1       5.960   1.538   0.000  0.00  0.00    +0.000 OA
ATOM     15  C   UNL     1       5.245   1.951   0.000  0.00  0.00    +0.000 C 
ENDBRANCH  12  15
ENDBRANCH  11  12
ENDBRANCH  10  11
ENDBRANCH   3  10
TORSDOF 5
