REMARK  Name = 
REMARK  7 active torsions:
REMARK  status: ('A' for Active; 'I' for Inactive)
REMARK    1  A    between atoms: C_2  and  C_4
REMARK    2  A    between atoms: C_4  and  C_5
REMARK    3  A    between atoms: C_19  and  C_39
REMARK    4  A    between atoms: C_23  and  C_28
REMARK    5  A    between atoms: C_28  and  C_29
REMARK    6  A    between atoms: C_42  and  C_43
REMARK    7  A    between atoms: C_43  and  P_44
REMARK                            x       y       z     vdW  Elec       q    Type
REMARK                         _______ _______ _______ _____ _____    ______ ____
ROOT
ATOM      1  C   UNL     1      -1.019  -9.972   0.000  0.00  0.00    +0.000 C 
ATOM      2  N   UNL     1      -1.305 -10.746   0.000  0.00  0.00    +0.000 NA
ATOM      3  C   UNL     1      -2.129 -10.713   0.000  0.00  0.00    +0.000 C 
ATOM      4  O   UNL     1      -2.870 -10.778   0.000  0.00  0.00    +0.000 OA
ATOM      5  C   UNL     1      -2.353  -9.919   0.000  0.00  0.00    +0.000 C 
ATOM      6  C   UNL     1      -1.790 -10.523   0.000  0.00  0.00    +0.000 C 
ATOM      7  C   UNL     1      -2.032 -11.311   0.000  0.00  0.00    +0.000 C 
ATOM      8  C   UNL     1      -2.836 -11.496   0.000  0.00  0.00    +0.000 C 
ATOM      9  C   UNL     1      -3.398 -10.893   0.000  0.00  0.00    +0.000 C 
ATOM     10  C   UNL     1      -3.157 -10.104   0.000  0.00  0.00    +0.000 C 
ATOM     11  N   UNL     1      -3.094  -9.404   0.000  0.00  0.00    +0.000 NA
ATOM     12  C   UNL     1      -3.062  -8.580   0.000  0.00  0.00    +0.000 C 
ATOM     13  O   UNL     1      -2.211  -8.482   0.000  0.00  0.00    +0.000 OA
ATOM     14  C   UNL     1      -3.759  -8.139   0.000  0.00  0.00    +0.000 C 
ATOM     15  C   UNL     1      -3.726  -7.315   0.000  0.00  0.00    +0.000 C 
ATOM     16  C   UNL     1      -2.996  -6.931   0.000  0.00  0.00    +0.000 C 
ATOM     17  C   UNL     1      -2.298  -7.372   0.000  0.00  0.00    +0.000 C 
ATOM     18  C   UNL     1      -1.568  -6.988   0.000  0.00  0.00    +0.000 C 
ATOM     19  C   UNL     1      -0.871  -7.428   0.000  0.00  0.00    +0.000 C 
ATOM     20  C   UNL     1      -0.903  -8.253   0.000  0.00  0.00    +0.000 C 
ATOM     21  N   UNL     1      -0.206  -8.693   0.000  0.00  0.00    +0.000 NA
ATOM     22  C   UNL     1      -0.239  -9.518   0.000  0.00  0.00    +0.000 C 
ATOM     23  O   UNL     1       0.578  -9.722   0.000  0.00  0.00    +0.000 OA
ENDROOT
BRANCH  15  24
ATOM     24  C   UNL     1      -4.424  -6.874   0.000  0.00  0.00    +0.000 A 
ATOM     25  C   UNL     1      -5.154  -7.258   0.000  0.00  0.00    +0.000 A 
ATOM     26  C   UNL     1      -5.851  -6.817   0.000  0.00  0.00    +0.000 A 
ATOM     27  C   UNL     1      -5.819  -5.993   0.000  0.00  0.00    +0.000 A 
ATOM     28  C   UNL     1      -5.088  -5.609   0.000  0.00  0.00    +0.000 A 
ATOM     29  C   UNL     1      -4.391  -6.050   0.000  0.00  0.00    +0.000 A 
BRANCH  27  30
ATOM     30  C   UNL     1      -6.516  -5.552   0.000  0.00  0.00    +0.000 C 
BRANCH  30  31
ATOM     31  P   UNL     1      -7.247  -5.936   0.000  0.00  0.00    +0.000 P 
ATOM     32  O   UNL     1      -7.977  -6.320   0.000  0.00  0.00    +0.000 OA
ATOM     33  O   UNL     1      -7.630  -5.206   0.000  0.00  0.00    +0.000 OA
ATOM     34  O   UNL     1      -6.863  -6.666   0.000  0.00  0.00    +0.000 OA
ENDBRANCH  30  31
ENDBRANCH  27  30
ENDBRANCH  15  24
BRANCH  19  35
ATOM     35  C   UNL     1      -0.107  -7.028   0.000  0.00  0.00    +0.000 C 
BRANCH  35  36
ATOM     36  C   UNL     1      -0.107  -6.220   0.000  0.00  0.00    +0.000 A 
ATOM     37  C   UNL     1      -0.822  -5.808   0.000  0.00  0.00    +0.000 A 
ATOM     38  C   UNL     1      -0.822  -4.983   0.000  0.00  0.00    +0.000 A 
ATOM     39  C   UNL     1      -0.107  -4.570   0.000  0.00  0.00    +0.000 A 
ATOM     40  C   UNL     1       0.607  -4.983   0.000  0.00  0.00    +0.000 A 
ATOM     41  C   UNL     1       1.321  -4.570   0.000  0.00  0.00    +0.000 A 
ATOM     42  C   UNL     1       2.036  -4.983   0.000  0.00  0.00    +0.000 A 
ATOM     43  C   UNL     1       2.036  -5.808   0.000  0.00  0.00    +0.000 A 
ATOM     44  C   UNL     1       1.321  -6.220   0.000  0.00  0.00    +0.000 A 
ATOM     45  C   UNL     1       0.607  -5.808   0.000  0.00  0.00    +0.000 A 
ENDBRANCH  35  36
ENDBRANCH  19  35
BRANCH   1  46
ATOM     46  C   UNL     1      -0.557 -10.707   0.000  0.00  0.00    +0.000 C 
BRANCH  46  48
ATOM     47  N   UNL     1      -0.625 -12.148   0.000  0.00  0.00    +0.000 NA
ATOM     48  C   UNL     1      -0.175 -11.456   0.000  0.00  0.00    +0.000 C 
ATOM     49  O   UNL     1       0.648 -11.499   0.000  0.00  0.00    +0.000 OA
ENDBRANCH  46  48
ENDBRANCH   1  46
TORSDOF 7
