REMARK  Name = 
REMARK  3 active torsions:
REMARK  status: ('A' for Active; 'I' for Inactive)
REMARK    1  A    between atoms: C_18  and  O_19
REMARK    2  A    between atoms: O_19  and  C_34
REMARK    3  A    between atoms: C_37  and  O_38
REMARK                            x       y       z     vdW  Elec       q    Type
REMARK                         _______ _______ _______ _____ _____    ______ ____
ROOT
ATOM      1  C   UNL     1      19.800  -6.675   0.000  0.00  0.00    +0.000 C 
ATOM      2  C   UNL     1      19.800  -7.541   0.000  0.00  0.00    +0.000 C 
ATOM      3  O   UNL     1      21.244  -7.500   0.000  0.00  0.00    +0.000 OA
ATOM      4  C   UNL     1      21.244  -6.675   0.000  0.00  0.00    +0.000 C 
ATOM      5  C   UNL     1      20.501  -6.262   0.000  0.00  0.00    +0.000 C 
ATOM      6  C   UNL     1      22.646  -6.675   0.000  0.00  0.00    +0.000 C 
ATOM      7  C   UNL     1      21.945  -6.262   0.000  0.00  0.00    +0.000 C 
ATOM      8  C   UNL     1      23.389  -7.953   0.000  0.00  0.00    +0.000 C 
ATOM      9  C   UNL     1      24.090  -7.541   0.000  0.00  0.00    +0.000 C 
ATOM     10  C   UNL     1      24.090  -6.675   0.000  0.00  0.00    +0.000 C 
ATOM     11  C   UNL     1      23.389  -6.262   0.000  0.00  0.00    +0.000 C 
ATOM     12  C   UNL     1      21.945  -5.437   0.000  0.00  0.00    +0.000 C 
ATOM     13  C   UNL     1      20.501  -5.437   0.000  0.00  0.00    +0.000 C 
ATOM     14  O   UNL     1      19.099  -6.262   0.000  0.00  0.00    +0.000 OA
ATOM     15  C   UNL     1      24.791  -7.953   0.000  0.00  0.00    +0.000 C 
ATOM     16  O   UNL     1      22.687  -7.541   0.000  0.00  0.00    +0.000 OA
ATOM     17  N   UNL     1      23.389  -8.943   0.000  0.00  0.00    +0.000 NA
ATOM     18  C   UNL     1      19.099  -7.953   0.000  0.00  0.00    +0.000 C 
ATOM     19  C   UNL     1      19.099  -8.943   0.000  0.00  0.00    +0.000 C 
ATOM     20  C   UNL     1      22.687  -9.356   0.000  0.00  0.00    +0.000 A 
ATOM     21  C   UNL     1      22.687 -10.181   0.000  0.00  0.00    +0.000 A 
ATOM     22  C   UNL     1      21.945  -8.943   0.000  0.00  0.00    +0.000 A 
ATOM     23  C   UNL     1      21.244  -9.356   0.000  0.00  0.00    +0.000 A 
ATOM     24  C   UNL     1      21.244 -10.181   0.000  0.00  0.00    +0.000 A 
ATOM     25  C   UNL     1      21.945 -10.593   0.000  0.00  0.00    +0.000 A 
ATOM     26  C   UNL     1      20.543  -8.943   0.000  0.00  0.00    +0.000 A 
ATOM     27  C   UNL     1      19.800  -9.356   0.000  0.00  0.00    +0.000 A 
ATOM     28  C   UNL     1      19.800 -10.181   0.000  0.00  0.00    +0.000 A 
ATOM     29  C   UNL     1      20.543 -10.593   0.000  0.00  0.00    +0.000 A 
ATOM     30  O   UNL     1      21.945  -8.118   0.000  0.00  0.00    +0.000 OA
ATOM     31  O   UNL     1      20.543  -8.118   0.000  0.00  0.00    +0.000 OA
ATOM     32  C   UNL     1      19.099  -6.881   0.000  0.00  0.00    +0.000 C 
ATOM     33  C   UNL     1      18.398  -9.356   0.000  0.00  0.00    +0.000 C 
ATOM     34  C   UNL     1      18.398 -10.181   0.000  0.00  0.00    +0.000 C 
ATOM     35  C   UNL     1      18.398  -8.366   0.000  0.00  0.00    +0.000 C 
ATOM     36  C   UNL     1      17.696 -10.593   0.000  0.00  0.00    +0.000 C 
ATOM     37  O   UNL     1      17.696 -11.418   0.000  0.00  0.00    +0.000 OA
ATOM     38  O   UNL     1      19.099 -10.593   0.000  0.00  0.00    +0.000 OA
ATOM     39  C   UNL     1      19.099 -11.418   0.000  0.00  0.00    +0.000 C 
ATOM     40  C   UNL     1      20.543 -11.418   0.000  0.00  0.00    +0.000 C 
ATOM     41  C   UNL     1      19.099 -12.243   0.000  0.00  0.00    +0.000 C 
ATOM     42  C   UNL     1      19.800  -8.531   0.000  0.00  0.00    +0.000 C 
ATOM     43  N   UNL     1      21.945 -11.418   0.000  0.00  0.00    +0.000 NA
ATOM     44  C   UNL     1      23.389 -11.418   0.000  0.00  0.00    +0.000 A 
ATOM     45  N   UNL     1      23.389 -10.593   0.000  0.00  0.00    +0.000 N 
ATOM     46  O   UNL     1      21.202 -11.831   0.000  0.00  0.00    +0.000 OA
ATOM     47  C   UNL     1      24.136 -11.850   0.000  0.00  0.00    +0.000 A 
ATOM     48  C   UNL     1      24.884 -11.418   0.000  0.00  0.00    +0.000 A 
ATOM     49  C   UNL     1      24.884 -10.593   0.000  0.00  0.00    +0.000 A 
ATOM     50  C   UNL     1      24.136 -10.162   0.000  0.00  0.00    +0.000 A 
ATOM     51  C   UNL     1      25.650 -11.860   0.000  0.00  0.00    +0.000 C 
ENDROOT
BRANCH  33  52
ATOM     52  O   UNL     1      17.696  -8.943   0.000  0.00  0.00    +0.000 OA
ATOM     53  C   UNL     1      16.995  -9.356   0.000  0.00  0.00    +0.000 C 
ENDBRANCH  33  52
BRANCH  18  54
ATOM     54  O   UNL     1      18.398  -7.541   0.000  0.00  0.00    +0.000 OA
BRANCH  54  55
ATOM     55  C   UNL     1      17.655  -7.128   0.000  0.00  0.00    +0.000 C 
ATOM     56  C   UNL     1      16.954  -7.541   0.000  0.00  0.00    +0.000 C 
ATOM     57  O   UNL     1      17.655  -6.303   0.000  0.00  0.00    +0.000 OA
ENDBRANCH  54  55
ENDBRANCH  18  54
TORSDOF 3
