REMARK  Name = 
REMARK  7 active torsions:
REMARK  status: ('A' for Active; 'I' for Inactive)
REMARK    1  A    between atoms: O_1  and  C_2
REMARK    2  A    between atoms: O_1  and  C_31
REMARK    3  A    between atoms: C_18  and  C_19
REMARK    4  A    between atoms: C_34  and  O_37
REMARK    5  A    between atoms: O_37  and  C_38
REMARK    6  A    between atoms: C_43  and  O_48
REMARK    7  A    between atoms: C_47  and  O_48
REMARK                            x       y       z     vdW  Elec       q    Type
REMARK                         _______ _______ _______ _____ _____    ______ ____
ROOT
ATOM      1  O   UNL     1      13.301  -7.704   0.000  0.00  0.00    +0.000 OA
ENDROOT
BRANCH   1   2
ATOM      2  C   UNL     1      14.005  -7.249   0.000  0.00  0.00    +0.000 C 
ATOM      3  C   UNL     1      14.719  -7.661   0.000  0.00  0.00    +0.000 C 
ATOM      4  C   UNL     1      15.434  -7.249   0.000  0.00  0.00    +0.000 C 
ATOM      5  C   UNL     1      15.434  -6.424   0.000  0.00  0.00    +0.000 C 
ATOM      6  C   UNL     1      14.719  -6.011   0.000  0.00  0.00    +0.000 C 
ATOM      7  C   UNL     1      14.005  -6.424   0.000  0.00  0.00    +0.000 C 
ATOM      8  C   UNL     1      16.148  -7.661   0.000  0.00  0.00    +0.000 C 
ATOM      9  C   UNL     1      16.863  -7.249   0.000  0.00  0.00    +0.000 C 
ATOM     10  C   UNL     1      16.863  -6.424   0.000  0.00  0.00    +0.000 C 
ATOM     11  C   UNL     1      16.148  -6.011   0.000  0.00  0.00    +0.000 C 
ATOM     12  C   UNL     1      17.577  -6.011   0.000  0.00  0.00    +0.000 C 
ATOM     13  C   UNL     1      17.577  -5.186   0.000  0.00  0.00    +0.000 C 
ATOM     14  C   UNL     1      16.863  -4.774   0.000  0.00  0.00    +0.000 C 
ATOM     15  C   UNL     1      16.148  -5.186   0.000  0.00  0.00    +0.000 C 
ATOM     16  C   UNL     1      18.362  -6.266   0.000  0.00  0.00    +0.000 C 
ATOM     17  C   UNL     1      18.847  -5.599   0.000  0.00  0.00    +0.000 C 
ATOM     18  C   UNL     1      18.362  -4.931   0.000  0.00  0.00    +0.000 C 
ATOM     19  C   UNL     1      17.577  -4.361   0.000  0.00  0.00    +0.000 C 
ATOM     20  O   UNL     1      17.577  -6.836   0.000  0.00  0.00    +0.000 OA
ATOM     21  C   UNL     1      15.434  -5.599   0.000  0.00  0.00    +0.000 C 
ATOM     22  O   UNL     1      16.863  -3.948   0.000  0.00  0.00    +0.000 OA
BRANCH  18  23
ATOM     23  C   UNL     1      18.620  -4.134   0.000  0.00  0.00    +0.000 C 
ATOM     24  C   UNL     1      19.452  -4.151   0.000  0.00  0.00    +0.000 C 
ATOM     25  C   UNL     1      19.726  -3.368   0.000  0.00  0.00    +0.000 C 
ATOM     26  O   UNL     1      19.066  -2.866   0.000  0.00  0.00    +0.000 OA
ATOM     27  C   UNL     1      18.384  -3.338   0.000  0.00  0.00    +0.000 C 
ATOM     28  O   UNL     1      20.506  -3.133   0.000  0.00  0.00    +0.000 OA
ENDBRANCH  18  23
ENDBRANCH   1   2
BRANCH   1  29
ATOM     29  C   UNL     1      12.563  -7.327   0.000  0.00  0.00    +0.000 C 
ATOM     30  O   UNL     1      12.563  -6.502   0.000  0.00  0.00    +0.000 OA
ATOM     31  C   UNL     1      11.849  -6.090   0.000  0.00  0.00    +0.000 C 
ATOM     32  C   UNL     1      11.134  -6.502   0.000  0.00  0.00    +0.000 C 
ATOM     33  C   UNL     1      11.134  -7.327   0.000  0.00  0.00    +0.000 C 
ATOM     34  C   UNL     1      11.849  -7.740   0.000  0.00  0.00    +0.000 C 
ATOM     35  O   UNL     1      10.420  -7.740   0.000  0.00  0.00    +0.000 OA
ATOM     36  C   UNL     1      11.848  -5.253   0.000  0.00  0.00    +0.000 C 
BRANCH  32  37
ATOM     37  O   UNL     1      10.420  -6.090   0.000  0.00  0.00    +0.000 OA
BRANCH  37  38
ATOM     38  C   UNL     1       9.705  -6.502   0.000  0.00  0.00    +0.000 C 
ATOM     39  O   UNL     1       9.705  -7.327   0.000  0.00  0.00    +0.000 OA
ATOM     40  C   UNL     1       8.991  -6.090   0.000  0.00  0.00    +0.000 C 
ATOM     41  C   UNL     1       8.276  -6.502   0.000  0.00  0.00    +0.000 C 
ATOM     42  C   UNL     1       8.276  -7.327   0.000  0.00  0.00    +0.000 C 
ATOM     43  C   UNL     1       8.991  -7.740   0.000  0.00  0.00    +0.000 C 
ATOM     44  O   UNL     1       7.562  -6.090   0.000  0.00  0.00    +0.000 OA
ATOM     45  C   UNL     1       8.991  -8.553   0.000  0.00  0.00    +0.000 C 
BRANCH  42  46
ATOM     46  O   UNL     1       7.562  -7.740   0.000  0.00  0.00    +0.000 OA
BRANCH  46  48
ATOM     47  O   UNL     1       6.847  -6.502   0.000  0.00  0.00    +0.000 OA
ATOM     48  C   UNL     1       6.847  -7.327   0.000  0.00  0.00    +0.000 C 
ATOM     49  C   UNL     1       6.133  -6.090   0.000  0.00  0.00    +0.000 C 
ATOM     50  C   UNL     1       5.418  -6.502   0.000  0.00  0.00    +0.000 C 
ATOM     51  C   UNL     1       5.418  -7.327   0.000  0.00  0.00    +0.000 C 
ATOM     52  C   UNL     1       6.133  -7.740   0.000  0.00  0.00    +0.000 C 
ATOM     53  O   UNL     1       4.704  -6.090   0.000  0.00  0.00    +0.000 OA
ATOM     54  O   UNL     1       4.704  -7.740   0.000  0.00  0.00    +0.000 OA
ATOM     55  C   UNL     1       6.133  -5.253   0.000  0.00  0.00    +0.000 C 
ENDBRANCH  46  48
ENDBRANCH  42  46
ENDBRANCH  37  38
ENDBRANCH  32  37
ENDBRANCH   1  29
TORSDOF 7
