REMARK  Name = 
REMARK  6 active torsions:
REMARK  status: ('A' for Active; 'I' for Inactive)
REMARK    1  A    between atoms: P_5  and  O_7
REMARK    2  A    between atoms: O_7  and  P_8
REMARK    3  A    between atoms: P_14  and  O_16
REMARK    4  A    between atoms: O_16  and  P_17
REMARK    5  A    between atoms: P_23  and  O_25
REMARK    6  A    between atoms: O_25  and  P_26
REMARK                            x       y       z     vdW  Elec       q    Type
REMARK                         _______ _______ _______ _____ _____    ______ ____
ROOT
ATOM      1 FE   UNL     1      -2.518  -1.780   0.000  0.00  0.00    +0.000 Fe
ENDROOT
TORSDOF 0
REMARK  Name = 
REMARK  6 active torsions:
REMARK  status: ('A' for Active; 'I' for Inactive)
REMARK    1  A    between atoms: P_5  and  O_7
REMARK    2  A    between atoms: O_7  and  P_8
REMARK    3  A    between atoms: P_14  and  O_16
REMARK    4  A    between atoms: O_16  and  P_17
REMARK    5  A    between atoms: P_23  and  O_25
REMARK    6  A    between atoms: O_25  and  P_26
REMARK                            x       y       z     vdW  Elec       q    Type
REMARK                         _______ _______ _______ _____ _____    ______ ____
ROOT
ATOM      1 FE   UNL     1      -2.518  -1.216   0.000  0.00  0.00    +0.000 Fe
ENDROOT
TORSDOF 0
REMARK  Name = 
REMARK  6 active torsions:
REMARK  status: ('A' for Active; 'I' for Inactive)
REMARK    1  A    between atoms: P_5  and  O_7
REMARK    2  A    between atoms: O_7  and  P_8
REMARK    3  A    between atoms: P_14  and  O_16
REMARK    4  A    between atoms: O_16  and  P_17
REMARK    5  A    between atoms: P_23  and  O_25
REMARK    6  A    between atoms: O_25  and  P_26
REMARK                            x       y       z     vdW  Elec       q    Type
REMARK                         _______ _______ _______ _____ _____    ______ ____
ROOT
ATOM      1  O   UNL     1       0.868  -2.127   0.000  0.00  0.00    +0.000 OA
ENDROOT
BRANCH   1   4
ATOM      2  O   UNL     1       0.044  -2.953   0.000  0.00  0.00    +0.000 OA
ATOM      3  O   UNL     1      -0.825  -2.127   0.000  0.00  0.00    +0.000 OA
ATOM      4  P   UNL     1       0.044  -2.127   0.000  0.00  0.00    +0.000 P 
ATOM      5  O   UNL     1       0.044  -1.302   0.000  0.00  0.00    +0.000 OA
ENDBRANCH   1   4
BRANCH   1   6
ATOM      6  P   UNL     1       1.693  -2.127   0.000  0.00  0.00    +0.000 P 
ATOM      7  O   UNL     1       1.693  -1.346   0.000  0.00  0.00    +0.000 OA
ATOM      8  O   UNL     1       1.693  -2.953   0.000  0.00  0.00    +0.000 OA
ATOM      9  O   UNL     1       2.518  -2.127   0.000  0.00  0.00    +0.000 OA
ENDBRANCH   1   6
TORSDOF 2
REMARK  Name = 
REMARK  6 active torsions:
REMARK  status: ('A' for Active; 'I' for Inactive)
REMARK    1  A    between atoms: P_5  and  O_7
REMARK    2  A    between atoms: O_7  and  P_8
REMARK    3  A    between atoms: P_14  and  O_16
REMARK    4  A    between atoms: O_16  and  P_17
REMARK    5  A    between atoms: P_23  and  O_25
REMARK    6  A    between atoms: O_25  and  P_26
REMARK                            x       y       z     vdW  Elec       q    Type
REMARK                         _______ _______ _______ _____ _____    ______ ____
ROOT
ATOM      1  O   UNL     1       0.651   0.043   0.000  0.00  0.00    +0.000 OA
ENDROOT
BRANCH   1   4
ATOM      2  O   UNL     1      -0.173  -0.781   0.000  0.00  0.00    +0.000 OA
ATOM      3  O   UNL     1      -0.999   0.043   0.000  0.00  0.00    +0.000 OA
ATOM      4  P   UNL     1      -0.173   0.043   0.000  0.00  0.00    +0.000 P 
ATOM      5  O   UNL     1      -0.173   0.868   0.000  0.00  0.00    +0.000 OA
ENDBRANCH   1   4
BRANCH   1   6
ATOM      6  P   UNL     1       1.476   0.043   0.000  0.00  0.00    +0.000 P 
ATOM      7  O   UNL     1       1.520   0.781   0.000  0.00  0.00    +0.000 OA
ATOM      8  O   UNL     1       1.476  -0.781   0.000  0.00  0.00    +0.000 OA
ATOM      9  O   UNL     1       2.301   0.043   0.000  0.00  0.00    +0.000 OA
ENDBRANCH   1   6
TORSDOF 2
REMARK  Name = 
REMARK  6 active torsions:
REMARK  status: ('A' for Active; 'I' for Inactive)
REMARK    1  A    between atoms: P_5  and  O_7
REMARK    2  A    between atoms: O_7  and  P_8
REMARK    3  A    between atoms: P_14  and  O_16
REMARK    4  A    between atoms: O_16  and  P_17
REMARK    5  A    between atoms: P_23  and  O_25
REMARK    6  A    between atoms: O_25  and  P_26
REMARK                            x       y       z     vdW  Elec       q    Type
REMARK                         _______ _______ _______ _____ _____    ______ ____
ROOT
ATOM      1  O   UNL     1       0.695   2.127   0.000  0.00  0.00    +0.000 OA
ENDROOT
BRANCH   1   4
ATOM      2  O   UNL     1      -0.173   1.302   0.000  0.00  0.00    +0.000 OA
ATOM      3  O   UNL     1      -0.999   2.127   0.000  0.00  0.00    +0.000 OA
ATOM      4  P   UNL     1      -0.173   2.127   0.000  0.00  0.00    +0.000 P 
ATOM      5  O   UNL     1      -0.173   2.953   0.000  0.00  0.00    +0.000 OA
ENDBRANCH   1   4
BRANCH   1   6
ATOM      6  P   UNL     1       1.520   2.127   0.000  0.00  0.00    +0.000 P 
ATOM      7  O   UNL     1       1.520   2.866   0.000  0.00  0.00    +0.000 OA
ATOM      8  O   UNL     1       1.520   1.302   0.000  0.00  0.00    +0.000 OA
ATOM      9  O   UNL     1       2.345   2.127   0.000  0.00  0.00    +0.000 OA
ENDBRANCH   1   6
TORSDOF 2
REMARK  Name = 
REMARK  6 active torsions:
REMARK  status: ('A' for Active; 'I' for Inactive)
REMARK    1  A    between atoms: P_5  and  O_7
REMARK    2  A    between atoms: O_7  and  P_8
REMARK    3  A    between atoms: P_14  and  O_16
REMARK    4  A    between atoms: O_16  and  P_17
REMARK    5  A    between atoms: P_23  and  O_25
REMARK    6  A    between atoms: O_25  and  P_26
REMARK                            x       y       z     vdW  Elec       q    Type
REMARK                         _______ _______ _______ _____ _____    ______ ____
ROOT
ATOM      1 FE   UNL     1      -2.475  -0.608   0.000  0.00  0.00    +0.000 Fe
ENDROOT
TORSDOF 0
REMARK  Name = 
REMARK  6 active torsions:
REMARK  status: ('A' for Active; 'I' for Inactive)
REMARK    1  A    between atoms: P_5  and  O_7
REMARK    2  A    between atoms: O_7  and  P_8
REMARK    3  A    between atoms: P_14  and  O_16
REMARK    4  A    between atoms: O_16  and  P_17
REMARK    5  A    between atoms: P_23  and  O_25
REMARK    6  A    between atoms: O_25  and  P_26
REMARK                            x       y       z     vdW  Elec       q    Type
REMARK                         _______ _______ _______ _____ _____    ______ ____
ROOT
ATOM      1 FE   UNL     1      -2.518   0.304   0.000  0.00  0.00    +0.000 Fe
ENDROOT
TORSDOF 0
