REMARK  Name = 
REMARK  6 active torsions:
REMARK  status: ('A' for Active; 'I' for Inactive)
REMARK    1  A    between atoms: C_2  and  O_4
REMARK    2  A    between atoms: O_4  and  C_5
REMARK    3  A    between atoms: N_11  and  C_13
REMARK    4  A    between atoms: C_13  and  C_14
REMARK    5  A    between atoms: C_13  and  C_19
REMARK    6  A    between atoms: C_14  and  C_16
REMARK                            x       y       z     vdW  Elec       q    Type
REMARK                         _______ _______ _______ _____ _____    ______ ____
ROOT
ATOM      1  C   UNL     1      -0.628  -0.698   0.000  0.00  0.00    +0.000 A 
ATOM      2  C   UNL     1      -0.143  -1.365   0.000  0.00  0.00    +0.000 A 
ATOM      3  C   UNL     1       0.641  -1.110   0.000  0.00  0.00    +0.000 A 
ATOM      4  C   UNL     1       0.641  -0.285   0.000  0.00  0.00    +0.000 A 
ATOM      5  C   UNL     1       1.356   0.127   0.000  0.00  0.00    +0.000 C 
ATOM      6  C   UNL     1       2.070  -0.285   0.000  0.00  0.00    +0.000 C 
ATOM      7  N   UNL     1       2.070  -1.110   0.000  0.00  0.00    +0.000 NA
ATOM      8  C   UNL     1       1.356  -1.523   0.000  0.00  0.00    +0.000 C 
ATOM      9  S   UNL     1      -0.143  -0.030   0.000  0.00  0.00    +0.000 S 
ENDROOT
BRANCH   1  10
ATOM     10  O   UNL     1      -1.453  -0.698   0.000  0.00  0.00    +0.000 OA
BRANCH  10  12
ATOM     11  C   UNL     1      -2.691   0.017   0.000  0.00  0.00    +0.000 C 
ATOM     12  C   UNL     1      -1.866   0.017   0.000  0.00  0.00    +0.000 C 
ATOM     13  O   UNL     1      -1.453   0.731   0.000  0.00  0.00    +0.000 OA
ENDBRANCH  10  12
ENDBRANCH   1  10
BRANCH   7  14
ATOM     14  C   UNL     1       2.784  -1.523   0.000  0.00  0.00    +0.000 C 
BRANCH  14  15
ATOM     15  C   UNL     1       2.784  -2.348   0.000  0.00  0.00    +0.000 A 
ATOM     16  C   UNL     1       3.499  -2.760   0.000  0.00  0.00    +0.000 A 
ATOM     17  C   UNL     1       3.499  -3.585   0.000  0.00  0.00    +0.000 A 
ATOM     18  C   UNL     1       2.784  -3.998   0.000  0.00  0.00    +0.000 A 
ATOM     19  C   UNL     1       2.070  -3.585   0.000  0.00  0.00    +0.000 A 
ATOM     20  C   UNL     1       2.070  -2.760   0.000  0.00  0.00    +0.000 A 
ATOM     21  F   UNL     1       1.356  -2.348   0.000  0.00  0.00    +0.000 F 
ENDBRANCH  14  15
BRANCH  14  22
ATOM     22  C   UNL     1       3.499  -1.110   0.000  0.00  0.00    +0.000 C 
ATOM     23  O   UNL     1       4.213  -1.523   0.000  0.00  0.00    +0.000 OA
BRANCH  22  24
ATOM     24  C   UNL     1       3.499  -0.285   0.000  0.00  0.00    +0.000 C 
ATOM     25  C   UNL     1       3.087   0.429   0.000  0.00  0.00    +0.000 C 
ATOM     26  C   UNL     1       3.912   0.429   0.000  0.00  0.00    +0.000 C 
ENDBRANCH  22  24
ENDBRANCH  14  22
ENDBRANCH   7  14
TORSDOF 6
