REMARK  Name = 
REMARK  12 active torsions:
REMARK  status: ('A' for Active; 'I' for Inactive)
REMARK    1  A    between atoms: C_2  and  C_4
REMARK    2  A    between atoms: C_4  and  C_5
REMARK    3  A    between atoms: C_5  and  N_6
REMARK    4  A    between atoms: C_5  and  C_18
REMARK    5  A    between atoms: C_7  and  C_9
REMARK    6  A    between atoms: C_12  and  N_15
REMARK    7  A    between atoms: C_24  and  C_25
REMARK    8  A    between atoms: N_27  and  C_28
REMARK    9  A    between atoms: C_28  and  C_29
REMARK   10  A    between atoms: C_29  and  C_30
REMARK   11  A    between atoms: C_30  and  C_31
REMARK   12  A    between atoms: C_31  and  N_32
REMARK                            x       y       z     vdW  Elec       q    Type
REMARK                         _______ _______ _______ _____ _____    ______ ____
ROOT
ATOM      1  C   UNL     1      -5.134  -5.637   0.000  0.00  0.00    +0.000 C 
ATOM      2  O   UNL     1      -4.521  -6.189   0.000  0.00  0.00    +0.000 OA
ATOM      3  N   UNL     1      -4.962  -4.830   0.000  0.00  0.00    +0.000 N 
ATOM      4  C   UNL     1      -5.514  -4.217   0.000  0.00  0.00    +0.000 C 
ATOM      5  C   UNL     1      -5.102  -3.502   0.000  0.00  0.00    +0.000 C 
ATOM      6  C   UNL     1      -4.295  -3.674   0.000  0.00  0.00    +0.000 C 
ATOM      7  C   UNL     1      -4.209  -4.495   0.000  0.00  0.00    +0.000 C 
ENDROOT
BRANCH   7   8
ATOM      8  C   UNL     1      -3.494  -4.907   0.000  0.00  0.00    +0.000 C 
ATOM      9  O   UNL     1      -3.494  -5.732   0.000  0.00  0.00    +0.000 OA
ATOM     10  N   UNL     1      -2.780  -4.495   0.000  0.00  0.00    +0.000 NA
BRANCH  10  11
ATOM     11  C   UNL     1      -2.065  -4.907   0.000  0.00  0.00    +0.000 C 
BRANCH  11  12
ATOM     12  C   UNL     1      -1.351  -4.495   0.000  0.00  0.00    +0.000 C 
BRANCH  12  13
ATOM     13  C   UNL     1      -0.636  -4.907   0.000  0.00  0.00    +0.000 C 
BRANCH  13  14
ATOM     14  C   UNL     1       0.078  -4.495   0.000  0.00  0.00    +0.000 C 
BRANCH  14  15
ATOM     15  N   UNL     1       0.793  -4.907   0.000  0.00  0.00    +0.000 NA
ATOM     16  C   UNL     1       1.507  -4.495   0.000  0.00  0.00    +0.000 C 
ATOM     17  N   UNL     1       1.507  -3.670   0.000  0.00  0.00    +0.000 NA
ATOM     18  N   UNL     1       2.222  -4.907   0.000  0.00  0.00    +0.000 NA
ENDBRANCH  14  15
ENDBRANCH  13  14
ENDBRANCH  12  13
ENDBRANCH  11  12
ENDBRANCH  10  11
ENDBRANCH   7   8
BRANCH   1  19
ATOM     19  C   UNL     1      -5.918  -5.892   0.000  0.00  0.00    +0.000 C 
BRANCH  19  20
ATOM     20  N   UNL     1      -6.090  -6.699   0.000  0.00  0.00    +0.000 NA
ATOM     21  C   UNL     1      -6.875  -6.954   0.000  0.00  0.00    +0.000 C 
ATOM     22  O   UNL     1      -7.695  -6.868   0.000  0.00  0.00    +0.000 OA
BRANCH  21  23
ATOM     23  C   UNL     1      -7.046  -7.761   0.000  0.00  0.00    +0.000 A 
ATOM     24  C   UNL     1      -6.433  -8.313   0.000  0.00  0.00    +0.000 A 
ATOM     25  C   UNL     1      -6.604  -9.120   0.000  0.00  0.00    +0.000 A 
ATOM     26  C   UNL     1      -7.389  -9.375   0.000  0.00  0.00    +0.000 A 
ATOM     27  C   UNL     1      -8.002  -8.823   0.000  0.00  0.00    +0.000 A 
ATOM     28  C   UNL     1      -7.831  -8.016   0.000  0.00  0.00    +0.000 A 
BRANCH  26  29
ATOM     29  N   UNL     1      -7.561 -10.182   0.000  0.00  0.00    +0.000 N 
ATOM     30  O   UNL     1      -8.345 -10.437   0.000  0.00  0.00    +0.000 OA
ATOM     31  O   UNL     1      -6.948 -10.734   0.000  0.00  0.00    +0.000 OA
ENDBRANCH  26  29
ENDBRANCH  21  23
ENDBRANCH  19  20
BRANCH  19  32
ATOM     32  C   UNL     1      -6.532  -5.340   0.000  0.00  0.00    +0.000 C 
BRANCH  32  34
ATOM     33  C   UNL     1      -7.488  -6.402   0.000  0.00  0.00    +0.000 C 
ATOM     34  C   UNL     1      -7.316  -5.595   0.000  0.00  0.00    +0.000 C 
ATOM     35  C   UNL     1      -7.929  -5.043   0.000  0.00  0.00    +0.000 C 
ENDBRANCH  32  34
ENDBRANCH  19  32
ENDBRANCH   1  19
TORSDOF 12
