REMARK  Name = 
REMARK  4 active torsions:
REMARK  status: ('A' for Active; 'I' for Inactive)
REMARK    1  A    between atoms: CU_13  and  N_18
REMARK    2  A    between atoms: CU_13  and  N_19
REMARK    3  A    between atoms: CU_13  and  N_20
REMARK    4  A    between atoms: CU_13  and  N_21
REMARK                            x       y       z     vdW  Elec       q    Type
REMARK                         _______ _______ _______ _____ _____    ______ ____
ROOT
ATOM      1 CU   UNL     1       1.777   3.433   0.000  0.00  0.00    +0.000 Cu
ATOM      2  O   UNL     1       2.329   4.046   0.000  0.00  0.00    +0.000 OA
ATOM      3  O   UNL     1       1.225   2.820   0.000  0.00  0.00    +0.000 OA
ENDROOT
BRANCH   1   8
ATOM      4  C   UNL     1      -0.263   2.804   0.000  0.00  0.00    +0.000 A 
ATOM      5  C   UNL     1       0.544   2.632   0.000  0.00  0.00    +0.000 A 
ATOM      6  C   UNL     1       0.405   3.960   0.000  0.00  0.00    +0.000 A 
ATOM      7  N   UNL     1      -0.349   3.624   0.000  0.00  0.00    +0.000 NA
ATOM      8  N   UNL     1       0.957   3.346   0.000  0.00  0.00    +0.000 N 
ENDBRANCH   1   8
BRANCH   1  13
ATOM      9  C   UNL     1       1.365   1.338   0.000  0.00  0.00    +0.000 A 
ATOM     10  C   UNL     1       1.110   2.123   0.000  0.00  0.00    +0.000 A 
ATOM     11  C   UNL     1       2.445   2.123   0.000  0.00  0.00    +0.000 A 
ATOM     12  N   UNL     1       2.190   1.338   0.000  0.00  0.00    +0.000 NA
ATOM     13  N   UNL     1       1.777   2.608   0.000  0.00  0.00    +0.000 N 
ENDBRANCH   1  13
BRANCH   1  18
ATOM     14  C   UNL     1       1.522   5.552   0.000  0.00  0.00    +0.000 A 
ATOM     15  C   UNL     1       2.007   4.885   0.000  0.00  0.00    +0.000 A 
ATOM     16  C   UNL     1       0.738   4.472   0.000  0.00  0.00    +0.000 A 
ATOM     17  N   UNL     1       0.738   5.297   0.000  0.00  0.00    +0.000 NA
ATOM     18  N   UNL     1       1.522   4.217   0.000  0.00  0.00    +0.000 N 
ENDBRANCH   1  18
BRANCH   1  23
ATOM     19  C   UNL     1       3.912   3.401   0.000  0.00  0.00    +0.000 C 
ATOM     20  C   UNL     1       3.197   3.813   0.000  0.00  0.00    +0.000 C 
ATOM     21  C   UNL     1       2.920   2.507   0.000  0.00  0.00    +0.000 C 
ATOM     22  N   UNL     1       3.740   2.594   0.000  0.00  0.00    +0.000 NA
ATOM     23  N   UNL     1       2.584   3.261   0.000  0.00  0.00    +0.000 N 
ENDBRANCH   1  23
TORSDOF 4
