REMARK  Name = 
REMARK  2 active torsions:
REMARK  status: ('A' for Active; 'I' for Inactive)
REMARK    1  A    between atoms: C_5  and  C_6
REMARK    2  A    between atoms: C_8  and  O_11
REMARK                            x       y       z     vdW  Elec       q    Type
REMARK                         _______ _______ _______ _____ _____    ______ ____
ROOT
ATOM      1  C   UNL     1       1.429   0.000   0.000  0.00  0.00    +0.000 A 
ATOM      2  C   UNL     1       1.429   0.825   0.000  0.00  0.00    +0.000 A 
ATOM      3  C   UNL     1       0.000   0.000   0.000  0.00  0.00    +0.000 A 
ATOM      4  C   UNL     1       0.715  -0.412   0.000  0.00  0.00    +0.000 A 
ATOM      5  C   UNL     1       0.715   1.238   0.000  0.00  0.00    +0.000 A 
ATOM      6  C   UNL     1       0.000   0.825   0.000  0.00  0.00    +0.000 A 
ATOM      7  O   UNL     1       0.715   2.062   0.000  0.00  0.00    +0.000 OA
ENDROOT
BRANCH   6   9
ATOM      8  C   UNL     1      -0.715   2.062   0.000  0.00  0.00    +0.000 C 
ATOM      9  O   UNL     1      -0.715   1.238   0.000  0.00  0.00    +0.000 OA
ENDBRANCH   6   9
BRANCH   4  10
ATOM     10  C   UNL     1       0.715  -1.238   0.000  0.00  0.00    +0.000 C 
ATOM     11  O   UNL     1       1.429  -1.650   0.000  0.00  0.00    +0.000 OA
ENDBRANCH   4  10
TORSDOF 2
