REMARK  Name = 
REMARK  6 active torsions:
REMARK  status: ('A' for Active; 'I' for Inactive)
REMARK    1  A    between atoms: CA_3  and  C_21
REMARK    2  A    between atoms: CA_7  and  N_9
REMARK    3  A    between atoms: C_10  and  C_13
REMARK    4  A    between atoms: C_13  and  C_14
REMARK    5  A    between atoms: C_20  and  C_25
REMARK    6  A    between atoms: C_25  and  C_26
REMARK                            x       y       z     vdW  Elec       q    Type
REMARK                         _______ _______ _______ _____ _____    ______ ____
ROOT
ATOM      1  N   UNL     1      22.367 -11.353   0.000  0.00  0.00    +0.000 NA
ATOM      2  C   UNL     1      21.652 -11.765   0.000  0.00  0.00    +0.000 C 
ATOM      3  O   UNL     1      21.652 -12.590   0.000  0.00  0.00    +0.000 OA
ENDROOT
BRANCH   1  10
ATOM      4  CE  UNL     1      23.906 -11.765   0.000  0.00  0.00    +0.000 C 
ATOM      5  N   UNL     1      23.906 -12.590   0.000  0.00  0.00    +0.000 N 
ATOM      6  CA  UNL     1      24.620 -13.002   0.000  0.00  0.00    +0.000 C 
ATOM      7  CB  UNL     1      25.335 -12.590   0.000  0.00  0.00    +0.000 C 
ATOM      8  CG  UNL     1      25.335 -11.765   0.000  0.00  0.00    +0.000 C 
ATOM      9  SD  UNL     1      24.620 -11.353   0.000  0.00  0.00    +0.000 S 
ATOM     10  CA  UNL     1      23.081 -11.765   0.000  0.00  0.00    +0.000 C 
ATOM     11  C   UNL     1      23.081 -12.590   0.000  0.00  0.00    +0.000 C 
ATOM     12  O   UNL     1      22.367 -13.002   0.000  0.00  0.00    +0.000 OA
BRANCH   6  13
ATOM     13  C   UNL     1      24.620 -13.841   0.000  0.00  0.00    +0.000 C 
ATOM     14  O   UNL     1      23.904 -14.254   0.000  0.00  0.00    +0.000 OA
ATOM     15  OXT UNL     1      25.345 -14.259   0.000  0.00  0.00    +0.000 OA
ENDBRANCH   6  13
ENDBRANCH   1  10
BRANCH   2  16
ATOM     16  C   UNL     1      20.938 -11.353   0.000  0.00  0.00    +0.000 C 
ATOM     17  C   UNL     1      20.938 -10.515   0.000  0.00  0.00    +0.000 C 
BRANCH  16  18
ATOM     18  C   UNL     1      20.212 -11.772   0.000  0.00  0.00    +0.000 A 
ATOM     19  C   UNL     1      19.546 -11.273   0.000  0.00  0.00    +0.000 A 
ATOM     20  S   UNL     1      18.862 -11.752   0.000  0.00  0.00    +0.000 S 
ATOM     21  C   UNL     1      19.107 -12.550   0.000  0.00  0.00    +0.000 A 
ATOM     22  N   UNL     1      19.942 -12.522   0.000  0.00  0.00    +0.000 NA
ATOM     23  N   UNL     1      18.600 -13.225   0.000  0.00  0.00    +0.000 NA
ENDBRANCH  16  18
BRANCH  17  24
ATOM     24  C   UNL     1      21.636 -10.112   0.000  0.00  0.00    +0.000 C 
BRANCH  24  25
ATOM     25  C   UNL     1      21.636  -9.285   0.000  0.00  0.00    +0.000 C 
ATOM     26  O   UNL     1      22.344  -8.876   0.000  0.00  0.00    +0.000 OA
ATOM     27  O   UNL     1      20.908  -8.865   0.000  0.00  0.00    +0.000 OA
ENDBRANCH  24  25
ENDBRANCH  17  24
ENDBRANCH   2  16
TORSDOF 6
