REMARK  Name = 
REMARK  9 active torsions:
REMARK  status: ('A' for Active; 'I' for Inactive)
REMARK    1  A    between atoms: C_1  and  C_3
REMARK    2  A    between atoms: C_1  and  O_17
REMARK    3  A    between atoms: C_2  and  C_4
REMARK    4  A    between atoms: C_2  and  O_18
REMARK    5  A    between atoms: C_3  and  C_5
REMARK    6  A    between atoms: C_4  and  C_6
REMARK    7  A    between atoms: C_5  and  C_6
REMARK    8  A    between atoms: O_17  and  P_19
REMARK    9  A    between atoms: O_18  and  P_20
REMARK                            x       y       z     vdW  Elec       q    Type
REMARK                         _______ _______ _______ _____ _____    ______ ____
ROOT
ATOM      1  C   UNL     1       0.825   0.000   0.000  0.00  0.00    +0.000 C 
ATOM      2  O   UNL     1       0.825  -0.825   0.000  0.00  0.00    +0.000 OA
ENDROOT
BRANCH   1   3
ATOM      3  C   UNL     1       1.540   0.412   0.000  0.00  0.00    +0.000 C 
ATOM      4  O   UNL     1       1.540   1.238   0.000  0.00  0.00    +0.000 OA
BRANCH   3   5
ATOM      5  C   UNL     1       2.254   0.000   0.000  0.00  0.00    +0.000 C 
ATOM      6  O   UNL     1       2.254  -0.825   0.000  0.00  0.00    +0.000 OA
BRANCH   5   7
ATOM      7  C   UNL     1       2.968   0.412   0.000  0.00  0.00    +0.000 C 
BRANCH   7   8
ATOM      8  O   UNL     1       3.683   0.000   0.000  0.00  0.00    +0.000 OA
BRANCH   8  12
ATOM      9  O   UNL     1       5.112   0.825   0.000  0.00  0.00    +0.000 OA
ATOM     10  O   UNL     1       4.810  -0.302   0.000  0.00  0.00    +0.000 OA
ATOM     11  O   UNL     1       3.985   1.127   0.000  0.00  0.00    +0.000 OA
ATOM     12  P   UNL     1       4.397   0.412   0.000  0.00  0.00    +0.000 P 
ENDBRANCH   8  12
ENDBRANCH   7   8
ENDBRANCH   5   7
ENDBRANCH   3   5
ENDBRANCH   1   3
BRANCH   1  13
ATOM     13  C   UNL     1       0.111   0.412   0.000  0.00  0.00    +0.000 C 
ATOM     14  O   UNL     1       0.111   1.238   0.000  0.00  0.00    +0.000 OA
BRANCH  13  15
ATOM     15  C   UNL     1      -0.604   0.000   0.000  0.00  0.00    +0.000 C 
BRANCH  15  16
ATOM     16  O   UNL     1      -1.318   0.412   0.000  0.00  0.00    +0.000 OA
BRANCH  16  20
ATOM     17  O   UNL     1      -2.747  -0.412   0.000  0.00  0.00    +0.000 OA
ATOM     18  O   UNL     1      -1.620  -0.715   0.000  0.00  0.00    +0.000 OA
ATOM     19  O   UNL     1      -2.445   0.715   0.000  0.00  0.00    +0.000 OA
ATOM     20  P   UNL     1      -2.033   0.000   0.000  0.00  0.00    +0.000 P 
ENDBRANCH  16  20
ENDBRANCH  15  16
ENDBRANCH  13  15
ENDBRANCH   1  13
TORSDOF 9
