REMARK  Name = 
REMARK  5 active torsions:
REMARK  status: ('A' for Active; 'I' for Inactive)
REMARK    1  A    between atoms: C_6  and  C_7
REMARK    2  A    between atoms: C_6  and  N_15
REMARK    3  A    between atoms: C_8  and  C_12
REMARK    4  A    between atoms: C_10  and  N_15
REMARK    5  A    between atoms: C_11  and  S_23
REMARK                            x       y       z     vdW  Elec       q    Type
REMARK                         _______ _______ _______ _____ _____    ______ ____
ROOT
ATOM      1  C   UNL     1       2.751   3.238   0.000  0.00  0.00    +0.000 A 
ATOM      2  C   UNL     1       4.180   2.413   0.000  0.00  0.00    +0.000 A 
ATOM      3  C   UNL     1       2.751   2.413   0.000  0.00  0.00    +0.000 A 
ATOM      4  C   UNL     1       4.180   3.238   0.000  0.00  0.00    +0.000 A 
ATOM      5  C   UNL     1       3.466   2.001   0.000  0.00  0.00    +0.000 A 
ATOM      6  C   UNL     1       3.466   3.651   0.000  0.00  0.00    +0.000 A 
ATOM      7 CL   UNL     1       4.895   3.651   0.000  0.00  0.00    +0.000 Cl
ENDROOT
BRANCH   3   8
ATOM      8  C   UNL     1       2.037   2.001   0.000  0.00  0.00    +0.000 A 
ATOM      9  N   UNL     1       1.283   2.337   0.000  0.00  0.00    +0.000 NA
ATOM     10  N   UNL     1       1.950   1.180   0.000  0.00  0.00    +0.000 NA
ATOM     11  N   UNL     1       0.731   1.723   0.000  0.00  0.00    +0.000 NA
ATOM     12  N   UNL     1       1.143   1.009   0.000  0.00  0.00    +0.000 NA
ENDBRANCH   3   8
BRANCH   6  16
ATOM     13  N   UNL     1       3.466   5.301   0.000  0.00  0.00    +0.000 NA
ATOM     14  O   UNL     1       4.291   4.476   0.000  0.00  0.00    +0.000 OA
ATOM     15  O   UNL     1       2.641   4.476   0.000  0.00  0.00    +0.000 OA
ATOM     16  S   UNL     1       3.466   4.476   0.000  0.00  0.00    +0.000 S 
ENDBRANCH   6  16
BRANCH   5  17
ATOM     17  N   UNL     1       3.466   1.176   0.000  0.00  0.00    +0.000 NA
BRANCH  17  18
ATOM     18  C   UNL     1       4.180   0.763   0.000  0.00  0.00    +0.000 C 
BRANCH  18  22
ATOM     19  C   UNL     1       4.593  -1.331   0.000  0.00  0.00    +0.000 A 
ATOM     20  C   UNL     1       4.848  -0.546   0.000  0.00  0.00    +0.000 A 
ATOM     21  C   UNL     1       3.768  -1.331   0.000  0.00  0.00    +0.000 A 
ATOM     22  C   UNL     1       4.180  -0.062   0.000  0.00  0.00    +0.000 A 
ATOM     23  S   UNL     1       3.513  -0.546   0.000  0.00  0.00    +0.000 S 
ENDBRANCH  18  22
ENDBRANCH  17  18
ENDBRANCH   5  17
TORSDOF 5
