REMARK  Name = 
REMARK  0 active torsions:
REMARK  status: ('A' for Active; 'I' for Inactive)
REMARK                            x       y       z     vdW  Elec       q    Type
REMARK                         _______ _______ _______ _____ _____    ______ ____
ROOT
ATOM      1  O   UNL     1      19.990  -3.220   0.000  0.00  0.00    +0.000 OA
ATOM      2  O   UNL     1      14.505  -6.774   0.000  0.00  0.00    +0.000 OA
ATOM      3  C   UNL     1      17.524  -5.081   0.000  0.00  0.00    +0.000 C 
ATOM      4  C   UNL     1      18.239  -5.493   0.000  0.00  0.00    +0.000 C 
ATOM      5  C   UNL     1      16.774  -5.499   0.000  0.00  0.00    +0.000 C 
ATOM      6  C   UNL     1      18.953  -5.081   0.000  0.00  0.00    +0.000 C 
ATOM      7  C   UNL     1      18.953  -4.256   0.000  0.00  0.00    +0.000 C 
ATOM      8  C   UNL     1      16.767  -6.358   0.000  0.00  0.00    +0.000 C 
ATOM      9  C   UNL     1      17.524  -4.256   0.000  0.00  0.00    +0.000 C 
ATOM     10  C   UNL     1      18.239  -3.843   0.000  0.00  0.00    +0.000 C 
ATOM     11  C   UNL     1      18.252  -6.352   0.000  0.00  0.00    +0.000 C 
ATOM     12  C   UNL     1      19.734  -5.332   0.000  0.00  0.00    +0.000 C 
ATOM     13  C   UNL     1      19.734  -4.004   0.000  0.00  0.00    +0.000 C 
ATOM     14  C   UNL     1      16.009  -5.033   0.000  0.00  0.00    +0.000 C 
ATOM     15  C   UNL     1      17.511  -6.788   0.000  0.00  0.00    +0.000 C 
ATOM     16  C   UNL     1      20.215  -4.668   0.000  0.00  0.00    +0.000 C 
ATOM     17  C   UNL     1      16.780  -4.674   0.000  0.00  0.00    +0.000 C 
ATOM     18  C   UNL     1      15.996  -6.811   0.000  0.00  0.00    +0.000 C 
ATOM     19  C   UNL     1      18.953  -3.431   0.000  0.00  0.00    +0.000 C 
ATOM     20  C   UNL     1      15.227  -5.469   0.000  0.00  0.00    +0.000 C 
ATOM     21  C   UNL     1      15.220  -6.364   0.000  0.00  0.00    +0.000 C 
ATOM     22  C   UNL     1      16.025  -4.209   0.000  0.00  0.00    +0.000 C 
ENDROOT
TORSDOF 0
