REMARK  Name = 
REMARK  2 active torsions:
REMARK  status: ('A' for Active; 'I' for Inactive)
REMARK    1  A    between atoms: C_2  and  O_3
REMARK    2  A    between atoms: O_3  and  C_4
REMARK                            x       y       z     vdW  Elec       q    Type
REMARK                         _______ _______ _______ _____ _____    ______ ____
ROOT
ATOM      1  C   UNL     1       1.952   1.127   0.000  0.00  0.00    +0.000 C 
ATOM      2  O   UNL     1       1.952   1.952   0.000  0.00  0.00    +0.000 OA
ATOM      3  N   UNL     1       2.667   0.715   0.000  0.00  0.00    +0.000 NA
ATOM      4  C   UNL     1       3.381   1.127   0.000  0.00  0.00    +0.000 C 
ENDROOT
BRANCH   1   5
ATOM      5  O   UNL     1       1.238   0.715   0.000  0.00  0.00    +0.000 OA
BRANCH   5   7
ATOM      6  C   UNL     1      -0.191   0.715   0.000  0.00  0.00    +0.000 C 
ATOM      7  C   UNL     1       0.523   1.127   0.000  0.00  0.00    +0.000 C 
ENDBRANCH   5   7
ENDBRANCH   1   5
TORSDOF 2
