REMARK  Name = 
REMARK  5 active torsions:
REMARK  status: ('A' for Active; 'I' for Inactive)
REMARK    1  A    between atoms: C_3  and  C_4
REMARK    2  A    between atoms: C_8  and  N_9
REMARK    3  A    between atoms: N_9  and  P_18
REMARK    4  A    between atoms: O_15  and  P_18
REMARK    5  A    between atoms: O_16  and  P_18
REMARK                            x       y       z     vdW  Elec       q    Type
REMARK                         _______ _______ _______ _____ _____    ______ ____
ROOT
ATOM      1  C   UNL     1       1.429   0.825   0.000  0.00  0.00    +0.000 C 
ATOM      2  C   UNL     1       0.715   1.238   0.000  0.00  0.00    +0.000 C 
ATOM      3  C   UNL     1       0.000   0.825   0.000  0.00  0.00    +0.000 C 
ATOM      4  C   UNL     1       0.000   0.000   0.000  0.00  0.00    +0.000 C 
ATOM      5  C   UNL     1       0.715  -0.412   0.000  0.00  0.00    +0.000 C 
ATOM      6  O   UNL     1       0.715   2.062   0.000  0.00  0.00    +0.000 OA
ATOM      7  O   UNL     1      -0.715   1.238   0.000  0.00  0.00    +0.000 OA
ATOM      8  O   UNL     1      -0.715  -0.412   0.000  0.00  0.00    +0.000 OA
ATOM      9  O   UNL     1       1.429   0.000   0.000  0.00  0.00    +0.000 OA
ENDROOT
BRANCH   1  10
ATOM     10  C   UNL     1       2.143   1.238   0.000  0.00  0.00    +0.000 C 
ATOM     11  O   UNL     1       2.143   2.062   0.000  0.00  0.00    +0.000 OA
ENDBRANCH   1  10
BRANCH   5  12
ATOM     12  N   UNL     1       0.715  -1.238   0.000  0.00  0.00    +0.000 NA
BRANCH  12  14
ATOM     13  O   UNL     1       0.412  -2.365   0.000  0.00  0.00    +0.000 OA
ATOM     14  P   UNL     1       0.000  -1.650   0.000  0.00  0.00    +0.000 P 
BRANCH  14  16
ATOM     15  C   UNL     1      -1.238  -0.935   0.000  0.00  0.00    +0.000 C 
ATOM     16  O   UNL     1      -0.412  -0.935   0.000  0.00  0.00    +0.000 OA
ENDBRANCH  14  16
BRANCH  14  18
ATOM     17  C   UNL     1      -1.429  -1.650   0.000  0.00  0.00    +0.000 C 
ATOM     18  O   UNL     1      -0.715  -2.062   0.000  0.00  0.00    +0.000 OA
ENDBRANCH  14  18
ENDBRANCH  12  14
ENDBRANCH   5  12
TORSDOF 5
