REMARK  Name = 
REMARK  1 active torsions:
REMARK  status: ('A' for Active; 'I' for Inactive)
REMARK    1  A    between atoms: P_1  and  C_7
REMARK                            x       y       z     vdW  Elec       q    Type
REMARK                         _______ _______ _______ _____ _____    ______ ____
ROOT
ATOM      1  P   UNL     1       2.808  -0.262   0.000  0.00  0.00    +0.000 P 
ATOM      2  O   UNL     1       2.093  -0.674   0.000  0.00  0.00    +0.000 OA
ATOM      3  O   UNL     1       2.395   0.453   0.000  0.00  0.00    +0.000 OA
ATOM      4  O   UNL     1       3.220  -0.976   0.000  0.00  0.00    +0.000 OA
ENDROOT
BRANCH   1   7
ATOM      5  O   UNL     1       4.237  -0.262   0.000  0.00  0.00    +0.000 OA
ATOM      6  O   UNL     1       3.522   0.976   0.000  0.00  0.00    +0.000 OA
ATOM      7  C   UNL     1       3.522   0.151   0.000  0.00  0.00    +0.000 C 
ENDBRANCH   1   7
TORSDOF 1
