REMARK  Name = 
REMARK  1 active torsions:
REMARK  status: ('A' for Active; 'I' for Inactive)
REMARK    1  A    between atoms: C_15  and  C_19
REMARK                            x       y       z     vdW  Elec       q    Type
REMARK                         _______ _______ _______ _____ _____    ______ ____
ROOT
ATOM      1  C   UNL     1       4.014   0.412   0.000  0.00  0.00    +0.000 A 
ATOM      2  C   UNL     1       3.602  -0.302   0.000  0.00  0.00    +0.000 A 
ATOM      3  C   UNL     1       3.602   1.127   0.000  0.00  0.00    +0.000 A 
ATOM      4  C   UNL     1       2.777  -0.302   0.000  0.00  0.00    +0.000 A 
ATOM      5  C   UNL     1       2.365   1.841   0.000  0.00  0.00    +0.000 C 
ATOM      6  C   UNL     1       1.540   1.841   0.000  0.00  0.00    +0.000 C 
ATOM      7  C   UNL     1       1.127  -0.302   0.000  0.00  0.00    +0.000 C 
ATOM      8  C   UNL     1      -0.111   0.412   0.000  0.00  0.00    +0.000 C 
ATOM      9  C   UNL     1       2.777   1.127   0.000  0.00  0.00    +0.000 A 
ATOM     10  C   UNL     1       2.365   0.412   0.000  0.00  0.00    +0.000 A 
ATOM     11  C   UNL     1       1.540   0.412   0.000  0.00  0.00    +0.000 C 
ATOM     12  C   UNL     1       0.302   1.127   0.000  0.00  0.00    +0.000 C 
ATOM     13  C   UNL     1      -0.111  -1.016   0.000  0.00  0.00    +0.000 C 
ATOM     14  N   UNL     1       0.302  -0.302   0.000  0.00  0.00    +0.000 N 
ATOM     15  N   UNL     1       1.127   1.127   0.000  0.00  0.00    +0.000 N 
ATOM     16  O   UNL     1      -0.111   1.841   0.000  0.00  0.00    +0.000 OA
ATOM     17  O   UNL     1       0.302  -1.731   0.000  0.00  0.00    +0.000 OA
ENDROOT
BRANCH  13  23
ATOM     18  C   UNL     1      -2.586  -1.016   0.000  0.00  0.00    +0.000 C 
ATOM     19  C   UNL     1      -2.173  -1.731   0.000  0.00  0.00    +0.000 C 
ATOM     20  C   UNL     1      -2.173  -0.302   0.000  0.00  0.00    +0.000 C 
ATOM     21  C   UNL     1      -1.348  -1.731   0.000  0.00  0.00    +0.000 C 
ATOM     22  C   UNL     1      -1.348  -0.302   0.000  0.00  0.00    +0.000 C 
ATOM     23  C   UNL     1      -0.935  -1.016   0.000  0.00  0.00    +0.000 C 
ENDBRANCH  13  23
TORSDOF 1
