REMARK  Name = 
REMARK  7 active torsions:
REMARK  status: ('A' for Active; 'I' for Inactive)
REMARK    1  A    between atoms: C_7  and  C_31
REMARK    2  A    between atoms: C_15  and  N_32
REMARK    3  A    between atoms: C_16  and  O_40
REMARK    4  A    between atoms: C_17  and  O_43
REMARK    5  A    between atoms: C_18  and  O_43
REMARK    6  A    between atoms: C_24  and  C_30
REMARK    7  A    between atoms: C_30  and  O_41
REMARK                            x       y       z     vdW  Elec       q    Type
REMARK                         _______ _______ _______ _____ _____    ______ ____
ROOT
ATOM      1  C   UNL     1       1.429   3.300   0.000  0.00  0.00    +0.000 A 
ATOM      2  C   UNL     1       2.143   3.712   0.000  0.00  0.00    +0.000 A 
ATOM      3  C   UNL     1       1.429   2.475   0.000  0.00  0.00    +0.000 A 
ATOM      4  C   UNL     1       7.145   2.475   0.000  0.00  0.00    +0.000 C 
ATOM      5  C   UNL     1       2.858   3.300   0.000  0.00  0.00    +0.000 A 
ATOM      6  C   UNL     1       2.143   2.062   0.000  0.00  0.00    +0.000 A 
ATOM      7  C   UNL     1       6.430   2.062   0.000  0.00  0.00    +0.000 C 
ATOM      8  C   UNL     1       2.858   2.475   0.000  0.00  0.00    +0.000 A 
ATOM      9  C   UNL     1       5.716   2.475   0.000  0.00  0.00    +0.000 A 
ATOM     10  C   UNL     1       5.716   3.300   0.000  0.00  0.00    +0.000 A 
ATOM     11  C   UNL     1       4.287   3.300   0.000  0.00  0.00    +0.000 A 
ATOM     12  C   UNL     1       4.287   2.475   0.000  0.00  0.00    +0.000 A 
ATOM     13  C   UNL     1       6.430   3.712   0.000  0.00  0.00    +0.000 C 
ATOM     14  C   UNL     1       3.572   3.712   0.000  0.00  0.00    +0.000 C 
ATOM     15  C   UNL     1       3.572   2.062   0.000  0.00  0.00    +0.000 C 
ATOM     16  C   UNL     1       5.001   2.062   0.000  0.00  0.00    +0.000 A 
ATOM     17  C   UNL     1       5.001   3.712   0.000  0.00  0.00    +0.000 A 
ATOM     18  C   UNL     1       7.145   3.300   0.000  0.00  0.00    +0.000 C 
ATOM     19  O   UNL     1       3.572   4.537   0.000  0.00  0.00    +0.000 OA
ATOM     20  O   UNL     1       3.572   1.238   0.000  0.00  0.00    +0.000 OA
ATOM     21  O   UNL     1       5.001   1.238   0.000  0.00  0.00    +0.000 OA
ATOM     22  O   UNL     1       5.001   4.537   0.000  0.00  0.00    +0.000 OA
ATOM     23  O   UNL     1       7.957   3.157   0.000  0.00  0.00    +0.000 OA
ENDROOT
BRANCH   6  25
ATOM     24  C   UNL     1       2.858   0.825   0.000  0.00  0.00    +0.000 C 
ATOM     25  O   UNL     1       2.143   1.238   0.000  0.00  0.00    +0.000 OA
ENDBRANCH   6  25
BRANCH  18  27
ATOM     26  C   UNL     1       8.239   4.218   0.000  0.00  0.00    +0.000 C 
ATOM     27  C   UNL     1       7.427   4.075   0.000  0.00  0.00    +0.000 C 
ENDBRANCH  18  27
BRANCH  13  28
ATOM     28  C   UNL     1       6.430   4.537   0.000  0.00  0.00    +0.000 C 
ATOM     29  O   UNL     1       5.716   4.950   0.000  0.00  0.00    +0.000 OA
BRANCH  28  31
ATOM     30  C   UNL     1       7.859   4.537   0.000  0.00  0.00    +0.000 C 
ATOM     31  O   UNL     1       7.145   4.950   0.000  0.00  0.00    +0.000 OA
ENDBRANCH  28  31
ENDBRANCH  13  28
BRANCH   7  32
ATOM     32  O   UNL     1       6.430   1.238   0.000  0.00  0.00    +0.000 OA
BRANCH  32  37
ATOM     33  C   UNL     1       9.288   1.238   0.000  0.00  0.00    +0.000 C 
ATOM     34  C   UNL     1       7.145   0.000   0.000  0.00  0.00    +0.000 C 
ATOM     35  C   UNL     1       8.574   0.825   0.000  0.00  0.00    +0.000 C 
ATOM     36  C   UNL     1       7.859  -0.412   0.000  0.00  0.00    +0.000 C 
ATOM     37  C   UNL     1       7.145   0.825   0.000  0.00  0.00    +0.000 C 
ATOM     38  C   UNL     1       8.574   0.000   0.000  0.00  0.00    +0.000 C 
ATOM     39  O   UNL     1       9.288  -0.412   0.000  0.00  0.00    +0.000 OA
ATOM     40  O   UNL     1       7.859   1.238   0.000  0.00  0.00    +0.000 OA
BRANCH  36  43
ATOM     41  C   UNL     1       8.574  -1.650   0.000  0.00  0.00    +0.000 C 
ATOM     42  C   UNL     1       7.145  -1.650   0.000  0.00  0.00    +0.000 C 
ATOM     43  N   UNL     1       7.859  -1.238   0.000  0.00  0.00    +0.000 NA
ENDBRANCH  36  43
ENDBRANCH  32  37
ENDBRANCH   7  32
TORSDOF 7
