REMARK  Name = 
REMARK  4 active torsions:
REMARK  status: ('A' for Active; 'I' for Inactive)
REMARK    1  A    between atoms: C_5  and  C_8
REMARK    2  A    between atoms: C_5  and  C_15
REMARK    3  A    between atoms: C_9  and  C_17
REMARK    4  A    between atoms: C_11  and  C_14
REMARK                            x       y       z     vdW  Elec       q    Type
REMARK                         _______ _______ _______ _____ _____    ______ ____
ROOT
ATOM      1  C   UNL     1       0.057   1.127   0.000  0.00  0.00    +0.000 A 
ATOM      2  C   UNL     1      -1.180   0.412   0.000  0.00  0.00    +0.000 A 
ATOM      3  C   UNL     1      -0.768   1.127   0.000  0.00  0.00    +0.000 A 
ATOM      4  C   UNL     1       0.470   0.412   0.000  0.00  0.00    +0.000 A 
ATOM      5  C   UNL     1      -0.768  -0.302   0.000  0.00  0.00    +0.000 A 
ATOM      6  C   UNL     1       0.057  -0.302   0.000  0.00  0.00    +0.000 A 
ATOM      7 BR   UNL     1      -1.180  -1.016   0.000  0.00  0.00    +0.000 Br
ATOM      8  O   UNL     1       0.470  -1.016   0.000  0.00  0.00    +0.000 OA
ENDROOT
BRANCH   4  16
ATOM      9  C   UNL     1       3.993   0.825   0.000  0.00  0.00    +0.000 A 
ATOM     10  C   UNL     1       3.279   1.238   0.000  0.00  0.00    +0.000 A 
ATOM     11  C   UNL     1       3.279  -0.412   0.000  0.00  0.00    +0.000 A 
ATOM     12  C   UNL     1       1.780  -0.255   0.000  0.00  0.00    +0.000 A 
ATOM     13  C   UNL     1       3.993   0.000   0.000  0.00  0.00    +0.000 A 
ATOM     14  C   UNL     1       2.564   0.000   0.000  0.00  0.00    +0.000 A 
ATOM     15  C   UNL     1       2.564   0.825   0.000  0.00  0.00    +0.000 A 
ATOM     16  C   UNL     1       1.295   0.412   0.000  0.00  0.00    +0.000 A 
ATOM     17  N   UNL     1       1.780   1.080   0.000  0.00  0.00    +0.000 NA
BRANCH  13  18
ATOM     18  C   UNL     1       4.708  -0.412   0.000  0.00  0.00    +0.000 C 
ATOM     19  N   UNL     1       5.422   0.000   0.000  0.00  0.00    +0.000 NA
ATOM     20  N   UNL     1       4.708  -1.238   0.000  0.00  0.00    +0.000 NA
ENDBRANCH  13  18
ENDBRANCH   4  16
BRANCH   3  21
ATOM     21  C   UNL     1      -1.180   1.841   0.000  0.00  0.00    +0.000 C 
BRANCH  21  22
ATOM     22  C   UNL     1      -0.768   2.556   0.000  0.00  0.00    +0.000 C 
ATOM     23  O   UNL     1      -1.180   3.270   0.000  0.00  0.00    +0.000 OA
ATOM     24  O   UNL     1       0.057   2.556   0.000  0.00  0.00    +0.000 OA
ENDBRANCH  21  22
ENDBRANCH   3  21
TORSDOF 4
