REMARK  Name = 
REMARK  9 active torsions:
REMARK  status: ('A' for Active; 'I' for Inactive)
REMARK    1  A    between atoms: N_10  and  C_17
REMARK    2  A    between atoms: N_10  and  C_22
REMARK    3  A    between atoms: N_13  and  CA_26
REMARK    4  A    between atoms: C_15  and  C_17
REMARK    5  A    between atoms: CA_26  and  CB_27
REMARK    6  A    between atoms: CA_26  and  C_33
REMARK    7  A    between atoms: CB_27  and  CG_32
REMARK    8  A    between atoms: C_28  and  C_31
REMARK    9  A    between atoms: CG_32  and  CD_34
REMARK                            x       y       z     vdW  Elec       q    Type
REMARK                         _______ _______ _______ _____ _____    ______ ____
ROOT
ATOM      1  C   UNL     1       7.094   1.017   0.000  0.00  0.00    +0.000 A 
ATOM      2  C   UNL     1       6.380   1.429   0.000  0.00  0.00    +0.000 A 
ATOM      3  C   UNL     1       7.094   0.192   0.000  0.00  0.00    +0.000 A 
ATOM      4  C   UNL     1       5.665   0.192   0.000  0.00  0.00    +0.000 A 
ATOM      5  C   UNL     1       5.665   1.017   0.000  0.00  0.00    +0.000 A 
ATOM      6  C   UNL     1       6.380  -0.221   0.000  0.00  0.00    +0.000 A 
ENDROOT
BRANCH   4   9
ATOM      7  O   UNL     1       4.951  -1.046   0.000  0.00  0.00    +0.000 OA
ATOM      8  N   UNL     1       4.237   0.192   0.000  0.00  0.00    +0.000 NA
ATOM      9  C   ACE A   0       4.951  -0.221   0.000  0.00  0.00    +0.000 C 
BRANCH   8  10
ATOM     10  CA  UNL     1       3.522  -0.221   0.000  0.00  0.00    +0.000 C 
BRANCH  10  13
ATOM     11  O   UNL     1       2.093  -0.221   0.000  0.00  0.00    +0.000 OA
ATOM     12  OXT UNL     1       2.808   1.017   0.000  0.00  0.00    +0.000 OA
ATOM     13  C   UNL     1       2.808   0.192   0.000  0.00  0.00    +0.000 C 
ENDBRANCH  10  13
BRANCH  10  14
ATOM     14  CB  UNL     1       3.522  -1.046   0.000  0.00  0.00    +0.000 C 
BRANCH  14  15
ATOM     15  CG  UNL     1       2.808  -1.458   0.000  0.00  0.00    +0.000 C 
BRANCH  15  18
ATOM     16  OE1 UNL     1       2.093  -2.696   0.000  0.00  0.00    +0.000 OA
ATOM     17  OE2 UNL     1       3.522  -2.696   0.000  0.00  0.00    +0.000 OA
ATOM     18  CD  UNL     1       2.808  -2.283   0.000  0.00  0.00    +0.000 C 
ENDBRANCH  15  18
ENDBRANCH  14  15
ENDBRANCH  10  14
ENDBRANCH   8  10
ENDBRANCH   4   9
BRANCH   1  19
ATOM     19  N   UNL     1       7.809   1.429   0.000  0.00  0.00    +0.000 NA
BRANCH  19  20
ATOM     20  C   UNL     1       8.523   1.017   0.000  0.00  0.00    +0.000 C 
BRANCH  20  28
ATOM     21  O   UNL     1      11.395   0.163   0.000  0.00  0.00    +0.000 OA
ATOM     22  O   UNL     1       9.238  -0.221   0.000  0.00  0.00    +0.000 OA
ATOM     23  N   UNL     1       9.952   1.017   0.000  0.00  0.00    +0.000 N 
ATOM     24  N   UNL     1       9.952   2.667   0.000  0.00  0.00    +0.000 NA
ATOM     25  N   UNL     1      11.404   2.696   0.000  0.00  0.00    +0.000 NA
ATOM     26  N   UNL     1      12.152   1.412   0.000  0.00  0.00    +0.000 NA
ATOM     27  N   UNL     1      12.865   2.687   0.000  0.00  0.00    +0.000 NA
ATOM     28  C   UNL     1       9.238   1.429   0.000  0.00  0.00    +0.000 C 
ATOM     29  C   UNL     1       9.238   2.255   0.000  0.00  0.00    +0.000 C 
ATOM     30  C   UNL     1      10.667   1.429   0.000  0.00  0.00    +0.000 A 
ATOM     31  C   UNL     1      10.667   2.255   0.000  0.00  0.00    +0.000 A 
ATOM     32  C   UNL     1      11.404   0.988   0.000  0.00  0.00    +0.000 A 
ATOM     33  C   UNL     1       9.952   0.192   0.000  0.00  0.00    +0.000 C 
ATOM     34  C   UNL     1      12.152   2.272   0.000  0.00  0.00    +0.000 A 
ENDBRANCH  20  28
ENDBRANCH  19  20
ENDBRANCH   1  19
TORSDOF 9
