REMARK  Name = 
REMARK  5 active torsions:
REMARK  status: ('A' for Active; 'I' for Inactive)
REMARK    1  A    between atoms: C_1  and  C_4
REMARK    2  A    between atoms: N_2  and  C_6
REMARK    3  A    between atoms: C_4  and  O_10
REMARK    4  A    between atoms: C_6  and  C_9
REMARK    5  A    between atoms: O_10  and  C_14
REMARK                            x       y       z     vdW  Elec       q    Type
REMARK                         _______ _______ _______ _____ _____    ______ ____
ROOT
ATOM      1  C   UNL     1       9.743  -8.957   0.000  0.00  0.00    +0.000 A 
ATOM      2  N   UNL     1       9.075  -9.442   0.000  0.00  0.00    +0.000 N 
ATOM      3  N   UNL     1       8.663  -8.172   0.000  0.00  0.00    +0.000 NA
ATOM      4  C   UNL     1       8.408  -8.957   0.000  0.00  0.00    +0.000 A 
ATOM      5  C   UNL     1       9.488  -8.172   0.000  0.00  0.00    +0.000 A 
ENDROOT
BRANCH   1   6
ATOM      6  C   UNL     1      10.527  -9.212   0.000  0.00  0.00    +0.000 C 
ATOM      7  O   UNL     1      10.699 -10.019   0.000  0.00  0.00    +0.000 OA
BRANCH   6   8
ATOM      8  O   UNL     1      11.141  -8.660   0.000  0.00  0.00    +0.000 OA
BRANCH   8   9
ATOM      9  C   UNL     1      11.925  -8.915   0.000  0.00  0.00    +0.000 C 
ATOM     10  C   UNL     1      12.538  -8.363   0.000  0.00  0.00    +0.000 C 
ENDBRANCH   8   9
ENDBRANCH   6   8
ENDBRANCH   1   6
BRANCH   2  11
ATOM     11  C   UNL     1       9.075 -10.267   0.000  0.00  0.00    +0.000 C 
ATOM     12  C   UNL     1       9.790 -10.680   0.000  0.00  0.00    +0.000 C 
BRANCH  11  13
ATOM     13  C   UNL     1       8.361 -10.680   0.000  0.00  0.00    +0.000 A 
ATOM     14  C   UNL     1       8.361 -11.505   0.000  0.00  0.00    +0.000 A 
ATOM     15  C   UNL     1       7.646 -10.267   0.000  0.00  0.00    +0.000 A 
ATOM     16  C   UNL     1       6.932 -10.680   0.000  0.00  0.00    +0.000 A 
ATOM     17  C   UNL     1       7.646 -11.917   0.000  0.00  0.00    +0.000 A 
ATOM     18  C   UNL     1       6.932 -11.505   0.000  0.00  0.00    +0.000 A 
ENDBRANCH  11  13
ENDBRANCH   2  11
TORSDOF 5
