REMARK  Name = 
REMARK  2 active torsions:
REMARK  status: ('A' for Active; 'I' for Inactive)
REMARK    1  A    between atoms: O_2  and  C_20
REMARK    2  A    between atoms: C_6  and  C_16
REMARK                            x       y       z     vdW  Elec       q    Type
REMARK                         _______ _______ _______ _____ _____    ______ ____
ROOT
ATOM      1  O   UNL     1       7.725   1.555   0.000  0.00  0.00    +0.000 OA
ATOM      2  C   UNL     1       6.812   0.518   0.000  0.00  0.00    +0.000 C 
ATOM      3  C   UNL     1       6.812  -0.306   0.000  0.00  0.00    +0.000 C 
ATOM      4  C   UNL     1       6.097  -0.719   0.000  0.00  0.00    +0.000 C 
ATOM      5  C   UNL     1       7.592   0.770   0.000  0.00  0.00    +0.000 C 
ATOM      6  C   UNL     1       6.097   0.931   0.000  0.00  0.00    +0.000 C 
ATOM      7  C   UNL     1       7.592  -0.558   0.000  0.00  0.00    +0.000 C 
ATOM      8  C   UNL     1       5.383   0.518   0.000  0.00  0.00    +0.000 C 
ATOM      9  C   UNL     1       8.073   0.106   0.000  0.00  0.00    +0.000 C 
ATOM     10  C   UNL     1       6.110  -1.578   0.000  0.00  0.00    +0.000 C 
ATOM     11  C   UNL     1       6.812   1.343   0.000  0.00  0.00    +0.000 C 
ATOM     12  C   UNL     1       4.632  -0.725   0.000  0.00  0.00    +0.000 A 
ATOM     13  C   UNL     1       5.370  -2.013   0.000  0.00  0.00    +0.000 C 
ATOM     14  C   UNL     1       4.625  -1.584   0.000  0.00  0.00    +0.000 A 
ATOM     15  C   UNL     1       3.867  -0.259   0.000  0.00  0.00    +0.000 A 
ATOM     16  C   UNL     1       3.854  -2.037   0.000  0.00  0.00    +0.000 A 
ATOM     17  C   UNL     1       3.086  -0.695   0.000  0.00  0.00    +0.000 A 
ATOM     18  C   UNL     1       3.079  -1.590   0.000  0.00  0.00    +0.000 A 
ATOM     19  C   UNL     1       5.383  -0.306   0.000  0.00  0.00    +0.000 C 
ENDROOT
BRANCH  18  20
ATOM     20  O   UNL     1       2.363  -1.999   0.000  0.00  0.00    +0.000 OA
ATOM     21  C   UNL     1       1.650  -1.584   0.000  0.00  0.00    +0.000 C 
ENDBRANCH  18  20
BRANCH   5  22
ATOM     22  C   UNL     1       8.260   0.926   0.000  0.00  0.00    +0.000 C 
ATOM     23  C   UNL     1       9.077   1.053   0.000  0.00  0.00    +0.000 C 
ENDBRANCH   5  22
TORSDOF 2
