REMARK  Name = 
REMARK  0 active torsions:
REMARK  status: ('A' for Active; 'I' for Inactive)
REMARK                            x       y       z     vdW  Elec       q    Type
REMARK                         _______ _______ _______ _____ _____    ______ ____
ROOT
ATOM      1  C   UNL     1       3.324   1.080   0.000  0.00  0.00    +0.000 C 
ATOM      2  C   UNL     1       0.785   1.080   0.000  0.00  0.00    +0.000 C 
ATOM      3  C   UNL     1       2.839   1.747   0.000  0.00  0.00    +0.000 C 
ATOM      4  C   UNL     1       1.270   0.412   0.000  0.00  0.00    +0.000 C 
ATOM      5  C   UNL     1       2.054   1.492   0.000  0.00  0.00    +0.000 C 
ATOM      6  C   UNL     1       2.054   0.667   0.000  0.00  0.00    +0.000 C 
ATOM      7  O   UNL     1       3.094   2.532   0.000  0.00  0.00    +0.000 OA
ATOM      8  O   UNL     1       1.015  -0.372   0.000  0.00  0.00    +0.000 OA
ATOM      9  O   UNL     1       2.839   0.412   0.000  0.00  0.00    +0.000 OA
ATOM     10  O   UNL     1       1.270   1.747   0.000  0.00  0.00    +0.000 OA
ENDROOT
TORSDOF 0
