REMARK  Name = 
REMARK  7 active torsions:
REMARK  status: ('A' for Active; 'I' for Inactive)
REMARK    1  A    between atoms: C_6  and  C_7
REMARK    2  A    between atoms: C_6  and  C_12
REMARK    3  A    between atoms: C_7  and  S_24
REMARK    4  A    between atoms: C_8  and  C_10
REMARK    5  A    between atoms: C_9  and  C_14
REMARK    6  A    between atoms: C_9  and  N_19
REMARK    7  A    between atoms: C_12  and  C_15
REMARK                            x       y       z     vdW  Elec       q    Type
REMARK                         _______ _______ _______ _____ _____    ______ ____
ROOT
ATOM      1  C   UNL     1      -0.821  -4.264   0.000  0.00  0.00    +0.000 C 
ATOM      2  C   UNL     1      -0.336  -3.596   0.000  0.00  0.00    +0.000 C 
ATOM      3  C   UNL     1       0.077  -2.327   0.000  0.00  0.00    +0.000 C 
ATOM      4  C   UNL     1       0.489  -3.596   0.000  0.00  0.00    +0.000 C 
ATOM      5  N   UNL     1      -0.591  -2.812   0.000  0.00  0.00    +0.000 NA
ATOM      6  N   UNL     1       0.744  -2.812   0.000  0.00  0.00    +0.000 N 
ATOM      7  O   UNL     1       0.974  -4.264   0.000  0.00  0.00    +0.000 OA
ENDROOT
BRANCH   1  12
ATOM      8  C   UNL     1      -1.977  -3.424   0.000  0.00  0.00    +0.000 A 
ATOM      9  C   UNL     1      -2.126  -4.845   0.000  0.00  0.00    +0.000 A 
ATOM     10  C   UNL     1      -2.797  -3.338   0.000  0.00  0.00    +0.000 A 
ATOM     11  C   UNL     1      -2.947  -4.759   0.000  0.00  0.00    +0.000 A 
ATOM     12  C   UNL     1      -1.641  -4.178   0.000  0.00  0.00    +0.000 A 
ATOM     13  C   UNL     1      -3.282  -4.005   0.000  0.00  0.00    +0.000 A 
ATOM     14  O   UNL     1      -4.103  -3.919   0.000  0.00  0.00    +0.000 OA
ENDBRANCH   1  12
BRANCH   3  15
ATOM     15  C   UNL     1       0.077  -1.502   0.000  0.00  0.00    +0.000 C 
ATOM     16  N   UNL     1       0.791  -1.089   0.000  0.00  0.00    +0.000 NA
BRANCH  15  17
ATOM     17  C   UNL     1      -0.638  -1.089   0.000  0.00  0.00    +0.000 C 
BRANCH  17  18
ATOM     18  C   UNL     1      -1.352  -1.502   0.000  0.00  0.00    +0.000 C 
BRANCH  18  20
ATOM     19  C   UNL     1      -2.781  -1.502   0.000  0.00  0.00    +0.000 C 
ATOM     20  S   UNL     1      -2.067  -1.089   0.000  0.00  0.00    +0.000 S 
ENDBRANCH  18  20
ENDBRANCH  17  18
ENDBRANCH  15  17
ENDBRANCH   3  15
BRANCH   6  21
ATOM     21  C   UNL     1       1.529  -2.557   0.000  0.00  0.00    +0.000 C 
BRANCH  21  22
ATOM     22  C   UNL     1       2.142  -3.109   0.000  0.00  0.00    +0.000 C 
ATOM     23  O   UNL     1       2.926  -2.854   0.000  0.00  0.00    +0.000 OA
ATOM     24  O   UNL     1       1.970  -3.916   0.000  0.00  0.00    +0.000 OA
ENDBRANCH  21  22
ENDBRANCH   6  21
TORSDOF 7
