REMARK  Name = 
REMARK  9 active torsions:
REMARK  status: ('A' for Active; 'I' for Inactive)
REMARK    1  A    between atoms: C_6  and  C_7
REMARK    2  A    between atoms: C_8  and  C_13
REMARK    3  A    between atoms: C_8  and  CA_16
REMARK    4  A    between atoms: C_11  and  C_14
REMARK    5  A    between atoms: C_11  and  O_28
REMARK    6  A    between atoms: C_14  and  N_22
REMARK    7  A    between atoms: C_15  and  O_28
REMARK    8  A    between atoms: CA_16  and  C_20
REMARK    9  A    between atoms: C_17  and  N_22
REMARK                            x       y       z     vdW  Elec       q    Type
REMARK                         _______ _______ _______ _____ _____    ______ ____
ROOT
ATOM      1  C   UNL     1      -0.715   8.662   0.000  0.00  0.00    +0.000 A 
ATOM      2  C   UNL     1      -2.143   9.488   0.000  0.00  0.00    +0.000 A 
ATOM      3  C   UNL     1      -0.715   9.488   0.000  0.00  0.00    +0.000 A 
ATOM      4  C   UNL     1      -1.429   8.250   0.000  0.00  0.00    +0.000 A 
ATOM      5  C   UNL     1      -1.429   9.900   0.000  0.00  0.00    +0.000 A 
ATOM      6  C   UNL     1      -2.143   8.662   0.000  0.00  0.00    +0.000 A 
ATOM      7  O   UNL     1      -1.429  10.725   0.000  0.00  0.00    +0.000 OA
ATOM      8  O   UNL     1      -2.858   8.250   0.000  0.00  0.00    +0.000 OA
ENDROOT
BRANCH   3   9
ATOM      9  C   UNL     1       0.000   9.900   0.000  0.00  0.00    +0.000 C 
BRANCH   9  10
ATOM     10  CA  UNL     1       0.000  10.725   0.000  0.00  0.00    +0.000 C 
ATOM     11  N   UNL     1      -0.715  11.137   0.000  0.00  0.00    +0.000 NA
BRANCH  10  12
ATOM     12  C   UNL     1       0.715  11.137   0.000  0.00  0.00    +0.000 C 
ATOM     13  O   UNL     1       0.715  11.963   0.000  0.00  0.00    +0.000 OA
ATOM     14  OXT UNL     1       1.429  10.725   0.000  0.00  0.00    +0.000 OA
ENDBRANCH  10  12
ENDBRANCH   9  10
ENDBRANCH   3   9
BRANCH   4  15
ATOM     15  N   UNL     1      -1.429   7.425   0.000  0.00  0.00    +0.000 NA
BRANCH  15  17
ATOM     16  C   UNL     1      -2.858   7.425   0.000  0.00  0.00    +0.000 C 
ATOM     17  C   UNL     1      -2.143   7.013   0.000  0.00  0.00    +0.000 C 
BRANCH  16  18
ATOM     18  C   UNL     1      -3.572   7.013   0.000  0.00  0.00    +0.000 C 
ATOM     19  O   UNL     1      -4.287   7.425   0.000  0.00  0.00    +0.000 OA
ENDBRANCH  16  18
BRANCH  17  20
ATOM     20  C   UNL     1      -2.143   6.188   0.000  0.00  0.00    +0.000 C 
BRANCH  20  21
ATOM     21  O   UNL     1      -2.858   5.775   0.000  0.00  0.00    +0.000 OA
BRANCH  21  28
ATOM     22  C   UNL     1      -2.858   2.475   0.000  0.00  0.00    +0.000 C 
ATOM     23  C   UNL     1      -2.143   3.712   0.000  0.00  0.00    +0.000 A 
ATOM     24  C   UNL     1      -3.572   3.712   0.000  0.00  0.00    +0.000 A 
ATOM     25  C   UNL     1      -2.143   4.537   0.000  0.00  0.00    +0.000 A 
ATOM     26  C   UNL     1      -3.572   4.537   0.000  0.00  0.00    +0.000 A 
ATOM     27  C   UNL     1      -2.858   3.300   0.000  0.00  0.00    +0.000 A 
ATOM     28  C   UNL     1      -2.858   4.950   0.000  0.00  0.00    +0.000 A 
ENDBRANCH  21  28
ENDBRANCH  20  21
ENDBRANCH  17  20
ENDBRANCH  15  17
ENDBRANCH   4  15
TORSDOF 9
