REMARK  Name = 
REMARK  12 active torsions:
REMARK  status: ('A' for Active; 'I' for Inactive)
REMARK    1  A    between atoms: C_1  and  C_8
REMARK    2  A    between atoms: C_1  and  O_41
REMARK    3  A    between atoms: C_2  and  C_9
REMARK    4  A    between atoms: C_2  and  O_42
REMARK    5  A    between atoms: C_7  and  P_46
REMARK    6  A    between atoms: C_7  and  P_47
REMARK    7  A    between atoms: C_20  and  N_30
REMARK    8  A    between atoms: C_21  and  N_31
REMARK    9  A    between atoms: O_41  and  P_46
REMARK   10  A    between atoms: O_42  and  P_48
REMARK   11  A    between atoms: O_45  and  P_47
REMARK   12  A    between atoms: O_45  and  P_48
REMARK                            x       y       z     vdW  Elec       q    Type
REMARK                         _______ _______ _______ _____ _____    ______ ____
ROOT
ATOM      1  O   UNL     1      -0.910  -4.019   0.000  0.00  0.00    +0.000 OA
ATOM      2  O   UNL     1      -2.551  -4.191   0.000  0.00  0.00    +0.000 OA
ATOM      3  P   UNL     1      -1.731  -4.105   0.000  0.00  0.00    +0.000 P 
ENDROOT
BRANCH   3   4
ATOM      4  C   UNL     1      -1.644  -4.925   0.000  0.00  0.00    +0.000 C 
BRANCH   4   7
ATOM      5  O   UNL     1      -1.827  -6.078   0.000  0.00  0.00    +0.000 OA
ATOM      6  O   UNL     1      -2.797  -4.743   0.000  0.00  0.00    +0.000 OA
ATOM      7  P   UNL     1      -2.312  -5.410   0.000  0.00  0.00    +0.000 P 
BRANCH   7   8
ATOM      8  O   UNL     1      -2.979  -5.895   0.000  0.00  0.00    +0.000 OA
BRANCH   8   9
ATOM      9  C   UNL     1      -2.893  -6.716   0.000  0.00  0.00    +0.000 C 
BRANCH   9  10
ATOM     10  C   UNL     1      -3.561  -7.200   0.000  0.00  0.00    +0.000 C 
ATOM     11  C   UNL     1      -4.345  -6.946   0.000  0.00  0.00    +0.000 C 
ATOM     12  C   UNL     1      -4.830  -7.613   0.000  0.00  0.00    +0.000 C 
ATOM     13  C   UNL     1      -4.345  -8.280   0.000  0.00  0.00    +0.000 C 
ATOM     14  O   UNL     1      -4.600  -6.161   0.000  0.00  0.00    +0.000 OA
ATOM     15  O   UNL     1      -5.655  -7.613   0.000  0.00  0.00    +0.000 OA
ATOM     16  O   UNL     1      -3.561  -8.025   0.000  0.00  0.00    +0.000 OA
BRANCH  13  26
ATOM     17  C   UNL     1      -6.814  -9.320   0.000  0.00  0.00    +0.000 A 
ATOM     18  C   UNL     1      -4.115  -9.732   0.000  0.00  0.00    +0.000 A 
ATOM     19  C   UNL     1      -5.385 -10.145   0.000  0.00  0.00    +0.000 A 
ATOM     20  C   UNL     1      -6.099 -10.557   0.000  0.00  0.00    +0.000 A 
ATOM     21  C   UNL     1      -5.385  -9.320   0.000  0.00  0.00    +0.000 A 
ATOM     22  N   UNL     1      -6.099 -11.383   0.000  0.00  0.00    +0.000 NA
ATOM     23  N   UNL     1      -6.814 -10.145   0.000  0.00  0.00    +0.000 NA
ATOM     24  N   UNL     1      -6.099  -8.908   0.000  0.00  0.00    +0.000 NA
ATOM     25  N   UNL     1      -4.600 -10.400   0.000  0.00  0.00    +0.000 NA
ATOM     26  N   UNL     1      -4.600  -9.065   0.000  0.00  0.00    +0.000 N 
ENDBRANCH  13  26
ENDBRANCH   9  10
ENDBRANCH   8   9
ENDBRANCH   7   8
ENDBRANCH   4   7
ENDBRANCH   3   4
BRANCH   3  27
ATOM     27  O   UNL     1      -1.817  -3.284   0.000  0.00  0.00    +0.000 OA
BRANCH  27  29
ATOM     28  O   UNL     1      -1.634  -2.132   0.000  0.00  0.00    +0.000 OA
ATOM     29  P   UNL     1      -1.149  -2.799   0.000  0.00  0.00    +0.000 P 
ATOM     30  S   UNL     1      -0.665  -3.467   0.000  0.00  0.00    +0.000 S 
BRANCH  29  31
ATOM     31  O   UNL     1      -0.482  -2.314   0.000  0.00  0.00    +0.000 OA
BRANCH  31  32
ATOM     32  C   UNL     1      -0.568  -1.494   0.000  0.00  0.00    +0.000 C 
BRANCH  32  33
ATOM     33  C   UNL     1       0.099  -1.009   0.000  0.00  0.00    +0.000 C 
ATOM     34  C   UNL     1       0.884  -1.264   0.000  0.00  0.00    +0.000 C 
ATOM     35  C   UNL     1       1.369  -0.597   0.000  0.00  0.00    +0.000 C 
ATOM     36  C   UNL     1       0.884   0.071   0.000  0.00  0.00    +0.000 C 
ATOM     37  O   UNL     1       1.139  -2.049   0.000  0.00  0.00    +0.000 OA
ATOM     38  O   UNL     1       2.194  -0.597   0.000  0.00  0.00    +0.000 OA
ATOM     39  O   UNL     1       0.099  -0.184   0.000  0.00  0.00    +0.000 OA
BRANCH  36  49
ATOM     40  C   UNL     1       3.352   1.110   0.000  0.00  0.00    +0.000 A 
ATOM     41  C   UNL     1       0.654   1.523   0.000  0.00  0.00    +0.000 A 
ATOM     42  C   UNL     1       1.923   1.935   0.000  0.00  0.00    +0.000 A 
ATOM     43  C   UNL     1       2.638   2.348   0.000  0.00  0.00    +0.000 A 
ATOM     44  C   UNL     1       1.923   1.110   0.000  0.00  0.00    +0.000 A 
ATOM     45  N   UNL     1       2.638   3.173   0.000  0.00  0.00    +0.000 NA
ATOM     46  N   UNL     1       3.352   1.935   0.000  0.00  0.00    +0.000 NA
ATOM     47  N   UNL     1       2.638   0.698   0.000  0.00  0.00    +0.000 NA
ATOM     48  N   UNL     1       1.139   2.190   0.000  0.00  0.00    +0.000 NA
ATOM     49  N   UNL     1       1.139   0.856   0.000  0.00  0.00    +0.000 N 
ENDBRANCH  36  49
ENDBRANCH  32  33
ENDBRANCH  31  32
ENDBRANCH  29  31
ENDBRANCH  27  29
ENDBRANCH   3  27
TORSDOF 12
