REMARK  Name = 
REMARK  3 active torsions:
REMARK  status: ('A' for Active; 'I' for Inactive)
REMARK    1  A    between atoms: C_1  and  C_3
REMARK    2  A    between atoms: C_1  and  CA_4
REMARK    3  A    between atoms: CA_4  and  C_5
REMARK                            x       y       z     vdW  Elec       q    Type
REMARK                         _______ _______ _______ _____ _____    ______ ____
ROOT
ATOM      1  CA  UNL     1      -0.476   2.126   0.000  0.00  0.00    +0.000 C 
ATOM      2  N   UNL     1      -1.191   1.714   0.000  0.00  0.00    +0.000 NA
ENDROOT
BRANCH   1   3
ATOM      3  C   UNL     1      -0.476   2.951   0.000  0.00  0.00    +0.000 C 
ATOM      4  O   UNL     1      -1.191   3.364   0.000  0.00  0.00    +0.000 OA
ATOM      5  OXT UNL     1       0.238   3.364   0.000  0.00  0.00    +0.000 OA
ENDBRANCH   1   3
BRANCH   1   6
ATOM      6  C   UNL     1       0.238   1.714   0.000  0.00  0.00    +0.000 C 
BRANCH   6   8
ATOM      7  C   UNL     1       0.651   0.174   0.000  0.00  0.00    +0.000 C 
ATOM      8  C   UNL     1       0.238   0.889   0.000  0.00  0.00    +0.000 C 
ATOM      9  O   UNL     1      -0.174   0.174   0.000  0.00  0.00    +0.000 OA
ENDBRANCH   6   8
ENDBRANCH   1   6
TORSDOF 3
