REMARK  Name = 
REMARK  1 active torsions:
REMARK  status: ('A' for Active; 'I' for Inactive)
REMARK    1  A    between atoms: S_2  and  C_5
REMARK                            x       y       z     vdW  Elec       q    Type
REMARK                         _______ _______ _______ _____ _____    ______ ____
ROOT
ATOM      1  C   UNL     1       1.429   0.825   0.000  0.00  0.00    +0.000 A 
ATOM      2  C   UNL     1       1.429   0.000   0.000  0.00  0.00    +0.000 A 
ATOM      3  F   UNL     1       2.143  -0.412   0.000  0.00  0.00    +0.000 F 
ATOM      4  C   UNL     1       0.715  -0.412   0.000  0.00  0.00    +0.000 A 
ATOM      5  C   UNL     1       0.000   0.000   0.000  0.00  0.00    +0.000 A 
ATOM      6  C   UNL     1       0.000   0.825   0.000  0.00  0.00    +0.000 A 
ATOM      7  C   UNL     1       0.715   1.238   0.000  0.00  0.00    +0.000 A 
ATOM      8  F   UNL     1       0.715   2.062   0.000  0.00  0.00    +0.000 F 
ENDROOT
BRANCH   1  10
ATOM      9  N   UNL     1       2.858   1.650   0.000  0.00  0.00    +0.000 NA
ATOM     10  S   UNL     1       2.143   1.238   0.000  0.00  0.00    +0.000 S 
ATOM     11  O   UNL     1       1.731   1.952   0.000  0.00  0.00    +0.000 OA
ATOM     12  O   UNL     1       2.556   0.523   0.000  0.00  0.00    +0.000 OA
ENDBRANCH   1  10
TORSDOF 1
