REMARK  Name = 
REMARK  3 active torsions:
REMARK  status: ('A' for Active; 'I' for Inactive)
REMARK    1  A    between atoms: C_2  and  O_12
REMARK    2  A    between atoms: C_9  and  C_10
REMARK    3  A    between atoms: O_12  and  P_15
REMARK                            x       y       z     vdW  Elec       q    Type
REMARK                         _______ _______ _______ _____ _____    ______ ____
ROOT
ATOM      1  O   UNL     1      -0.239   0.757   0.000  0.00  0.00    +0.000 OA
ATOM      2  C   UNL     1       0.476   0.344   0.000  0.00  0.00    +0.000 C 
ATOM      3  C   UNL     1       0.476  -0.481   0.000  0.00  0.00    +0.000 C 
ATOM      4  O   UNL     1       1.190  -0.893   0.000  0.00  0.00    +0.000 OA
ATOM      5  C   UNL     1      -0.239  -0.893   0.000  0.00  0.00    +0.000 C 
ATOM      6  O   UNL     1      -0.239  -1.718   0.000  0.00  0.00    +0.000 OA
ATOM      7  C   UNL     1      -0.953  -0.481   0.000  0.00  0.00    +0.000 C 
ATOM      8  O   UNL     1      -1.668  -0.893   0.000  0.00  0.00    +0.000 OA
ATOM      9  C   UNL     1      -0.953   0.344   0.000  0.00  0.00    +0.000 C 
ENDROOT
BRANCH   9  10
ATOM     10  C   UNL     1      -1.668   0.757   0.000  0.00  0.00    +0.000 C 
ATOM     11  O   UNL     1      -2.382   0.344   0.000  0.00  0.00    +0.000 OA
ENDBRANCH   9  10
BRANCH   2  12
ATOM     12  O   UNL     1       1.190   0.757   0.000  0.00  0.00    +0.000 OA
BRANCH  12  15
ATOM     13  O   UNL     1       2.015   1.582   0.000  0.00  0.00    +0.000 OA
ATOM     14  O   UNL     1       2.840   0.757   0.000  0.00  0.00    +0.000 OA
ATOM     15  P   UNL     1       2.015   0.757   0.000  0.00  0.00    +0.000 P 
ATOM     16  O   UNL     1       2.015  -0.068   0.000  0.00  0.00    +0.000 OA
ENDBRANCH  12  15
ENDBRANCH   2  12
TORSDOF 3
