REMARK  Name = 
REMARK  8 active torsions:
REMARK  status: ('A' for Active; 'I' for Inactive)
REMARK    1  A    between atoms: C_2  and  C_4
REMARK    2  A    between atoms: C_4  and  C_5
REMARK    3  A    between atoms: C_4  and  N_13
REMARK    4  A    between atoms: C_5  and  C_6
REMARK    5  A    between atoms: C_6  and  C_7
REMARK    6  A    between atoms: C_7  and  C_8
REMARK    7  A    between atoms: C_8  and  C_9
REMARK    8  A    between atoms: C_9  and  C_10
REMARK                            x       y       z     vdW  Elec       q    Type
REMARK                         _______ _______ _______ _____ _____    ______ ____
ROOT
ATOM      1  C   UNL     1       9.237   2.858   0.000  0.00  0.00    +0.000 C 
ENDROOT
BRANCH   1   2
ATOM      2  N   UNL     1       9.951   3.270   0.000  0.00  0.00    +0.000 NA
ATOM      3  C   UNL     1      10.666   2.858   0.000  0.00  0.00    +0.000 C 
ATOM      4  O   UNL     1      11.380   3.270   0.000  0.00  0.00    +0.000 OA
ATOM      5  O   UNL     1      10.666   2.033   0.000  0.00  0.00    +0.000 OA
ENDBRANCH   1   2
BRANCH   1   7
ATOM      6  C   UNL     1       9.951   1.620   0.000  0.00  0.00    +0.000 C 
ATOM      7  C   UNL     1       9.237   2.033   0.000  0.00  0.00    +0.000 C 
ATOM      8  N   UNL     1       8.522   1.620   0.000  0.00  0.00    +0.000 NA
ENDBRANCH   1   7
BRANCH   1   9
ATOM      9  C   UNL     1       8.522   3.270   0.000  0.00  0.00    +0.000 C 
BRANCH   9  10
ATOM     10  C   UNL     1       7.808   2.858   0.000  0.00  0.00    +0.000 C 
BRANCH  10  11
ATOM     11  C   UNL     1       7.093   3.270   0.000  0.00  0.00    +0.000 C 
BRANCH  11  12
ATOM     12  C   UNL     1       6.379   2.858   0.000  0.00  0.00    +0.000 C 
BRANCH  12  13
ATOM     13  C   UNL     1       5.665   3.270   0.000  0.00  0.00    +0.000 C 
BRANCH  13  14
ATOM     14  C   UNL     1       4.950   2.858   0.000  0.00  0.00    +0.000 C 
ATOM     15  O   UNL     1       4.236   3.270   0.000  0.00  0.00    +0.000 OA
ATOM     16  O   UNL     1       4.950   2.033   0.000  0.00  0.00    +0.000 OA
ENDBRANCH  13  14
ENDBRANCH  12  13
ENDBRANCH  11  12
ENDBRANCH  10  11
ENDBRANCH   9  10
ENDBRANCH   1   9
TORSDOF 8
