REMARK  Name = 
REMARK  6 active torsions:
REMARK  status: ('A' for Active; 'I' for Inactive)
REMARK    1  A    between atoms: C_7  and  O_14
REMARK    2  A    between atoms: C_10  and  N_15
REMARK    3  A    between atoms: O_14  and  C_19
REMARK    4  A    between atoms: C_24  and  N_30
REMARK    5  A    between atoms: C_29  and  O_32
REMARK    6  A    between atoms: O_32  and  C_36
REMARK                            x       y       z     vdW  Elec       q    Type
REMARK                         _______ _______ _______ _____ _____    ______ ____
ROOT
ATOM      1  C   UNL     1       1.307  -0.319   0.000  0.00  0.00    +0.000 C 
ATOM      2  C   UNL     1       0.599  -0.726   0.000  0.00  0.00    +0.000 C 
ATOM      3  C   UNL     1       1.317   0.503   0.000  0.00  0.00    +0.000 C 
ATOM      4  C   UNL     1       2.734  -0.336   0.000  0.00  0.00    +0.000 C 
ATOM      5  C   UNL     1      -0.113  -0.308   0.000  0.00  0.00    +0.000 C 
ATOM      6  C   UNL     1       0.599  -1.551   0.000  0.00  0.00    +0.000 C 
ATOM      7  C   UNL     1       2.036   0.906   0.000  0.00  0.00    +0.000 C 
ATOM      8  C   UNL     1       0.613   0.924   0.000  0.00  0.00    +0.000 C 
ATOM      9  C   UNL     1       1.335   1.289   0.000  0.00  0.00    +0.000 C 
ATOM     10  C   UNL     1       2.744   0.485   0.000  0.00  0.00    +0.000 C 
ATOM     11  C   UNL     1      -0.832  -0.715   0.000  0.00  0.00    +0.000 C 
ATOM     12  C   UNL     1      -0.106   0.513   0.000  0.00  0.00    +0.000 C 
ATOM     13  C   UNL     1      -0.120  -1.962   0.000  0.00  0.00    +0.000 C 
ATOM     14  C   UNL     1      -0.836  -1.547   0.000  0.00  0.00    +0.000 C 
ATOM     15  C   UNL     1      -1.547  -0.305   0.000  0.00  0.00    +0.000 C 
ATOM     16  C   UNL     1      -0.797   0.078   0.000  0.00  0.00    +0.000 C 
ATOM     17  C   UNL     1      -1.547  -1.958   0.000  0.00  0.00    +0.000 C 
ATOM     18  C   UNL     1      -2.259  -0.715   0.000  0.00  0.00    +0.000 C 
ATOM     19  C   UNL     1      -2.259  -1.547   0.000  0.00  0.00    +0.000 C 
ENDROOT
BRANCH  18  20
ATOM     20  N   UNL     1      -3.063  -0.181   0.000  0.00  0.00    +0.000 N 
ATOM     21  C   UNL     1      -3.059   0.641   0.000  0.00  0.00    +0.000 C 
ATOM     22  C   UNL     1      -3.775  -0.595   0.000  0.00  0.00    +0.000 C 
ATOM     23  C   UNL     1      -2.302   0.411   0.000  0.00  0.00    +0.000 C 
ATOM     24  C   UNL     1      -3.775   1.055   0.000  0.00  0.00    +0.000 C 
ATOM     25  C   UNL     1      -4.490  -0.184   0.000  0.00  0.00    +0.000 C 
ATOM     26  C   UNL     1      -4.487   0.641   0.000  0.00  0.00    +0.000 C 
ENDBRANCH  18  20
BRANCH  10  27
ATOM     27  N   UNL     1       3.463   0.892   0.000  0.00  0.00    +0.000 N 
ATOM     28  C   UNL     1       4.171   0.467   0.000  0.00  0.00    +0.000 C 
ATOM     29  C   UNL     1       3.470   1.714   0.000  0.00  0.00    +0.000 C 
ATOM     30  C   UNL     1       3.467  -0.088   0.000  0.00  0.00    +0.000 C 
ATOM     31  C   UNL     1       4.890   0.871   0.000  0.00  0.00    +0.000 C 
ATOM     32  C   UNL     1       4.189   2.121   0.000  0.00  0.00    +0.000 C 
ATOM     33  C   UNL     1       4.901   1.696   0.000  0.00  0.00    +0.000 C 
ENDBRANCH  10  27
BRANCH   7  34
ATOM     34  O   UNL     1       2.086   1.827   0.000  0.00  0.00    +0.000 OA
BRANCH  34  35
ATOM     35  C   UNL     1       1.374   2.252   0.000  0.00  0.00    +0.000 C 
ATOM     36  C   UNL     1       0.652   1.845   0.000  0.00  0.00    +0.000 C 
ATOM     37  O   UNL     1       1.385   3.077   0.000  0.00  0.00    +0.000 OA
ENDBRANCH  34  35
ENDBRANCH   7  34
BRANCH  19  38
ATOM     38  O   UNL     1      -2.978  -1.958   0.000  0.00  0.00    +0.000 OA
BRANCH  38  39
ATOM     39  C   UNL     1      -2.978  -2.783   0.000  0.00  0.00    +0.000 C 
ATOM     40  C   UNL     1      -3.693  -3.197   0.000  0.00  0.00    +0.000 C 
ATOM     41  O   UNL     1      -2.259  -3.197   0.000  0.00  0.00    +0.000 OA
ENDBRANCH  38  39
ENDBRANCH  19  38
TORSDOF 6
