REMARK  Name = 
REMARK  7 active torsions:
REMARK  status: ('A' for Active; 'I' for Inactive)
REMARK    1  A    between atoms: C_4  and  C_8
REMARK    2  A    between atoms: C_8  and  C_9
REMARK    3  A    between atoms: C_9  and  C_10
REMARK    4  A    between atoms: C_9  and  N_22
REMARK    5  A    between atoms: N_11  and  C_13
REMARK    6  A    between atoms: C_16  and  C_19
REMARK    7  A    between atoms: C_23  and  C_24
REMARK                            x       y       z     vdW  Elec       q    Type
REMARK                         _______ _______ _______ _____ _____    ______ ____
ROOT
ATOM      1  C   UNL     1       7.219  -4.811   0.000  0.00  0.00    +0.000 C 
ENDROOT
BRANCH   1   2
ATOM      2  C   UNL     1       7.934  -4.399   0.000  0.00  0.00    +0.000 C 
ATOM      3  N   UNL     1       8.648  -4.812   0.000  0.00  0.00    +0.000 NA
ATOM      4  O   UNL     1       7.934  -3.574   0.000  0.00  0.00    +0.000 OA
BRANCH   3   5
ATOM      5  C   UNL     1       9.363  -4.401   0.000  0.00  0.00    +0.000 A 
ATOM      6  C   UNL     1       9.362  -3.577   0.000  0.00  0.00    +0.000 A 
ATOM      7  C   UNL     1      10.077  -3.165   0.000  0.00  0.00    +0.000 A 
ATOM      8  C   UNL     1      10.791  -3.578   0.000  0.00  0.00    +0.000 A 
ATOM      9  C   UNL     1      10.791  -4.403   0.000  0.00  0.00    +0.000 A 
ATOM     10  C   UNL     1      10.076  -4.815   0.000  0.00  0.00    +0.000 A 
BRANCH   8  11
ATOM     11  C   UNL     1      11.506  -3.166   0.000  0.00  0.00    +0.000 C 
ATOM     12  O   UNL     1      11.507  -2.341   0.000  0.00  0.00    +0.000 OA
ATOM     13  O   UNL     1      12.220  -3.579   0.000  0.00  0.00    +0.000 OA
ENDBRANCH   8  11
ENDBRANCH   3   5
ENDBRANCH   1   2
BRANCH   1  14
ATOM     14  N   UNL     1       7.218  -5.636   0.000  0.00  0.00    +0.000 NA
ATOM     15  C   UNL     1       7.933  -6.049   0.000  0.00  0.00    +0.000 C 
ATOM     16  O   UNL     1       8.647  -5.637   0.000  0.00  0.00    +0.000 OA
BRANCH  15  17
ATOM     17  C   UNL     1       7.932  -6.874   0.000  0.00  0.00    +0.000 A 
ATOM     18  C   UNL     1       8.646  -7.283   0.000  0.00  0.00    +0.000 A 
ATOM     19  C   UNL     1       8.645  -8.108   0.000  0.00  0.00    +0.000 A 
ATOM     20  C   UNL     1       7.930  -8.520   0.000  0.00  0.00    +0.000 A 
ATOM     21  C   UNL     1       7.216  -8.107   0.000  0.00  0.00    +0.000 A 
ATOM     22  C   UNL     1       7.217  -7.282   0.000  0.00  0.00    +0.000 A 
ENDBRANCH  15  17
ENDBRANCH   1  14
BRANCH   1  23
ATOM     23  C   UNL     1       6.505  -4.398   0.000  0.00  0.00    +0.000 C 
BRANCH  23  27
ATOM     24  C   UNL     1       4.362  -5.635   0.000  0.00  0.00    +0.000 A 
ATOM     25  C   UNL     1       4.362  -4.810   0.000  0.00  0.00    +0.000 A 
ATOM     26  C   UNL     1       5.078  -4.398   0.000  0.00  0.00    +0.000 A 
ATOM     27  C   UNL     1       5.790  -4.810   0.000  0.00  0.00    +0.000 A 
ATOM     28  C   UNL     1       5.790  -5.635   0.000  0.00  0.00    +0.000 A 
ATOM     29  C   UNL     1       5.078  -6.048   0.000  0.00  0.00    +0.000 A 
ATOM     30  O   UNL     1       3.648  -6.048   0.000  0.00  0.00    +0.000 OA
ENDBRANCH  23  27
ENDBRANCH   1  23
TORSDOF 7
