REMARK  Name = 
REMARK  4 active torsions:
REMARK  status: ('A' for Active; 'I' for Inactive)
REMARK    1  A    between atoms: C_3  and  C_12
REMARK    2  A    between atoms: C_12  and  N_20
REMARK    3  A    between atoms: C_14  and  C_16
REMARK    4  A    between atoms: C_14  and  N_20
REMARK                            x       y       z     vdW  Elec       q    Type
REMARK                         _______ _______ _______ _____ _____    ______ ____
ROOT
ATOM      1  C   UNL     1       3.395   2.033   0.000  0.00  0.00    +0.000 A 
ATOM      2  C   UNL     1      -0.438   4.646   0.000  0.00  0.00    +0.000 A 
ATOM      3  C   UNL     1       3.697   2.800   0.000  0.00  0.00    +0.000 A 
ATOM      4  C   UNL     1       0.166   5.207   0.000  0.00  0.00    +0.000 A 
ATOM      5  C   UNL     1       2.579   1.909   0.000  0.00  0.00    +0.000 A 
ATOM      6  C   UNL     1      -0.255   3.842   0.000  0.00  0.00    +0.000 A 
ATOM      7  C   UNL     1       3.182   3.446   0.000  0.00  0.00    +0.000 A 
ATOM      8  C   UNL     1       0.955   4.964   0.000  0.00  0.00    +0.000 A 
ATOM      9  C   UNL     1       1.277   2.311   0.000  0.00  0.00    +0.000 C 
ATOM     10  C   UNL     1       2.065   2.554   0.000  0.00  0.00    +0.000 A 
ATOM     11  C   UNL     1       0.595   2.776   0.000  0.00  0.00    +0.000 C 
ATOM     12  C   UNL     1       0.533   3.599   0.000  0.00  0.00    +0.000 A 
ATOM     13  C   UNL     1       2.367   3.322   0.000  0.00  0.00    +0.000 A 
ATOM     14  C   UNL     1       1.138   4.160   0.000  0.00  0.00    +0.000 A 
ATOM     15  O   UNL     1       1.954   4.037   0.000  0.00  0.00    +0.000 OA
ENDROOT
BRANCH  11  16
ATOM     16  C   UNL     1      -0.119   2.364   0.000  0.00  0.00    +0.000 C 
BRANCH  16  18
ATOM     17  C   UNL     1      -0.834   3.601   0.000  0.00  0.00    +0.000 C 
ATOM     18  N   UNL     1      -0.834   2.776   0.000  0.00  0.00    +0.000 NA
BRANCH  18  19
ATOM     19  C   UNL     1      -1.548   2.364   0.000  0.00  0.00    +0.000 C 
BRANCH  19  21
ATOM     20  C   UNL     1      -2.977   3.189   0.000  0.00  0.00    +0.000 C 
ATOM     21  C   UNL     1      -2.263   2.776   0.000  0.00  0.00    +0.000 C 
ENDBRANCH  19  21
ENDBRANCH  18  19
ENDBRANCH  16  18
ENDBRANCH  11  16
TORSDOF 4
