REMARK  Name = 
REMARK  10 active torsions:
REMARK  status: ('A' for Active; 'I' for Inactive)
REMARK    1  A    between atoms: C_1  and  C_5
REMARK    2  A    between atoms: C_2  and  C_6
REMARK    3  A    between atoms: C_3  and  C_7
REMARK    4  A    between atoms: C_4  and  C_8
REMARK    5  A    between atoms: C_18  and  O_43
REMARK    6  A    between atoms: C_19  and  O_44
REMARK    7  A    between atoms: C_20  and  O_45
REMARK    8  A    between atoms: C_22  and  O_44
REMARK    9  A    between atoms: C_23  and  O_43
REMARK   10  A    between atoms: C_24  and  O_45
REMARK                            x       y       z     vdW  Elec       q    Type
REMARK                         _______ _______ _______ _____ _____    ______ ____
ROOT
ATOM      1  O   UNL     1      -0.715  -5.362   0.000  0.00  0.00    +0.000 OA
ENDROOT
BRANCH   1   5
ATOM      2  C   UNL     1       0.000  -4.125   0.000  0.00  0.00    +0.000 C 
ATOM      3  C   UNL     1       0.715  -5.362   0.000  0.00  0.00    +0.000 C 
ATOM      4  C   UNL     1       1.429  -4.950   0.000  0.00  0.00    +0.000 C 
ATOM      5  C   UNL     1       0.000  -4.950   0.000  0.00  0.00    +0.000 C 
ATOM      6  C   UNL     1       1.429  -4.125   0.000  0.00  0.00    +0.000 C 
ATOM      7  O   UNL     1       0.715  -6.188   0.000  0.00  0.00    +0.000 OA
ATOM      8  O   UNL     1       2.143  -5.362   0.000  0.00  0.00    +0.000 OA
ATOM      9  O   UNL     1       0.715  -3.712   0.000  0.00  0.00    +0.000 OA
BRANCH   2  10
ATOM     10  C   UNL     1      -0.715  -3.712   0.000  0.00  0.00    +0.000 C 
ATOM     11  O   UNL     1      -0.715  -2.888   0.000  0.00  0.00    +0.000 OA
ENDBRANCH   2  10
BRANCH   6  12
ATOM     12  O   UNL     1       2.143  -3.712   0.000  0.00  0.00    +0.000 OA
BRANCH  12  16
ATOM     13  C   UNL     1       1.429  -2.475   0.000  0.00  0.00    +0.000 C 
ATOM     14  C   UNL     1       2.858  -2.475   0.000  0.00  0.00    +0.000 C 
ATOM     15  C   UNL     1       2.858  -1.650   0.000  0.00  0.00    +0.000 C 
ATOM     16  C   UNL     1       2.143  -2.888   0.000  0.00  0.00    +0.000 C 
ATOM     17  C   UNL     1       2.143  -1.238   0.000  0.00  0.00    +0.000 C 
ATOM     18  O   UNL     1       3.572  -2.888   0.000  0.00  0.00    +0.000 OA
ATOM     19  O   UNL     1       3.572  -1.238   0.000  0.00  0.00    +0.000 OA
ATOM     20  O   UNL     1       2.143  -0.412   0.000  0.00  0.00    +0.000 OA
ATOM     21  O   UNL     1       1.429  -1.650   0.000  0.00  0.00    +0.000 OA
BRANCH  13  22
ATOM     22  C   UNL     1       0.715  -2.888   0.000  0.00  0.00    +0.000 C 
ATOM     23  O   UNL     1       0.000  -2.475   0.000  0.00  0.00    +0.000 OA
ENDBRANCH  13  22
ENDBRANCH  12  16
ENDBRANCH   6  12
ENDBRANCH   1   5
BRANCH   1  28
ATOM     24  C   UNL     1      -2.143  -3.712   0.000  0.00  0.00    +0.000 C 
ATOM     25  C   UNL     1      -2.858  -4.950   0.000  0.00  0.00    +0.000 C 
ATOM     26  C   UNL     1      -2.143  -5.362   0.000  0.00  0.00    +0.000 C 
ATOM     27  C   UNL     1      -2.858  -4.125   0.000  0.00  0.00    +0.000 C 
ATOM     28  C   UNL     1      -1.429  -4.950   0.000  0.00  0.00    +0.000 C 
ATOM     29  O   UNL     1      -3.572  -5.362   0.000  0.00  0.00    +0.000 OA
ATOM     30  O   UNL     1      -2.143  -6.188   0.000  0.00  0.00    +0.000 OA
ATOM     31  O   UNL     1      -1.429  -4.125   0.000  0.00  0.00    +0.000 OA
BRANCH  24  32
ATOM     32  C   UNL     1      -2.143  -2.888   0.000  0.00  0.00    +0.000 C 
ATOM     33  O   UNL     1      -1.429  -2.475   0.000  0.00  0.00    +0.000 OA
ENDBRANCH  24  32
BRANCH  27  34
ATOM     34  O   UNL     1      -3.572  -3.712   0.000  0.00  0.00    +0.000 OA
BRANCH  34  39
ATOM     35  C   UNL     1      -2.858  -1.650   0.000  0.00  0.00    +0.000 C 
ATOM     36  C   UNL     1      -3.572  -1.238   0.000  0.00  0.00    +0.000 C 
ATOM     37  C   UNL     1      -4.287  -1.650   0.000  0.00  0.00    +0.000 C 
ATOM     38  C   UNL     1      -4.287  -2.475   0.000  0.00  0.00    +0.000 C 
ATOM     39  C   UNL     1      -3.572  -2.888   0.000  0.00  0.00    +0.000 C 
ATOM     40  O   UNL     1      -3.572  -0.412   0.000  0.00  0.00    +0.000 OA
ATOM     41  O   UNL     1      -5.001  -1.238   0.000  0.00  0.00    +0.000 OA
ATOM     42  O   UNL     1      -5.001  -2.888   0.000  0.00  0.00    +0.000 OA
ATOM     43  O   UNL     1      -2.858  -2.475   0.000  0.00  0.00    +0.000 OA
BRANCH  35  44
ATOM     44  C   UNL     1      -2.143  -1.238   0.000  0.00  0.00    +0.000 C 
ATOM     45  O   UNL     1      -2.143  -0.412   0.000  0.00  0.00    +0.000 OA
ENDBRANCH  35  44
ENDBRANCH  34  39
ENDBRANCH  27  34
ENDBRANCH   1  28
TORSDOF 10
