REMARK  Name = 
REMARK  0 active torsions:
REMARK  status: ('A' for Active; 'I' for Inactive)
REMARK                            x       y       z     vdW  Elec       q    Type
REMARK                         _______ _______ _______ _____ _____    ______ ____
ROOT
ATOM      1  C   UNL     1       2.020   0.884   0.000  0.00  0.00    +0.000 C 
ATOM      2  N   UNL     1       1.235   0.629   0.000  0.00  0.00    +0.000 N 
ATOM      3  C   UNL     1       0.980  -0.155   0.000  0.00  0.00    +0.000 C 
ATOM      4  O   UNL     1       1.465  -0.823   0.000  0.00  0.00    +0.000 OA
ATOM      5  C   UNL     1       0.155  -0.155   0.000  0.00  0.00    +0.000 C 
ATOM      6  C   UNL     1      -0.100   0.629   0.000  0.00  0.00    +0.000 C 
ATOM      7  C   UNL     1       0.568   1.114   0.000  0.00  0.00    +0.000 C 
ATOM      8  C   UNL     1       0.163   1.833   0.000  0.00  0.00    +0.000 C 
ATOM      9  C   UNL     1       0.973   1.833   0.000  0.00  0.00    +0.000 C 
ENDROOT
TORSDOF 0
