REMARK  Name = 
REMARK  5 active torsions:
REMARK  status: ('A' for Active; 'I' for Inactive)
REMARK    1  A    between atoms: C_8  and  C_9
REMARK    2  A    between atoms: C_8  and  O_25
REMARK    3  A    between atoms: C_10  and  C_18
REMARK    4  A    between atoms: C_11  and  C_17
REMARK    5  A    between atoms: C_15  and  O_25
REMARK                            x       y       z     vdW  Elec       q    Type
REMARK                         _______ _______ _______ _____ _____    ______ ____
ROOT
ATOM      1  C   UNL     1       1.356   0.698   0.000  0.00  0.00    +0.000 A 
ATOM      2  C   UNL     1       1.356   2.348   0.000  0.00  0.00    +0.000 A 
ATOM      3  C   UNL     1       2.070   1.110   0.000  0.00  0.00    +0.000 A 
ATOM      4  C   UNL     1       2.070   1.935   0.000  0.00  0.00    +0.000 A 
ATOM      5  C   UNL     1       0.641   1.110   0.000  0.00  0.00    +0.000 A 
ATOM      6  C   UNL     1       0.641   1.935   0.000  0.00  0.00    +0.000 A 
ATOM      7  C   UNL     1      -0.628   1.523   0.000  0.00  0.00    +0.000 A 
ATOM      8 CL   UNL     1       2.784   2.348   0.000  0.00  0.00    +0.000 Cl
ATOM      9  N   UNL     1      -0.143   0.856   0.000  0.00  0.00    +0.000 NA
ATOM     10  N   UNL     1      -0.143   2.190   0.000  0.00  0.00    +0.000 NA
ENDROOT
BRANCH   7  14
ATOM     11  C   UNL     1      -2.691   0.808   0.000  0.00  0.00    +0.000 A 
ATOM     12  C   UNL     1      -1.866   0.808   0.000  0.00  0.00    +0.000 A 
ATOM     13  C   UNL     1      -3.103   1.523   0.000  0.00  0.00    +0.000 A 
ATOM     14  C   UNL     1      -1.453   1.523   0.000  0.00  0.00    +0.000 A 
ATOM     15  C   UNL     1      -2.691   2.237   0.000  0.00  0.00    +0.000 A 
ATOM     16  C   UNL     1      -1.866   2.237   0.000  0.00  0.00    +0.000 A 
ATOM     17  O   UNL     1      -1.453   2.952   0.000  0.00  0.00    +0.000 OA
BRANCH  15  18
ATOM     18  O   UNL     1      -3.103   2.952   0.000  0.00  0.00    +0.000 OA
BRANCH  18  19
ATOM     19  C   UNL     1      -3.928   2.952   0.000  0.00  0.00    +0.000 C 
BRANCH  19  22
ATOM     20  C   UNL     1      -5.166   3.666   0.000  0.00  0.00    +0.000 C 
ATOM     21  C   UNL     1      -3.928   4.381   0.000  0.00  0.00    +0.000 C 
ATOM     22  C   UNL     1      -4.341   3.666   0.000  0.00  0.00    +0.000 C 
ENDBRANCH  19  22
ENDBRANCH  18  19
ENDBRANCH  15  18
ENDBRANCH   7  14
BRANCH   3  23
ATOM     23  C   UNL     1       2.784   0.698   0.000  0.00  0.00    +0.000 C 
ATOM     24  N   UNL     1       3.499   1.110   0.000  0.00  0.00    +0.000 NA
ATOM     25  N   UNL     1       2.784  -0.127   0.000  0.00  0.00    +0.000 NA
ENDBRANCH   3  23
TORSDOF 5
