REMARK  Name = 
REMARK  3 active torsions:
REMARK  status: ('A' for Active; 'I' for Inactive)
REMARK    1  A    between atoms: C_4  and  C_5
REMARK    2  A    between atoms: C_7  and  C_8
REMARK    3  A    between atoms: C_18  and  C_19
REMARK                            x       y       z     vdW  Elec       q    Type
REMARK                         _______ _______ _______ _____ _____    ______ ____
ROOT
ATOM      1  C   UNL     1       0.715  -0.412   0.000  0.00  0.00    +0.000 C 
ATOM      2  N   UNL     1       0.715  -1.238   0.000  0.00  0.00    +0.000 N 
ATOM      3  N   UNL     1       1.382  -1.722   0.000  0.00  0.00    +0.000 NA
ATOM      4  C   UNL     1       1.127  -2.507   0.000  0.00  0.00    +0.000 A 
ATOM      5  C   UNL     1       0.302  -2.507   0.000  0.00  0.00    +0.000 A 
ATOM      6 BR   UNL     1      -0.183  -3.175   0.000  0.00  0.00    +0.000 Br
ATOM      7  C   UNL     1       0.047  -1.722   0.000  0.00  0.00    +0.000 A 
ENDROOT
BRANCH   4   8
ATOM      8  C   UNL     1       1.612  -3.175   0.000  0.00  0.00    +0.000 A 
ATOM      9  C   UNL     1       2.432  -3.088   0.000  0.00  0.00    +0.000 A 
ATOM     10  C   UNL     1       2.917  -3.756   0.000  0.00  0.00    +0.000 A 
ATOM     11  C   UNL     1       2.582  -4.509   0.000  0.00  0.00    +0.000 A 
ATOM     12 CL   UNL     1       3.067  -5.177   0.000  0.00  0.00    +0.000 Cl
ATOM     13  C   UNL     1       1.761  -4.596   0.000  0.00  0.00    +0.000 A 
ATOM     14  C   UNL     1       1.276  -3.928   0.000  0.00  0.00    +0.000 A 
ATOM     15  F   UNL     1       0.456  -4.014   0.000  0.00  0.00    +0.000 F 
BRANCH  10  16
ATOM     16  C   UNL     1       3.738  -3.670   0.000  0.00  0.00    +0.000 C 
ATOM     17  O   UNL     1       4.223  -4.337   0.000  0.00  0.00    +0.000 OA
ATOM     18  O   UNL     1       4.073  -2.916   0.000  0.00  0.00    +0.000 OA
ENDBRANCH  10  16
ENDBRANCH   4   8
BRANCH   7  19
ATOM     19  C   UNL     1      -0.738  -1.468   0.000  0.00  0.00    +0.000 C 
ATOM     20  F   UNL     1      -1.522  -1.212   0.000  0.00  0.00    +0.000 F 
ATOM     21  F   UNL     1      -0.483  -0.683   0.000  0.00  0.00    +0.000 F 
ATOM     22  F   UNL     1      -0.993  -2.252   0.000  0.00  0.00    +0.000 F 
ENDBRANCH   7  19
TORSDOF 3
