REMARK  Name = 
REMARK  6 active torsions:
REMARK  status: ('A' for Active; 'I' for Inactive)
REMARK    1  A    between atoms: N_2  and  C_11
REMARK    2  A    between atoms: C_4  and  C_9
REMARK    3  A    between atoms: C_9  and  C_10
REMARK    4  A    between atoms: C_10  and  C_12
REMARK    5  A    between atoms: C_11  and  C_13
REMARK    6  A    between atoms: C_12  and  C_14
REMARK                            x       y       z     vdW  Elec       q    Type
REMARK                         _______ _______ _______ _____ _____    ______ ____
ROOT
ATOM      1  C   UNL     1       4.984  -0.464   0.000  0.00  0.00    +0.000 C 
ENDROOT
BRANCH   1   3
ATOM      2  N   UNL     1       2.945  -1.866   0.000  0.00  0.00    +0.000 NA
ATOM      3  C   UNL     1       4.305  -0.931   0.000  0.00  0.00    +0.000 C 
ATOM      4  C   UNL     1       3.560  -0.576   0.000  0.00  0.00    +0.000 C 
ATOM      5  C   UNL     1       4.369  -1.754   0.000  0.00  0.00    +0.000 C 
ATOM      6  C   UNL     1       2.880  -1.044   0.000  0.00  0.00    +0.000 C 
ATOM      7  C   UNL     1       3.690  -2.221   0.000  0.00  0.00    +0.000 C 
BRANCH   2   8
ATOM      8  C   UNL     1       2.265  -2.334   0.000  0.00  0.00    +0.000 C 
BRANCH   8   9
ATOM      9  C   UNL     1       2.330  -3.156   0.000  0.00  0.00    +0.000 A 
ATOM     10  C   UNL     1       3.075  -3.511   0.000  0.00  0.00    +0.000 A 
ATOM     11  C   UNL     1       1.650  -3.623   0.000  0.00  0.00    +0.000 A 
ATOM     12  C   UNL     1       3.139  -4.334   0.000  0.00  0.00    +0.000 A 
ATOM     13  C   UNL     1       1.715  -4.446   0.000  0.00  0.00    +0.000 A 
ATOM     14  C   UNL     1       2.459  -4.801   0.000  0.00  0.00    +0.000 A 
ENDBRANCH   8   9
ENDBRANCH   2   8
ENDBRANCH   1   3
BRANCH   1  15
ATOM     15  C   UNL     1       4.920   0.358   0.000  0.00  0.00    +0.000 C 
BRANCH  15  17
ATOM     16  O   UNL     1       6.344   0.471   0.000  0.00  0.00    +0.000 OA
ATOM     17  C   UNL     1       5.599   0.826   0.000  0.00  0.00    +0.000 C 
BRANCH  17  19
ATOM     18  N   UNL     1       6.907   3.352   0.000  0.00  0.00    +0.000 NA
ATOM     19  C   UNL     1       5.535   1.648   0.000  0.00  0.00    +0.000 A 
ATOM     20  C   UNL     1       5.420   3.352   0.000  0.00  0.00    +0.000 A 
ATOM     21  C   UNL     1       5.237   4.156   0.000  0.00  0.00    +0.000 C 
ATOM     22  C   UNL     1       6.164   2.994   0.000  0.00  0.00    +0.000 A 
ATOM     23  C   UNL     1       5.751   4.801   0.000  0.00  0.00    +0.000 C 
ATOM     24  C   UNL     1       6.576   4.801   0.000  0.00  0.00    +0.000 C 
ATOM     25  C   UNL     1       6.241   2.138   0.000  0.00  0.00    +0.000 A 
ATOM     26  C   UNL     1       7.090   4.156   0.000  0.00  0.00    +0.000 C 
ATOM     27  C   UNL     1       4.761   2.021   0.000  0.00  0.00    +0.000 A 
ATOM     28  C   UNL     1       4.703   2.878   0.000  0.00  0.00    +0.000 A 
ENDBRANCH  17  19
ENDBRANCH  15  17
ENDBRANCH   1  15
TORSDOF 6
