REMARK  Name = 
REMARK  3 active torsions:
REMARK  status: ('A' for Active; 'I' for Inactive)
REMARK    1  A    between atoms: C_2  and  C_3
REMARK    2  A    between atoms: C_5  and  O_6
REMARK    3  A    between atoms: O_6  and  C_7
REMARK                            x       y       z     vdW  Elec       q    Type
REMARK                         _______ _______ _______ _____ _____    ______ ____
ROOT
ATOM      1  C   UNL     1       2.143  -1.238   0.000  0.00  0.00    +0.000 C 
ATOM      2  O   UNL     1       1.429  -1.650   0.000  0.00  0.00    +0.000 OA
ATOM      3  C   UNL     1       1.429  -2.475   0.000  0.00  0.00    +0.000 C 
ATOM      4  C   UNL     1       2.143  -2.888   0.000  0.00  0.00    +0.000 C 
ATOM      5  N   UNL     1       2.143  -3.712   0.000  0.00  0.00    +0.000 NA
ATOM      6  C   UNL     1       2.858  -2.475   0.000  0.00  0.00    +0.000 C 
ATOM      7  O   UNL     1       3.572  -2.888   0.000  0.00  0.00    +0.000 OA
ATOM      8  C   UNL     1       2.858  -1.650   0.000  0.00  0.00    +0.000 C 
ATOM      9  O   UNL     1       3.572  -1.238   0.000  0.00  0.00    +0.000 OA
ENDROOT
BRANCH   1  11
ATOM     10  N   UNL     1       2.858   0.000   0.000  0.00  0.00    +0.000 NA
ATOM     11  C   UNL     1       2.143  -0.412   0.000  0.00  0.00    +0.000 C 
ENDBRANCH   1  11
BRANCH   3  12
ATOM     12  O   UNL     1       0.715  -2.888   0.000  0.00  0.00    +0.000 OA
BRANCH  12  13
ATOM     13  C   UNL     1       0.000  -2.475   0.000  0.00  0.00    +0.000 C 
ATOM     14  C   UNL     1      -0.715  -2.888   0.000  0.00  0.00    +0.000 C 
ATOM     15  N   UNL     1      -0.715  -3.712   0.000  0.00  0.00    +0.000 NA
ATOM     16  C   UNL     1      -1.429  -2.475   0.000  0.00  0.00    +0.000 C 
ATOM     17  C   UNL     1      -1.429  -1.650   0.000  0.00  0.00    +0.000 C 
ATOM     18  N   UNL     1      -2.143  -1.238   0.000  0.00  0.00    +0.000 NA
ATOM     19  C   UNL     1      -0.715  -1.238   0.000  0.00  0.00    +0.000 C 
ATOM     20  O   UNL     1      -0.715  -0.412   0.000  0.00  0.00    +0.000 OA
ATOM     21  C   UNL     1       0.000  -1.650   0.000  0.00  0.00    +0.000 C 
ATOM     22  O   UNL     1       0.715  -1.238   0.000  0.00  0.00    +0.000 OA
ENDBRANCH  12  13
ENDBRANCH   3  12
TORSDOF 3
