REMARK  Name = 
REMARK  5 active torsions:
REMARK  status: ('A' for Active; 'I' for Inactive)
REMARK    1  A    between atoms: S_2  and  N_9
REMARK    2  A    between atoms: S_3  and  N_10
REMARK    3  A    between atoms: N_9  and  N_10
REMARK    4  A    between atoms: N_9  and  C_12
REMARK    5  A    between atoms: C_12  and  C_14
REMARK                            x       y       z     vdW  Elec       q    Type
REMARK                         _______ _______ _______ _____ _____    ______ ____
ROOT
ATOM      1  O   UNL     1       3.793  -1.444   0.000  0.00  0.00    +0.000 OA
ATOM      2  N   UNL     1       3.079  -0.206   0.000  0.00  0.00    +0.000 N 
ATOM      3  N   UNL     1       2.365  -1.444   0.000  0.00  0.00    +0.000 NA
ATOM      4  C   UNL     1       3.079  -1.031   0.000  0.00  0.00    +0.000 C 
ATOM      5  C   UNL     1       2.365  -2.269   0.000  0.00  0.00    +0.000 C 
ENDROOT
BRANCH   2   6
ATOM      6  S   UNL     1       2.365   0.206   0.000  0.00  0.00    +0.000 S 
ATOM      7  O   UNL     1       1.952  -0.508   0.000  0.00  0.00    +0.000 OA
ATOM      8  O   UNL     1       2.777   0.921   0.000  0.00  0.00    +0.000 OA
ATOM      9  C   UNL     1       1.650   0.619   0.000  0.00  0.00    +0.000 C 
ENDBRANCH   2   6
BRANCH   2  10
ATOM     10  N   UNL     1       3.793   0.206   0.000  0.00  0.00    +0.000 NA
BRANCH  10  11
ATOM     11  S   UNL     1       4.508  -0.206   0.000  0.00  0.00    +0.000 S 
ATOM     12  O   UNL     1       4.920   0.508   0.000  0.00  0.00    +0.000 OA
ATOM     13  O   UNL     1       4.096  -0.921   0.000  0.00  0.00    +0.000 OA
ATOM     14  C   UNL     1       5.222  -0.619   0.000  0.00  0.00    +0.000 C 
ENDBRANCH  10  11
BRANCH  10  15
ATOM     15  C   UNL     1       3.793   1.031   0.000  0.00  0.00    +0.000 C 
BRANCH  15  17
ATOM     16 CL   UNL     1       4.508   2.269   0.000  0.00  0.00    +0.000 Cl
ATOM     17  C   UNL     1       4.508   1.444   0.000  0.00  0.00    +0.000 C 
ENDBRANCH  15  17
ENDBRANCH  10  15
ENDBRANCH   2  10
TORSDOF 5
