REMARK  Name = 
REMARK  2 active torsions:
REMARK  status: ('A' for Active; 'I' for Inactive)
REMARK    1  A    between atoms: C_10  and  C_18
REMARK    2  A    between atoms: C_17  and  C_22
REMARK                            x       y       z     vdW  Elec       q    Type
REMARK                         _______ _______ _______ _____ _____    ______ ____
ROOT
ATOM      1  O   UNL     1       4.892   3.999   0.000  0.00  0.00    +0.000 OA
ATOM      2  O   UNL     1       6.454   2.701   0.000  0.00  0.00    +0.000 OA
ATOM      3  O   UNL     1       2.736   2.705   0.000  0.00  0.00    +0.000 OA
ATOM      4  O   UNL     1       6.352   3.980   0.000  0.00  0.00    +0.000 OA
ATOM      5  O   UNL     1       3.115  -3.584   0.000  0.00  0.00    +0.000 OA
ATOM      6  N   UNL     1       3.450   1.468   0.000  0.00  0.00    +0.000 N 
ATOM      7  N   UNL     1       4.504  -0.430   0.000  0.00  0.00    +0.000 NA
ATOM      8  C   UNL     1       4.164   1.055   0.000  0.00  0.00    +0.000 A 
ATOM      9  C   UNL     1       4.879   2.293   0.000  0.00  0.00    +0.000 A 
ATOM     10  C   UNL     1       5.629   2.711   0.000  0.00  0.00    +0.000 C 
ATOM     11  C   UNL     1       2.842   0.917   0.000  0.00  0.00    +0.000 C 
ATOM     12  C   UNL     1       3.176   0.169   0.000  0.00  0.00    +0.000 A 
ATOM     13  C   UNL     1       3.992   0.254   0.000  0.00  0.00    +0.000 A 
ATOM     14  C   UNL     1       4.164   2.705   0.000  0.00  0.00    +0.000 A 
ATOM     15  C   UNL     1       4.879   1.468   0.000  0.00  0.00    +0.000 A 
ATOM     16  C   UNL     1       3.450   2.293   0.000  0.00  0.00    +0.000 A 
ATOM     17  C   UNL     1       2.816  -0.606   0.000  0.00  0.00    +0.000 A 
ATOM     18  C   UNL     1       4.151   3.564   0.000  0.00  0.00    +0.000 C 
ATOM     19  C   UNL     1       5.636   3.570   0.000  0.00  0.00    +0.000 C 
ATOM     20  C   UNL     1       3.312  -1.301   0.000  0.00  0.00    +0.000 A 
ATOM     21  C   UNL     1       4.162  -1.213   0.000  0.00  0.00    +0.000 A 
ATOM     22  C   UNL     1       2.937  -2.108   0.000  0.00  0.00    +0.000 A 
ATOM     23  C   UNL     1       4.695  -1.925   0.000  0.00  0.00    +0.000 A 
ATOM     24  C   UNL     1       3.454  -2.832   0.000  0.00  0.00    +0.000 A 
ATOM     25  C   UNL     1       4.339  -2.740   0.000  0.00  0.00    +0.000 A 
ENDROOT
BRANCH  10  26
ATOM     26  C   UNL     1       6.034   1.992   0.000  0.00  0.00    +0.000 C 
ATOM     27  C   UNL     1       5.613   1.282   0.000  0.00  0.00    +0.000 C 
ENDBRANCH  10  26
BRANCH  17  28
ATOM     28  C   UNL     1       1.995  -0.682   0.000  0.00  0.00    +0.000 C 
ATOM     29  C   UNL     1       1.650  -1.431   0.000  0.00  0.00    +0.000 C 
ENDBRANCH  17  28
TORSDOF 2
