REMARK  Name = 
REMARK  0 active torsions:
REMARK  status: ('A' for Active; 'I' for Inactive)
REMARK                            x       y       z     vdW  Elec       q    Type
REMARK                         _______ _______ _______ _____ _____    ______ ____
ROOT
ATOM      1  C   UNL     1       4.377   1.740   0.000  0.00  0.00    +0.000 C 
ATOM      2  C   UNL     1       4.230   2.552   0.000  0.00  0.00    +0.000 C 
ATOM      3  C   UNL     1       4.956   2.943   0.000  0.00  0.00    +0.000 C 
ATOM      4  C   UNL     1       5.552   2.373   0.000  0.00  0.00    +0.000 C 
ATOM      5  C   UNL     1       5.699   1.561   0.000  0.00  0.00    +0.000 C 
ATOM      6  C   UNL     1       5.341   0.818   0.000  0.00  0.00    +0.000 C 
ATOM      7  C   UNL     1       4.615   0.427   0.000  0.00  0.00    +0.000 C 
ATOM      8  O   UNL     1       5.317  -0.007   0.000  0.00  0.00    +0.000 OA
ATOM      9  C   UNL     1       3.797   0.538   0.000  0.00  0.00    +0.000 C 
ATOM     10  C   UNL     1       3.201   1.108   0.000  0.00  0.00    +0.000 C 
ATOM     11  C   UNL     1       3.054   1.920   0.000  0.00  0.00    +0.000 C 
ATOM     12  C   UNL     1       3.412   2.663   0.000  0.00  0.00    +0.000 C 
ATOM     13  C   UNL     1       2.475   0.717   0.000  0.00  0.00    +0.000 C 
ATOM     14  C   UNL     1       1.731   1.075   0.000  0.00  0.00    +0.000 C 
ATOM     15  C   UNL     1       2.622  -0.095   0.000  0.00  0.00    +0.000 C 
ATOM     16  O   UNL     1       2.052  -0.691   0.000  0.00  0.00    +0.000 OA
ATOM     17  O   UNL     1       3.439  -0.205   0.000  0.00  0.00    +0.000 OA
ATOM     18  C   UNL     1       6.143   0.622   0.000  0.00  0.00    +0.000 C 
ENDROOT
TORSDOF 0
