REMARK  Name = 
REMARK  1 active torsions:
REMARK  status: ('A' for Active; 'I' for Inactive)
REMARK    1  A    between atoms: C_2  and  C_3
REMARK                            x       y       z     vdW  Elec       q    Type
REMARK                         _______ _______ _______ _____ _____    ______ ____
ROOT
ATOM      1  C   UNL     1      21.007 -16.009   0.000  0.00  0.00    +0.000 A 
ATOM      2  C   UNL     1      20.293 -16.422   0.000  0.00  0.00    +0.000 A 
ATOM      3  C   UNL     1      21.721 -16.422   0.000  0.00  0.00    +0.000 A 
ATOM      4  C   UNL     1      20.293 -17.247   0.000  0.00  0.00    +0.000 A 
ATOM      5  C   UNL     1      21.721 -17.247   0.000  0.00  0.00    +0.000 A 
ATOM      6  C   UNL     1      21.007 -17.660   0.000  0.00  0.00    +0.000 A 
ENDROOT
BRANCH   1   8
ATOM      7  O   UNL     1      21.721 -14.772   0.000  0.00  0.00    +0.000 OA
ATOM      8  C   UNL     1      21.007 -15.184   0.000  0.00  0.00    +0.000 C 
ENDBRANCH   1   8
TORSDOF 1
