REMARK  Name = 
REMARK  9 active torsions:
REMARK  status: ('A' for Active; 'I' for Inactive)
REMARK    1  A    between atoms: C_10  and  C_11
REMARK    2  A    between atoms: C_10  and  O_23
REMARK    3  A    between atoms: C_11  and  O_24
REMARK    4  A    between atoms: C_13  and  C_16
REMARK    5  A    between atoms: C_15  and  O_25
REMARK    6  A    between atoms: C_16  and  O_23
REMARK    7  A    between atoms: C_17  and  C_18
REMARK    8  A    between atoms: C_17  and  O_24
REMARK    9  A    between atoms: C_18  and  O_25
REMARK                            x       y       z     vdW  Elec       q    Type
REMARK                         _______ _______ _______ _____ _____    ______ ____
ROOT
ATOM      1  C   UNL     1       3.572   0.412   0.000  0.00  0.00    +0.000 C 
ATOM      2  O   UNL     1       3.572   1.238   0.000  0.00  0.00    +0.000 OA
ENDROOT
BRANCH   1   5
ATOM      3  C   UNL     1       2.445   0.714   0.000  0.00  0.00    +0.000 C 
ATOM      4  C   UNL     1       3.270  -0.714   0.000  0.00  0.00    +0.000 C 
ATOM      5  C   UNL     1       2.858   0.000   0.000  0.00  0.00    +0.000 C 
BRANCH   5   6
ATOM      6  O   UNL     1       2.143  -0.412   0.000  0.00  0.00    +0.000 OA
BRANCH   6  12
ATOM      7  C   UNL     1       0.000   0.000   0.000  0.00  0.00    +0.000 A 
ATOM      8  C   UNL     1       0.714   1.238   0.000  0.00  0.00    +0.000 A 
ATOM      9  C   UNL     1       0.714  -0.412   0.000  0.00  0.00    +0.000 A 
ATOM     10  C   UNL     1       1.429   0.825   0.000  0.00  0.00    +0.000 A 
ATOM     11  C   UNL     1       0.000   0.825   0.000  0.00  0.00    +0.000 A 
ATOM     12  C   UNL     1       1.429   0.000   0.000  0.00  0.00    +0.000 A 
ATOM     13 CL   UNL     1      -0.714   1.238   0.000  0.00  0.00    +0.000 Cl
ENDBRANCH   6  12
ENDBRANCH   5   6
ENDBRANCH   1   5
BRANCH   1  14
ATOM     14  O   UNL     1       4.287   0.000   0.000  0.00  0.00    +0.000 OA
BRANCH  14  15
ATOM     15  C   UNL     1       5.001   0.412   0.000  0.00  0.00    +0.000 C 
BRANCH  15  16
ATOM     16  C   UNL     1       5.716   0.000   0.000  0.00  0.00    +0.000 C 
BRANCH  16  17
ATOM     17  O   UNL     1       6.430   0.412   0.000  0.00  0.00    +0.000 OA
BRANCH  17  18
ATOM     18  C   UNL     1       7.145   0.000   0.000  0.00  0.00    +0.000 C 
ATOM     19  O   UNL     1       7.145  -0.825   0.000  0.00  0.00    +0.000 OA
BRANCH  18  24
ATOM     20  C   UNL     1       8.574   1.650   0.000  0.00  0.00    +0.000 A 
ATOM     21  C   UNL     1       7.859   1.238   0.000  0.00  0.00    +0.000 A 
ATOM     22  C   UNL     1       9.288   1.238   0.000  0.00  0.00    +0.000 A 
ATOM     23  C   UNL     1       8.574   0.000   0.000  0.00  0.00    +0.000 A 
ATOM     24  C   UNL     1       7.859   0.412   0.000  0.00  0.00    +0.000 A 
ATOM     25  N   UNL     1       9.288   0.412   0.000  0.00  0.00    +0.000 NA
ENDBRANCH  18  24
ENDBRANCH  17  18
ENDBRANCH  16  17
ENDBRANCH  15  16
ENDBRANCH  14  15
ENDBRANCH   1  14
TORSDOF 9
