REMARK  Name = 
REMARK  5 active torsions:
REMARK  status: ('A' for Active; 'I' for Inactive)
REMARK    1  A    between atoms: C_16  and  C_18
REMARK    2  A    between atoms: C_17  and  C_28
REMARK    3  A    between atoms: C_17  and  O_32
REMARK    4  A    between atoms: C_19  and  C_24
REMARK    5  A    between atoms: C_28  and  O_33
REMARK                            x       y       z     vdW  Elec       q    Type
REMARK                         _______ _______ _______ _____ _____    ______ ____
ROOT
ATOM      1  C   UNL     1       0.107   0.200   0.000  0.00  0.00    +0.000 C 
ATOM      2  C   UNL     1       2.652   2.784   0.000  0.00  0.00    +0.000 C 
ATOM      3  C   UNL     1       4.247   0.892   0.000  0.00  0.00    +0.000 C 
ATOM      4  C   UNL     1       1.840   2.639   0.000  0.00  0.00    +0.000 C 
ATOM      5  C   UNL     1       3.435   0.747   0.000  0.00  0.00    +0.000 C 
ATOM      6  C   UNL     1       0.096   2.224   0.000  0.00  0.00    +0.000 C 
ATOM      7  C   UNL     1      -0.587   1.761   0.000  0.00  0.00    +0.000 C 
ATOM      8  C   UNL     1       3.996   2.299   0.000  0.00  0.00    +0.000 C 
ATOM      9  C   UNL     1       0.999   0.311   0.000  0.00  0.00    +0.000 C 
ATOM     10  C   UNL     1       3.184   2.154   0.000  0.00  0.00    +0.000 C 
ATOM     11  C   UNL     1       4.528   1.668   0.000  0.00  0.00    +0.000 C 
ATOM     12  C   UNL     1       2.904   1.378   0.000  0.00  0.00    +0.000 C 
ATOM     13  C   UNL     1       1.560   1.863   0.000  0.00  0.00    +0.000 C 
ATOM     14  C   UNL     1       1.811   0.457   0.000  0.00  0.00    +0.000 C 
ATOM     15  C   UNL     1       0.748   1.718   0.000  0.00  0.00    +0.000 C 
ATOM     16  C   UNL     1       2.091   1.232   0.000  0.00  0.00    +0.000 C 
ATOM     17  C   UNL     1       0.467   0.942   0.000  0.00  0.00    +0.000 C 
ATOM     18  C   UNL     1      -0.357   0.969   0.000  0.00  0.00    +0.000 C 
ATOM     19  O   UNL     1       5.340   1.813   0.000  0.00  0.00    +0.000 OA
ENDROOT
BRANCH  14  25
ATOM     20  C   UNL     1       3.687  -0.660   0.000  0.00  0.00    +0.000 A 
ATOM     21  C   UNL     1       2.595  -1.581   0.000  0.00  0.00    +0.000 A 
ATOM     22  C   UNL     1       3.155  -0.029   0.000  0.00  0.00    +0.000 A 
ATOM     23  C   UNL     1       2.063  -0.950   0.000  0.00  0.00    +0.000 A 
ATOM     24  C   UNL     1       3.407  -1.435   0.000  0.00  0.00    +0.000 A 
ATOM     25  C   UNL     1       2.343  -0.174   0.000  0.00  0.00    +0.000 A 
BRANCH  24  26
ATOM     26  C   UNL     1       3.938  -2.066   0.000  0.00  0.00    +0.000 C 
ATOM     27  N   UNL     1       3.658  -2.842   0.000  0.00  0.00    +0.000 NA
ATOM     28  O   UNL     1       4.190  -3.473   0.000  0.00  0.00    +0.000 OA
ENDBRANCH  24  26
ENDBRANCH  14  25
BRANCH  18  30
ATOM     29  C   UNL     1      -0.981  -0.317   0.000  0.00  0.00    +0.000 C 
ATOM     30  O   UNL     1      -0.298   0.146   0.000  0.00  0.00    +0.000 OA
ENDBRANCH  18  30
BRANCH  18  31
ATOM     31  C   UNL     1      -1.169   0.824   0.000  0.00  0.00    +0.000 C 
BRANCH  31  33
ATOM     32  C   UNL     1      -1.421   2.230   0.000  0.00  0.00    +0.000 C 
ATOM     33  O   UNL     1      -1.701   1.454   0.000  0.00  0.00    +0.000 OA
ENDBRANCH  31  33
ENDBRANCH  18  31
TORSDOF 5
