REMARK  Name = 
REMARK  7 active torsions:
REMARK  status: ('A' for Active; 'I' for Inactive)
REMARK    1  A    between atoms: CA_3  and  C_15
REMARK    2  A    between atoms: C_4  and  C_14
REMARK    3  A    between atoms: CA_7  and  N_9
REMARK    4  A    between atoms: C_10  and  C_13
REMARK    5  A    between atoms: C_13  and  N_18
REMARK    6  A    between atoms: C_14  and  S_20
REMARK    7  A    between atoms: S_20  and  C_21
REMARK                            x       y       z     vdW  Elec       q    Type
REMARK                         _______ _______ _______ _____ _____    ______ ____
ROOT
ATOM      1  C   UNL     1      15.716 -11.801   0.000  0.00  0.00    +0.000 C 
ATOM      2  N   UNL     1      15.716 -12.626   0.000  0.00  0.00    +0.000 N 
ATOM      3  CA  UNL     1      16.430 -13.038   0.000  0.00  0.00    +0.000 C 
ATOM      4  C   UNL     1      17.145 -12.626   0.000  0.00  0.00    +0.000 C 
ATOM      5  C   UNL     1      17.145 -11.801   0.000  0.00  0.00    +0.000 C 
ATOM      6  S   UNL     1      16.430 -11.388   0.000  0.00  0.00    +0.000 S 
ATOM      7  CA  UNL     1      14.891 -11.801   0.000  0.00  0.00    +0.000 C 
ATOM      8  C   UNL     1      14.891 -12.626   0.000  0.00  0.00    +0.000 C 
ATOM      9  O   UNL     1      14.176 -13.038   0.000  0.00  0.00    +0.000 OA
ENDROOT
BRANCH   7  10
ATOM     10  N   UNL     1      14.176 -11.388   0.000  0.00  0.00    +0.000 NA
ATOM     11  C   UNL     1      13.462 -11.801   0.000  0.00  0.00    +0.000 C 
ATOM     12  O   UNL     1      13.462 -12.626   0.000  0.00  0.00    +0.000 OA
BRANCH  11  13
ATOM     13  C   UNL     1      12.747 -11.388   0.000  0.00  0.00    +0.000 C 
BRANCH  13  14
ATOM     14  N   UNL     1      12.021 -11.807   0.000  0.00  0.00    +0.000 N 
ATOM     15  C   UNL     1      11.341 -11.328   0.000  0.00  0.00    +0.000 A 
ATOM     16  N   UNL     1      10.672 -11.828   0.000  0.00  0.00    +0.000 NA
ATOM     17  N   UNL     1      10.940 -12.618   0.000  0.00  0.00    +0.000 NA
ATOM     18  N   UNL     1      11.775 -12.607   0.000  0.00  0.00    +0.000 NA
ENDBRANCH  13  14
ENDBRANCH  11  13
ENDBRANCH   7  10
BRANCH   3  19
ATOM     19  C   UNL     1      16.430 -13.863   0.000  0.00  0.00    +0.000 C 
ATOM     20  O   UNL     1      15.706 -14.281   0.000  0.00  0.00    +0.000 OA
ATOM     21  OXT UNL     1      17.135 -14.270   0.000  0.00  0.00    +0.000 OA
ENDBRANCH   3  19
BRANCH   4  22
ATOM     22  C   UNL     1      17.870 -13.044   0.000  0.00  0.00    +0.000 C 
BRANCH  22  23
ATOM     23  S   UNL     1      18.587 -12.630   0.000  0.00  0.00    +0.000 S 
BRANCH  23  24
ATOM     24  C   UNL     1      19.302 -13.043   0.000  0.00  0.00    +0.000 A 
ATOM     25  N   UNL     1      19.559 -13.826   0.000  0.00  0.00    +0.000 NA
ATOM     26  N   UNL     1      20.385 -13.825   0.000  0.00  0.00    +0.000 NA
ATOM     27  C   UNL     1      20.639 -13.040   0.000  0.00  0.00    +0.000 A 
ATOM     28  S   UNL     1      19.971 -12.555   0.000  0.00  0.00    +0.000 S 
ATOM     29  C   UNL     1      21.464 -13.021   0.000  0.00  0.00    +0.000 C 
ENDBRANCH  23  24
ENDBRANCH  22  23
ENDBRANCH   4  22
TORSDOF 7
