REMARK  Name = 
REMARK  5 active torsions:
REMARK  status: ('A' for Active; 'I' for Inactive)
REMARK    1  A    between atoms: C_7  and  O_10
REMARK    2  A    between atoms: O_10  and  C_11
REMARK    3  A    between atoms: N_17  and  C_18
REMARK    4  A    between atoms: C_18  and  C_19
REMARK    5  A    between atoms: C_25  and  C_29
REMARK                            x       y       z     vdW  Elec       q    Type
REMARK                         _______ _______ _______ _____ _____    ______ ____
ROOT
ATOM      1  C   UNL     1       3.960   0.584   0.000  0.00  0.00    +0.000 A 
ATOM      2  C   UNL     1       3.705  -0.201   0.000  0.00  0.00    +0.000 A 
ATOM      3  C   UNL     1       2.898  -0.372   0.000  0.00  0.00    +0.000 A 
ATOM      4  C   UNL     1       2.346   0.241   0.000  0.00  0.00    +0.000 A 
ATOM      5  C   UNL     1       2.601   1.026   0.000  0.00  0.00    +0.000 A 
ATOM      6  C   UNL     1       3.408   1.197   0.000  0.00  0.00    +0.000 A 
ATOM      7  N   UNL     1       1.934   1.510   0.000  0.00  0.00    +0.000 N 
ATOM      8  C   UNL     1       1.266   1.026   0.000  0.00  0.00    +0.000 A 
ATOM      9  C   UNL     1       1.521   0.241   0.000  0.00  0.00    +0.000 A 
ATOM     10  C   UNL     1       0.969  -0.372   0.000  0.00  0.00    +0.000 A 
ATOM     11  C   UNL     1       0.162  -0.201   0.000  0.00  0.00    +0.000 A 
ATOM     12  C   UNL     1      -0.092   0.584   0.000  0.00  0.00    +0.000 A 
ATOM     13  C   UNL     1       0.460   1.197   0.000  0.00  0.00    +0.000 A 
ENDROOT
BRANCH   1  14
ATOM     14  O   UNL     1       4.767   0.756   0.000  0.00  0.00    +0.000 OA
BRANCH  14  21
ATOM     15  C   UNL     1       7.782  -1.525   0.000  0.00  0.00    +0.000 C 
ATOM     16  C   UNL     1       6.976  -1.697   0.000  0.00  0.00    +0.000 C 
ATOM     17  N   UNL     1       6.721  -2.481   0.000  0.00  0.00    +0.000 NA
ATOM     18  N   UNL     1       6.423  -1.084   0.000  0.00  0.00    +0.000 N 
ATOM     19  C   UNL     1       5.617  -1.255   0.000  0.00  0.00    +0.000 C 
ATOM     20  C   UNL     1       5.064  -0.642   0.000  0.00  0.00    +0.000 C 
ATOM     21  C   UNL     1       5.319   0.142   0.000  0.00  0.00    +0.000 C 
ATOM     22  C   UNL     1       6.126   0.314   0.000  0.00  0.00    +0.000 C 
ATOM     23  C   UNL     1       6.678  -0.299   0.000  0.00  0.00    +0.000 C 
ENDBRANCH  14  21
ENDBRANCH   1  14
BRANCH   7  24
ATOM     24  C   UNL     1       1.934   2.336   0.000  0.00  0.00    +0.000 C 
BRANCH  24  25
ATOM     25  C   UNL     1       1.220   2.748   0.000  0.00  0.00    +0.000 A 
ATOM     26  C   UNL     1       0.505   2.336   0.000  0.00  0.00    +0.000 A 
ATOM     27  C   UNL     1      -0.209   2.748   0.000  0.00  0.00    +0.000 A 
ATOM     28  C   UNL     1      -0.209   3.573   0.000  0.00  0.00    +0.000 A 
ATOM     29  C   UNL     1      -0.924   3.986   0.000  0.00  0.00    +0.000 A 
ATOM     30  C   UNL     1      -0.924   4.811   0.000  0.00  0.00    +0.000 A 
ATOM     31  C   UNL     1      -0.209   5.223   0.000  0.00  0.00    +0.000 A 
ATOM     32  C   UNL     1       0.505   4.811   0.000  0.00  0.00    +0.000 A 
ATOM     33  C   UNL     1       0.505   3.986   0.000  0.00  0.00    +0.000 A 
ATOM     34  C   UNL     1       1.220   3.573   0.000  0.00  0.00    +0.000 A 
BRANCH  31  35
ATOM     35  C   UNL     1      -0.209   6.048   0.000  0.00  0.00    +0.000 C 
ATOM     36  N   UNL     1      -0.924   6.460   0.000  0.00  0.00    +0.000 NA
ATOM     37  N   UNL     1       0.505   6.460   0.000  0.00  0.00    +0.000 NA
ENDBRANCH  31  35
ENDBRANCH  24  25
ENDBRANCH   7  24
TORSDOF 5
