REMARK  Name = 
REMARK  3 active torsions:
REMARK  status: ('A' for Active; 'I' for Inactive)
REMARK    1  A    between atoms: C_9  and  C_13
REMARK    2  A    between atoms: C_13  and  C_14
REMARK    3  A    between atoms: C_14  and  C_17
REMARK                            x       y       z     vdW  Elec       q    Type
REMARK                         _______ _______ _______ _____ _____    ______ ____
ROOT
ATOM      1  C   UNL     1      -0.715   0.807   0.000  0.00  0.00    +0.000 A 
ATOM      2  C   UNL     1       0.000   0.395   0.000  0.00  0.00    +0.000 A 
ATOM      3  C   UNL     1       0.000  -0.430   0.000  0.00  0.00    +0.000 A 
ATOM      4  N   UNL     1      -0.715  -0.843   0.000  0.00  0.00    +0.000 NA
ATOM      5  N   UNL     1       0.715   0.807   0.000  0.00  0.00    +0.000 NA
ATOM      6  N   UNL     1       0.715  -0.843   0.000  0.00  0.00    +0.000 NA
ATOM      7  N   UNL     1      -1.429   0.395   0.000  0.00  0.00    +0.000 NA
ATOM      8  C   UNL     1      -1.429  -0.430   0.000  0.00  0.00    +0.000 A 
ATOM      9  C   UNL     1       1.429   0.395   0.000  0.00  0.00    +0.000 C 
ATOM     10  C   UNL     1       1.429  -0.430   0.000  0.00  0.00    +0.000 C 
ATOM     11  O   UNL     1      -0.715   1.632   0.000  0.00  0.00    +0.000 OA
ATOM     12  N   UNL     1      -2.143  -0.843   0.000  0.00  0.00    +0.000 NA
ENDROOT
BRANCH   9  13
ATOM     13  C   UNL     1       2.143   0.807   0.000  0.00  0.00    +0.000 C 
ATOM     14  O   UNL     1       2.143   1.632   0.000  0.00  0.00    +0.000 OA
BRANCH  13  15
ATOM     15  C   UNL     1       2.858   0.395   0.000  0.00  0.00    +0.000 C 
ATOM     16  O   UNL     1       2.858  -0.430   0.000  0.00  0.00    +0.000 OA
BRANCH  15  17
ATOM     17  C   UNL     1       3.572   0.807   0.000  0.00  0.00    +0.000 C 
ATOM     18  O   UNL     1       4.287   0.395   0.000  0.00  0.00    +0.000 OA
ENDBRANCH  15  17
ENDBRANCH  13  15
ENDBRANCH   9  13
TORSDOF 3
