REMARK  Name = 
REMARK  4 active torsions:
REMARK  status: ('A' for Active; 'I' for Inactive)
REMARK    1  A    between atoms: C_2  and  C_3
REMARK    2  A    between atoms: C_3  and  C_4
REMARK    3  A    between atoms: C_4  and  C_5
REMARK    4  A    between atoms: C_5  and  C_6
REMARK                            x       y       z     vdW  Elec       q    Type
REMARK                         _______ _______ _______ _____ _____    ______ ____
ROOT
ATOM      1  C   UNL     1       0.715  -2.062   0.000  0.00  0.00    +0.000 A 
ATOM      2  C   UNL     1       1.429  -1.650   0.000  0.00  0.00    +0.000 A 
ATOM      3  C   UNL     1       2.143  -2.062   0.000  0.00  0.00    +0.000 A 
ATOM      4  C   UNL     1       2.143  -2.888   0.000  0.00  0.00    +0.000 A 
ATOM      5  C   UNL     1       1.429  -3.300   0.000  0.00  0.00    +0.000 A 
ATOM      6  C   UNL     1       0.715  -2.888   0.000  0.00  0.00    +0.000 A 
ENDROOT
BRANCH   1   7
ATOM      7  C   UNL     1       0.000  -1.650   0.000  0.00  0.00    +0.000 C 
BRANCH   7   8
ATOM      8  C   UNL     1      -0.715  -2.062   0.000  0.00  0.00    +0.000 C 
BRANCH   8   9
ATOM      9  C   UNL     1      -1.429  -1.650   0.000  0.00  0.00    +0.000 C 
BRANCH   9  11
ATOM     10  N   UNL     1      -2.858  -1.650   0.000  0.00  0.00    +0.000 NA
ATOM     11  C   UNL     1      -2.143  -2.062   0.000  0.00  0.00    +0.000 C 
ENDBRANCH   9  11
ENDBRANCH   8   9
ENDBRANCH   7   8
ENDBRANCH   1   7
TORSDOF 4
