REMARK  Name = 
REMARK  13 active torsions:
REMARK  status: ('A' for Active; 'I' for Inactive)
REMARK    1  A    between atoms: C_2  and  C_4
REMARK    2  A    between atoms: C_4  and  C_5
REMARK    3  A    between atoms: C_7  and  C_8
REMARK    4  A    between atoms: C_11  and  C_12
REMARK    5  A    between atoms: C_11  and  C_32
REMARK    6  A    between atoms: C_12  and  C_13
REMARK    7  A    between atoms: C_13  and  C_15
REMARK    8  A    between atoms: C_15  and  C_16
REMARK    9  A    between atoms: C_15  and  N_23
REMARK   10  A    between atoms: C_16  and  C_17
REMARK   11  A    between atoms: C_24  and  O_26
REMARK   12  A    between atoms: O_26  and  C_27
REMARK   13  A    between atoms: C_32  and  C_33
REMARK                            x       y       z     vdW  Elec       q    Type
REMARK                         _______ _______ _______ _____ _____    ______ ____
ROOT
ATOM      1  C   UNL     1       0.884   0.754   0.000  0.00  0.00    +0.000 C 
ATOM      2  C   UNL     1       1.369   1.422   0.000  0.00  0.00    +0.000 C 
ATOM      3  N   UNL     1       0.884   2.089   0.000  0.00  0.00    +0.000 NA
ATOM      4  C   UNL     1       0.099   1.834   0.000  0.00  0.00    +0.000 C 
ATOM      5  C   UNL     1       0.099   1.009   0.000  0.00  0.00    +0.000 C 
ATOM      6  O   UNL     1      -0.156   0.224   0.000  0.00  0.00    +0.000 OA
ENDROOT
BRANCH   1   9
ATOM      7  C   UNL     1       1.139  -1.365   0.000  0.00  0.00    +0.000 C 
ATOM      8  C   UNL     1       0.654  -0.698   0.000  0.00  0.00    +0.000 C 
ATOM      9  C   UNL     1       1.139  -0.030   0.000  0.00  0.00    +0.000 C 
ATOM     10  C   UNL     1       1.923  -0.285   0.000  0.00  0.00    +0.000 A 
ATOM     11  C   UNL     1       2.638   0.127   0.000  0.00  0.00    +0.000 A 
ATOM     12  C   UNL     1       3.352  -0.285   0.000  0.00  0.00    +0.000 A 
ATOM     13  C   UNL     1       3.352  -1.110   0.000  0.00  0.00    +0.000 A 
ATOM     14  C   UNL     1       2.638  -1.523   0.000  0.00  0.00    +0.000 A 
ATOM     15  C   UNL     1       1.923  -1.110   0.000  0.00  0.00    +0.000 A 
BRANCH   7  16
ATOM     16  C   UNL     1       0.884  -2.150   0.000  0.00  0.00    +0.000 C 
BRANCH  16  18
ATOM     17  N   UNL     1      -0.475  -1.708   0.000  0.00  0.00    +0.000 NA
ATOM     18  C   UNL     1       0.077  -2.321   0.000  0.00  0.00    +0.000 C 
ATOM     19  O   UNL     1      -0.178  -3.106   0.000  0.00  0.00    +0.000 OA
ENDBRANCH  16  18
ENDBRANCH   7  16
ENDBRANCH   1   9
BRANCH   4  20
ATOM     20  C   UNL     1      -0.721   1.748   0.000  0.00  0.00    +0.000 C 
BRANCH  20  21
ATOM     21  C   UNL     1      -1.206   2.415   0.000  0.00  0.00    +0.000 C 
ATOM     22  O   UNL     1      -0.871   3.169   0.000  0.00  0.00    +0.000 OA
BRANCH  21  23
ATOM     23  C   UNL     1      -2.027   2.329   0.000  0.00  0.00    +0.000 C 
BRANCH  23  24
ATOM     24  N   UNL     1      -2.512   2.997   0.000  0.00  0.00    +0.000 NA
ATOM     25  C   UNL     1      -3.332   2.910   0.000  0.00  0.00    +0.000 C 
ATOM     26  O   UNL     1      -3.668   2.157   0.000  0.00  0.00    +0.000 OA
BRANCH  25  27
ATOM     27  O   UNL     1      -3.817   3.578   0.000  0.00  0.00    +0.000 OA
BRANCH  27  28
ATOM     28  C   UNL     1      -4.638   3.491   0.000  0.00  0.00    +0.000 C 
ATOM     29  C   UNL     1      -5.050   2.777   0.000  0.00  0.00    +0.000 C 
ATOM     30  C   UNL     1      -5.857   2.949   0.000  0.00  0.00    +0.000 C 
ATOM     31  O   UNL     1      -5.943   3.769   0.000  0.00  0.00    +0.000 OA
ATOM     32  C   UNL     1      -5.190   4.104   0.000  0.00  0.00    +0.000 C 
ENDBRANCH  27  28
ENDBRANCH  25  27
ENDBRANCH  23  24
BRANCH  23  33
ATOM     33  C   UNL     1      -2.362   1.575   0.000  0.00  0.00    +0.000 C 
BRANCH  33  34
ATOM     34  C   UNL     1      -1.877   0.908   0.000  0.00  0.00    +0.000 A 
ATOM     35  C   UNL     1      -1.057   0.994   0.000  0.00  0.00    +0.000 A 
ATOM     36  C   UNL     1      -0.572   0.327   0.000  0.00  0.00    +0.000 A 
ATOM     37  C   UNL     1      -0.907  -0.427   0.000  0.00  0.00    +0.000 A 
ATOM     38  C   UNL     1      -1.728  -0.513   0.000  0.00  0.00    +0.000 A 
ATOM     39  C   UNL     1      -2.213   0.154   0.000  0.00  0.00    +0.000 A 
ENDBRANCH  33  34
ENDBRANCH  23  33
ENDBRANCH  21  23
ENDBRANCH  20  21
ENDBRANCH   4  20
BRANCH   4  40
ATOM     40  C   UNL     1      -0.072   2.641   0.000  0.00  0.00    +0.000 C 
BRANCH  40  41
ATOM     41  C   UNL     1       0.541   3.193   0.000  0.00  0.00    +0.000 A 
ATOM     42  C   UNL     1       0.369   4.000   0.000  0.00  0.00    +0.000 A 
ATOM     43  C   UNL     1       0.982   4.552   0.000  0.00  0.00    +0.000 A 
ATOM     44  C   UNL     1       1.767   4.297   0.000  0.00  0.00    +0.000 A 
ATOM     45  C   UNL     1       1.938   3.490   0.000  0.00  0.00    +0.000 A 
ATOM     46  C   UNL     1       1.325   2.938   0.000  0.00  0.00    +0.000 A 
ENDBRANCH  40  41
ENDBRANCH   4  40
TORSDOF 13
