REMARK  Name = 
REMARK  5 active torsions:
REMARK  status: ('A' for Active; 'I' for Inactive)
REMARK    1  A    between atoms: P_1  and  O_3
REMARK    2  A    between atoms: P_2  and  O_4
REMARK    3  A    between atoms: O_3  and  C_15
REMARK    4  A    between atoms: O_4  and  C_16
REMARK    5  A    between atoms: C_15  and  C_17
REMARK                            x       y       z     vdW  Elec       q    Type
REMARK                         _______ _______ _______ _____ _____    ______ ____
ROOT
ATOM      1  O   UNL     1      29.877 -15.458   0.000  0.00  0.00    +0.000 OA
ATOM      2  O   UNL     1      27.019 -15.458   0.000  0.00  0.00    +0.000 OA
ATOM      3  O   UNL     1      28.448 -16.284   0.000  0.00  0.00    +0.000 OA
ATOM      4  O   UNL     1      28.448 -13.808   0.000  0.00  0.00    +0.000 OA
ATOM      5  C   UNL     1      29.162 -14.221   0.000  0.00  0.00    +0.000 C 
ATOM      6  C   UNL     1      27.733 -14.221   0.000  0.00  0.00    +0.000 C 
ATOM      7  C   UNL     1      29.162 -15.046   0.000  0.00  0.00    +0.000 C 
ATOM      8  C   UNL     1      27.733 -15.046   0.000  0.00  0.00    +0.000 C 
ATOM      9  C   UNL     1      28.448 -15.458   0.000  0.00  0.00    +0.000 C 
ENDROOT
BRANCH   5  10
ATOM     10  O   UNL     1      29.877 -13.808   0.000  0.00  0.00    +0.000 OA
BRANCH  10  11
ATOM     11  P   UNL     1      29.877 -12.983   0.000  0.00  0.00    +0.000 P 
ATOM     12  O   UNL     1      30.702 -12.983   0.000  0.00  0.00    +0.000 OA
ATOM     13  O   UNL     1      29.877 -12.158   0.000  0.00  0.00    +0.000 OA
ATOM     14  O   UNL     1      29.052 -12.983   0.000  0.00  0.00    +0.000 OA
ENDBRANCH  10  11
ENDBRANCH   5  10
BRANCH   6  15
ATOM     15  C   UNL     1      27.019 -13.808   0.000  0.00  0.00    +0.000 C 
BRANCH  15  16
ATOM     16  O   UNL     1      27.019 -12.983   0.000  0.00  0.00    +0.000 OA
BRANCH  16  17
ATOM     17  P   UNL     1      26.305 -12.571   0.000  0.00  0.00    +0.000 P 
ATOM     18  O   UNL     1      26.717 -11.856   0.000  0.00  0.00    +0.000 OA
ATOM     19  O   UNL     1      25.590 -12.158   0.000  0.00  0.00    +0.000 OA
ATOM     20  O   UNL     1      25.892 -13.285   0.000  0.00  0.00    +0.000 OA
ENDBRANCH  16  17
ENDBRANCH  15  16
ENDBRANCH   6  15
TORSDOF 5
