REMARK  Name = 
REMARK  3 active torsions:
REMARK  status: ('A' for Active; 'I' for Inactive)
REMARK    1  A    between atoms: C_7  and  C_8
REMARK    2  A    between atoms: C_7  and  N_21
REMARK    3  A    between atoms: C_11  and  C_15
REMARK                            x       y       z     vdW  Elec       q    Type
REMARK                         _______ _______ _______ _____ _____    ______ ____
ROOT
ATOM      1  C   UNL     1      -0.837  -1.228   0.000  0.00  0.00    +0.000 A 
ATOM      2  C   UNL     1      -0.123  -1.641   0.000  0.00  0.00    +0.000 A 
ATOM      3  C   UNL     1      -0.123   0.009   0.000  0.00  0.00    +0.000 A 
ATOM      4  C   UNL     1      -0.837  -0.403   0.000  0.00  0.00    +0.000 A 
ATOM      5  C   UNL     1       0.592  -0.403   0.000  0.00  0.00    +0.000 A 
ATOM      6  C   UNL     1       0.592  -1.228   0.000  0.00  0.00    +0.000 A 
ATOM      7  C   UNL     1       1.236   0.111   0.000  0.00  0.00    +0.000 C 
ATOM      8  C   UNL     1       2.399  -0.816   0.000  0.00  0.00    +0.000 C 
ATOM      9  C   UNL     1       2.041  -1.559   0.000  0.00  0.00    +0.000 C 
ATOM     10 CL   UNL     1      -1.552   0.009   0.000  0.00  0.00    +0.000 Cl
ATOM     11  N   UNL     1       2.041  -0.072   0.000  0.00  0.00    +0.000 NA
ATOM     12  N   UNL     1       1.236  -1.743   0.000  0.00  0.00    +0.000 N 
ATOM     13  O   UNL     1       3.224  -0.816   0.000  0.00  0.00    +0.000 OA
ATOM     14  O   UNL     1       2.555  -2.204   0.000  0.00  0.00    +0.000 OA
ENDROOT
BRANCH   7  19
ATOM     15  C   UNL     1       1.474   2.281   0.000  0.00  0.00    +0.000 A 
ATOM     16  C   UNL     1       0.686   2.524   0.000  0.00  0.00    +0.000 A 
ATOM     17  C   UNL     1       1.658   1.477   0.000  0.00  0.00    +0.000 A 
ATOM     18  C   UNL     1       0.081   1.963   0.000  0.00  0.00    +0.000 A 
ATOM     19  C   UNL     1       1.053   0.915   0.000  0.00  0.00    +0.000 A 
ATOM     20  C   UNL     1       0.265   1.159   0.000  0.00  0.00    +0.000 A 
ATOM     21  F   UNL     1      -0.340   0.597   0.000  0.00  0.00    +0.000 F 
ENDBRANCH   7  19
BRANCH  12  22
ATOM     22  C   UNL     1       1.053  -2.547   0.000  0.00  0.00    +0.000 C 
BRANCH  22  23
ATOM     23  C   UNL     1       0.265  -2.790   0.000  0.00  0.00    +0.000 C 
ATOM     24  O   UNL     1       0.081  -3.595   0.000  0.00  0.00    +0.000 OA
ENDBRANCH  22  23
ENDBRANCH  12  22
TORSDOF 3
