REMARK  Name = 
REMARK  12 active torsions:
REMARK  status: ('A' for Active; 'I' for Inactive)
REMARK    1  A    between atoms: C_8  and  C_9
REMARK    2  A    between atoms: N_15  and  C_16
REMARK    3  A    between atoms: C_16  and  C_17
REMARK    4  A    between atoms: C_17  and  C_18
REMARK    5  A    between atoms: C_18  and  C_19
REMARK    6  A    between atoms: C_19  and  C_20
REMARK    7  A    between atoms: C_20  and  C_21
REMARK    8  A    between atoms: C_21  and  C_22
REMARK    9  A    between atoms: N_24  and  C_25
REMARK   10  A    between atoms: C_25  and  C_26
REMARK   11  A    between atoms: C_26  and  N_27
REMARK   12  A    between atoms: N_27  and  C_28
REMARK                            x       y       z     vdW  Elec       q    Type
REMARK                         _______ _______ _______ _____ _____    ______ ____
ROOT
ATOM      1  C   UNL     1       0.018  10.948   0.000  0.00  0.00    +0.000 C 
ENDROOT
BRANCH   1   2
ATOM      2  C   UNL     1      -0.807  10.948   0.000  0.00  0.00    +0.000 C 
BRANCH   2   3
ATOM      3  C   UNL     1      -1.219  11.663   0.000  0.00  0.00    +0.000 C 
BRANCH   3   4
ATOM      4  C   UNL     1      -2.044  11.663   0.000  0.00  0.00    +0.000 C 
BRANCH   4   5
ATOM      5  C   UNL     1      -2.457  12.377   0.000  0.00  0.00    +0.000 A 
ATOM      6  C   UNL     1      -3.277  12.463   0.000  0.00  0.00    +0.000 A 
ATOM      7  N   UNL     1      -3.449  13.270   0.000  0.00  0.00    +0.000 N 
ATOM      8  N   UNL     1      -2.735  13.683   0.000  0.00  0.00    +0.000 NA
ATOM      9  N   UNL     1      -2.121  13.131   0.000  0.00  0.00    +0.000 NA
BRANCH   7  10
ATOM     10  C   UNL     1      -4.203  13.606   0.000  0.00  0.00    +0.000 C 
BRANCH  10  11
ATOM     11  C   UNL     1      -4.870  13.121   0.000  0.00  0.00    +0.000 C 
BRANCH  11  12
ATOM     12  N   UNL     1      -5.624  13.457   0.000  0.00  0.00    +0.000 NA
BRANCH  12  13
ATOM     13  C   UNL     1      -6.291  12.972   0.000  0.00  0.00    +0.000 A 
ATOM     14  C   UNL     1      -7.045  13.307   0.000  0.00  0.00    +0.000 A 
ATOM     15  C   UNL     1      -7.131  14.128   0.000  0.00  0.00    +0.000 C 
ATOM     16  C   UNL     1      -7.885  14.463   0.000  0.00  0.00    +0.000 C 
ATOM     17  C   UNL     1      -8.552  13.978   0.000  0.00  0.00    +0.000 C 
ATOM     18  C   UNL     1      -8.466  13.158   0.000  0.00  0.00    +0.000 C 
ATOM     19  C   UNL     1      -7.712  12.822   0.000  0.00  0.00    +0.000 A 
ATOM     20  N   UNL     1      -7.626  12.002   0.000  0.00  0.00    +0.000 NA
ATOM     21  C   UNL     1      -6.872  11.666   0.000  0.00  0.00    +0.000 A 
ATOM     22  C   UNL     1      -6.205  12.151   0.000  0.00  0.00    +0.000 A 
ATOM     23  C   UNL     1      -5.451  11.816   0.000  0.00  0.00    +0.000 A 
ATOM     24  C   UNL     1      -5.365  10.995   0.000  0.00  0.00    +0.000 A 
ATOM     25  C   UNL     1      -6.032  10.510   0.000  0.00  0.00    +0.000 A 
ATOM     26  C   UNL     1      -6.786  10.846   0.000  0.00  0.00    +0.000 A 
ENDBRANCH  12  13
ENDBRANCH  11  12
ENDBRANCH  10  11
ENDBRANCH   7  10
ENDBRANCH   4   5
ENDBRANCH   3   4
ENDBRANCH   2   3
ENDBRANCH   1   2
BRANCH   1  27
ATOM     27  C   UNL     1       0.431  10.234   0.000  0.00  0.00    +0.000 C 
BRANCH  27  28
ATOM     28  C   UNL     1       1.256  10.234   0.000  0.00  0.00    +0.000 C 
BRANCH  28  37
ATOM     29  N   UNL     1       4.968   8.090   0.000  0.00  0.00    +0.000 NA
ATOM     30  C   UNL     1       4.143   8.090   0.000  0.00  0.00    +0.000 A 
ATOM     31  C   UNL     1       3.731   7.376   0.000  0.00  0.00    +0.000 A 
ATOM     32  C   UNL     1       2.906   7.376   0.000  0.00  0.00    +0.000 A 
ATOM     33  C   UNL     1       2.493   8.090   0.000  0.00  0.00    +0.000 A 
ATOM     34  C   UNL     1       2.906   8.805   0.000  0.00  0.00    +0.000 A 
ATOM     35  C   UNL     1       3.731   8.805   0.000  0.00  0.00    +0.000 A 
ATOM     36  C   UNL     1       2.493   9.519   0.000  0.00  0.00    +0.000 A 
ATOM     37  N   UNL     1       1.668   9.519   0.000  0.00  0.00    +0.000 N 
ATOM     38  C   UNL     1       1.256   8.805   0.000  0.00  0.00    +0.000 A 
ATOM     39  C   UNL     1       1.668   8.090   0.000  0.00  0.00    +0.000 A 
ATOM     40  C   UNL     1       1.256   7.376   0.000  0.00  0.00    +0.000 A 
ATOM     41  C   UNL     1       0.431   7.376   0.000  0.00  0.00    +0.000 A 
ATOM     42  C   UNL     1       0.018   8.090   0.000  0.00  0.00    +0.000 A 
ATOM     43  N   UNL     1      -0.807   8.090   0.000  0.00  0.00    +0.000 NA
ATOM     44  C   UNL     1       0.431   8.805   0.000  0.00  0.00    +0.000 A 
BRANCH  36  45
ATOM     45  C   UNL     1       2.906  10.234   0.000  0.00  0.00    +0.000 A 
ATOM     46  C   UNL     1       2.493  10.948   0.000  0.00  0.00    +0.000 A 
ATOM     47  C   UNL     1       2.906  11.663   0.000  0.00  0.00    +0.000 A 
ATOM     48  C   UNL     1       3.731  11.663   0.000  0.00  0.00    +0.000 A 
ATOM     49  C   UNL     1       4.143  10.948   0.000  0.00  0.00    +0.000 A 
ATOM     50  C   UNL     1       3.731  10.234   0.000  0.00  0.00    +0.000 A 
ENDBRANCH  36  45
ENDBRANCH  28  37
ENDBRANCH  27  28
ENDBRANCH   1  27
TORSDOF 12
