REMARK  Name = 
REMARK  4 active torsions:
REMARK  status: ('A' for Active; 'I' for Inactive)
REMARK    1  A    between atoms: O_1  and  C_9
REMARK    2  A    between atoms: O_1  and  C_13
REMARK    3  A    between atoms: O_2  and  C_17
REMARK    4  A    between atoms: C_13  and  C_15
REMARK                            x       y       z     vdW  Elec       q    Type
REMARK                         _______ _______ _______ _____ _____    ______ ____
ROOT
ATOM      1  O   UNL     1       8.024  -1.290   0.000  0.00  0.00    +0.000 OA
ATOM      2  N   UNL     1       6.718   0.803   0.000  0.00  0.00    +0.000 NA
ATOM      3  N   UNL     1       6.718  -0.524   0.000  0.00  0.00    +0.000 NA
ATOM      4  N   UNL     1       8.024   0.139   0.000  0.00  0.00    +0.000 NA
ATOM      5  C   UNL     1       5.937   0.552   0.000  0.00  0.00    +0.000 A 
ATOM      6  C   UNL     1       5.937  -0.273   0.000  0.00  0.00    +0.000 A 
ATOM      7  C   UNL     1       4.508   0.552   0.000  0.00  0.00    +0.000 A 
ATOM      8  C   UNL     1       5.222   0.964   0.000  0.00  0.00    +0.000 A 
ATOM      9  C   UNL     1       5.222  -0.686   0.000  0.00  0.00    +0.000 A 
ATOM     10  C   UNL     1       7.199   0.139   0.000  0.00  0.00    +0.000 A 
ATOM     11  C   UNL     1       4.508  -0.273   0.000  0.00  0.00    +0.000 A 
ATOM     12  C   UNL     1       8.437  -0.575   0.000  0.00  0.00    +0.000 C 
ENDROOT
BRANCH  12  13
ATOM     13  O   UNL     1       9.262  -0.575   0.000  0.00  0.00    +0.000 OA
ATOM     14  C   UNL     1       9.674  -1.290   0.000  0.00  0.00    +0.000 C 
ENDBRANCH  12  13
BRANCH   7  15
ATOM     15  O   UNL     1       3.793   0.964   0.000  0.00  0.00    +0.000 OA
BRANCH  15  16
ATOM     16  C   UNL     1       3.079   0.552   0.000  0.00  0.00    +0.000 C 
BRANCH  16  17
ATOM     17  C   UNL     1       2.365   0.964   0.000  0.00  0.00    +0.000 C 
ATOM     18  C   UNL     1       1.650   0.552   0.000  0.00  0.00    +0.000 C 
ENDBRANCH  16  17
ENDBRANCH  15  16
ENDBRANCH   7  15
TORSDOF 4
