REMARK  Name = 
REMARK  3 active torsions:
REMARK  status: ('A' for Active; 'I' for Inactive)
REMARK    1  A    between atoms: C_10  and  C_11
REMARK    2  A    between atoms: C_16  and  C_19
REMARK    3  A    between atoms: C_19  and  C_20
REMARK                            x       y       z     vdW  Elec       q    Type
REMARK                         _______ _______ _______ _____ _____    ______ ____
ROOT
ATOM      1  O   UNL     1       4.101  -0.648   0.000  0.00  0.00    +0.000 OA
ATOM      2  N   UNL     1       4.816   0.590   0.000  0.00  0.00    +0.000 N 
ATOM      3  C   UNL     1       4.816   2.240   0.000  0.00  0.00    +0.000 C 
ATOM      4  C   UNL     1       5.530   1.827   0.000  0.00  0.00    +0.000 C 
ATOM      5  C   UNL     1       4.101   1.827   0.000  0.00  0.00    +0.000 C 
ATOM      6  C   UNL     1       5.530   1.002   0.000  0.00  0.00    +0.000 C 
ATOM      7  C   UNL     1       4.101   1.002   0.000  0.00  0.00    +0.000 C 
ATOM      8  C   UNL     1       4.816  -0.235   0.000  0.00  0.00    +0.000 C 
ENDROOT
BRANCH   3  13
ATOM      9 BR   UNL     1       3.645   2.026   0.000  0.00  0.00    +0.000 Br
ATOM     10 BR   UNL     1       7.982   4.160   0.000  0.00  0.00    +0.000 Br
ATOM     11 CL   UNL     1       1.650   4.160   0.000  0.00  0.00    +0.000 Cl
ATOM     12  N   UNL     1       6.180   2.829   0.000  0.00  0.00    +0.000 NA
ATOM     13  C   UNL     1       4.816   3.065   0.000  0.00  0.00    +0.000 C 
ATOM     14  C   UNL     1       4.073   3.423   0.000  0.00  0.00    +0.000 A 
ATOM     15  C   UNL     1       5.559   3.423   0.000  0.00  0.00    +0.000 A 
ATOM     16  C   UNL     1       3.889   4.227   0.000  0.00  0.00    +0.000 A 
ATOM     17  C   UNL     1       5.743   4.227   0.000  0.00  0.00    +0.000 A 
ATOM     18  C   UNL     1       4.403   4.872   0.000  0.00  0.00    +0.000 C 
ATOM     19  C   UNL     1       5.229   4.872   0.000  0.00  0.00    +0.000 C 
ATOM     20  C   UNL     1       3.452   2.829   0.000  0.00  0.00    +0.000 A 
ATOM     21  C   UNL     1       3.072   4.493   0.000  0.00  0.00    +0.000 A 
ATOM     22  C   UNL     1       6.560   4.493   0.000  0.00  0.00    +0.000 A 
ATOM     23  C   UNL     1       2.629   3.075   0.000  0.00  0.00    +0.000 A 
ATOM     24  C   UNL     1       2.437   3.913   0.000  0.00  0.00    +0.000 A 
ATOM     25  C   UNL     1       7.003   3.075   0.000  0.00  0.00    +0.000 A 
ATOM     26  C   UNL     1       7.194   3.913   0.000  0.00  0.00    +0.000 A 
ENDBRANCH   3  13
BRANCH   8  27
ATOM     27  C   UNL     1       5.530  -0.648   0.000  0.00  0.00    +0.000 C 
BRANCH  27  31
ATOM     28  O   UNL     1       4.816  -4.361   0.000  0.00  0.00    +0.000 OA
ATOM     29  N   UNL     1       5.530  -3.123   0.000  0.00  0.00    +0.000 N 
ATOM     30  N   UNL     1       6.245  -4.361   0.000  0.00  0.00    +0.000 NA
ATOM     31  C   UNL     1       5.530  -1.473   0.000  0.00  0.00    +0.000 C 
ATOM     32  C   UNL     1       4.816  -1.885   0.000  0.00  0.00    +0.000 C 
ATOM     33  C   UNL     1       6.245  -1.885   0.000  0.00  0.00    +0.000 C 
ATOM     34  C   UNL     1       4.816  -2.710   0.000  0.00  0.00    +0.000 C 
ATOM     35  C   UNL     1       6.245  -2.710   0.000  0.00  0.00    +0.000 C 
ATOM     36  C   UNL     1       5.530  -3.948   0.000  0.00  0.00    +0.000 C 
ENDBRANCH  27  31
ENDBRANCH   8  27
TORSDOF 3
