REMARK  Name = 
REMARK  2 active torsions:
REMARK  status: ('A' for Active; 'I' for Inactive)
REMARK    1  A    between atoms: N_10  and  C_11
REMARK    2  A    between atoms: C_11  and  C_12
REMARK                            x       y       z     vdW  Elec       q    Type
REMARK                         _______ _______ _______ _____ _____    ______ ____
ROOT
ATOM      1  C   UNL     1      12.638 -10.809   0.000  0.00  0.00    +0.000 A 
ATOM      2  C   UNL     1      13.352 -10.397   0.000  0.00  0.00    +0.000 A 
ATOM      3  C   UNL     1      13.352  -9.572   0.000  0.00  0.00    +0.000 A 
ATOM      4  N   UNL     1      12.638  -9.159   0.000  0.00  0.00    +0.000 NA
ATOM      5  C   UNL     1      11.923  -9.572   0.000  0.00  0.00    +0.000 A 
ATOM      6  N   UNL     1      11.923 -10.397   0.000  0.00  0.00    +0.000 NA
ATOM      7  N   UNL     1      14.137  -9.317   0.000  0.00  0.00    +0.000 NA
ATOM      8  C   UNL     1      14.621  -9.984   0.000  0.00  0.00    +0.000 A 
ATOM      9  N   UNL     1      14.137 -10.652   0.000  0.00  0.00    +0.000 NA
ATOM     10  N   UNL     1      12.638 -11.634   0.000  0.00  0.00    +0.000 NA
ENDROOT
BRANCH  10  11
ATOM     11  C   UNL     1      13.352 -12.047   0.000  0.00  0.00    +0.000 C 
BRANCH  11  12
ATOM     12  C   UNL     1      13.352 -12.872   0.000  0.00  0.00    +0.000 A 
ATOM     13  C   UNL     1      12.685 -13.357   0.000  0.00  0.00    +0.000 A 
ATOM     14  C   UNL     1      12.940 -14.142   0.000  0.00  0.00    +0.000 A 
ATOM     15  C   UNL     1      13.765 -14.142   0.000  0.00  0.00    +0.000 A 
ATOM     16  O   UNL     1      14.020 -13.357   0.000  0.00  0.00    +0.000 OA
ENDBRANCH  11  12
ENDBRANCH  10  11
TORSDOF 2
