REMARK  Name = 
REMARK  0 active torsions:
REMARK  status: ('A' for Active; 'I' for Inactive)
REMARK                            x       y       z     vdW  Elec       q    Type
REMARK                         _______ _______ _______ _____ _____    ______ ____
ROOT
ATOM      1  C   UNL     1       0.041  -0.826   0.000  0.00  0.00    +0.000 C 
ATOM      2  C   UNL     1       0.702  -0.412   0.000  0.00  0.00    +0.000 C 
ATOM      3  O   UNL     1       0.702   0.412   0.000  0.00  0.00    +0.000 OA
ATOM      4  C   UNL     1       0.041   0.826   0.000  0.00  0.00    +0.000 C 
ATOM      5  C   UNL     1      -0.702   0.412   0.000  0.00  0.00    +0.000 C 
ATOM      6  N   UNL     1      -0.702  -0.412   0.000  0.00  0.00    +0.000 NA
ENDROOT
TORSDOF 0
