REMARK  Name = 
REMARK  5 active torsions:
REMARK  status: ('A' for Active; 'I' for Inactive)
REMARK    1  A    between atoms: C_2  and  C_8
REMARK    2  A    between atoms: C_8  and  C_15
REMARK    3  A    between atoms: C_13  and  C_14
REMARK    4  A    between atoms: C_13  and  C_15
REMARK    5  A    between atoms: C_15  and  N_16
REMARK                            x       y       z     vdW  Elec       q    Type
REMARK                         _______ _______ _______ _____ _____    ______ ____
ROOT
ATOM      1  C   UNL     1       3.572   2.062   0.000  0.00  0.00    +0.000 C 
ENDROOT
BRANCH   1   6
ATOM      2  C   UNL     1       3.160  -0.032   0.000  0.00  0.00    +0.000 C 
ATOM      3  C   UNL     1       3.985  -0.032   0.000  0.00  0.00    +0.000 C 
ATOM      4  C   UNL     1       2.905   0.753   0.000  0.00  0.00    +0.000 C 
ATOM      5  C   UNL     1       4.240   0.753   0.000  0.00  0.00    +0.000 C 
ATOM      6  N   UNL     1       3.572   1.238   0.000  0.00  0.00    +0.000 NA
ENDBRANCH   1   6
BRANCH   1   7
ATOM      7  C   UNL     1       2.858   2.475   0.000  0.00  0.00    +0.000 C 
BRANCH   7   9
ATOM      8  C   UNL     1       1.429   2.475   0.000  0.00  0.00    +0.000 C 
ATOM      9  C   UNL     1       2.143   2.062   0.000  0.00  0.00    +0.000 C 
ENDBRANCH   7   9
ENDBRANCH   1   7
BRANCH   1  10
ATOM     10  C   UNL     1       4.287   2.475   0.000  0.00  0.00    +0.000 C 
BRANCH  10  16
ATOM     11  C   UNL     1       6.430   1.238   0.000  0.00  0.00    +0.000 A 
ATOM     12  C   UNL     1       6.430   2.062   0.000  0.00  0.00    +0.000 A 
ATOM     13  C   UNL     1       5.716   0.825   0.000  0.00  0.00    +0.000 A 
ATOM     14  C   UNL     1       5.716   2.475   0.000  0.00  0.00    +0.000 A 
ATOM     15  C   UNL     1       5.001   1.238   0.000  0.00  0.00    +0.000 A 
ATOM     16  C   UNL     1       5.001   2.062   0.000  0.00  0.00    +0.000 A 
ENDBRANCH  10  16
ENDBRANCH   1  10
TORSDOF 5
