REMARK  Name = 
REMARK  2 active torsions:
REMARK  status: ('A' for Active; 'I' for Inactive)
REMARK    1  A    between atoms: C_1  and  C_2
REMARK    2  A    between atoms: C_4  and  C_5
REMARK                            x       y       z     vdW  Elec       q    Type
REMARK                         _______ _______ _______ _____ _____    ______ ____
ROOT
ATOM      1  C   UNL     1       0.000   0.825   0.000  0.00  0.00    +0.000 C 
ATOM      2  C   UNL     1       0.715   0.412   0.000  0.00  0.00    +0.000 C 
ENDROOT
BRANCH   1   3
ATOM      3  C   UNL     1      -0.715   0.412   0.000  0.00  0.00    +0.000 A 
ATOM      4  C   UNL     1      -0.715  -0.412   0.000  0.00  0.00    +0.000 A 
ATOM      5  N   UNL     1      -1.499   0.667   0.000  0.00  0.00    +0.000 NA
ATOM      6  N   UNL     1      -1.499  -0.667   0.000  0.00  0.00    +0.000 NA
ATOM      7  C   UNL     1      -1.984   0.000   0.000  0.00  0.00    +0.000 A 
ENDBRANCH   1   3
BRANCH   2   8
ATOM      8  C   UNL     1       1.429   0.825   0.000  0.00  0.00    +0.000 C 
ATOM      9  O   UNL     1       2.143   0.412   0.000  0.00  0.00    +0.000 OA
ATOM     10  O   UNL     1       1.429   1.650   0.000  0.00  0.00    +0.000 OA
ENDBRANCH   2   8
TORSDOF 2
