REMARK  Name = 
REMARK  7 active torsions:
REMARK  status: ('A' for Active; 'I' for Inactive)
REMARK    1  A    between atoms: C_5  and  C_6
REMARK    2  A    between atoms: C_6  and  O_7
REMARK    3  A    between atoms: O_7  and  P_8
REMARK    4  A    between atoms: C_12  and  C_13
REMARK    5  A    between atoms: C_13  and  N_14
REMARK    6  A    between atoms: N_14  and  C_15
REMARK    7  A    between atoms: C_15  and  C_18
REMARK                            x       y       z     vdW  Elec       q    Type
REMARK                         _______ _______ _______ _____ _____    ______ ____
ROOT
ATOM      1  C   UNL     1      -0.916   3.533   0.000  0.00  0.00    +0.000 C 
ATOM      2  C   UNL     1      -0.141   3.815   0.000  0.00  0.00    +0.000 A 
ATOM      3  N   UNL     1       0.002   4.627   0.000  0.00  0.00    +0.000 NA
ATOM      4  C   UNL     1       0.777   4.910   0.000  0.00  0.00    +0.000 A 
ATOM      5  C   UNL     1       1.409   4.379   0.000  0.00  0.00    +0.000 A 
ATOM      6  C   UNL     1       1.266   3.567   0.000  0.00  0.00    +0.000 A 
ATOM      7  C   UNL     1       0.491   3.285   0.000  0.00  0.00    +0.000 A 
ATOM      8  O   UNL     1       0.348   2.472   0.000  0.00  0.00    +0.000 OA
ENDROOT
BRANCH   5   9
ATOM      9  C   UNL     1       2.185   4.662   0.000  0.00  0.00    +0.000 C 
BRANCH   9  10
ATOM     10  O   UNL     1       2.328   5.474   0.000  0.00  0.00    +0.000 OA
BRANCH  10  11
ATOM     11  P   UNL     1       3.103   5.756   0.000  0.00  0.00    +0.000 P 
ATOM     12  O   UNL     1       3.878   6.038   0.000  0.00  0.00    +0.000 OA
ATOM     13  O   UNL     1       2.821   6.531   0.000  0.00  0.00    +0.000 OA
ATOM     14  O   UNL     1       3.385   4.981   0.000  0.00  0.00    +0.000 OA
ENDBRANCH  10  11
ENDBRANCH   9  10
ENDBRANCH   5   9
BRANCH   6  15
ATOM     15  C   UNL     1       1.898   3.037   0.000  0.00  0.00    +0.000 C 
BRANCH  15  16
ATOM     16  N   UNL     1       2.674   3.319   0.000  0.00  0.00    +0.000 NA
BRANCH  16  17
ATOM     17  C   UNL     1       3.305   2.788   0.000  0.00  0.00    +0.000 C 
ATOM     18  C   UNL     1       3.718   2.074   0.000  0.00  0.00    +0.000 C 
ATOM     19  C   UNL     1       2.893   2.074   0.000  0.00  0.00    +0.000 C 
BRANCH  17  20
ATOM     20  C   UNL     1       3.938   3.319   0.000  0.00  0.00    +0.000 C 
ATOM     21  O   UNL     1       4.713   3.037   0.000  0.00  0.00    +0.000 OA
ATOM     22  O   UNL     1       3.794   4.131   0.000  0.00  0.00    +0.000 OA
ENDBRANCH  17  20
ENDBRANCH  16  17
ENDBRANCH  15  16
ENDBRANCH   6  15
TORSDOF 7
