REMARK  Name = 
REMARK  5 active torsions:
REMARK  status: ('A' for Active; 'I' for Inactive)
REMARK    1  A    between atoms: C_11  and  C_13
REMARK    2  A    between atoms: C_12  and  C_14
REMARK    3  A    between atoms: C_13  and  O_17
REMARK    4  A    between atoms: C_14  and  O_18
REMARK    5  A    between atoms: O_17  and  O_18
REMARK                            x       y       z     vdW  Elec       q    Type
REMARK                         _______ _______ _______ _____ _____    ______ ____
ROOT
ATOM      1  O   UNL     1       2.858   2.475   0.000  0.00  0.00    +0.000 OA
ENDROOT
BRANCH   1   2
ATOM      2  C   UNL     1       2.143   2.062   0.000  0.00  0.00    +0.000 C 
ATOM      3  O   UNL     1       2.143   1.238   0.000  0.00  0.00    +0.000 OA
BRANCH   2   9
ATOM      4  C   UNL     1       0.000   3.300   0.000  0.00  0.00    +0.000 A 
ATOM      5  C   UNL     1       0.000   2.475   0.000  0.00  0.00    +0.000 A 
ATOM      6  C   UNL     1       0.715   3.712   0.000  0.00  0.00    +0.000 A 
ATOM      7  C   UNL     1       0.715   2.062   0.000  0.00  0.00    +0.000 A 
ATOM      8  C   UNL     1       1.429   3.300   0.000  0.00  0.00    +0.000 A 
ATOM      9  C   UNL     1       1.429   2.475   0.000  0.00  0.00    +0.000 A 
ENDBRANCH   2   9
ENDBRANCH   1   2
BRANCH   1  10
ATOM     10  O   UNL     1       3.572   2.062   0.000  0.00  0.00    +0.000 OA
BRANCH  10  11
ATOM     11  C   UNL     1       4.287   2.475   0.000  0.00  0.00    +0.000 C 
ATOM     12  O   UNL     1       4.287   3.300   0.000  0.00  0.00    +0.000 OA
BRANCH  11  18
ATOM     13  C   UNL     1       6.430   1.238   0.000  0.00  0.00    +0.000 A 
ATOM     14  C   UNL     1       6.430   2.062   0.000  0.00  0.00    +0.000 A 
ATOM     15  C   UNL     1       5.716   0.825   0.000  0.00  0.00    +0.000 A 
ATOM     16  C   UNL     1       5.716   2.475   0.000  0.00  0.00    +0.000 A 
ATOM     17  C   UNL     1       5.001   1.238   0.000  0.00  0.00    +0.000 A 
ATOM     18  C   UNL     1       5.001   2.062   0.000  0.00  0.00    +0.000 A 
ENDBRANCH  11  18
ENDBRANCH  10  11
ENDBRANCH   1  10
TORSDOF 5
