REMARK  Name = 
REMARK  7 active torsions:
REMARK  status: ('A' for Active; 'I' for Inactive)
REMARK    1  A    between atoms: C_10  and  C_12
REMARK    2  A    between atoms: C_12  and  C_13
REMARK    3  A    between atoms: C_12  and  N_23
REMARK    4  A    between atoms: C_13  and  C_14
REMARK    5  A    between atoms: C_18  and  C_20
REMARK    6  A    between atoms: N_23  and  S_24
REMARK    7  A    between atoms: S_24  and  C_27
REMARK                            x       y       z     vdW  Elec       q    Type
REMARK                         _______ _______ _______ _____ _____    ______ ____
ROOT
ATOM      1  C   UNL     1      -1.238  -0.935   0.000  0.00  0.00    +0.000 C 
ENDROOT
BRANCH   1  11
ATOM      2  C   UNL     1      -0.412   3.351   0.000  0.00  0.00    +0.000 C 
ATOM      3  C   UNL     1       0.000   2.637   0.000  0.00  0.00    +0.000 C 
ATOM      4  O   UNL     1       0.825   2.637   0.000  0.00  0.00    +0.000 OA
ATOM      5  N   UNL     1      -0.412   1.922   0.000  0.00  0.00    +0.000 N 
ATOM      6  C   UNL     1       0.000   1.208   0.000  0.00  0.00    +0.000 C 
ATOM      7  C   UNL     1      -0.412   0.493   0.000  0.00  0.00    +0.000 C 
ATOM      8  N   UNL     1      -1.238   0.493   0.000  0.00  0.00    +0.000 N 
ATOM      9  C   UNL     1      -1.650   1.208   0.000  0.00  0.00    +0.000 C 
ATOM     10  C   UNL     1      -1.238   1.922   0.000  0.00  0.00    +0.000 C 
ATOM     11  C   UNL     1      -1.650  -0.221   0.000  0.00  0.00    +0.000 C 
ATOM     12  O   UNL     1      -2.475  -0.221   0.000  0.00  0.00    +0.000 OA
ENDBRANCH   1  11
BRANCH   1  13
ATOM     13  C   UNL     1      -1.650  -1.650   0.000  0.00  0.00    +0.000 C 
BRANCH  13  14
ATOM     14  C   UNL     1      -2.475  -1.650   0.000  0.00  0.00    +0.000 A 
ATOM     15  C   UNL     1      -2.888  -2.365   0.000  0.00  0.00    +0.000 A 
ATOM     16  C   UNL     1      -3.712  -2.365   0.000  0.00  0.00    +0.000 A 
ATOM     17  C   UNL     1      -4.125  -1.650   0.000  0.00  0.00    +0.000 A 
ATOM     18  C   UNL     1      -3.712  -0.935   0.000  0.00  0.00    +0.000 A 
ATOM     19  C   UNL     1      -2.888  -0.935   0.000  0.00  0.00    +0.000 A 
BRANCH  18  20
ATOM     20  C   UNL     1      -4.125  -0.221   0.000  0.00  0.00    +0.000 C 
ATOM     21  N   UNL     1      -4.950  -0.221   0.000  0.00  0.00    +0.000 NA
ATOM     22  N   UNL     1      -3.712   0.493   0.000  0.00  0.00    +0.000 NA
ENDBRANCH  18  20
ENDBRANCH  13  14
ENDBRANCH   1  13
BRANCH   1  23
ATOM     23  N   UNL     1      -0.412  -0.935   0.000  0.00  0.00    +0.000 NA
BRANCH  23  24
ATOM     24  S   UNL     1       0.000  -1.650   0.000  0.00  0.00    +0.000 S 
ATOM     25  O   UNL     1       0.412  -2.365   0.000  0.00  0.00    +0.000 OA
ATOM     26  O   UNL     1      -0.715  -2.062   0.000  0.00  0.00    +0.000 OA
BRANCH  24  27
ATOM     27  C   UNL     1       0.715  -1.238   0.000  0.00  0.00    +0.000 A 
ATOM     28  C   UNL     1       0.715  -0.412   0.000  0.00  0.00    +0.000 A 
ATOM     29  C   UNL     1       1.429   0.000   0.000  0.00  0.00    +0.000 A 
ATOM     30  C   UNL     1       2.143  -0.412   0.000  0.00  0.00    +0.000 A 
ATOM     31  C   UNL     1       2.858   0.000   0.000  0.00  0.00    +0.000 A 
ATOM     32  C   UNL     1       3.572  -0.412   0.000  0.00  0.00    +0.000 A 
ATOM     33  C   UNL     1       3.572  -1.238   0.000  0.00  0.00    +0.000 A 
ATOM     34  C   UNL     1       2.858  -1.650   0.000  0.00  0.00    +0.000 A 
ATOM     35  C   UNL     1       2.143  -1.238   0.000  0.00  0.00    +0.000 A 
ATOM     36  C   UNL     1       1.429  -1.650   0.000  0.00  0.00    +0.000 A 
ENDBRANCH  24  27
ENDBRANCH  23  24
ENDBRANCH   1  23
TORSDOF 7
