REMARK  Name = 
REMARK  1 active torsions:
REMARK  status: ('A' for Active; 'I' for Inactive)
REMARK    1  A    between atoms: N_10  and  C_11
REMARK                            x       y       z     vdW  Elec       q    Type
REMARK                         _______ _______ _______ _____ _____    ______ ____
ROOT
ATOM      1  N   UNL     1       3.279   2.062   0.000  0.00  0.00    +0.000 NA
ATOM      2  C   UNL     1       3.279   1.238   0.000  0.00  0.00    +0.000 A 
ATOM      3  N   UNL     1       3.993   0.825   0.000  0.00  0.00    +0.000 NA
ATOM      4  C   UNL     1       3.993   0.000   0.000  0.00  0.00    +0.000 A 
ATOM      5  N   UNL     1       3.279  -0.412   0.000  0.00  0.00    +0.000 NA
ATOM      6  C   UNL     1       2.564   0.000   0.000  0.00  0.00    +0.000 A 
ATOM      7  C   UNL     1       2.564   0.825   0.000  0.00  0.00    +0.000 A 
ATOM      8  N   UNL     1       1.780   1.080   0.000  0.00  0.00    +0.000 NA
ATOM      9  C   UNL     1       1.295   0.412   0.000  0.00  0.00    +0.000 A 
ATOM     10  N   UNL     1       1.780  -0.255   0.000  0.00  0.00    +0.000 N 
ENDROOT
BRANCH  10  11
ATOM     11  C   UNL     1       1.525  -1.040   0.000  0.00  0.00    +0.000 C 
ATOM     12  C   UNL     1       2.010  -1.707   0.000  0.00  0.00    +0.000 C 
ATOM     13  C   UNL     1       1.525  -2.374   0.000  0.00  0.00    +0.000 C 
ATOM     14  C   UNL     1       0.740  -2.119   0.000  0.00  0.00    +0.000 C 
ATOM     15  O   UNL     1       0.073  -2.604   0.000  0.00  0.00    +0.000 OA
ATOM     16  C   UNL     1       0.740  -1.294   0.000  0.00  0.00    +0.000 C 
ATOM     17  O   UNL     1       0.073  -0.810   0.000  0.00  0.00    +0.000 OA
ENDBRANCH  10  11
TORSDOF 1
