REMARK  Name = 
REMARK  2 active torsions:
REMARK  status: ('A' for Active; 'I' for Inactive)
REMARK    1  A    between atoms: C_12  and  C_18
REMARK    2  A    between atoms: C_12  and  N_19
REMARK                            x       y       z     vdW  Elec       q    Type
REMARK                         _______ _______ _______ _____ _____    ______ ____
ROOT
ATOM      1  C   UNL     1      -0.714  -0.412   0.000  0.00  0.00    +0.000 A 
ATOM      2  C   UNL     1       3.572  -0.412   0.000  0.00  0.00    +0.000 A 
ATOM      3  C   UNL     1      -0.714  -1.238   0.000  0.00  0.00    +0.000 A 
ATOM      4  C   UNL     1       3.572  -1.238   0.000  0.00  0.00    +0.000 A 
ATOM      5  C   UNL     1       0.000   0.000   0.000  0.00  0.00    +0.000 A 
ATOM      6  C   UNL     1       2.858   0.000   0.000  0.00  0.00    +0.000 A 
ATOM      7  C   UNL     1       0.000  -1.650   0.000  0.00  0.00    +0.000 A 
ATOM      8  C   UNL     1       2.858  -1.650   0.000  0.00  0.00    +0.000 A 
ATOM      9  C   UNL     1       1.291  -0.550   0.000  0.00  0.00    +0.000 C 
ATOM     10  C   UNL     1       1.291  -1.100   0.000  0.00  0.00    +0.000 C 
ATOM     11  C   UNL     1       1.429   0.000   0.000  0.00  0.00    +0.000 C 
ATOM     12  C   UNL     1       0.714  -0.412   0.000  0.00  0.00    +0.000 A 
ATOM     13  C   UNL     1       2.143  -0.412   0.000  0.00  0.00    +0.000 A 
ATOM     14  C   UNL     1       0.714  -1.238   0.000  0.00  0.00    +0.000 A 
ATOM     15  C   UNL     1       2.143  -1.238   0.000  0.00  0.00    +0.000 A 
ATOM     16  C   UNL     1       1.429  -1.650   0.000  0.00  0.00    +0.000 C 
ENDROOT
BRANCH  16  17
ATOM     17  C   UNL     1       1.429  -2.475   0.000  0.00  0.00    +0.000 C 
BRANCH  17  19
ATOM     18  C   UNL     1       2.143  -3.712   0.000  0.00  0.00    +0.000 C 
ATOM     19  N   UNL     1       2.143  -2.888   0.000  0.00  0.00    +0.000 NA
ENDBRANCH  17  19
ENDBRANCH  16  17
TORSDOF 2
