REMARK  Name = 
REMARK  9 active torsions:
REMARK  status: ('A' for Active; 'I' for Inactive)
REMARK    1  A    between atoms: O_2  and  C_3
REMARK    2  A    between atoms: C_3  and  C_5
REMARK    3  A    between atoms: C_11  and  C_13
REMARK    4  A    between atoms: C_13  and  C_14
REMARK    5  A    between atoms: C_13  and  N_24
REMARK    6  A    between atoms: C_14  and  C_15
REMARK    7  A    between atoms: C_19  and  C_21
REMARK    8  A    between atoms: N_24  and  S_25
REMARK    9  A    between atoms: S_25  and  C_28
REMARK                            x       y       z     vdW  Elec       q    Type
REMARK                         _______ _______ _______ _____ _____    ______ ____
ROOT
ATOM      1  C   UNL     1      -1.429  -1.650   0.000  0.00  0.00    +0.000 C 
ENDROOT
BRANCH   1   8
ATOM      2  C   UNL     1      -3.572   0.412   0.000  0.00  0.00    +0.000 C 
ATOM      3  C   UNL     1      -2.858   0.825   0.000  0.00  0.00    +0.000 C 
ATOM      4  C   UNL     1      -2.143   0.412   0.000  0.00  0.00    +0.000 C 
ATOM      5  N   UNL     1      -2.143  -0.412   0.000  0.00  0.00    +0.000 N 
ATOM      6  C   UNL     1      -2.858  -0.825   0.000  0.00  0.00    +0.000 C 
ATOM      7  C   UNL     1      -3.572  -0.412   0.000  0.00  0.00    +0.000 C 
ATOM      8  C   UNL     1      -1.429  -0.825   0.000  0.00  0.00    +0.000 C 
ATOM      9  O   UNL     1      -0.715  -0.412   0.000  0.00  0.00    +0.000 OA
BRANCH   2  10
ATOM     10  C   UNL     1      -4.287   0.825   0.000  0.00  0.00    +0.000 C 
ATOM     11  O   UNL     1      -4.287   1.650   0.000  0.00  0.00    +0.000 OA
BRANCH  10  13
ATOM     12  C   UNL     1      -5.716   0.825   0.000  0.00  0.00    +0.000 C 
ATOM     13  O   UNL     1      -5.001   0.412   0.000  0.00  0.00    +0.000 OA
ENDBRANCH  10  13
ENDBRANCH   2  10
ENDBRANCH   1   8
BRANCH   1  14
ATOM     14  N   UNL     1      -0.715  -2.062   0.000  0.00  0.00    +0.000 NA
BRANCH  14  15
ATOM     15  S   UNL     1       0.000  -1.650   0.000  0.00  0.00    +0.000 S 
ATOM     16  O   UNL     1      -0.412  -0.935   0.000  0.00  0.00    +0.000 OA
ATOM     17  O   UNL     1       0.412  -2.365   0.000  0.00  0.00    +0.000 OA
BRANCH  15  18
ATOM     18  C   UNL     1       0.715  -1.238   0.000  0.00  0.00    +0.000 A 
ATOM     19  C   UNL     1       0.715  -0.412   0.000  0.00  0.00    +0.000 A 
ATOM     20  C   UNL     1       1.429   0.000   0.000  0.00  0.00    +0.000 A 
ATOM     21  C   UNL     1       2.143  -0.412   0.000  0.00  0.00    +0.000 A 
ATOM     22  C   UNL     1       2.858   0.000   0.000  0.00  0.00    +0.000 A 
ATOM     23  C   UNL     1       3.572  -0.412   0.000  0.00  0.00    +0.000 A 
ATOM     24  C   UNL     1       3.572  -1.238   0.000  0.00  0.00    +0.000 A 
ATOM     25  C   UNL     1       2.858  -1.650   0.000  0.00  0.00    +0.000 A 
ATOM     26  C   UNL     1       2.143  -1.238   0.000  0.00  0.00    +0.000 A 
ATOM     27  C   UNL     1       1.429  -1.650   0.000  0.00  0.00    +0.000 A 
ENDBRANCH  15  18
ENDBRANCH  14  15
ENDBRANCH   1  14
BRANCH   1  28
ATOM     28  C   UNL     1      -2.143  -2.062   0.000  0.00  0.00    +0.000 C 
BRANCH  28  29
ATOM     29  C   UNL     1      -2.143  -2.888   0.000  0.00  0.00    +0.000 A 
ATOM     30  C   UNL     1      -1.429  -3.300   0.000  0.00  0.00    +0.000 A 
ATOM     31  C   UNL     1      -1.429  -4.125   0.000  0.00  0.00    +0.000 A 
ATOM     32  C   UNL     1      -2.143  -4.537   0.000  0.00  0.00    +0.000 A 
ATOM     33  C   UNL     1      -2.858  -4.125   0.000  0.00  0.00    +0.000 A 
ATOM     34  C   UNL     1      -2.858  -3.300   0.000  0.00  0.00    +0.000 A 
BRANCH  33  35
ATOM     35  C   UNL     1      -3.572  -4.537   0.000  0.00  0.00    +0.000 C 
ATOM     36  N   UNL     1      -4.287  -4.125   0.000  0.00  0.00    +0.000 NA
ATOM     37  N   UNL     1      -3.572  -5.362   0.000  0.00  0.00    +0.000 NA
ENDBRANCH  33  35
ENDBRANCH  28  29
ENDBRANCH   1  28
TORSDOF 9
