REMARK  Name = 
REMARK  10 active torsions:
REMARK  status: ('A' for Active; 'I' for Inactive)
REMARK    1  A    between atoms: C_2  and  C_3
REMARK    2  A    between atoms: C_3  and  O_4
REMARK    3  A    between atoms: O_4  and  C_5
REMARK    4  A    between atoms: C_5  and  C_6
REMARK    5  A    between atoms: C_6  and  O_7
REMARK    6  A    between atoms: O_7  and  C_8
REMARK    7  A    between atoms: C_8  and  C_9
REMARK    8  A    between atoms: C_9  and  N_10
REMARK    9  A    between atoms: C_11  and  C_13
REMARK   10  A    between atoms: C_16  and  S_19
REMARK                            x       y       z     vdW  Elec       q    Type
REMARK                         _______ _______ _______ _____ _____    ______ ____
ROOT
ATOM      1  N   UNL     1       1.429  -5.775   0.000  0.00  0.00    +0.000 NA
ATOM      2  C   UNL     1       2.143  -5.362   0.000  0.00  0.00    +0.000 C 
ATOM      3  O   UNL     1       2.143  -4.537   0.000  0.00  0.00    +0.000 OA
ENDROOT
BRANCH   2   4
ATOM      4  C   UNL     1       2.858  -5.775   0.000  0.00  0.00    +0.000 A 
ATOM      5  C   UNL     1       3.572  -5.362   0.000  0.00  0.00    +0.000 A 
ATOM      6  C   UNL     1       4.287  -5.775   0.000  0.00  0.00    +0.000 A 
ATOM      7  C   UNL     1       4.287  -6.600   0.000  0.00  0.00    +0.000 A 
ATOM      8  C   UNL     1       3.572  -7.013   0.000  0.00  0.00    +0.000 A 
ATOM      9  C   UNL     1       2.858  -6.600   0.000  0.00  0.00    +0.000 A 
BRANCH   7  10
ATOM     10  S   UNL     1       5.001  -7.013   0.000  0.00  0.00    +0.000 S 
ATOM     11  N   UNL     1       5.716  -7.425   0.000  0.00  0.00    +0.000 NA
ATOM     12  O   UNL     1       4.589  -7.727   0.000  0.00  0.00    +0.000 OA
ATOM     13  O   UNL     1       5.414  -6.298   0.000  0.00  0.00    +0.000 OA
ENDBRANCH   7  10
ENDBRANCH   2   4
BRANCH   1  14
ATOM     14  C   UNL     1       0.715  -5.362   0.000  0.00  0.00    +0.000 C 
BRANCH  14  15
ATOM     15  C   UNL     1       0.000  -5.775   0.000  0.00  0.00    +0.000 C 
BRANCH  15  16
ATOM     16  O   UNL     1      -0.715  -5.362   0.000  0.00  0.00    +0.000 OA
BRANCH  16  17
ATOM     17  C   UNL     1      -1.429  -5.775   0.000  0.00  0.00    +0.000 C 
BRANCH  17  18
ATOM     18  C   UNL     1      -2.143  -5.362   0.000  0.00  0.00    +0.000 C 
BRANCH  18  19
ATOM     19  O   UNL     1      -2.858  -5.775   0.000  0.00  0.00    +0.000 OA
BRANCH  19  20
ATOM     20  C   UNL     1      -3.572  -5.362   0.000  0.00  0.00    +0.000 C 
BRANCH  20  22
ATOM     21  N   UNL     1      -5.001  -5.362   0.000  0.00  0.00    +0.000 NA
ATOM     22  C   UNL     1      -4.287  -5.775   0.000  0.00  0.00    +0.000 C 
ENDBRANCH  20  22
ENDBRANCH  19  20
ENDBRANCH  18  19
ENDBRANCH  17  18
ENDBRANCH  16  17
ENDBRANCH  15  16
ENDBRANCH  14  15
ENDBRANCH   1  14
TORSDOF 10
