REMARK  Name = 
REMARK  2 active torsions:
REMARK  status: ('A' for Active; 'I' for Inactive)
REMARK    1  A    between atoms: C_9  and  CA_10
REMARK    2  A    between atoms: CA_10  and  C_11
REMARK                            x       y       z     vdW  Elec       q    Type
REMARK                         _______ _______ _______ _____ _____    ______ ____
ROOT
ATOM      1  C   UNL     1       3.352   1.110   0.000  0.00  0.00    +0.000 A 
ATOM      2  C   UNL     1       3.352   1.935   0.000  0.00  0.00    +0.000 A 
ATOM      3  C   UNL     1       2.638   0.698   0.000  0.00  0.00    +0.000 A 
ATOM      4  C   UNL     1       2.638   2.348   0.000  0.00  0.00    +0.000 A 
ATOM      5  C   UNL     1       1.139   0.856   0.000  0.00  0.00    +0.000 C 
ATOM      6  C   UNL     1       1.139   2.190   0.000  0.00  0.00    +0.000 C 
ATOM      7  C   UNL     1       1.923   1.110   0.000  0.00  0.00    +0.000 A 
ATOM      8  C   UNL     1       1.923   1.935   0.000  0.00  0.00    +0.000 A 
ATOM      9  C   UNL     1       0.654   1.523   0.000  0.00  0.00    +0.000 C 
ENDROOT
BRANCH   9  10
ATOM     10  CA  UNL     1      -0.171   1.523   0.000  0.00  0.00    +0.000 C 
ATOM     11  N   UNL     1      -0.584   0.808   0.000  0.00  0.00    +0.000 NA
BRANCH  10  12
ATOM     12  C   UNL     1      -0.584   2.237   0.000  0.00  0.00    +0.000 C 
ATOM     13  O   UNL     1      -1.409   2.237   0.000  0.00  0.00    +0.000 OA
ATOM     14  OXT UNL     1      -0.171   2.952   0.000  0.00  0.00    +0.000 OA
ENDBRANCH  10  12
ENDBRANCH   9  10
TORSDOF 2
