REMARK  Name = 
REMARK  3 active torsions:
REMARK  status: ('A' for Active; 'I' for Inactive)
REMARK    1  A    between atoms: C_1  and  C_2
REMARK    2  A    between atoms: C_1  and  C_3
REMARK    3  A    between atoms: C_2  and  C_6
REMARK                            x       y       z     vdW  Elec       q    Type
REMARK                         _______ _______ _______ _____ _____    ______ ____
ROOT
ATOM      1  C   UNL     1      15.414 -13.398   0.000  0.00  0.00    +0.000 C 
ATOM      2  C   UNL     1      15.818 -12.686   0.000  0.00  0.00    +0.000 C 
ATOM      3  O   UNL     1      14.999 -12.686   0.000  0.00  0.00    +0.000 OA
ENDROOT
BRANCH   1   4
ATOM      4  C   UNL     1      16.127 -13.813   0.000  0.00  0.00    +0.000 C 
ATOM      5  O   UNL     1      16.123 -14.714   0.000  0.00  0.00    +0.000 OA
BRANCH   4   6
ATOM      6  C   UNL     1      16.843 -13.398   0.000  0.00  0.00    +0.000 C 
ATOM      7  O   UNL     1      17.549 -13.813   0.000  0.00  0.00    +0.000 OA
ATOM      8  O   UNL     1      16.840 -12.572   0.000  0.00  0.00    +0.000 OA
ENDBRANCH   4   6
ENDBRANCH   1   4
BRANCH   1   9
ATOM      9  C   UNL     1      14.697 -13.813   0.000  0.00  0.00    +0.000 C 
ATOM     10  C   UNL     1      13.988 -13.406   0.000  0.00  0.00    +0.000 C 
ENDBRANCH   1   9
TORSDOF 3
