REMARK  Name = 
REMARK  1 active torsions:
REMARK  status: ('A' for Active; 'I' for Inactive)
REMARK    1  A    between atoms: CA_4  and  C_8
REMARK                            x       y       z     vdW  Elec       q    Type
REMARK                         _______ _______ _______ _____ _____    ______ ____
ROOT
ATOM      1  N   PRO A   1      19.811 -12.136   0.000  0.00  0.00    +0.000 NA
ATOM      2  CA  PRO A   1      20.478 -11.651   0.000  0.00  0.00    +0.000 C 
ATOM      3  CD  PRO A   1      19.143 -11.651   0.000  0.00  0.00    +0.000 C 
ATOM      4  CB  PRO A   1      20.223 -10.866   0.000  0.00  0.00    +0.000 C 
ATOM      5  CG  PRO A   1      19.398 -10.866   0.000  0.00  0.00    +0.000 C 
ENDROOT
BRANCH   2   8
ATOM      6  O   PRO A   1      21.876 -11.354   0.000  0.00  0.00    +0.000 OA
ATOM      7  OXT PRO A   1      21.434 -12.713   0.000  0.00  0.00    +0.000 OA
ATOM      8  C   PRO A   1      21.263 -11.906   0.000  0.00  0.00    +0.000 C 
ENDBRANCH   2   8
TORSDOF 1
