REMARK  Name = 
REMARK  6 active torsions:
REMARK  status: ('A' for Active; 'I' for Inactive)
REMARK    1  A    between atoms: C_2  and  C_6
REMARK    2  A    between atoms: C_3  and  C_7
REMARK    3  A    between atoms: C_15  and  O_32
REMARK    4  A    between atoms: C_16  and  O_33
REMARK    5  A    between atoms: C_17  and  O_32
REMARK    6  A    between atoms: C_18  and  O_33
REMARK                            x       y       z     vdW  Elec       q    Type
REMARK                         _______ _______ _______ _____ _____    ______ ____
ROOT
ATOM      1  C   UNL     1       0.000   3.300   0.000  0.00  0.00    +0.000 C 
ATOM      2  C   UNL     1      -0.715   3.712   0.000  0.00  0.00    +0.000 C 
ATOM      3  C   UNL     1       0.000   2.475   0.000  0.00  0.00    +0.000 C 
ATOM      4  C   UNL     1      -1.429   2.475   0.000  0.00  0.00    +0.000 C 
ATOM      5  C   UNL     1      -1.429   3.300   0.000  0.00  0.00    +0.000 C 
ATOM      6  C   UNL     1      -0.715   2.062   0.000  0.00  0.00    +0.000 C 
ATOM      7  N   UNL     1      -0.715   4.537   0.000  0.00  0.00    +0.000 NA
ATOM      8  N   UNL     1       0.715   2.062   0.000  0.00  0.00    +0.000 NA
ATOM      9  O   UNL     1      -2.143   2.062   0.000  0.00  0.00    +0.000 OA
ENDROOT
BRANCH   5  10
ATOM     10  O   UNL     1      -2.143   3.712   0.000  0.00  0.00    +0.000 OA
BRANCH  10  15
ATOM     11  C   UNL     1      -1.429   5.775   0.000  0.00  0.00    +0.000 C 
ATOM     12  C   UNL     1      -2.858   4.950   0.000  0.00  0.00    +0.000 C 
ATOM     13  C   UNL     1      -2.143   6.188   0.000  0.00  0.00    +0.000 C 
ATOM     14  C   UNL     1      -2.858   5.775   0.000  0.00  0.00    +0.000 C 
ATOM     15  C   UNL     1      -2.143   4.537   0.000  0.00  0.00    +0.000 C 
ATOM     16  N   UNL     1      -3.572   4.537   0.000  0.00  0.00    +0.000 NA
ATOM     17  O   UNL     1      -2.143   7.013   0.000  0.00  0.00    +0.000 OA
ATOM     18  O   UNL     1      -3.572   6.188   0.000  0.00  0.00    +0.000 OA
ATOM     19  O   UNL     1      -1.429   4.950   0.000  0.00  0.00    +0.000 OA
BRANCH  11  20
ATOM     20  C   UNL     1      -0.715   6.188   0.000  0.00  0.00    +0.000 C 
ATOM     21  N   UNL     1      -0.715   7.013   0.000  0.00  0.00    +0.000 NA
ENDBRANCH  11  20
ENDBRANCH  10  15
ENDBRANCH   5  10
BRANCH   6  22
ATOM     22  O   UNL     1      -0.715   1.238   0.000  0.00  0.00    +0.000 OA
BRANCH  22  27
ATOM     23  C   UNL     1      -2.858   0.825   0.000  0.00  0.00    +0.000 C 
ATOM     24  C   UNL     1      -2.143  -0.412   0.000  0.00  0.00    +0.000 C 
ATOM     25  C   UNL     1      -2.858   0.000   0.000  0.00  0.00    +0.000 C 
ATOM     26  C   UNL     1      -1.429   0.000   0.000  0.00  0.00    +0.000 C 
ATOM     27  C   UNL     1      -1.429   0.825   0.000  0.00  0.00    +0.000 C 
ATOM     28  N   UNL     1      -2.143  -1.238   0.000  0.00  0.00    +0.000 NA
ATOM     29  O   UNL     1      -3.572  -0.412   0.000  0.00  0.00    +0.000 OA
ATOM     30  O   UNL     1      -0.715  -0.412   0.000  0.00  0.00    +0.000 OA
ATOM     31  O   UNL     1      -2.143   1.238   0.000  0.00  0.00    +0.000 OA
BRANCH  23  32
ATOM     32  C   UNL     1      -3.572   1.238   0.000  0.00  0.00    +0.000 C 
ATOM     33  O   UNL     1      -3.572   2.062   0.000  0.00  0.00    +0.000 OA
ENDBRANCH  23  32
ENDBRANCH  22  27
ENDBRANCH   6  22
TORSDOF 6
