REMARK  Name = 
REMARK  9 active torsions:
REMARK  status: ('A' for Active; 'I' for Inactive)
REMARK    1  A    between atoms: N_2  and  C_3
REMARK    2  A    between atoms: C_3  and  C_5
REMARK    3  A    between atoms: N_7  and  C_8
REMARK    4  A    between atoms: C_8  and  C_9
REMARK    5  A    between atoms: C_8  and  C_36
REMARK    6  A    between atoms: C_13  and  O_29
REMARK    7  A    between atoms: C_15  and  C_16
REMARK    8  A    between atoms: N_18  and  C_19
REMARK    9  A    between atoms: O_29  and  C_30
REMARK                            x       y       z     vdW  Elec       q    Type
REMARK                         _______ _______ _______ _____ _____    ______ ____
ROOT
ATOM      1  C   UNL     1      10.295  -3.491   0.000  0.00  0.00    +0.000 C 
ATOM      2  O   UNL     1       9.882  -4.205   0.000  0.00  0.00    +0.000 OA
ATOM      3  N   UNL     1      11.120  -3.491   0.000  0.00  0.00    +0.000 N 
ATOM      4  C   UNL     1      11.605  -2.823   0.000  0.00  0.00    +0.000 C 
ATOM      5  C   UNL     1      12.389  -3.078   0.000  0.00  0.00    +0.000 C 
ATOM      6  C   UNL     1      12.389  -3.903   0.000  0.00  0.00    +0.000 C 
ATOM      7  C   UNL     1      11.605  -4.158   0.000  0.00  0.00    +0.000 C 
ENDROOT
BRANCH   7   8
ATOM      8  C   UNL     1      11.350  -4.943   0.000  0.00  0.00    +0.000 C 
ATOM      9  O   UNL     1      10.543  -5.114   0.000  0.00  0.00    +0.000 OA
ATOM     10  N   UNL     1      11.902  -5.556   0.000  0.00  0.00    +0.000 NA
BRANCH  10  11
ATOM     11  C   UNL     1      12.709  -5.384   0.000  0.00  0.00    +0.000 C 
ATOM     12  C   UNL     1      12.964  -4.600   0.000  0.00  0.00    +0.000 C 
ATOM     13  C   UNL     1      13.771  -4.428   0.000  0.00  0.00    +0.000 C 
ATOM     14  C   UNL     1      14.323  -5.041   0.000  0.00  0.00    +0.000 C 
ATOM     15  C   UNL     1      14.068  -5.826   0.000  0.00  0.00    +0.000 A 
ATOM     16  C   UNL     1      14.620  -6.439   0.000  0.00  0.00    +0.000 A 
ATOM     17  C   UNL     1      14.365  -7.223   0.000  0.00  0.00    +0.000 A 
ATOM     18  C   UNL     1      13.558  -7.395   0.000  0.00  0.00    +0.000 A 
ATOM     19  C   UNL     1      13.006  -6.782   0.000  0.00  0.00    +0.000 A 
ATOM     20  C   UNL     1      13.261  -5.997   0.000  0.00  0.00    +0.000 A 
ENDBRANCH  10  11
ENDBRANCH   7   8
BRANCH   1  21
ATOM     21  C   UNL     1       9.882  -2.776   0.000  0.00  0.00    +0.000 C 
BRANCH  21  22
ATOM     22  C   UNL     1      10.295  -2.062   0.000  0.00  0.00    +0.000 C 
ATOM     23  C   UNL     1      11.009  -2.474   0.000  0.00  0.00    +0.000 C 
ATOM     24  C   UNL     1       9.580  -1.649   0.000  0.00  0.00    +0.000 C 
ATOM     25  C   UNL     1      10.707  -1.347   0.000  0.00  0.00    +0.000 C 
ENDBRANCH  21  22
BRANCH  21  28
ATOM     26  C   UNL     1       8.645  -2.062   0.000  0.00  0.00    +0.000 C 
ATOM     27  O   UNL     1       9.057  -1.347   0.000  0.00  0.00    +0.000 OA
ATOM     28  N   UNL     1       9.057  -2.776   0.000  0.00  0.00    +0.000 NA
BRANCH  26  29
ATOM     29  C   UNL     1       7.820  -2.062   0.000  0.00  0.00    +0.000 C 
ATOM     30  C   UNL     1       7.407  -2.776   0.000  0.00  0.00    +0.000 C 
BRANCH  29  32
ATOM     31  C   UNL     1       6.582  -1.347   0.000  0.00  0.00    +0.000 C 
ATOM     32  N   UNL     1       7.407  -1.347   0.000  0.00  0.00    +0.000 NA
ENDBRANCH  29  32
ENDBRANCH  26  29
ENDBRANCH  21  28
ENDBRANCH   1  21
BRANCH   5  33
ATOM     33  O   UNL     1      13.057  -2.593   0.000  0.00  0.00    +0.000 OA
BRANCH  33  34
ATOM     34  C   UNL     1      13.810  -2.929   0.000  0.00  0.00    +0.000 A 
ATOM     35  C   UNL     1      14.478  -2.444   0.000  0.00  0.00    +0.000 A 
ATOM     36  C   UNL     1      15.232  -2.779   0.000  0.00  0.00    +0.000 A 
ATOM     37  C   UNL     1      15.318  -3.600   0.000  0.00  0.00    +0.000 A 
ATOM     38  C   UNL     1      14.650  -4.085   0.000  0.00  0.00    +0.000 A 
ATOM     39  C   UNL     1      13.897  -3.749   0.000  0.00  0.00    +0.000 A 
ENDBRANCH  33  34
ENDBRANCH   5  33
TORSDOF 9
