REMARK  Name = 
REMARK  10 active torsions:
REMARK  status: ('A' for Active; 'I' for Inactive)
REMARK    1  A    between atoms: N_4  and  C_5
REMARK    2  A    between atoms: C_10  and  C_11
REMARK    3  A    between atoms: C_14  and  O_15
REMARK    4  A    between atoms: O_15  and  P_16
REMARK    5  A    between atoms: P_16  and  O_19
REMARK    6  A    between atoms: O_19  and  P_20
REMARK    7  A    between atoms: P_20  and  O_23
REMARK    8  A    between atoms: O_23  and  C_24
REMARK    9  A    between atoms: C_24  and  C_25
REMARK   10  A    between atoms: C_27  and  N_32
REMARK                            x       y       z     vdW  Elec       q    Type
REMARK                         _______ _______ _______ _____ _____    ______ ____
ROOT
ATOM      1  P   UNL     1       0.155   0.608   0.000  0.00  0.00    +0.000 P 
ATOM      2  O   UNL     1      -0.258  -0.107   0.000  0.00  0.00    +0.000 OA
ATOM      3  O   UNL     1       0.567   1.322   0.000  0.00  0.00    +0.000 OA
ENDROOT
BRANCH   1   4
ATOM      4  O   UNL     1       0.869   0.195   0.000  0.00  0.00    +0.000 OA
BRANCH   4   5
ATOM      5  C   UNL     1       1.584   0.608   0.000  0.00  0.00    +0.000 C 
BRANCH   5   6
ATOM      6  C   UNL     1       2.298   0.195   0.000  0.00  0.00    +0.000 C 
ATOM      7  O   UNL     1       3.052   0.531   0.000  0.00  0.00    +0.000 OA
ATOM      8  C   UNL     1       3.604  -0.082   0.000  0.00  0.00    +0.000 C 
ATOM      9  C   UNL     1       3.191  -0.797   0.000  0.00  0.00    +0.000 C 
ATOM     10  O   UNL     1       3.527  -1.550   0.000  0.00  0.00    +0.000 OA
ATOM     11  C   UNL     1       2.384  -0.625   0.000  0.00  0.00    +0.000 C 
ATOM     12  O   UNL     1       1.771  -1.177   0.000  0.00  0.00    +0.000 OA
BRANCH   8  13
ATOM     13  N   UNL     1       4.424   0.004   0.000  0.00  0.00    +0.000 N 
ATOM     14  C   UNL     1       4.760   0.758   0.000  0.00  0.00    +0.000 A 
ATOM     15  C   UNL     1       5.580   0.844   0.000  0.00  0.00    +0.000 A 
ATOM     16  C   UNL     1       6.065   0.176   0.000  0.00  0.00    +0.000 A 
ATOM     17  O   UNL     1       6.886   0.263   0.000  0.00  0.00    +0.000 OA
ATOM     18  N   UNL     1       5.730  -0.577   0.000  0.00  0.00    +0.000 NA
ATOM     19  C   UNL     1       4.909  -0.663   0.000  0.00  0.00    +0.000 A 
ATOM     20  O   UNL     1       4.574  -1.417   0.000  0.00  0.00    +0.000 OA
ENDBRANCH   8  13
ENDBRANCH   5   6
ENDBRANCH   4   5
ENDBRANCH   1   4
BRANCH   1  21
ATOM     21  O   UNL     1      -0.560   1.020   0.000  0.00  0.00    +0.000 OA
BRANCH  21  22
ATOM     22  P   UNL     1      -1.274   0.608   0.000  0.00  0.00    +0.000 P 
ATOM     23  O   UNL     1      -0.862  -0.107   0.000  0.00  0.00    +0.000 OA
ATOM     24  O   UNL     1      -1.687   1.322   0.000  0.00  0.00    +0.000 OA
BRANCH  22  25
ATOM     25  O   UNL     1      -1.989   0.195   0.000  0.00  0.00    +0.000 OA
BRANCH  25  33
ATOM     26  C   UNL     1      -3.418   0.195   0.000  0.00  0.00    +0.000 C 
ATOM     27  C   UNL     1      -4.132   0.608   0.000  0.00  0.00    +0.000 C 
ATOM     28  O   UNL     1      -4.847   0.195   0.000  0.00  0.00    +0.000 OA
ATOM     29  C   UNL     1      -4.132   1.433   0.000  0.00  0.00    +0.000 C 
ATOM     30  O   UNL     1      -4.847   1.845   0.000  0.00  0.00    +0.000 OA
ATOM     31  C   UNL     1      -3.418   1.845   0.000  0.00  0.00    +0.000 C 
ATOM     32  O   UNL     1      -2.703   1.433   0.000  0.00  0.00    +0.000 OA
ATOM     33  C   UNL     1      -2.703   0.608   0.000  0.00  0.00    +0.000 C 
BRANCH  26  37
ATOM     34  C   UNL     1      -4.132  -1.867   0.000  0.00  0.00    +0.000 C 
ATOM     35  C   UNL     1      -4.132  -1.042   0.000  0.00  0.00    +0.000 C 
ATOM     36  O   UNL     1      -4.847  -0.630   0.000  0.00  0.00    +0.000 OA
ATOM     37  N   UNL     1      -3.418  -0.630   0.000  0.00  0.00    +0.000 NA
ENDBRANCH  26  37
BRANCH  31  38
ATOM     38  C   UNL     1      -3.418   2.670   0.000  0.00  0.00    +0.000 C 
ATOM     39  O   UNL     1      -2.703   3.083   0.000  0.00  0.00    +0.000 OA
ENDBRANCH  31  38
ENDBRANCH  25  33
ENDBRANCH  22  25
ENDBRANCH  21  22
ENDBRANCH   1  21
TORSDOF 10
