REMARK  Name = 
REMARK  7 active torsions:
REMARK  status: ('A' for Active; 'I' for Inactive)
REMARK    1  A    between atoms: N_2  and  C_5
REMARK    2  A    between atoms: N_4  and  C_9
REMARK    3  A    between atoms: N_4  and  C_16
REMARK    4  A    between atoms: O_6  and  C_8
REMARK    5  A    between atoms: O_6  and  C_10
REMARK    6  A    between atoms: C_7  and  C_9
REMARK    7  A    between atoms: C_7  and  C_10
REMARK                            x       y       z     vdW  Elec       q    Type
REMARK                         _______ _______ _______ _____ _____    ______ ____
ROOT
ATOM      1  C   UNL     1      13.814  -5.693   0.000  0.00  0.00    +0.000 A 
ATOM      2  C   UNL     1      12.382  -4.868   0.000  0.00  0.00    +0.000 A 
ATOM      3  C   UNL     1      13.814  -4.868   0.000  0.00  0.00    +0.000 A 
ATOM      4  C   UNL     1      13.101  -6.099   0.000  0.00  0.00    +0.000 A 
ATOM      5  C   UNL     1      13.101  -4.444   0.000  0.00  0.00    +0.000 A 
ATOM      6  C   UNL     1      12.382  -5.693   0.000  0.00  0.00    +0.000 A 
ENDROOT
BRANCH   1   8
ATOM      7  C   UNL     1      14.521  -6.936   0.000  0.00  0.00    +0.000 C 
ATOM      8  N   UNL     1      14.521  -6.105   0.000  0.00  0.00    +0.000 NA
ATOM      9  O   UNL     1      15.246  -7.355   0.000  0.00  0.00    +0.000 OA
ATOM     10  C   UNL     1      13.814  -7.355   0.000  0.00  0.00    +0.000 C 
ENDBRANCH   1   8
BRANCH   2  11
ATOM     11  O   UNL     1      11.657  -4.444   0.000  0.00  0.00    +0.000 OA
BRANCH  11  12
ATOM     12  C   UNL     1      10.950  -4.850   0.000  0.00  0.00    +0.000 C 
BRANCH  12  13
ATOM     13  C   UNL     1      10.236  -4.444   0.000  0.00  0.00    +0.000 C 
ATOM     14  O   UNL     1      10.236  -3.613   0.000  0.00  0.00    +0.000 OA
BRANCH  13  15
ATOM     15  C   UNL     1       9.518  -4.850   0.000  0.00  0.00    +0.000 C 
BRANCH  15  16
ATOM     16  N   UNL     1       8.804  -4.444   0.000  0.00  0.00    +0.000 NA
BRANCH  16  17
ATOM     17  C   UNL     1       8.085  -4.850   0.000  0.00  0.00    +0.000 C 
ATOM     18  C   UNL     1       7.372  -4.444   0.000  0.00  0.00    +0.000 C 
ATOM     19  C   UNL     1       8.085  -5.681   0.000  0.00  0.00    +0.000 C 
ENDBRANCH  16  17
ENDBRANCH  15  16
ENDBRANCH  13  15
ENDBRANCH  12  13
ENDBRANCH  11  12
ENDBRANCH   2  11
TORSDOF 7
