REMARK  Name = 
REMARK  5 active torsions:
REMARK  status: ('A' for Active; 'I' for Inactive)
REMARK    1  A    between atoms: C_2  and  C_3
REMARK    2  A    between atoms: C_3  and  C_4
REMARK    3  A    between atoms: C_4  and  C_5
REMARK    4  A    between atoms: C_5  and  C_7
REMARK    5  A    between atoms: C_5  and  C_10
REMARK                            x       y       z     vdW  Elec       q    Type
REMARK                         _______ _______ _______ _____ _____    ______ ____
ROOT
ATOM      1  C   UNL     1       3.620  -2.724   0.000  0.00  0.00    +0.000 C 
ATOM      2  N   UNL     1       3.126  -3.385   0.000  0.00  0.00    +0.000 NA
ENDROOT
BRANCH   1   3
ATOM      3  C   UNL     1       4.281  -3.217   0.000  0.00  0.00    +0.000 C 
ATOM      4  F   UNL     1       5.039  -2.891   0.000  0.00  0.00    +0.000 F 
ATOM      5  F   UNL     1       4.184  -4.036   0.000  0.00  0.00    +0.000 F 
ENDBRANCH   1   3
BRANCH   1   6
ATOM      6  C   UNL     1       4.113  -2.062   0.000  0.00  0.00    +0.000 C 
ATOM      7  O   UNL     1       3.787  -1.305   0.000  0.00  0.00    +0.000 OA
ATOM      8  O   UNL     1       4.933  -2.159   0.000  0.00  0.00    +0.000 OA
ENDBRANCH   1   6
BRANCH   1   9
ATOM      9  C   UNL     1       2.958  -2.230   0.000  0.00  0.00    +0.000 C 
BRANCH   9  10
ATOM     10  C   UNL     1       2.201  -2.556   0.000  0.00  0.00    +0.000 C 
BRANCH  10  12
ATOM     11  N   UNL     1       0.781  -2.388   0.000  0.00  0.00    +0.000 NA
ATOM     12  C   UNL     1       1.540  -2.062   0.000  0.00  0.00    +0.000 C 
ENDBRANCH  10  12
ENDBRANCH   9  10
ENDBRANCH   1   9
TORSDOF 5
