REMARK  Name = 
REMARK  27 active torsions:
REMARK  status: ('A' for Active; 'I' for Inactive)
REMARK    1  A    between atoms: C_1  and  N_2
REMARK    2  A    between atoms: C_1  and  C_3
REMARK    3  A    between atoms: C_1  and  C_4
REMARK    4  A    between atoms: C_5  and  C_9
REMARK    5  A    between atoms: N_6  and  C_11
REMARK    6  A    between atoms: C_9  and  C_13
REMARK    7  A    between atoms: C_11  and  C_14
REMARK    8  A    between atoms: C_13  and  C_16
REMARK    9  A    between atoms: C_15  and  C_19
REMARK   10  A    between atoms: C_16  and  C_20
REMARK   11  A    between atoms: N_17  and  C_22
REMARK   12  A    between atoms: C_19  and  N_23
REMARK   13  A    between atoms: C_19  and  C_24
REMARK   14  A    between atoms: C_22  and  C_27
REMARK   15  A    between atoms: C_27  and  C_31
REMARK   16  A    between atoms: C_28  and  C_32
REMARK   17  A    between atoms: N_29  and  C_34
REMARK   18  A    between atoms: C_31  and  C_35
REMARK   19  A    between atoms: C_32  and  C_36
REMARK   20  A    between atoms: C_34  and  C_37
REMARK   21  A    between atoms: C_35  and  N_38
REMARK   22  A    between atoms: C_36  and  C_39
REMARK   23  A    between atoms: N_38  and  C_42
REMARK   24  A    between atoms: C_39  and  C_43
REMARK   25  A    between atoms: N_40  and  C_45
REMARK   26  A    between atoms: C_42  and  C_46
REMARK   27  A    between atoms: C_45  and  C_46
REMARK                            x       y       z     vdW  Elec       q    Type
REMARK                         _______ _______ _______ _____ _____    ______ ____
ROOT
ATOM      1  C   UNK     1      21.894 -11.115   0.000  0.00  0.00    +0.000 C 
ENDROOT
BRANCH   1   2
ATOM      2  C   UNK     1      21.186 -10.704   0.000  0.00  0.00    +0.000 C 
BRANCH   2   3
ATOM      3  C   UNK     1      21.186  -9.878   0.000  0.00  0.00    +0.000 C 
BRANCH   3   4
ATOM      4  C   UNK     1      20.471  -9.467   0.000  0.00  0.00    +0.000 C 
BRANCH   4   6
ATOM      5  C   UNK     1      19.044  -9.467   0.000  0.00  0.00    +0.000 C 
ATOM      6  N   UNK     1      19.756  -9.878   0.000  0.00  0.00    +0.000 NA
ATOM      7  O   UNK     1      19.044  -8.642   0.000  0.00  0.00    +0.000 OA
BRANCH   5   8
ATOM      8  C   UNK     1      18.330  -9.878   0.000  0.00  0.00    +0.000 C 
BRANCH   8  10
ATOM      9  C   UNK     1      16.903  -9.878   0.000  0.00  0.00    +0.000 C 
ATOM     10  N   UNK     1      17.618  -9.467   0.000  0.00  0.00    +0.000 NA
ATOM     11  O   UNK     1      16.188  -9.467   0.000  0.00  0.00    +0.000 OA
BRANCH   9  12
ATOM     12  C   UNK     1      16.903 -10.704   0.000  0.00  0.00    +0.000 C 
BRANCH  12  13
ATOM     13  N   UNK     1      16.188 -11.115   0.000  0.00  0.00    +0.000 NA
ATOM     14  C   UNK     1      15.476 -10.704   0.000  0.00  0.00    +0.000 C 
ATOM     15  O   UNK     1      15.476  -9.878   0.000  0.00  0.00    +0.000 OA
BRANCH  14  16
ATOM     16  C   UNK     1      14.761 -11.115   0.000  0.00  0.00    +0.000 C 
BRANCH  16  17
ATOM     17  C   UNK     1      14.050 -10.704   0.000  0.00  0.00    +0.000 C 
BRANCH  17  18
ATOM     18  C   UNK     1      13.334 -11.115   0.000  0.00  0.00    +0.000 C 
ATOM     19  N   UNK     1      13.334 -11.937   0.000  0.00  0.00    +0.000 NA
BRANCH  18  20
ATOM     20  C   UNK     1      12.620 -10.704   0.000  0.00  0.00    +0.000 C 
ATOM     21  O   UNK     1      11.912 -11.115   0.000  0.00  0.00    +0.000 OA
ATOM     22  O   UNK     1      12.620  -9.878   0.000  0.00  0.00    +0.000 OA
ENDBRANCH  18  20
ENDBRANCH  17  18
ENDBRANCH  16  17
ENDBRANCH  14  16
ENDBRANCH  12  13
BRANCH  12  23
ATOM     23  C   UNK     1      17.618 -11.115   0.000  0.00  0.00    +0.000 C 
ATOM     24  S   UNK     1      18.330 -10.704   0.000  0.00  0.00    +0.000 S 
ENDBRANCH  12  23
ENDBRANCH   9  12
ENDBRANCH   8  10
ENDBRANCH   5   8
ENDBRANCH   4   6
ENDBRANCH   3   4
ENDBRANCH   2   3
ENDBRANCH   1   2
BRANCH   1  25
ATOM     25  N   UNK     1      21.894 -11.937   0.000  0.00  0.00    +0.000 NA
BRANCH  25  26
ATOM     26  C   UNK     1      21.186 -12.348   0.000  0.00  0.00    +0.000 C 
BRANCH  26  27
ATOM     27  C   UNK     1      21.186 -13.174   0.000  0.00  0.00    +0.000 C 
BRANCH  27  28
ATOM     28  C   UNK     1      20.471 -13.585   0.000  0.00  0.00    +0.000 C 
BRANCH  28  30
ATOM     29  C   UNK     1      19.044 -13.585   0.000  0.00  0.00    +0.000 C 
ATOM     30  N   UNK     1      19.756 -13.174   0.000  0.00  0.00    +0.000 NA
ATOM     31  O   UNK     1      19.044 -14.414   0.000  0.00  0.00    +0.000 OA
BRANCH  29  32
ATOM     32  C   UNK     1      18.330 -13.174   0.000  0.00  0.00    +0.000 C 
BRANCH  32  34
ATOM     33  C   UNK     1      16.903 -13.174   0.000  0.00  0.00    +0.000 C 
ATOM     34  N   UNK     1      17.618 -13.585   0.000  0.00  0.00    +0.000 NA
ATOM     35  O   UNK     1      16.188 -13.585   0.000  0.00  0.00    +0.000 OA
BRANCH  33  36
ATOM     36  C   UNK     1      16.903 -12.348   0.000  0.00  0.00    +0.000 C 
BRANCH  36  37
ATOM     37  N   UNK     1      16.188 -11.937   0.000  0.00  0.00    +0.000 NA
ATOM     38  C   UNK     1      15.476 -12.348   0.000  0.00  0.00    +0.000 C 
ATOM     39  O   UNK     1      14.761 -11.937   0.000  0.00  0.00    +0.000 OA
BRANCH  38  40
ATOM     40  C   UNK     1      15.476 -13.174   0.000  0.00  0.00    +0.000 C 
BRANCH  40  41
ATOM     41  C   UNK     1      14.761 -13.585   0.000  0.00  0.00    +0.000 C 
BRANCH  41  42
ATOM     42  C   UNK     1      14.761 -14.414   0.000  0.00  0.00    +0.000 C 
ATOM     43  N   UNK     1      15.476 -14.825   0.000  0.00  0.00    +0.000 NA
BRANCH  42  44
ATOM     44  C   UNK     1      14.050 -14.825   0.000  0.00  0.00    +0.000 C 
ATOM     45  O   UNK     1      13.334 -14.414   0.000  0.00  0.00    +0.000 OA
ATOM     46  O   UNK     1      14.050 -15.647   0.000  0.00  0.00    +0.000 OA
ENDBRANCH  42  44
ENDBRANCH  41  42
ENDBRANCH  40  41
ENDBRANCH  38  40
ENDBRANCH  36  37
BRANCH  36  48
ATOM     47  S   UNK     1      18.330 -12.348   0.000  0.00  0.00    +0.000 S 
ATOM     48  C   UNK     1      17.618 -11.937   0.000  0.00  0.00    +0.000 C 
ENDBRANCH  36  48
ENDBRANCH  33  36
ENDBRANCH  32  34
ENDBRANCH  29  32
ENDBRANCH  28  30
ENDBRANCH  27  28
ENDBRANCH  26  27
ENDBRANCH  25  26
ENDBRANCH   1  25
TORSDOF 27
