REMARK  Name = 
REMARK  3 active torsions:
REMARK  status: ('A' for Active; 'I' for Inactive)
REMARK    1  A    between atoms: CA_2  and  C_3
REMARK    2  A    between atoms: CA_2  and  C_10
REMARK    3  A    between atoms: C_3  and  C_4
REMARK                            x       y       z     vdW  Elec       q    Type
REMARK                         _______ _______ _______ _____ _____    ______ ____
ROOT
ATOM      1  C   UNL     1       2.020   0.884   0.000  0.00  0.00    +0.000 C 
ENDROOT
BRANCH   1   2
ATOM      2  C   UNL     1       1.235   0.629   0.000  0.00  0.00    +0.000 A 
ATOM      3  C   UNL     1       0.980  -0.155   0.000  0.00  0.00    +0.000 A 
ATOM      4  O   UNL     1       0.155  -0.155   0.000  0.00  0.00    +0.000 OA
ATOM      5  N   UNL     1      -0.100   0.629   0.000  0.00  0.00    +0.000 NA
ATOM      6  C   UNL     1       0.568   1.114   0.000  0.00  0.00    +0.000 A 
ATOM      7  O   UNL     1       0.568   1.939   0.000  0.00  0.00    +0.000 OA
ENDBRANCH   1   2
BRANCH   1   9
ATOM      8  N   UNL     1       1.578   2.243   0.000  0.00  0.00    +0.000 NA
ATOM      9  CA  UNL     1       2.191   1.691   0.000  0.00  0.00    +0.000 C 
BRANCH   9  10
ATOM     10  C   UNL     1       2.976   1.946   0.000  0.00  0.00    +0.000 C 
ATOM     11  O   UNL     1       3.147   2.753   0.000  0.00  0.00    +0.000 OA
ATOM     12  OXT UNL     1       3.589   1.394   0.000  0.00  0.00    +0.000 OA
ENDBRANCH   9  10
ENDBRANCH   1   9
TORSDOF 3
