REMARK  Name = 
REMARK  9 active torsions:
REMARK  status: ('A' for Active; 'I' for Inactive)
REMARK    1  A    between atoms: O_1  and  C_22
REMARK    2  A    between atoms: O_1  and  C_27
REMARK    3  A    between atoms: O_3  and  C_30
REMARK    4  A    between atoms: O_4  and  C_38
REMARK    5  A    between atoms: O_4  and  C_39
REMARK    6  A    between atoms: N_5  and  C_16
REMARK    7  A    between atoms: N_9  and  C_32
REMARK    8  A    between atoms: C_16  and  C_17
REMARK    9  A    between atoms: C_17  and  C_22
REMARK                            x       y       z     vdW  Elec       q    Type
REMARK                         _______ _______ _______ _____ _____    ______ ____
ROOT
ATOM      1  O   UNL     1       6.632  -2.267   0.000  0.00  0.00    +0.000 OA
ATOM      2  N   UNL     1       7.380   0.613   0.000  0.00  0.00    +0.000 N 
ATOM      3  N   UNL     1       7.360  -1.038   0.000  0.00  0.00    +0.000 N 
ATOM      4  N   UNL     1       8.136   1.861   0.000  0.00  0.00    +0.000 NA
ATOM      5  N   UNL     1       8.060  -2.283   0.000  0.00  0.00    +0.000 NA
ATOM      6  N   UNL     1       7.389   3.145   0.000  0.00  0.00    +0.000 NA
ATOM      7  C   UNL     1       6.660   0.208   0.000  0.00  0.00    +0.000 C 
ATOM      8  C   UNL     1       8.089   0.192   0.000  0.00  0.00    +0.000 C 
ATOM      9  C   UNL     1       6.651  -0.617   0.000  0.00  0.00    +0.000 C 
ATOM     10  C   UNL     1       8.080  -0.633   0.000  0.00  0.00    +0.000 C 
ATOM     11  C   UNL     1       7.389   1.437   0.000  0.00  0.00    +0.000 A 
ATOM     12  C   UNL     1       6.652   1.879   0.000  0.00  0.00    +0.000 A 
ATOM     13  C   UNL     1       7.351  -1.862   0.000  0.00  0.00    +0.000 C 
ATOM     14  C   UNL     1       6.652   2.704   0.000  0.00  0.00    +0.000 A 
ATOM     15  C   UNL     1       5.222   2.704   0.000  0.00  0.00    +0.000 A 
ATOM     16  C   UNL     1       5.937   1.466   0.000  0.00  0.00    +0.000 A 
ATOM     17  C   UNL     1       5.937   3.116   0.000  0.00  0.00    +0.000 A 
ATOM     18  C   UNL     1       5.222   1.879   0.000  0.00  0.00    +0.000 A 
ATOM     19  C   UNL     1       8.136   2.721   0.000  0.00  0.00    +0.000 A 
ENDROOT
BRANCH   5  20
ATOM     20  C   UNL     1       8.051  -3.108   0.000  0.00  0.00    +0.000 A 
ATOM     21  C   UNL     1       8.761  -3.529   0.000  0.00  0.00    +0.000 A 
ATOM     22  C   UNL     1       7.332  -3.512   0.000  0.00  0.00    +0.000 A 
ATOM     23  C   UNL     1       8.751  -4.354   0.000  0.00  0.00    +0.000 A 
ATOM     24  C   UNL     1       7.322  -4.337   0.000  0.00  0.00    +0.000 A 
ATOM     25  C   UNL     1       8.032  -4.758   0.000  0.00  0.00    +0.000 A 
BRANCH  25  26
ATOM     26  O   UNL     1       8.022  -5.583   0.000  0.00  0.00    +0.000 OA
BRANCH  26  27
ATOM     27  C   UNL     1       8.732  -6.004   0.000  0.00  0.00    +0.000 C 
ATOM     28  C   UNL     1       8.722  -6.829   0.000  0.00  0.00    +0.000 C 
ATOM     29  C   UNL     1       9.451  -5.599   0.000  0.00  0.00    +0.000 C 
ENDBRANCH  26  27
ENDBRANCH  25  26
ENDBRANCH   5  20
BRANCH  18  30
ATOM     30  O   UNL     1       4.508   1.466   0.000  0.00  0.00    +0.000 OA
ATOM     31  C   UNL     1       3.793   1.879   0.000  0.00  0.00    +0.000 C 
ENDBRANCH  18  30
BRANCH  15  32
ATOM     32  O   UNL     1       4.508   3.116   0.000  0.00  0.00    +0.000 OA
BRANCH  32  33
ATOM     33  C   UNL     1       4.508   3.941   0.000  0.00  0.00    +0.000 C 
BRANCH  33  34
ATOM     34  C   UNL     1       3.793   4.354   0.000  0.00  0.00    +0.000 C 
BRANCH  34  35
ATOM     35  C   UNL     1       3.793   5.179   0.000  0.00  0.00    +0.000 C 
BRANCH  35  36
ATOM     36  N   UNL     1       3.079   5.591   0.000  0.00  0.00    +0.000 NA
ATOM     37  C   UNL     1       3.079   6.416   0.000  0.00  0.00    +0.000 C 
ATOM     38  C   UNL     1       2.365   5.179   0.000  0.00  0.00    +0.000 C 
ATOM     39  C   UNL     1       2.365   6.829   0.000  0.00  0.00    +0.000 C 
ATOM     40  C   UNL     1       1.650   5.591   0.000  0.00  0.00    +0.000 C 
ATOM     41  C   UNL     1       1.650   6.416   0.000  0.00  0.00    +0.000 C 
ENDBRANCH  35  36
ENDBRANCH  34  35
ENDBRANCH  33  34
ENDBRANCH  32  33
ENDBRANCH  15  32
TORSDOF 9
