REMARK  Name = 
REMARK  8 active torsions:
REMARK  status: ('A' for Active; 'I' for Inactive)
REMARK    1  A    between atoms: P_1  and  O_2
REMARK    2  A    between atoms: O_2  and  C_6
REMARK    3  A    between atoms: C_7  and  O_10
REMARK    4  A    between atoms: O_10  and  P_15
REMARK    5  A    between atoms: C_11  and  O_16
REMARK    6  A    between atoms: C_13  and  O_17
REMARK    7  A    between atoms: O_16  and  P_21
REMARK    8  A    between atoms: O_17  and  P_22
REMARK                            x       y       z     vdW  Elec       q    Type
REMARK                         _______ _______ _______ _____ _____    ______ ____
ROOT
ATOM      1  C   UNL     1      -0.829  -0.008   0.000  0.00  0.00    +0.000 C 
ATOM      2  C   UNL     1      -0.416   0.719   0.000  0.00  0.00    +0.000 C 
ATOM      3  C   UNL     1      -0.405  -0.719   0.000  0.00  0.00    +0.000 C 
ATOM      4  C   UNL     1       0.420   0.727   0.000  0.00  0.00    +0.000 C 
ATOM      5  C   UNL     1       0.416  -0.715   0.000  0.00  0.00    +0.000 C 
ATOM      6  O   UNL     1      -0.810  -1.438   0.000  0.00  0.00    +0.000 OA
ATOM      7  C   UNL     1       0.829   0.008   0.000  0.00  0.00    +0.000 C 
ATOM      8  O   UNL     1       0.829   1.438   0.000  0.00  0.00    +0.000 OA
ENDROOT
BRANCH   1   9
ATOM      9  O   UNL     1      -1.654  -0.011   0.000  0.00  0.00    +0.000 OA
BRANCH   9  10
ATOM     10  P   UNL     1      -2.475  -0.008   0.000  0.00  0.00    +0.000 P 
ATOM     11  O   UNL     1      -3.300  -0.008   0.000  0.00  0.00    +0.000 OA
ATOM     12  O   UNL     1      -2.475   0.814   0.000  0.00  0.00    +0.000 OA
ATOM     13  O   UNL     1      -2.478  -0.833   0.000  0.00  0.00    +0.000 OA
ENDBRANCH   9  10
ENDBRANCH   1   9
BRANCH   7  14
ATOM     14  O   UNL     1       1.650   0.008   0.000  0.00  0.00    +0.000 OA
BRANCH  14  15
ATOM     15  P   UNL     1       2.471   0.008   0.000  0.00  0.00    +0.000 P 
ATOM     16  O   UNL     1       3.296   0.004   0.000  0.00  0.00    +0.000 OA
ATOM     17  O   UNL     1       2.475   0.833   0.000  0.00  0.00    +0.000 OA
ATOM     18  O   UNL     1       2.467  -0.814   0.000  0.00  0.00    +0.000 OA
ENDBRANCH  14  15
ENDBRANCH   7  14
BRANCH   2  19
ATOM     19  O   UNL     1      -0.833   1.423   0.000  0.00  0.00    +0.000 OA
BRANCH  19  20
ATOM     20  P   UNL     1      -0.829   2.244   0.000  0.00  0.00    +0.000 P 
ATOM     21  O   UNL     1      -1.654   2.244   0.000  0.00  0.00    +0.000 OA
ATOM     22  O   UNL     1      -0.829   3.069   0.000  0.00  0.00    +0.000 OA
ATOM     23  O   UNL     1      -0.008   2.240   0.000  0.00  0.00    +0.000 OA
ENDBRANCH  19  20
ENDBRANCH   2  19
BRANCH   5  24
ATOM     24  O   UNL     1       0.833  -1.423   0.000  0.00  0.00    +0.000 OA
BRANCH  24  25
ATOM     25  P   UNL     1       0.829  -2.244   0.000  0.00  0.00    +0.000 P 
ATOM     26  O   UNL     1       1.654  -2.248   0.000  0.00  0.00    +0.000 OA
ATOM     27  O   UNL     1       0.008  -2.244   0.000  0.00  0.00    +0.000 OA
ATOM     28  O   UNL     1       0.825  -3.069   0.000  0.00  0.00    +0.000 OA
ENDBRANCH  24  25
ENDBRANCH   5  24
TORSDOF 8
