REMARK  Name = 
REMARK  1 active torsions:
REMARK  status: ('A' for Active; 'I' for Inactive)
REMARK    1  A    between atoms: C_2  and  C_3
REMARK                            x       y       z     vdW  Elec       q    Type
REMARK                         _______ _______ _______ _____ _____    ______ ____
ROOT
ATOM      1  C   UNL     1       3.677   0.642   0.000  0.00  0.00    +0.000 C 
ATOM      2  O   UNL     1       3.001   1.114   0.000  0.00  0.00    +0.000 OA
ATOM      3  C   UNL     1       2.343   0.616   0.000  0.00  0.00    +0.000 C 
ATOM      4  C   UNL     1       2.613  -0.163   0.000  0.00  0.00    +0.000 C 
ATOM      5  O   UNL     1       1.955  -0.661   0.000  0.00  0.00    +0.000 OA
ATOM      6  C   UNL     1       1.278  -0.190   0.000  0.00  0.00    +0.000 A 
ATOM      7  N   UNL     1       0.475  -0.377   0.000  0.00  0.00    +0.000 NA
ATOM      8  C   UNL     1      -0.089   0.225   0.000  0.00  0.00    +0.000 A 
ATOM      9  O   UNL     1      -0.892   0.038   0.000  0.00  0.00    +0.000 OA
ATOM     10  C   UNL     1       0.150   1.015   0.000  0.00  0.00    +0.000 A 
ATOM     11  C   UNL     1       0.954   1.202   0.000  0.00  0.00    +0.000 A 
ATOM     12  N   UNL     1       1.518   0.600   0.000  0.00  0.00    +0.000 N 
ATOM     13  C   UNL     1       3.438  -0.147   0.000  0.00  0.00    +0.000 C 
ATOM     14  O   UNL     1       3.936  -0.805   0.000  0.00  0.00    +0.000 OA
ENDROOT
BRANCH   1  16
ATOM     15  O   UNL     1       5.081   0.373   0.000  0.00  0.00    +0.000 OA
ATOM     16  C   UNL     1       4.457   0.913   0.000  0.00  0.00    +0.000 C 
ENDBRANCH   1  16
TORSDOF 1
