REMARK  Name = 
REMARK  4 active torsions:
REMARK  status: ('A' for Active; 'I' for Inactive)
REMARK    1  A    between atoms: N_1  and  C_3
REMARK    2  A    between atoms: C_12  and  C_17
REMARK    3  A    between atoms: C_17  and  O_19
REMARK    4  A    between atoms: O_19  and  P_20
REMARK                            x       y       z     vdW  Elec       q    Type
REMARK                         _______ _______ _______ _____ _____    ______ ____
ROOT
ATOM      1  C   UNL     1       1.234  -0.706   0.000  0.00  0.00    +0.000 C 
ATOM      2  O   UNL     1       0.562  -0.211   0.000  0.00  0.00    +0.000 OA
ATOM      3  C   UNL     1       0.985  -1.471   0.000  0.00  0.00    +0.000 C 
ATOM      4  C   UNL     1      -0.109  -0.690   0.000  0.00  0.00    +0.000 C 
ATOM      5  C   UNL     1       0.155  -1.471   0.000  0.00  0.00    +0.000 C 
ATOM      6  O   UNL     1       1.471  -2.135   0.000  0.00  0.00    +0.000 OA
ATOM      7  O   UNL     1      -0.317  -2.143   0.000  0.00  0.00    +0.000 OA
ENDROOT
BRANCH   1   8
ATOM      8  N   UNL     1       1.853   0.502   0.000  0.00  0.00    +0.000 N 
ATOM      9  C   UNL     1       1.064   0.751   0.000  0.00  0.00    +0.000 A 
ATOM     10  C   UNL     1       2.336   1.162   0.000  0.00  0.00    +0.000 A 
ATOM     11  C   UNL     1       1.064   1.581   0.000  0.00  0.00    +0.000 A 
ATOM     12  N   UNL     1       0.347   0.332   0.000  0.00  0.00    +0.000 NA
ATOM     13  N   UNL     1       1.856   1.837   0.000  0.00  0.00    +0.000 NA
ATOM     14  C   UNL     1       0.347   1.992   0.000  0.00  0.00    +0.000 A 
ATOM     15  C   UNL     1      -0.366   0.751   0.000  0.00  0.00    +0.000 A 
ATOM     16  N   UNL     1      -0.366   1.581   0.000  0.00  0.00    +0.000 NA
ATOM     17  O   UNL     1       0.343   2.815   0.000  0.00  0.00    +0.000 OA
ENDBRANCH   1   8
BRANCH   4  18
ATOM     18  C   UNL     1      -0.879  -0.445   0.000  0.00  0.00    +0.000 C 
BRANCH  18  19
ATOM     19  O   UNL     1      -1.490  -0.807   0.000  0.00  0.00    +0.000 OA
BRANCH  19  20
ATOM     20  P   UNL     1      -2.317  -0.807   0.000  0.00  0.00    +0.000 P 
ATOM     21  O   UNL     1      -3.135  -0.807   0.000  0.00  0.00    +0.000 OA
ATOM     22  O   UNL     1      -2.317   0.015   0.000  0.00  0.00    +0.000 OA
ATOM     23  O   UNL     1      -2.320  -1.626   0.000  0.00  0.00    +0.000 OA
ENDBRANCH  19  20
ENDBRANCH  18  19
ENDBRANCH   4  18
TORSDOF 4
