REMARK  Name = 
REMARK  12 active torsions:
REMARK  status: ('A' for Active; 'I' for Inactive)
REMARK    1  A    between atoms: S_1  and  N_8
REMARK    2  A    between atoms: S_1  and  C_21
REMARK    3  A    between atoms: O_2  and  C_26
REMARK    4  A    between atoms: O_2  and  C_30
REMARK    5  A    between atoms: O_5  and  C_27
REMARK    6  A    between atoms: O_5  and  C_33
REMARK    7  A    between atoms: O_6  and  C_34
REMARK    8  A    between atoms: N_8  and  C_25
REMARK    9  A    between atoms: C_17  and  C_18
REMARK   10  A    between atoms: C_28  and  C_29
REMARK   11  A    between atoms: C_33  and  C_38
REMARK   12  A    between atoms: C_35  and  C_42
REMARK                            x       y       z     vdW  Elec       q    Type
REMARK                         _______ _______ _______ _____ _____    ______ ____
ROOT
ATOM      1  N   UNL     1       5.937   0.429   0.000  0.00  0.00    +0.000 NA
ATOM      2  N   UNL     1       5.222  -0.808   0.000  0.00  0.00    +0.000 NA
ATOM      3  C   UNL     1       5.222   0.842   0.000  0.00  0.00    +0.000 A 
ATOM      4  C   UNL     1       4.508   0.429   0.000  0.00  0.00    +0.000 A 
ATOM      5  C   UNL     1       4.508  -0.396   0.000  0.00  0.00    +0.000 A 
ATOM      6  C   UNL     1       5.937  -0.396   0.000  0.00  0.00    +0.000 A 
ENDROOT
BRANCH   6   8
ATOM      7  N   UNL     1       8.080  -1.633   0.000  0.00  0.00    +0.000 NA
ATOM      8  C   UNL     1       6.652  -0.808   0.000  0.00  0.00    +0.000 A 
ATOM      9  C   UNL     1       6.652  -1.633   0.000  0.00  0.00    +0.000 A 
ATOM     10  C   UNL     1       7.366  -0.396   0.000  0.00  0.00    +0.000 A 
ATOM     11  C   UNL     1       7.366  -2.046   0.000  0.00  0.00    +0.000 A 
ATOM     12  C   UNL     1       8.080  -0.808   0.000  0.00  0.00    +0.000 A 
BRANCH  11  17
ATOM     13  N   UNL     1       8.033  -3.356   0.000  0.00  0.00    +0.000 NA
ATOM     14  N   UNL     1       6.699  -3.356   0.000  0.00  0.00    +0.000 NA
ATOM     15  N   UNL     1       7.778  -4.140   0.000  0.00  0.00    +0.000 NA
ATOM     16  N   UNL     1       6.953  -4.140   0.000  0.00  0.00    +0.000 NA
ATOM     17  C   UNL     1       7.366  -2.871   0.000  0.00  0.00    +0.000 A 
ENDBRANCH  11  17
ENDBRANCH   6   8
BRANCH   5  18
ATOM     18  O   UNL     1       3.793  -0.808   0.000  0.00  0.00    +0.000 OA
BRANCH  18  19
ATOM     19  C   UNL     1       3.793  -1.633   0.000  0.00  0.00    +0.000 C 
BRANCH  19  21
ATOM     20  O   UNL     1       3.079  -2.871   0.000  0.00  0.00    +0.000 OA
ATOM     21  C   UNL     1       3.079  -2.046   0.000  0.00  0.00    +0.000 C 
ENDBRANCH  19  21
ENDBRANCH  18  19
ENDBRANCH   5  18
BRANCH   3  22
ATOM     22  N   UNL     1       5.222   1.667   0.000  0.00  0.00    +0.000 NA
BRANCH  22  23
ATOM     23  S   UNL     1       5.937   2.079   0.000  0.00  0.00    +0.000 S 
ATOM     24  O   UNL     1       6.349   1.365   0.000  0.00  0.00    +0.000 OA
ATOM     25  O   UNL     1       5.524   2.794   0.000  0.00  0.00    +0.000 OA
BRANCH  23  28
ATOM     26  N   UNL     1       7.366   2.079   0.000  0.00  0.00    +0.000 NA
ATOM     27  C   UNL     1       8.080   3.317   0.000  0.00  0.00    +0.000 A 
ATOM     28  C   UNL     1       6.652   2.492   0.000  0.00  0.00    +0.000 A 
ATOM     29  C   UNL     1       7.366   3.729   0.000  0.00  0.00    +0.000 A 
ATOM     30  C   UNL     1       8.080   2.492   0.000  0.00  0.00    +0.000 A 
ATOM     31  C   UNL     1       6.652   3.317   0.000  0.00  0.00    +0.000 A 
BRANCH  27  32
ATOM     32  C   UNL     1       8.795   3.729   0.000  0.00  0.00    +0.000 C 
ATOM     33  C   UNL     1       8.795   4.554   0.000  0.00  0.00    +0.000 C 
ATOM     34  C   UNL     1       9.509   3.317   0.000  0.00  0.00    +0.000 C 
ENDBRANCH  27  32
ENDBRANCH  23  28
ENDBRANCH  22  23
ENDBRANCH   3  22
BRANCH   4  35
ATOM     35  O   UNL     1       3.793   0.842   0.000  0.00  0.00    +0.000 OA
BRANCH  35  36
ATOM     36  C   UNL     1       3.079   0.429   0.000  0.00  0.00    +0.000 A 
ATOM     37  C   UNL     1       2.365   0.842   0.000  0.00  0.00    +0.000 A 
ATOM     38  C   UNL     1       3.079  -0.396   0.000  0.00  0.00    +0.000 A 
ATOM     39  C   UNL     1       1.650   0.429   0.000  0.00  0.00    +0.000 A 
ATOM     40  C   UNL     1       2.365  -0.808   0.000  0.00  0.00    +0.000 A 
ATOM     41  C   UNL     1       1.650  -0.396   0.000  0.00  0.00    +0.000 A 
BRANCH  37  42
ATOM     42  O   UNL     1       2.365   1.667   0.000  0.00  0.00    +0.000 OA
ATOM     43  C   UNL     1       1.650   2.079   0.000  0.00  0.00    +0.000 C 
ENDBRANCH  37  42
ENDBRANCH  35  36
ENDBRANCH   4  35
TORSDOF 12
