REMARK  Name = 
REMARK  41 active torsions:
REMARK  status: ('A' for Active; 'I' for Inactive)
REMARK    1  A    between atoms: P_1  and  O_2
REMARK    2  A    between atoms: P_1  and  O_4
REMARK    3  A    between atoms: O_2  and  C_27
REMARK    4  A    between atoms: O_3  and  C_38
REMARK    5  A    between atoms: O_3  and  C_40
REMARK    6  A    between atoms: O_4  and  C_46
REMARK    7  A    between atoms: O_5  and  C_47
REMARK    8  A    between atoms: O_5  and  C_51
REMARK    9  A    between atoms: N_10  and  C_21
REMARK   10  A    between atoms: C_11  and  C_12
REMARK   11  A    between atoms: C_11  and  C_13
REMARK   12  A    between atoms: C_12  and  C_14
REMARK   13  A    between atoms: C_13  and  C_15
REMARK   14  A    between atoms: C_14  and  C_16
REMARK   15  A    between atoms: C_15  and  C_17
REMARK   16  A    between atoms: C_16  and  C_18
REMARK   17  A    between atoms: C_17  and  C_19
REMARK   18  A    between atoms: C_18  and  C_20
REMARK   19  A    between atoms: C_19  and  C_22
REMARK   20  A    between atoms: C_20  and  C_23
REMARK   21  A    between atoms: C_21  and  C_27
REMARK   22  A    between atoms: C_22  and  C_28
REMARK   23  A    between atoms: C_23  and  C_29
REMARK   24  A    between atoms: C_28  and  C_38
REMARK   25  A    between atoms: C_30  and  C_31
REMARK   26  A    between atoms: C_30  and  C_32
REMARK   27  A    between atoms: C_31  and  C_35
REMARK   28  A    between atoms: C_32  and  C_39
REMARK   29  A    between atoms: C_33  and  C_34
REMARK   30  A    between atoms: C_33  and  C_36
REMARK   31  A    between atoms: C_34  and  C_37
REMARK   32  A    between atoms: C_35  and  C_42
REMARK   33  A    between atoms: C_36  and  C_43
REMARK   34  A    between atoms: C_37  and  C_44
REMARK   35  A    between atoms: C_39  and  C_45
REMARK   36  A    between atoms: C_40  and  C_46
REMARK   37  A    between atoms: C_40  and  C_47
REMARK   38  A    between atoms: C_42  and  C_48
REMARK   39  A    between atoms: C_43  and  C_49
REMARK   40  A    between atoms: C_44  and  C_50
REMARK   41  A    between atoms: C_45  and  C_51
REMARK                            x       y       z     vdW  Elec       q    Type
REMARK                         _______ _______ _______ _____ _____    ______ ____
ROOT
ATOM      1  C   UNL     1       7.366  -3.405   0.000  0.00  0.00    +0.000 C 
ENDROOT
BRANCH   1   2
ATOM      2  O   UNL     1       8.080  -3.817   0.000  0.00  0.00    +0.000 OA
BRANCH   2   4
ATOM      3  O   UNL     1       8.795  -2.580   0.000  0.00  0.00    +0.000 OA
ATOM      4  C   UNL     1       8.795  -3.405   0.000  0.00  0.00    +0.000 C 
BRANCH   4   5
ATOM      5  C   UNL     1       9.509  -3.817   0.000  0.00  0.00    +0.000 C 
BRANCH   5   6
ATOM      6  C   UNL     1      10.224  -3.405   0.000  0.00  0.00    +0.000 C 
BRANCH   6   7
ATOM      7  C   UNL     1      10.938  -3.817   0.000  0.00  0.00    +0.000 C 
BRANCH   7   8
ATOM      8  C   UNL     1      11.653  -3.405   0.000  0.00  0.00    +0.000 C 
BRANCH   8   9
ATOM      9  C   UNL     1      12.367  -3.817   0.000  0.00  0.00    +0.000 C 
BRANCH   9  10
ATOM     10  C   UNL     1      13.082  -3.405   0.000  0.00  0.00    +0.000 C 
BRANCH  10  11
ATOM     11  C   UNL     1      13.796  -3.817   0.000  0.00  0.00    +0.000 C 
BRANCH  11  12
ATOM     12  C   UNL     1      14.511  -3.405   0.000  0.00  0.00    +0.000 C 
BRANCH  12  13
ATOM     13  C   UNL     1      15.225  -3.817   0.000  0.00  0.00    +0.000 C 
BRANCH  13  14
ATOM     14  C   UNL     1      15.940  -3.405   0.000  0.00  0.00    +0.000 C 
BRANCH  14  15
ATOM     15  C   UNL     1      16.654  -3.817   0.000  0.00  0.00    +0.000 C 
BRANCH  15  16
ATOM     16  C   UNL     1      17.369  -3.405   0.000  0.00  0.00    +0.000 C 
BRANCH  16  17
ATOM     17  C   UNL     1      18.083  -3.817   0.000  0.00  0.00    +0.000 C 
BRANCH  17  18
ATOM     18  C   UNL     1      18.798  -3.405   0.000  0.00  0.00    +0.000 C 
ATOM     19  C   UNL     1      19.512  -3.817   0.000  0.00  0.00    +0.000 C 
ENDBRANCH  17  18
ENDBRANCH  16  17
ENDBRANCH  15  16
ENDBRANCH  14  15
ENDBRANCH  13  14
ENDBRANCH  12  13
ENDBRANCH  11  12
ENDBRANCH  10  11
ENDBRANCH   9  10
ENDBRANCH   8   9
ENDBRANCH   7   8
ENDBRANCH   6   7
ENDBRANCH   5   6
ENDBRANCH   4   5
ENDBRANCH   2   4
ENDBRANCH   1   2
BRANCH   1  20
ATOM     20  C   UNL     1       6.652  -3.817   0.000  0.00  0.00    +0.000 C 
BRANCH  20  21
ATOM     21  O   UNL     1       5.937  -3.405   0.000  0.00  0.00    +0.000 OA
BRANCH  21  22
ATOM     22  P   UNL     1       5.222  -3.817   0.000  0.00  0.00    +0.000 P 
ATOM     23  O   UNL     1       4.810  -3.103   0.000  0.00  0.00    +0.000 OA
ATOM     24  O   UNL     1       5.635  -4.532   0.000  0.00  0.00    +0.000 OA
BRANCH  22  25
ATOM     25  O   UNL     1       4.508  -4.230   0.000  0.00  0.00    +0.000 OA
BRANCH  25  26
ATOM     26  C   UNL     1       3.793  -3.817   0.000  0.00  0.00    +0.000 C 
BRANCH  26  27
ATOM     27  C   UNL     1       3.079  -4.230   0.000  0.00  0.00    +0.000 C 
BRANCH  27  28
ATOM     28  N   UNL     1       2.365  -3.817   0.000  0.00  0.00    +0.000 N 
ATOM     29  C   UNL     1       1.650  -3.405   0.000  0.00  0.00    +0.000 C 
ATOM     30  C   UNL     1       1.952  -4.532   0.000  0.00  0.00    +0.000 C 
ATOM     31  C   UNL     1       2.777  -3.103   0.000  0.00  0.00    +0.000 C 
ENDBRANCH  27  28
ENDBRANCH  26  27
ENDBRANCH  25  26
ENDBRANCH  22  25
ENDBRANCH  21  22
ENDBRANCH  20  21
ENDBRANCH   1  20
BRANCH   1  32
ATOM     32  C   UNL     1       7.366  -2.580   0.000  0.00  0.00    +0.000 C 
BRANCH  32  33
ATOM     33  O   UNL     1       8.080  -2.167   0.000  0.00  0.00    +0.000 OA
BRANCH  33  35
ATOM     34  O   UNL     1       7.366  -0.930   0.000  0.00  0.00    +0.000 OA
ATOM     35  C   UNL     1       8.080  -1.342   0.000  0.00  0.00    +0.000 C 
BRANCH  35  36
ATOM     36  C   UNL     1       8.795  -0.930   0.000  0.00  0.00    +0.000 C 
BRANCH  36  37
ATOM     37  C   UNL     1       8.795  -0.105   0.000  0.00  0.00    +0.000 C 
BRANCH  37  38
ATOM     38  C   UNL     1       9.509   0.308   0.000  0.00  0.00    +0.000 C 
BRANCH  38  39
ATOM     39  C   UNL     1       9.509   1.133   0.000  0.00  0.00    +0.000 C 
BRANCH  39  40
ATOM     40  C   UNL     1      10.224   1.545   0.000  0.00  0.00    +0.000 C 
BRANCH  40  41
ATOM     41  C   UNL     1      10.224   2.370   0.000  0.00  0.00    +0.000 C 
BRANCH  41  42
ATOM     42  C   UNL     1      10.938   2.783   0.000  0.00  0.00    +0.000 C 
BRANCH  42  43
ATOM     43  C   UNL     1      10.938   3.608   0.000  0.00  0.00    +0.000 C 
ATOM     44  C   UNL     1      11.653   4.020   0.000  0.00  0.00    +0.000 C 
BRANCH  44  45
ATOM     45  C   UNL     1      12.367   3.608   0.000  0.00  0.00    +0.000 C 
BRANCH  45  46
ATOM     46  C   UNL     1      13.082   4.020   0.000  0.00  0.00    +0.000 C 
BRANCH  46  47
ATOM     47  C   UNL     1      13.796   3.608   0.000  0.00  0.00    +0.000 C 
BRANCH  47  48
ATOM     48  C   UNL     1      14.511   4.020   0.000  0.00  0.00    +0.000 C 
BRANCH  48  49
ATOM     49  C   UNL     1      15.225   3.608   0.000  0.00  0.00    +0.000 C 
BRANCH  49  50
ATOM     50  C   UNL     1      15.940   4.020   0.000  0.00  0.00    +0.000 C 
BRANCH  50  51
ATOM     51  C   UNL     1      16.654   3.608   0.000  0.00  0.00    +0.000 C 
ATOM     52  C   UNL     1      17.369   4.020   0.000  0.00  0.00    +0.000 C 
ENDBRANCH  50  51
ENDBRANCH  49  50
ENDBRANCH  48  49
ENDBRANCH  47  48
ENDBRANCH  46  47
ENDBRANCH  45  46
ENDBRANCH  44  45
ENDBRANCH  42  43
ENDBRANCH  41  42
ENDBRANCH  40  41
ENDBRANCH  39  40
ENDBRANCH  38  39
ENDBRANCH  37  38
ENDBRANCH  36  37
ENDBRANCH  35  36
ENDBRANCH  33  35
ENDBRANCH  32  33
ENDBRANCH   1  32
TORSDOF 41
