REMARK  Name = 
REMARK  7 active torsions:
REMARK  status: ('A' for Active; 'I' for Inactive)
REMARK    1  A    between atoms: C_12  and  C_19
REMARK    2  A    between atoms: C_12  and  C_23
REMARK    3  A    between atoms: C_13  and  C_20
REMARK    4  A    between atoms: C_16  and  C_22
REMARK    5  A    between atoms: C_16  and  N_29
REMARK    6  A    between atoms: C_25  and  S_34
REMARK    7  A    between atoms: N_30  and  S_34
REMARK                            x       y       z     vdW  Elec       q    Type
REMARK                         _______ _______ _______ _____ _____    ______ ____
ROOT
ATOM      1  C   UNL     1       0.492  -1.532   0.000  0.00  0.00    +0.000 A 
ATOM      2  C   UNL     1       1.206  -1.944   0.000  0.00  0.00    +0.000 A 
ATOM      3  C   UNL     1       1.206  -0.294   0.000  0.00  0.00    +0.000 A 
ATOM      4  C   UNL     1       2.566  -0.192   0.000  0.00  0.00    +0.000 C 
ATOM      5  C   UNL     1       3.370  -1.862   0.000  0.00  0.00    +0.000 C 
ATOM      6  C   UNL     1       0.492  -0.707   0.000  0.00  0.00    +0.000 A 
ATOM      7  C   UNL     1       1.921  -0.707   0.000  0.00  0.00    +0.000 A 
ATOM      8  C   UNL     1       3.728  -1.119   0.000  0.00  0.00    +0.000 C 
ATOM      9  C   UNL     1       1.921  -1.532   0.000  0.00  0.00    +0.000 A 
ATOM     10  N   UNL     1       2.566  -2.046   0.000  0.00  0.00    +0.000 N 
ATOM     11  N   UNL     1       3.370  -0.376   0.000  0.00  0.00    +0.000 NA
ENDROOT
BRANCH  11  14
ATOM     12  O   UNL     1       4.529  -0.245   0.000  0.00  0.00    +0.000 OA
ATOM     13  O   UNL     1       3.239   0.783   0.000  0.00  0.00    +0.000 OA
ATOM     14  S   UNL     1       3.884   0.269   0.000  0.00  0.00    +0.000 S 
BRANCH  14  18
ATOM     15  C   UNL     1       4.868   2.164   0.000  0.00  0.00    +0.000 A 
ATOM     16  C   UNL     1       4.179   1.709   0.000  0.00  0.00    +0.000 A 
ATOM     17  C   UNL     1       5.513   1.650   0.000  0.00  0.00    +0.000 A 
ATOM     18  C   UNL     1       4.399   0.914   0.000  0.00  0.00    +0.000 A 
ATOM     19  S   UNL     1       5.223   0.877   0.000  0.00  0.00    +0.000 S 
ENDBRANCH  14  18
ENDBRANCH  11  14
BRANCH   6  20
ATOM     20  C   UNL     1      -0.223  -0.294   0.000  0.00  0.00    +0.000 C 
ATOM     21  N   UNL     1      -0.937   0.118   0.000  0.00  0.00    +0.000 NA
ENDBRANCH   6  20
BRANCH   8  22
ATOM     22  C   UNL     1       4.553  -1.119   0.000  0.00  0.00    +0.000 C 
BRANCH  22  28
ATOM     23  C   UNL     1       5.790  -3.263   0.000  0.00  0.00    +0.000 A 
ATOM     24  C   UNL     1       6.203  -2.548   0.000  0.00  0.00    +0.000 A 
ATOM     25  C   UNL     1       4.965  -3.263   0.000  0.00  0.00    +0.000 A 
ATOM     26  C   UNL     1       5.790  -1.834   0.000  0.00  0.00    +0.000 A 
ATOM     27  C   UNL     1       4.553  -2.548   0.000  0.00  0.00    +0.000 A 
ATOM     28  C   UNL     1       4.965  -1.834   0.000  0.00  0.00    +0.000 A 
ENDBRANCH  22  28
ENDBRANCH   8  22
BRANCH  10  29
ATOM     29  C   UNL     1       2.382  -2.850   0.000  0.00  0.00    +0.000 C 
BRANCH  29  32
ATOM     30  C   UNL     1       1.327  -3.874   0.000  0.00  0.00    +0.000 A 
ATOM     31  C   UNL     1       0.259  -3.074   0.000  0.00  0.00    +0.000 A 
ATOM     32  C   UNL     1       1.594  -3.094   0.000  0.00  0.00    +0.000 A 
ATOM     33  N   UNL     1       0.502  -3.862   0.000  0.00  0.00    +0.000 NA
ATOM     34  N   UNL     1       0.934  -2.599   0.000  0.00  0.00    +0.000 NA
ENDBRANCH  29  32
ENDBRANCH  10  29
TORSDOF 7
