REMARK  Name = 
REMARK  9 active torsions:
REMARK  status: ('A' for Active; 'I' for Inactive)
REMARK    1  A    between atoms: S_1  and  C_37
REMARK    2  A    between atoms: S_1  and  C_40
REMARK    3  A    between atoms: S_2  and  C_38
REMARK    4  A    between atoms: S_2  and  C_41
REMARK    5  A    between atoms: O_4  and  O_7
REMARK    6  A    between atoms: O_4  and  C_26
REMARK    7  A    between atoms: C_12  and  C_26
REMARK    8  A    between atoms: C_33  and  C_37
REMARK    9  A    between atoms: C_35  and  C_38
REMARK                            x       y       z     vdW  Elec       q    Type
REMARK                         _______ _______ _______ _____ _____    ______ ____
ROOT
ATOM      1  O   UNL     1       6.163   2.225   0.000  0.00  0.00    +0.000 OA
ATOM      2  O   UNL     1       1.610  -0.070   0.000  0.00  0.00    +0.000 OA
ATOM      3  N   UNL     1       5.455  -0.416   0.000  0.00  0.00    +0.000 N 
ATOM      4  N   UNL     1       4.659   0.964   0.000  0.00  0.00    +0.000 N 
ATOM      5  N   UNL     1       2.118  -1.423   0.000  0.00  0.00    +0.000 NA
ATOM      6  C   UNL     1       6.544   0.672   0.000  0.00  0.00    +0.000 C 
ATOM      7  C   UNL     1       8.004   0.068   0.000  0.00  0.00    +0.000 C 
ATOM      8  C   UNL     1       6.750   1.442   0.000  0.00  0.00    +0.000 C 
ATOM      9  C   UNL     1       8.210   0.837   0.000  0.00  0.00    +0.000 C 
ATOM     10  C   UNL     1       4.659  -0.416   0.000  0.00  0.00    +0.000 A 
ATOM     11  C   UNL     1       4.260   0.274   0.000  0.00  0.00    +0.000 A 
ATOM     12  C   UNL     1       4.255  -1.141   0.000  0.00  0.00    +0.000 A 
ATOM     13  C   UNL     1       3.430   0.286   0.000  0.00  0.00    +0.000 A 
ATOM     14  C   UNL     1       5.698  -1.170   0.000  0.00  0.00    +0.000 A 
ATOM     15  C   UNL     1       6.338  -0.097   0.000  0.00  0.00    +0.000 C 
ATOM     16  C   UNL     1       4.127   1.551   0.000  0.00  0.00    +0.000 A 
ATOM     17  C   UNL     1       5.057  -1.635   0.000  0.00  0.00    +0.000 A 
ATOM     18  C   UNL     1       3.425  -1.148   0.000  0.00  0.00    +0.000 A 
ATOM     19  C   UNL     1       3.404   1.228   0.000  0.00  0.00    +0.000 A 
ATOM     20  C   UNL     1       3.010  -0.429   0.000  0.00  0.00    +0.000 A 
ATOM     21  C   UNL     1       2.871  -1.760   0.000  0.00  0.00    +0.000 C 
ATOM     22  C   UNL     1       6.457  -1.495   0.000  0.00  0.00    +0.000 A 
ATOM     23  C   UNL     1       2.203  -0.603   0.000  0.00  0.00    +0.000 C 
ATOM     24  C   UNL     1       5.130  -2.457   0.000  0.00  0.00    +0.000 A 
ATOM     25  C   UNL     1       4.225   2.370   0.000  0.00  0.00    +0.000 A 
ATOM     26  C   UNL     1       2.728   1.702   0.000  0.00  0.00    +0.000 A 
ATOM     27  C   UNL     1       5.881  -2.799   0.000  0.00  0.00    +0.000 A 
ATOM     28  C   UNL     1       6.549  -2.315   0.000  0.00  0.00    +0.000 A 
ATOM     29  C   UNL     1       2.808   2.524   0.000  0.00  0.00    +0.000 A 
ATOM     30  C   UNL     1       3.561   2.860   0.000  0.00  0.00    +0.000 A 
ENDROOT
BRANCH   7  32
ATOM     31  O   UNL     1       8.004  -1.313   0.000  0.00  0.00    +0.000 OA
ATOM     32  C   UNL     1       8.402  -0.623   0.000  0.00  0.00    +0.000 C 
BRANCH  32  33
ATOM     33  O   UNL     1       9.199  -0.623   0.000  0.00  0.00    +0.000 OA
BRANCH  33  34
ATOM     34  O   UNL     1       9.597  -1.313   0.000  0.00  0.00    +0.000 OA
ATOM     35  C   UNL     1      10.394  -1.313   0.000  0.00  0.00    +0.000 C 
ENDBRANCH  33  34
ENDBRANCH  32  33
ENDBRANCH   7  32
BRANCH  27  36
ATOM     36  C   UNL     1       5.960  -3.592   0.000  0.00  0.00    +0.000 C 
BRANCH  36  37
ATOM     37  S   UNL     1       6.687  -3.920   0.000  0.00  0.00    +0.000 S 
BRANCH  37  38
ATOM     38  C   UNL     1       6.766  -4.712   0.000  0.00  0.00    +0.000 C 
ATOM     39  C   UNL     1       7.493  -5.040   0.000  0.00  0.00    +0.000 C 
ENDBRANCH  37  38
ENDBRANCH  36  37
ENDBRANCH  27  36
BRANCH  29  40
ATOM     40  C   UNL     1       2.161   2.989   0.000  0.00  0.00    +0.000 C 
BRANCH  40  41
ATOM     41  S   UNL     1       2.240   3.782   0.000  0.00  0.00    +0.000 S 
BRANCH  41  42
ATOM     42  C   UNL     1       1.594   4.247   0.000  0.00  0.00    +0.000 C 
ATOM     43  C   UNL     1       1.673   5.040   0.000  0.00  0.00    +0.000 C 
ENDBRANCH  41  42
ENDBRANCH  40  41
ENDBRANCH  29  40
TORSDOF 9
