REMARK  Name = 
REMARK  6 active torsions:
REMARK  status: ('A' for Active; 'I' for Inactive)
REMARK    1  A    between atoms: C_1  and  C_3
REMARK    2  A    between atoms: C_2  and  C_4
REMARK    3  A    between atoms: C_2  and  O_13
REMARK    4  A    between atoms: C_3  and  C_5
REMARK    5  A    between atoms: C_4  and  C_5
REMARK    6  A    between atoms: O_13  and  P_14
REMARK                            x       y       z     vdW  Elec       q    Type
REMARK                         _______ _______ _______ _____ _____    ______ ____
ROOT
ATOM      1  C   UNL     1       1.016  -0.715   0.000  0.00  0.00    +0.000 C 
ATOM      2  O   UNL     1       1.016  -1.540   0.000  0.00  0.00    +0.000 OA
ENDROOT
BRANCH   1   3
ATOM      3  C   UNL     1       0.302  -0.302   0.000  0.00  0.00    +0.000 C 
ATOM      4  O   UNL     1       0.302   0.523   0.000  0.00  0.00    +0.000 OA
BRANCH   3   5
ATOM      5  C   UNL     1      -0.412  -0.715   0.000  0.00  0.00    +0.000 C 
ATOM      6  O   UNL     1      -0.412  -1.540   0.000  0.00  0.00    +0.000 OA
BRANCH   5   7
ATOM      7  C   UNL     1      -1.127  -0.302   0.000  0.00  0.00    +0.000 C 
ATOM      8  O   UNL     1      -1.841  -0.715   0.000  0.00  0.00    +0.000 OA
ENDBRANCH   5   7
ENDBRANCH   3   5
ENDBRANCH   1   3
BRANCH   1   9
ATOM      9  C   UNL     1       1.731  -0.302   0.000  0.00  0.00    +0.000 C 
BRANCH   9  10
ATOM     10  O   UNL     1       2.445  -0.715   0.000  0.00  0.00    +0.000 OA
BRANCH  10  14
ATOM     11  O   UNL     1       3.874   0.111   0.000  0.00  0.00    +0.000 OA
ATOM     12  O   UNL     1       3.572  -1.016   0.000  0.00  0.00    +0.000 OA
ATOM     13  O   UNL     1       2.747   0.412   0.000  0.00  0.00    +0.000 OA
ATOM     14  P   UNL     1       3.160  -0.302   0.000  0.00  0.00    +0.000 P 
ENDBRANCH  10  14
ENDBRANCH   9  10
ENDBRANCH   1   9
TORSDOF 6
