REMARK  Name = 
REMARK  30 active torsions:
REMARK  status: ('A' for Active; 'I' for Inactive)
REMARK    1  A    between atoms: S_1  and  C_31
REMARK    2  A    between atoms: S_1  and  C_54
REMARK    3  A    between atoms: P_2  and  O_5
REMARK    4  A    between atoms: P_2  and  O_6
REMARK    5  A    between atoms: P_3  and  O_5
REMARK    6  A    between atoms: P_3  and  O_7
REMARK    7  A    between atoms: P_4  and  O_8
REMARK    8  A    between atoms: O_6  and  C_32
REMARK    9  A    between atoms: O_7  and  C_44
REMARK   10  A    between atoms: O_8  and  C_53
REMARK   11  A    between atoms: N_22  and  C_34
REMARK   12  A    between atoms: N_23  and  C_33
REMARK   13  A    between atoms: N_25  and  C_50
REMARK   14  A    between atoms: C_29  and  C_30
REMARK   15  A    between atoms: C_29  and  C_32
REMARK   16  A    between atoms: C_30  and  C_55
REMARK   17  A    between atoms: C_31  and  C_33
REMARK   18  A    between atoms: C_34  and  C_46
REMARK   19  A    between atoms: C_35  and  C_36
REMARK   20  A    between atoms: C_35  and  C_37
REMARK   21  A    between atoms: C_36  and  C_38
REMARK   22  A    between atoms: C_37  and  C_39
REMARK   23  A    between atoms: C_38  and  C_40
REMARK   24  A    between atoms: C_39  and  C_41
REMARK   25  A    between atoms: C_40  and  C_42
REMARK   26  A    between atoms: C_41  and  C_43
REMARK   27  A    between atoms: C_42  and  C_45
REMARK   28  A    between atoms: C_44  and  C_51
REMARK   29  A    between atoms: C_45  and  C_54
REMARK   30  A    between atoms: C_46  and  C_56
REMARK                            x       y       z     vdW  Elec       q    Type
REMARK                         _______ _______ _______ _____ _____    ______ ____
ROOT
ATOM      1  O   UNL     1      29.882 -21.691   0.000  0.00  0.00    +0.000 OA
ENDROOT
BRANCH   1   2
ATOM      2  P   UNL     1      30.689 -21.864   0.000  0.00  0.00    +0.000 P 
ATOM      3  O   UNL     1      30.862 -21.057   0.000  0.00  0.00    +0.000 OA
ATOM      4  O   UNL     1      30.516 -22.671   0.000  0.00  0.00    +0.000 OA
BRANCH   2   5
ATOM      5  O   UNL     1      31.496 -22.037   0.000  0.00  0.00    +0.000 OA
BRANCH   5   6
ATOM      6  P   UNL     1      31.749 -22.822   0.000  0.00  0.00    +0.000 P 
ATOM      7  O   UNL     1      30.964 -23.076   0.000  0.00  0.00    +0.000 OA
ATOM      8  O   UNL     1      32.534 -22.569   0.000  0.00  0.00    +0.000 OA
BRANCH   6   9
ATOM      9  O   UNL     1      32.003 -23.607   0.000  0.00  0.00    +0.000 OA
BRANCH   9  10
ATOM     10  C   UNL     1      32.810 -23.780   0.000  0.00  0.00    +0.000 C 
BRANCH  10  14
ATOM     11  O   UNL     1      34.513 -26.133   0.000  0.00  0.00    +0.000 OA
ATOM     12  O   UNL     1      32.577 -25.232   0.000  0.00  0.00    +0.000 OA
ATOM     13  C   UNL     1      33.061 -25.900   0.000  0.00  0.00    +0.000 C 
ATOM     14  C   UNL     1      33.063 -24.565   0.000  0.00  0.00    +0.000 C 
ATOM     15  C   UNL     1      33.846 -25.646   0.000  0.00  0.00    +0.000 C 
ATOM     16  C   UNL     1      33.847 -24.822   0.000  0.00  0.00    +0.000 C 
BRANCH  13  18
ATOM     17  N   UNL     1      31.309 -28.998   0.000  0.00  0.00    +0.000 NA
ATOM     18  N   UNL     1      32.804 -26.684   0.000  0.00  0.00    +0.000 N 
ATOM     19  N   UNL     1      32.804 -28.012   0.000  0.00  0.00    +0.000 NA
ATOM     20  N   UNL     1      30.595 -27.761   0.000  0.00  0.00    +0.000 NA
ATOM     21  N   UNL     1      31.309 -26.523   0.000  0.00  0.00    +0.000 NA
ATOM     22  C   UNL     1      31.309 -28.173   0.000  0.00  0.00    +0.000 A 
ATOM     23  C   UNL     1      32.024 -26.936   0.000  0.00  0.00    +0.000 A 
ATOM     24  C   UNL     1      32.024 -27.761   0.000  0.00  0.00    +0.000 A 
ATOM     25  C   UNL     1      33.286 -27.348   0.000  0.00  0.00    +0.000 A 
ATOM     26  C   UNL     1      30.595 -26.936   0.000  0.00  0.00    +0.000 A 
ENDBRANCH  13  18
BRANCH  16  27
ATOM     27  O   UNL     1      34.516 -24.338   0.000  0.00  0.00    +0.000 OA
BRANCH  27  28
ATOM     28  P   UNL     1      34.431 -23.517   0.000  0.00  0.00    +0.000 P 
ATOM     29  O   UNL     1      35.251 -23.432   0.000  0.00  0.00    +0.000 OA
ATOM     30  O   UNL     1      34.346 -22.696   0.000  0.00  0.00    +0.000 OA
ATOM     31  O   UNL     1      33.610 -23.602   0.000  0.00  0.00    +0.000 OA
ENDBRANCH  27  28
ENDBRANCH  16  27
ENDBRANCH  10  14
ENDBRANCH   9  10
ENDBRANCH   6   9
ENDBRANCH   5   6
ENDBRANCH   2   5
ENDBRANCH   1   2
BRANCH   1  32
ATOM     32  C   UNL     1      29.629 -20.906   0.000  0.00  0.00    +0.000 C 
BRANCH  32  33
ATOM     33  C   UNL     1      28.822 -20.733   0.000  0.00  0.00    +0.000 C 
ATOM     34  C   UNL     1      28.995 -19.927   0.000  0.00  0.00    +0.000 C 
ATOM     35  C   UNL     1      28.649 -21.540   0.000  0.00  0.00    +0.000 C 
BRANCH  33  37
ATOM     36  O   UNL     1      27.462 -21.172   0.000  0.00  0.00    +0.000 OA
ATOM     37  C   UNL     1      28.015 -20.560   0.000  0.00  0.00    +0.000 C 
BRANCH  37  40
ATOM     38  O   UNL     1      28.315 -19.163   0.000  0.00  0.00    +0.000 OA
ATOM     39  N   UNL     1      26.955 -19.602   0.000  0.00  0.00    +0.000 NA
ATOM     40  C   UNL     1      27.762 -19.775   0.000  0.00  0.00    +0.000 C 
BRANCH  39  41
ATOM     41  C   UNL     1      26.702 -18.817   0.000  0.00  0.00    +0.000 C 
BRANCH  41  42
ATOM     42  C   UNL     1      25.895 -18.644   0.000  0.00  0.00    +0.000 C 
BRANCH  42  45
ATOM     43  O   UNL     1      26.194 -17.247   0.000  0.00  0.00    +0.000 OA
ATOM     44  N   UNL     1      24.835 -17.686   0.000  0.00  0.00    +0.000 NA
ATOM     45  C   UNL     1      25.641 -17.859   0.000  0.00  0.00    +0.000 C 
BRANCH  44  46
ATOM     46  C   UNL     1      24.581 -16.901   0.000  0.00  0.00    +0.000 C 
BRANCH  46  47
ATOM     47  C   UNL     1      23.774 -16.728   0.000  0.00  0.00    +0.000 C 
BRANCH  47  48
ATOM     48  S   UNL     1      23.521 -15.943   0.000  0.00  0.00    +0.000 S 
BRANCH  48  50
ATOM     49  O   UNL     1      22.161 -16.382   0.000  0.00  0.00    +0.000 OA
ATOM     50  C   UNL     1      22.714 -15.770   0.000  0.00  0.00    +0.000 C 
BRANCH  50  51
ATOM     51  C   UNL     1      22.460 -14.985   0.000  0.00  0.00    +0.000 C 
BRANCH  51  52
ATOM     52  C   UNL     1      21.654 -14.812   0.000  0.00  0.00    +0.000 C 
BRANCH  52  53
ATOM     53  C   UNL     1      21.400 -14.027   0.000  0.00  0.00    +0.000 C 
BRANCH  53  54
ATOM     54  C   UNL     1      20.593 -13.854   0.000  0.00  0.00    +0.000 C 
BRANCH  54  55
ATOM     55  C   UNL     1      20.340 -13.069   0.000  0.00  0.00    +0.000 C 
BRANCH  55  56
ATOM     56  C   UNL     1      19.533 -12.896   0.000  0.00  0.00    +0.000 C 
BRANCH  56  57
ATOM     57  C   UNL     1      19.280 -12.111   0.000  0.00  0.00    +0.000 C 
BRANCH  57  58
ATOM     58  C   UNL     1      18.473 -11.938   0.000  0.00  0.00    +0.000 C 
BRANCH  58  59
ATOM     59  C   UNL     1      18.220 -11.153   0.000  0.00  0.00    +0.000 C 
BRANCH  59  60
ATOM     60  C   UNL     1      17.413 -10.980   0.000  0.00  0.00    +0.000 C 
ATOM     61  C   UNL     1      17.159 -10.195   0.000  0.00  0.00    +0.000 C 
ENDBRANCH  59  60
ENDBRANCH  58  59
ENDBRANCH  57  58
ENDBRANCH  56  57
ENDBRANCH  55  56
ENDBRANCH  54  55
ENDBRANCH  53  54
ENDBRANCH  52  53
ENDBRANCH  51  52
ENDBRANCH  50  51
ENDBRANCH  48  50
ENDBRANCH  47  48
ENDBRANCH  46  47
ENDBRANCH  44  46
ENDBRANCH  42  45
ENDBRANCH  41  42
ENDBRANCH  39  41
ENDBRANCH  37  40
ENDBRANCH  33  37
ENDBRANCH  32  33
ENDBRANCH   1  32
TORSDOF 30
