REMARK  Name = 
REMARK  10 active torsions:
REMARK  status: ('A' for Active; 'I' for Inactive)
REMARK    1  A    between atoms: C_4  and  C_5
REMARK    2  A    between atoms: C_5  and  C_16
REMARK    3  A    between atoms: C_15  and  C_17
REMARK    4  A    between atoms: C_15  and  N_22
REMARK    5  A    between atoms: C_16  and  S_23
REMARK    6  A    between atoms: C_17  and  S_24
REMARK    7  A    between atoms: C_18  and  C_21
REMARK    8  A    between atoms: C_19  and  C_21
REMARK    9  A    between atoms: C_20  and  S_23
REMARK   10  A    between atoms: C_21  and  S_24
REMARK                            x       y       z     vdW  Elec       q    Type
REMARK                         _______ _______ _______ _____ _____    ______ ____
ROOT
ATOM      1  C   UNL     1      -0.714   1.238   0.000  0.00  0.00    +0.000 C 
ENDROOT
BRANCH   1   6
ATOM      2  C   UNL     1      -1.429   2.475   0.000  0.00  0.00    +0.000 A 
ATOM      3  C   UNL     1      -2.143   1.238   0.000  0.00  0.00    +0.000 A 
ATOM      4  C   UNL     1      -2.143   2.888   0.000  0.00  0.00    +0.000 A 
ATOM      5  C   UNL     1      -2.858   1.650   0.000  0.00  0.00    +0.000 A 
ATOM      6  C   UNL     1      -1.429   1.650   0.000  0.00  0.00    +0.000 A 
ATOM      7  C   UNL     1      -2.858   2.475   0.000  0.00  0.00    +0.000 A 
BRANCH   7   8
ATOM      8  S   UNL     1      -3.572   2.888   0.000  0.00  0.00    +0.000 S 
BRANCH   8   9
ATOM      9  C   UNL     1      -4.287   2.475   0.000  0.00  0.00    +0.000 C 
BRANCH   9  10
ATOM     10  C   UNL     1      -5.001   2.888   0.000  0.00  0.00    +0.000 C 
BRANCH  10  12
ATOM     11  C   UNL     1      -6.430   2.888   0.000  0.00  0.00    +0.000 C 
ATOM     12  C   UNL     1      -5.716   2.475   0.000  0.00  0.00    +0.000 C 
ENDBRANCH  10  12
ENDBRANCH   9  10
ENDBRANCH   8   9
ENDBRANCH   7   8
ENDBRANCH   1   6
BRANCH   1  18
ATOM     13  C   UNL     1      -0.714  -1.238   0.000  0.00  0.00    +0.000 A 
ATOM     14  C   UNL     1       0.000  -0.825   0.000  0.00  0.00    +0.000 A 
ATOM     15  C   UNL     1      -1.429  -0.825   0.000  0.00  0.00    +0.000 A 
ATOM     16  C   UNL     1       0.000   0.000   0.000  0.00  0.00    +0.000 A 
ATOM     17  C   UNL     1      -1.429   0.000   0.000  0.00  0.00    +0.000 A 
ATOM     18  C   UNL     1      -0.714   0.412   0.000  0.00  0.00    +0.000 A 
ENDBRANCH   1  18
BRANCH   1  19
ATOM     19  S   UNL     1       0.000   1.650   0.000  0.00  0.00    +0.000 S 
BRANCH  19  20
ATOM     20  C   UNL     1       0.714   1.238   0.000  0.00  0.00    +0.000 C 
BRANCH  20  21
ATOM     21  C   UNL     1       1.429   1.650   0.000  0.00  0.00    +0.000 C 
BRANCH  21  24
ATOM     22  C   UNL     1       2.858   1.650   0.000  0.00  0.00    +0.000 C 
ATOM     23  C   UNL     1       2.143   0.412   0.000  0.00  0.00    +0.000 C 
ATOM     24  N   UNL     1       2.143   1.238   0.000  0.00  0.00    +0.000 NA
ENDBRANCH  21  24
ENDBRANCH  20  21
ENDBRANCH  19  20
ENDBRANCH   1  19
TORSDOF 10
