REMARK  Name = 
REMARK  8 active torsions:
REMARK  status: ('A' for Active; 'I' for Inactive)
REMARK    1  A    between atoms: SB_4  and  O_20
REMARK    2  A    between atoms: C_7  and  C_11
REMARK    3  A    between atoms: C_8  and  C_14
REMARK    4  A    between atoms: C_14  and  C_16
REMARK    5  A    between atoms: O_20  and  SB_21
REMARK    6  A    between atoms: C_24  and  C_28
REMARK    7  A    between atoms: C_25  and  C_31
REMARK    8  A    between atoms: C_31  and  C_33
REMARK                            x       y       z     vdW  Elec       q    Type
REMARK                         _______ _______ _______ _____ _____    ______ ____
ROOT
ATOM      1 NA   UNL     1       5.907 -16.081   0.000  0.00  0.00    +0.000 Na
ENDROOT
TORSDOF 0
REMARK  Name = 
REMARK  8 active torsions:
REMARK  status: ('A' for Active; 'I' for Inactive)
REMARK    1  A    between atoms: SB_4  and  O_20
REMARK    2  A    between atoms: C_7  and  C_11
REMARK    3  A    between atoms: C_8  and  C_14
REMARK    4  A    between atoms: C_14  and  C_16
REMARK    5  A    between atoms: O_20  and  SB_21
REMARK    6  A    between atoms: C_24  and  C_28
REMARK    7  A    between atoms: C_25  and  C_31
REMARK    8  A    between atoms: C_31  and  C_33
REMARK                            x       y       z     vdW  Elec       q    Type
REMARK                         _______ _______ _______ _____ _____    ______ ____
ROOT
ATOM      1 NA   UNL     1       9.495 -20.279   0.000  0.00  0.00    +0.000 Na
ENDROOT
TORSDOF 0
REMARK  Name = 
REMARK  8 active torsions:
REMARK  status: ('A' for Active; 'I' for Inactive)
REMARK    1  A    between atoms: SB_4  and  O_20
REMARK    2  A    between atoms: C_7  and  C_11
REMARK    3  A    between atoms: C_8  and  C_14
REMARK    4  A    between atoms: C_14  and  C_16
REMARK    5  A    between atoms: O_20  and  SB_21
REMARK    6  A    between atoms: C_24  and  C_28
REMARK    7  A    between atoms: C_25  and  C_31
REMARK    8  A    between atoms: C_31  and  C_33
REMARK                            x       y       z     vdW  Elec       q    Type
REMARK                         _______ _______ _______ _____ _____    ______ ____
ROOT
ATOM      1 NA   UNL     1       2.592 -20.279   0.000  0.00  0.00    +0.000 Na
ENDROOT
TORSDOF 0
REMARK  Name = 
REMARK  8 active torsions:
REMARK  status: ('A' for Active; 'I' for Inactive)
REMARK    1  A    between atoms: SB_4  and  O_20
REMARK    2  A    between atoms: C_7  and  C_11
REMARK    3  A    between atoms: C_8  and  C_14
REMARK    4  A    between atoms: C_14  and  C_16
REMARK    5  A    between atoms: O_20  and  SB_21
REMARK    6  A    between atoms: C_24  and  C_28
REMARK    7  A    between atoms: C_25  and  C_31
REMARK    8  A    between atoms: C_31  and  C_33
REMARK                            x       y       z     vdW  Elec       q    Type
REMARK                         _______ _______ _______ _____ _____    ______ ____
ROOT
ATOM      1  O   UNL     1       5.964 -17.405   0.000  0.00  0.00    +0.000 OA
ENDROOT
BRANCH   1   2
ATOM      2 SB   UNL     1       5.247 -17.807   0.000  0.00  0.00    +0.000 Sb
ATOM      3  O   UNL     1       5.247 -18.632   0.000  0.00  0.00    +0.000 OA
ATOM      4  O   UNL     1       4.532 -17.395   0.000  0.00  0.00    +0.000 OA
ATOM      5  C   UNL     1       4.532 -19.045   0.000  0.00  0.00    +0.000 C 
ATOM      6  C   UNL     1       3.818 -17.807   0.000  0.00  0.00    +0.000 C 
ATOM      7  C   UNL     1       3.818 -18.632   0.000  0.00  0.00    +0.000 C 
ATOM      8  O   UNL     1       4.453 -18.031   0.000  0.00  0.00    +0.000 OA
ATOM      9  O   UNL     1       5.248 -16.987   0.000  0.00  0.00    +0.000 OA
BRANCH   5  10
ATOM     10  C   UNL     1       4.533 -19.870   0.000  0.00  0.00    +0.000 C 
ATOM     11  O   UNL     1       3.818 -20.282   0.000  0.00  0.00    +0.000 OA
ATOM     12  O   UNL     1       5.247 -20.282   0.000  0.00  0.00    +0.000 OA
ENDBRANCH   5  10
BRANCH   6  13
ATOM     13  C   UNL     1       3.104 -17.395   0.000  0.00  0.00    +0.000 C 
ATOM     14  O   UNL     1       3.104 -16.570   0.000  0.00  0.00    +0.000 OA
BRANCH  13  15
ATOM     15  C   UNL     1       2.389 -17.807   0.000  0.00  0.00    +0.000 C 
ATOM     16  O   UNL     1       1.675 -17.395   0.000  0.00  0.00    +0.000 OA
ENDBRANCH  13  15
ENDBRANCH   6  13
ENDBRANCH   1   2
BRANCH   1  17
ATOM     17 SB   UNL     1       6.681 -17.807   0.000  0.00  0.00    +0.000 Sb
ATOM     18  O   UNL     1       6.681 -18.632   0.000  0.00  0.00    +0.000 OA
ATOM     19  O   UNL     1       7.395 -17.395   0.000  0.00  0.00    +0.000 OA
ATOM     20  C   UNL     1       7.395 -19.045   0.000  0.00  0.00    +0.000 C 
ATOM     21  C   UNL     1       8.110 -17.807   0.000  0.00  0.00    +0.000 C 
ATOM     22  C   UNL     1       8.110 -18.632   0.000  0.00  0.00    +0.000 C 
ATOM     23  O   UNL     1       7.475 -18.031   0.000  0.00  0.00    +0.000 OA
ATOM     24  O   UNL     1       6.680 -16.987   0.000  0.00  0.00    +0.000 OA
BRANCH  20  25
ATOM     25  C   UNL     1       7.395 -19.870   0.000  0.00  0.00    +0.000 C 
ATOM     26  O   UNL     1       8.110 -20.282   0.000  0.00  0.00    +0.000 OA
ATOM     27  O   UNL     1       6.681 -20.282   0.000  0.00  0.00    +0.000 OA
ENDBRANCH  20  25
BRANCH  21  28
ATOM     28  C   UNL     1       8.824 -17.395   0.000  0.00  0.00    +0.000 C 
ATOM     29  O   UNL     1       8.824 -16.570   0.000  0.00  0.00    +0.000 OA
BRANCH  28  30
ATOM     30  C   UNL     1       9.539 -17.807   0.000  0.00  0.00    +0.000 C 
ATOM     31  O   UNL     1      10.253 -17.395   0.000  0.00  0.00    +0.000 OA
ENDBRANCH  28  30
ENDBRANCH  21  28
ENDBRANCH   1  17
TORSDOF 8
REMARK  Name = 
REMARK  8 active torsions:
REMARK  status: ('A' for Active; 'I' for Inactive)
REMARK    1  A    between atoms: SB_4  and  O_20
REMARK    2  A    between atoms: C_7  and  C_11
REMARK    3  A    between atoms: C_8  and  C_14
REMARK    4  A    between atoms: C_14  and  C_16
REMARK    5  A    between atoms: O_20  and  SB_21
REMARK    6  A    between atoms: C_24  and  C_28
REMARK    7  A    between atoms: C_25  and  C_31
REMARK    8  A    between atoms: C_31  and  C_33
REMARK                            x       y       z     vdW  Elec       q    Type
REMARK                         _______ _______ _______ _____ _____    ______ ____
ROOT
ATOM      1  O   HOH     1       6.166 -21.487   0.000  0.00  0.00    +0.000 OA
ENDROOT
TORSDOF 0
REMARK  Name = 
REMARK  8 active torsions:
REMARK  status: ('A' for Active; 'I' for Inactive)
REMARK    1  A    between atoms: SB_4  and  O_20
REMARK    2  A    between atoms: C_7  and  C_11
REMARK    3  A    between atoms: C_8  and  C_14
REMARK    4  A    between atoms: C_14  and  C_16
REMARK    5  A    between atoms: O_20  and  SB_21
REMARK    6  A    between atoms: C_24  and  C_28
REMARK    7  A    between atoms: C_25  and  C_31
REMARK    8  A    between atoms: C_31  and  C_33
REMARK                            x       y       z     vdW  Elec       q    Type
REMARK                         _______ _______ _______ _____ _____    ______ ____
ROOT
ATOM      1  O   HOH     1       6.173 -22.155   0.000  0.00  0.00    +0.000 OA
ENDROOT
TORSDOF 0
REMARK  Name = 
REMARK  8 active torsions:
REMARK  status: ('A' for Active; 'I' for Inactive)
REMARK    1  A    between atoms: SB_4  and  O_20
REMARK    2  A    between atoms: C_7  and  C_11
REMARK    3  A    between atoms: C_8  and  C_14
REMARK    4  A    between atoms: C_14  and  C_16
REMARK    5  A    between atoms: O_20  and  SB_21
REMARK    6  A    between atoms: C_24  and  C_28
REMARK    7  A    between atoms: C_25  and  C_31
REMARK    8  A    between atoms: C_31  and  C_33
REMARK                            x       y       z     vdW  Elec       q    Type
REMARK                         _______ _______ _______ _____ _____    ______ ____
ROOT
ATOM      1  O   HOH     1       6.166 -22.799   0.000  0.00  0.00    +0.000 OA
ENDROOT
TORSDOF 0
REMARK  Name = 
REMARK  8 active torsions:
REMARK  status: ('A' for Active; 'I' for Inactive)
REMARK    1  A    between atoms: SB_4  and  O_20
REMARK    2  A    between atoms: C_7  and  C_11
REMARK    3  A    between atoms: C_8  and  C_14
REMARK    4  A    between atoms: C_14  and  C_16
REMARK    5  A    between atoms: O_20  and  SB_21
REMARK    6  A    between atoms: C_24  and  C_28
REMARK    7  A    between atoms: C_25  and  C_31
REMARK    8  A    between atoms: C_31  and  C_33
REMARK                            x       y       z     vdW  Elec       q    Type
REMARK                         _______ _______ _______ _____ _____    ______ ____
ROOT
ATOM      1  O   HOH     1       8.452 -21.487   0.000  0.00  0.00    +0.000 OA
ENDROOT
TORSDOF 0
REMARK  Name = 
REMARK  8 active torsions:
REMARK  status: ('A' for Active; 'I' for Inactive)
REMARK    1  A    between atoms: SB_4  and  O_20
REMARK    2  A    between atoms: C_7  and  C_11
REMARK    3  A    between atoms: C_8  and  C_14
REMARK    4  A    between atoms: C_14  and  C_16
REMARK    5  A    between atoms: O_20  and  SB_21
REMARK    6  A    between atoms: C_24  and  C_28
REMARK    7  A    between atoms: C_25  and  C_31
REMARK    8  A    between atoms: C_31  and  C_33
REMARK                            x       y       z     vdW  Elec       q    Type
REMARK                         _______ _______ _______ _____ _____    ______ ____
ROOT
ATOM      1  O   HOH     1       8.460 -22.155   0.000  0.00  0.00    +0.000 OA
ENDROOT
TORSDOF 0
REMARK  Name = 
REMARK  8 active torsions:
REMARK  status: ('A' for Active; 'I' for Inactive)
REMARK    1  A    between atoms: SB_4  and  O_20
REMARK    2  A    between atoms: C_7  and  C_11
REMARK    3  A    between atoms: C_8  and  C_14
REMARK    4  A    between atoms: C_14  and  C_16
REMARK    5  A    between atoms: O_20  and  SB_21
REMARK    6  A    between atoms: C_24  and  C_28
REMARK    7  A    between atoms: C_25  and  C_31
REMARK    8  A    between atoms: C_31  and  C_33
REMARK                            x       y       z     vdW  Elec       q    Type
REMARK                         _______ _______ _______ _____ _____    ______ ____
ROOT
ATOM      1  O   HOH     1       8.452 -22.799   0.000  0.00  0.00    +0.000 OA
ENDROOT
TORSDOF 0
REMARK  Name = 
REMARK  8 active torsions:
REMARK  status: ('A' for Active; 'I' for Inactive)
REMARK    1  A    between atoms: SB_4  and  O_20
REMARK    2  A    between atoms: C_7  and  C_11
REMARK    3  A    between atoms: C_8  and  C_14
REMARK    4  A    between atoms: C_14  and  C_16
REMARK    5  A    between atoms: O_20  and  SB_21
REMARK    6  A    between atoms: C_24  and  C_28
REMARK    7  A    between atoms: C_25  and  C_31
REMARK    8  A    between atoms: C_31  and  C_33
REMARK                            x       y       z     vdW  Elec       q    Type
REMARK                         _______ _______ _______ _____ _____    ______ ____
ROOT
ATOM      1  O   HOH     1       3.900 -21.487   0.000  0.00  0.00    +0.000 OA
ENDROOT
TORSDOF 0
REMARK  Name = 
REMARK  8 active torsions:
REMARK  status: ('A' for Active; 'I' for Inactive)
REMARK    1  A    between atoms: SB_4  and  O_20
REMARK    2  A    between atoms: C_7  and  C_11
REMARK    3  A    between atoms: C_8  and  C_14
REMARK    4  A    between atoms: C_14  and  C_16
REMARK    5  A    between atoms: O_20  and  SB_21
REMARK    6  A    between atoms: C_24  and  C_28
REMARK    7  A    between atoms: C_25  and  C_31
REMARK    8  A    between atoms: C_31  and  C_33
REMARK                            x       y       z     vdW  Elec       q    Type
REMARK                         _______ _______ _______ _____ _____    ______ ____
ROOT
ATOM      1  O   HOH     1       3.907 -22.155   0.000  0.00  0.00    +0.000 OA
ENDROOT
TORSDOF 0
REMARK  Name = 
REMARK  8 active torsions:
REMARK  status: ('A' for Active; 'I' for Inactive)
REMARK    1  A    between atoms: SB_4  and  O_20
REMARK    2  A    between atoms: C_7  and  C_11
REMARK    3  A    between atoms: C_8  and  C_14
REMARK    4  A    between atoms: C_14  and  C_16
REMARK    5  A    between atoms: O_20  and  SB_21
REMARK    6  A    between atoms: C_24  and  C_28
REMARK    7  A    between atoms: C_25  and  C_31
REMARK    8  A    between atoms: C_31  and  C_33
REMARK                            x       y       z     vdW  Elec       q    Type
REMARK                         _______ _______ _______ _____ _____    ______ ____
ROOT
ATOM      1  O   HOH     1       3.900 -22.799   0.000  0.00  0.00    +0.000 OA
ENDROOT
TORSDOF 0
