REMARK  Name = 
REMARK  7 active torsions:
REMARK  status: ('A' for Active; 'I' for Inactive)
REMARK    1  A    between atoms: C_19  and  C_20
REMARK    2  A    between atoms: C_19  and  C_21
REMARK    3  A    between atoms: C_20  and  C_22
REMARK    4  A    between atoms: C_21  and  C_23
REMARK    5  A    between atoms: C_22  and  C_24
REMARK    6  A    between atoms: C_23  and  C_25
REMARK    7  A    between atoms: C_24  and  C_26
REMARK                            x       y       z     vdW  Elec       q    Type
REMARK                         _______ _______ _______ _____ _____    ______ ____
ROOT
ATOM      1  F   UNL     1       4.810   0.921   0.000  0.00  0.00    +0.000 F 
ATOM      2  F   UNL     1       5.635  -0.508   0.000  0.00  0.00    +0.000 F 
ATOM      3  C   UNL     1       5.222   0.206   0.000  0.00  0.00    +0.000 C 
ENDROOT
BRANCH   3   6
ATOM      4  F   UNL     1       4.096   0.508   0.000  0.00  0.00    +0.000 F 
ATOM      5  F   UNL     1       4.920  -0.921   0.000  0.00  0.00    +0.000 F 
ATOM      6  C   UNL     1       4.508  -0.206   0.000  0.00  0.00    +0.000 C 
BRANCH   6   9
ATOM      7  F   UNL     1       3.381   0.096   0.000  0.00  0.00    +0.000 F 
ATOM      8  F   UNL     1       4.206  -1.333   0.000  0.00  0.00    +0.000 F 
ATOM      9  C   UNL     1       3.793  -0.619   0.000  0.00  0.00    +0.000 C 
BRANCH   9  12
ATOM     10  F   UNL     1       3.492  -1.746   0.000  0.00  0.00    +0.000 F 
ATOM     11  F   UNL     1       2.667  -0.317   0.000  0.00  0.00    +0.000 F 
ATOM     12  C   UNL     1       3.079  -1.031   0.000  0.00  0.00    +0.000 C 
BRANCH  12  16
ATOM     13  F   UNL     1       1.650  -1.856   0.000  0.00  0.00    +0.000 F 
ATOM     14  F   UNL     1       1.952  -0.729   0.000  0.00  0.00    +0.000 F 
ATOM     15  F   UNL     1       2.777  -2.158   0.000  0.00  0.00    +0.000 F 
ATOM     16  C   UNL     1       2.365  -1.444   0.000  0.00  0.00    +0.000 C 
ENDBRANCH  12  16
ENDBRANCH   9  12
ENDBRANCH   6   9
ENDBRANCH   3   6
BRANCH   3  19
ATOM     17  F   UNL     1       6.349  -0.096   0.000  0.00  0.00    +0.000 F 
ATOM     18  F   UNL     1       5.524   1.333   0.000  0.00  0.00    +0.000 F 
ATOM     19  C   UNL     1       5.937   0.619   0.000  0.00  0.00    +0.000 C 
BRANCH  19  22
ATOM     20  F   UNL     1       6.239   1.746   0.000  0.00  0.00    +0.000 F 
ATOM     21  F   UNL     1       7.064   0.317   0.000  0.00  0.00    +0.000 F 
ATOM     22  C   UNL     1       6.652   1.031   0.000  0.00  0.00    +0.000 C 
BRANCH  22  26
ATOM     23 BR   UNL     1       6.953   2.158   0.000  0.00  0.00    +0.000 Br
ATOM     24  F   UNL     1       8.080   1.856   0.000  0.00  0.00    +0.000 F 
ATOM     25  F   UNL     1       7.778   0.729   0.000  0.00  0.00    +0.000 F 
ATOM     26  C   UNL     1       7.366   1.444   0.000  0.00  0.00    +0.000 C 
ENDBRANCH  22  26
ENDBRANCH  19  22
ENDBRANCH   3  19
TORSDOF 7
