REMARK  Name = 
REMARK  2 active torsions:
REMARK  status: ('A' for Active; 'I' for Inactive)
REMARK    1  A    between atoms: C_18  and  C_21
REMARK    2  A    between atoms: C_21  and  C_26
REMARK                            x       y       z     vdW  Elec       q    Type
REMARK                         _______ _______ _______ _____ _____    ______ ____
ROOT
ATOM      1  O   UNL     1       3.764   1.827   0.000  0.00  0.00    +0.000 OA
ATOM      2  O   UNL     1       6.279   0.349   0.000  0.00  0.00    +0.000 OA
ATOM      3  O   UNL     1       2.506  -0.370   0.000  0.00  0.00    +0.000 OA
ATOM      4  O   UNL     1       3.741  -1.090   0.000  0.00  0.00    +0.000 OA
ATOM      5  O   UNL     1       3.749  -2.550   0.000  0.00  0.00    +0.000 OA
ATOM      6  C   UNL     1       2.475   1.090   0.000  0.00  0.00    +0.000 C 
ATOM      7  C   UNL     1       2.910   0.349   0.000  0.00  0.00    +0.000 C 
ATOM      8  C   UNL     1       2.905   1.834   0.000  0.00  0.00    +0.000 C 
ATOM      9  C   UNL     1       3.769   0.362   0.000  0.00  0.00    +0.000 A 
ATOM     10  C   UNL     1       4.182   1.077   0.000  0.00  0.00    +0.000 A 
ATOM     11  C   UNL     1       5.007   1.077   0.000  0.00  0.00    +0.000 A 
ATOM     12  C   UNL     1       4.182  -0.352   0.000  0.00  0.00    +0.000 A 
ATOM     13  C   UNL     1       5.007  -0.352   0.000  0.00  0.00    +0.000 A 
ATOM     14  C   UNL     1       5.419   0.362   0.000  0.00  0.00    +0.000 A 
ATOM     15  C   UNL     1       1.650   1.087   0.000  0.00  0.00    +0.000 C 
ATOM     16  C   UNL     1       6.714   1.090   0.000  0.00  0.00    +0.000 C 
ATOM     17  C   UNL     1       2.495   2.550   0.000  0.00  0.00    +0.000 C 
ATOM     18  C   UNL     1       5.448  -1.090   0.000  0.00  0.00    +0.000 A 
ATOM     19  C   UNL     1       5.425   1.827   0.000  0.00  0.00    +0.000 C 
ATOM     20  C   UNL     1       6.284   1.834   0.000  0.00  0.00    +0.000 C 
ATOM     21  C   UNL     1       7.430   1.500   0.000  0.00  0.00    +0.000 C 
ATOM     22  C   UNL     1       7.427   0.675   0.000  0.00  0.00    +0.000 C 
ATOM     23  C   UNL     1       5.024  -1.837   0.000  0.00  0.00    +0.000 A 
ATOM     24  C   UNL     1       4.165  -1.837   0.000  0.00  0.00    +0.000 A 
ENDROOT
BRANCH  18  25
ATOM     25  C   UNL     1       6.273  -1.080   0.000  0.00  0.00    +0.000 C 
BRANCH  25  26
ATOM     26  C   UNL     1       6.694  -1.790   0.000  0.00  0.00    +0.000 C 
ATOM     27  C   UNL     1       7.518  -1.780   0.000  0.00  0.00    +0.000 C 
ENDBRANCH  25  26
ENDBRANCH  18  25
TORSDOF 2
