REMARK  Name = 
REMARK  11 active torsions:
REMARK  status: ('A' for Active; 'I' for Inactive)
REMARK    1  A    between atoms: O_3  and  C_24
REMARK    2  A    between atoms: O_3  and  C_29
REMARK    3  A    between atoms: N_7  and  C_12
REMARK    4  A    between atoms: N_7  and  C_23
REMARK    5  A    between atoms: N_8  and  C_25
REMARK    6  A    between atoms: C_11  and  C_12
REMARK    7  A    between atoms: C_12  and  C_21
REMARK    8  A    between atoms: C_17  and  C_22
REMARK    9  A    between atoms: C_23  and  C_24
REMARK   10  A    between atoms: C_25  and  C_26
REMARK   11  A    between atoms: C_32  and  C_34
REMARK                            x       y       z     vdW  Elec       q    Type
REMARK                         _______ _______ _______ _____ _____    ______ ____
ROOT
ATOM      1  O   UNL     1       6.600  -2.548   0.000  0.00  0.00    +0.000 OA
ATOM      2  N   UNL     1       5.363  -1.834   0.000  0.00  0.00    +0.000 N 
ATOM      3  C   UNL     1       5.576  -1.037   0.000  0.00  0.00    +0.000 C 
ATOM      4  C   UNL     1       4.566  -1.620   0.000  0.00  0.00    +0.000 C 
ATOM      5  C   UNL     1       4.779  -0.824   0.000  0.00  0.00    +0.000 C 
ATOM      6  C   UNL     1       5.775  -2.548   0.000  0.00  0.00    +0.000 C 
ENDROOT
BRANCH   3   9
ATOM      7  O   UNL     1       7.005  -1.037   0.000  0.00  0.00    +0.000 OA
ATOM      8  N   UNL     1       6.291   0.201   0.000  0.00  0.00    +0.000 NA
ATOM      9  C   UNL     1       6.291  -0.625   0.000  0.00  0.00    +0.000 C 
BRANCH   8  10
ATOM     10  C   UNL     1       7.005   0.613   0.000  0.00  0.00    +0.000 C 
BRANCH  10  11
ATOM     11  C   UNL     1       7.005   1.438   0.000  0.00  0.00    +0.000 A 
ATOM     12  C   UNL     1       6.291   1.851   0.000  0.00  0.00    +0.000 A 
ATOM     13  C   UNL     1       7.720   1.851   0.000  0.00  0.00    +0.000 A 
ATOM     14  C   UNL     1       6.291   2.675   0.000  0.00  0.00    +0.000 A 
ATOM     15  C   UNL     1       7.720   2.675   0.000  0.00  0.00    +0.000 A 
ATOM     16  C   UNL     1       7.005   3.088   0.000  0.00  0.00    +0.000 A 
BRANCH  16  20
ATOM     17  O   UNL     1       6.291   5.151   0.000  0.00  0.00    +0.000 OA
ATOM     18  N   UNL     1       7.720   4.326   0.000  0.00  0.00    +0.000 NA
ATOM     19  N   UNL     1       6.291   4.326   0.000  0.00  0.00    +0.000 NA
ATOM     20  C   UNL     1       7.005   3.913   0.000  0.00  0.00    +0.000 C 
ENDBRANCH  16  20
ENDBRANCH  10  11
ENDBRANCH   8  10
ENDBRANCH   3   9
BRANCH   6  21
ATOM     21  C   UNL     1       5.363  -3.263   0.000  0.00  0.00    +0.000 C 
BRANCH  21  22
ATOM     22  C   UNL     1       5.775  -3.977   0.000  0.00  0.00    +0.000 C 
ATOM     23  C   UNL     1       5.363  -4.692   0.000  0.00  0.00    +0.000 C 
ATOM     24  C   UNL     1       6.600  -3.977   0.000  0.00  0.00    +0.000 C 
ATOM     25  C   UNL     1       5.775  -5.406   0.000  0.00  0.00    +0.000 C 
ATOM     26  C   UNL     1       7.013  -4.692   0.000  0.00  0.00    +0.000 C 
ATOM     27  C   UNL     1       6.600  -5.406   0.000  0.00  0.00    +0.000 C 
ENDBRANCH  21  22
BRANCH  21  28
ATOM     28  N   UNL     1       4.538  -3.263   0.000  0.00  0.00    +0.000 NA
BRANCH  28  29
ATOM     29  C   UNL     1       4.125  -3.977   0.000  0.00  0.00    +0.000 C 
BRANCH  29  31
ATOM     30  O   UNL     1       2.888  -3.263   0.000  0.00  0.00    +0.000 OA
ATOM     31  C   UNL     1       3.300  -3.977   0.000  0.00  0.00    +0.000 C 
BRANCH  31  32
ATOM     32  O   UNL     1       2.888  -4.692   0.000  0.00  0.00    +0.000 OA
BRANCH  32  33
ATOM     33  C   UNL     1       2.062  -4.692   0.000  0.00  0.00    +0.000 C 
ATOM     34  C   UNL     1       1.650  -5.406   0.000  0.00  0.00    +0.000 C 
ENDBRANCH  32  33
ENDBRANCH  31  32
ENDBRANCH  29  31
ENDBRANCH  28  29
ENDBRANCH  21  28
ENDBRANCH   6  21
TORSDOF 11
