REMARK  Name = 
REMARK  8 active torsions:
REMARK  status: ('A' for Active; 'I' for Inactive)
REMARK    1  A    between atoms: C_15  and  C_25
REMARK    2  A    between atoms: C_25  and  C_27
REMARK    3  A    between atoms: C_27  and  O_28
REMARK    4  A    between atoms: O_28  and  C_29
REMARK    5  A    between atoms: C_29  and  C_31
REMARK    6  A    between atoms: C_31  and  N_32
REMARK    7  A    between atoms: N_32  and  C_33
REMARK    8  A    between atoms: N_32  and  C_35
REMARK                            x       y       z     vdW  Elec       q    Type
REMARK                         _______ _______ _______ _____ _____    ______ ____
ROOT
ATOM      1  C   UNL     1       9.569 -11.997   0.000  0.00  0.00    +0.000 C 
ATOM      2  C   UNL     1       8.854 -12.410   0.000  0.00  0.00    +0.000 C 
ATOM      3  C   UNL     1       8.854 -13.235   0.000  0.00  0.00    +0.000 C 
ATOM      4  C   UNL     1       9.569 -13.647   0.000  0.00  0.00    +0.000 C 
ATOM      5  C   UNL     1      10.283 -13.235   0.000  0.00  0.00    +0.000 C 
ATOM      6  C   UNL     1      10.283 -12.410   0.000  0.00  0.00    +0.000 C 
ATOM      7  C   UNL     1      10.997 -11.997   0.000  0.00  0.00    +0.000 C 
ATOM      8  C   UNL     1      10.997 -13.647   0.000  0.00  0.00    +0.000 C 
ATOM      9  C   UNL     1      11.712 -13.235   0.000  0.00  0.00    +0.000 C 
ATOM     10  C   UNL     1      11.712 -12.410   0.000  0.00  0.00    +0.000 C 
ATOM     11  C   UNL     1      11.712 -10.760   0.000  0.00  0.00    +0.000 C 
ATOM     12  C   UNL     1      10.997 -11.172   0.000  0.00  0.00    +0.000 C 
ATOM     13  C   UNL     1      12.426 -11.997   0.000  0.00  0.00    +0.000 C 
ATOM     14  C   UNL     1      12.426 -11.172   0.000  0.00  0.00    +0.000 C 
ATOM     15  C   UNL     1      13.211 -10.917   0.000  0.00  0.00    +0.000 C 
ATOM     16  C   UNL     1      13.211 -12.252   0.000  0.00  0.00    +0.000 C 
ATOM     17  C   UNL     1      13.696 -11.585   0.000  0.00  0.00    +0.000 C 
ATOM     18  O   UNL     1       8.140 -13.647   0.000  0.00  0.00    +0.000 OA
ATOM     19  C   UNL     1      10.283 -11.585   0.000  0.00  0.00    +0.000 C 
ATOM     20  C   UNL     1      12.426 -10.347   0.000  0.00  0.00    +0.000 C 
ATOM     21  O   UNL     1      10.283 -10.760   0.000  0.00  0.00    +0.000 OA
ATOM     22  O   UNL     1      13.925 -10.505   0.000  0.00  0.00    +0.000 OA
ENDROOT
BRANCH  15  23
ATOM     23  C   UNL     1      13.211 -10.092   0.000  0.00  0.00    +0.000 C 
ATOM     24  O   UNL     1      12.496  -9.680   0.000  0.00  0.00    +0.000 OA
BRANCH  23  25
ATOM     25  C   UNL     1      13.925  -9.680   0.000  0.00  0.00    +0.000 C 
BRANCH  25  26
ATOM     26  O   UNL     1      14.640 -10.092   0.000  0.00  0.00    +0.000 OA
BRANCH  26  27
ATOM     27  C   UNL     1      15.354  -9.680   0.000  0.00  0.00    +0.000 C 
ATOM     28  O   UNL     1      15.354  -8.855   0.000  0.00  0.00    +0.000 OA
BRANCH  27  29
ATOM     29  C   UNL     1      16.069 -10.092   0.000  0.00  0.00    +0.000 C 
BRANCH  29  30
ATOM     30  N   UNL     1      16.783  -9.680   0.000  0.00  0.00    +0.000 NA
BRANCH  30  31
ATOM     31  C   UNL     1      16.783  -8.855   0.000  0.00  0.00    +0.000 C 
ATOM     32  C   UNL     1      17.498  -8.442   0.000  0.00  0.00    +0.000 C 
ENDBRANCH  30  31
BRANCH  30  33
ATOM     33  C   UNL     1      17.498 -10.092   0.000  0.00  0.00    +0.000 C 
ATOM     34  C   UNL     1      18.212  -9.680   0.000  0.00  0.00    +0.000 C 
ENDBRANCH  30  33
ENDBRANCH  29  30
ENDBRANCH  27  29
ENDBRANCH  26  27
ENDBRANCH  25  26
ENDBRANCH  23  25
ENDBRANCH  15  23
TORSDOF 8
