REMARK  Name = 
REMARK  23 active torsions:
REMARK  status: ('A' for Active; 'I' for Inactive)
REMARK    1  A    between atoms: C_4  and  C_5
REMARK    2  A    between atoms: C_5  and  C_6
REMARK    3  A    between atoms: C_6  and  C_7
REMARK    4  A    between atoms: C_9  and  C_10
REMARK    5  A    between atoms: C_10  and  C_11
REMARK    6  A    between atoms: C_11  and  C_12
REMARK    7  A    between atoms: C_14  and  C_15
REMARK    8  A    between atoms: C_15  and  C_16
REMARK    9  A    between atoms: C_16  and  C_17
REMARK   10  A    between atoms: C_19  and  C_20
REMARK   11  A    between atoms: C_20  and  C_21
REMARK   12  A    between atoms: C_21  and  C_22
REMARK   13  A    between atoms: C_24  and  C_25
REMARK   14  A    between atoms: C_25  and  C_26
REMARK   15  A    between atoms: C_26  and  C_27
REMARK   16  A    between atoms: C_29  and  C_30
REMARK   17  A    between atoms: C_30  and  C_31
REMARK   18  A    between atoms: C_31  and  C_32
REMARK   19  A    between atoms: C_34  and  C_35
REMARK   20  A    between atoms: C_35  and  C_36
REMARK   21  A    between atoms: C_36  and  C_37
REMARK   22  A    between atoms: C_39  and  C_40
REMARK   23  A    between atoms: C_40  and  C_41
REMARK                            x       y       z     vdW  Elec       q    Type
REMARK                         _______ _______ _______ _____ _____    ______ ____
ROOT
ATOM      1  C   UNL     1       7.145   9.900   0.000  0.00  0.00    +0.000 C 
ATOM      2  C   UNL     1       7.859   9.488   0.000  0.00  0.00    +0.000 C 
ATOM      3  C   UNL     1       6.430   9.488   0.000  0.00  0.00    +0.000 C 
ENDROOT
BRANCH   1   4
ATOM      4  C   UNL     1       7.145  10.725   0.000  0.00  0.00    +0.000 C 
BRANCH   4   5
ATOM      5  C   UNL     1       7.859  11.137   0.000  0.00  0.00    +0.000 C 
BRANCH   5   8
ATOM      6  C   UNL     1       8.574  12.375   0.000  0.00  0.00    +0.000 C 
ATOM      7  C   UNL     1       9.288  11.963   0.000  0.00  0.00    +0.000 C 
ATOM      8  C   UNL     1       7.859  11.963   0.000  0.00  0.00    +0.000 C 
BRANCH   6   9
ATOM      9  C   UNL     1       8.574  13.200   0.000  0.00  0.00    +0.000 C 
BRANCH   9  10
ATOM     10  C   UNL     1       9.288  13.613   0.000  0.00  0.00    +0.000 C 
BRANCH  10  13
ATOM     11  C   UNL     1      10.003  14.850   0.000  0.00  0.00    +0.000 C 
ATOM     12  C   UNL     1      10.717  14.438   0.000  0.00  0.00    +0.000 C 
ATOM     13  C   UNL     1       9.288  14.438   0.000  0.00  0.00    +0.000 C 
BRANCH  11  14
ATOM     14  C   UNL     1      10.003  15.675   0.000  0.00  0.00    +0.000 C 
BRANCH  14  15
ATOM     15  C   UNL     1      10.717  16.087   0.000  0.00  0.00    +0.000 C 
BRANCH  15  18
ATOM     16  C   UNL     1      11.431  17.325   0.000  0.00  0.00    +0.000 C 
ATOM     17  C   UNL     1      12.146  16.913   0.000  0.00  0.00    +0.000 C 
ATOM     18  C   UNL     1      10.717  16.913   0.000  0.00  0.00    +0.000 C 
BRANCH  16  19
ATOM     19  C   UNL     1      11.431  18.150   0.000  0.00  0.00    +0.000 C 
BRANCH  19  20
ATOM     20  C   UNL     1      12.146  18.562   0.000  0.00  0.00    +0.000 C 
BRANCH  20  24
ATOM     21  C   UNL     1      12.861  20.625   0.000  0.00  0.00    +0.000 C 
ATOM     22  C   UNL     1      12.861  19.800   0.000  0.00  0.00    +0.000 C 
ATOM     23  C   UNL     1      13.575  19.387   0.000  0.00  0.00    +0.000 C 
ATOM     24  C   UNL     1      12.146  19.387   0.000  0.00  0.00    +0.000 C 
ENDBRANCH  20  24
ENDBRANCH  19  20
ENDBRANCH  16  19
ENDBRANCH  15  18
ENDBRANCH  14  15
ENDBRANCH  11  14
ENDBRANCH  10  13
ENDBRANCH   9  10
ENDBRANCH   6   9
ENDBRANCH   5   8
ENDBRANCH   4   5
ENDBRANCH   1   4
BRANCH   3  25
ATOM     25  C   UNL     1       6.430   8.662   0.000  0.00  0.00    +0.000 C 
BRANCH  25  26
ATOM     26  C   UNL     1       5.716   8.250   0.000  0.00  0.00    +0.000 C 
BRANCH  26  27
ATOM     27  C   UNL     1       5.716   7.425   0.000  0.00  0.00    +0.000 C 
ATOM     28  C   UNL     1       6.430   7.013   0.000  0.00  0.00    +0.000 C 
ATOM     29  C   UNL     1       5.001   7.013   0.000  0.00  0.00    +0.000 C 
BRANCH  29  30
ATOM     30  C   UNL     1       5.001   6.188   0.000  0.00  0.00    +0.000 C 
BRANCH  30  31
ATOM     31  C   UNL     1       4.287   5.775   0.000  0.00  0.00    +0.000 C 
BRANCH  31  32
ATOM     32  C   UNL     1       4.287   4.950   0.000  0.00  0.00    +0.000 C 
ATOM     33  C   UNL     1       5.001   4.537   0.000  0.00  0.00    +0.000 C 
ATOM     34  C   UNL     1       3.572   4.537   0.000  0.00  0.00    +0.000 C 
BRANCH  34  35
ATOM     35  C   UNL     1       3.572   3.712   0.000  0.00  0.00    +0.000 C 
BRANCH  35  36
ATOM     36  C   UNL     1       2.858   3.300   0.000  0.00  0.00    +0.000 C 
BRANCH  36  37
ATOM     37  C   UNL     1       2.858   2.475   0.000  0.00  0.00    +0.000 C 
ATOM     38  C   UNL     1       3.572   2.062   0.000  0.00  0.00    +0.000 C 
ATOM     39  C   UNL     1       2.143   2.062   0.000  0.00  0.00    +0.000 C 
BRANCH  39  40
ATOM     40  C   UNL     1       2.143   1.238   0.000  0.00  0.00    +0.000 C 
BRANCH  40  41
ATOM     41  C   UNL     1       1.429   0.825   0.000  0.00  0.00    +0.000 A 
ATOM     42  C   UNL     1       1.429   0.000   0.000  0.00  0.00    +0.000 A 
ATOM     43  C   UNL     1       0.715  -0.412   0.000  0.00  0.00    +0.000 A 
ATOM     44  C   UNL     1       0.000   0.000   0.000  0.00  0.00    +0.000 A 
ATOM     45  C   UNL     1       0.000   0.825   0.000  0.00  0.00    +0.000 A 
ATOM     46  C   UNL     1       0.715   1.238   0.000  0.00  0.00    +0.000 A 
ATOM     47  O   UNL     1       0.715   2.062   0.000  0.00  0.00    +0.000 OA
ENDBRANCH  40  41
ENDBRANCH  39  40
ENDBRANCH  36  37
ENDBRANCH  35  36
ENDBRANCH  34  35
ENDBRANCH  31  32
ENDBRANCH  30  31
ENDBRANCH  29  30
ENDBRANCH  26  27
ENDBRANCH  25  26
ENDBRANCH   3  25
TORSDOF 23
