REMARK  Name = 
REMARK  6 active torsions:
REMARK  status: ('A' for Active; 'I' for Inactive)
REMARK    1  A    between atoms: N_1  and  C_2
REMARK    2  A    between atoms: P_7  and  O_9
REMARK    3  A    between atoms: P_7  and  O_17
REMARK    4  A    between atoms: P_8  and  O_9
REMARK    5  A    between atoms: C_11  and  C_15
REMARK    6  A    between atoms: C_15  and  O_17
REMARK                            x       y       z     vdW  Elec       q    Type
REMARK                         _______ _______ _______ _____ _____    ______ ____
ROOT
ATOM      1  C   UNL     1       7.862  -6.642   0.000  0.00  0.00    +0.000 C 
ATOM      2  C   UNL     1       7.775  -7.462   0.000  0.00  0.00    +0.000 C 
ATOM      3  O   UNL     1       7.108  -6.306   0.000  0.00  0.00    +0.000 OA
ATOM      4  C   UNL     1       6.556  -6.919   0.000  0.00  0.00    +0.000 C 
ATOM      5  C   UNL     1       6.968  -7.634   0.000  0.00  0.00    +0.000 C 
ATOM      6  O   UNL     1       6.633  -8.387   0.000  0.00  0.00    +0.000 OA
ENDROOT
BRANCH   1   7
ATOM      7  N   UNL     1       8.576  -6.229   0.000  0.00  0.00    +0.000 N 
ATOM      8  C   UNL     1       8.576  -5.404   0.000  0.00  0.00    +0.000 A 
ATOM      9  N   UNL     1       9.291  -4.992   0.000  0.00  0.00    +0.000 NA
ATOM     10  C   UNL     1       9.291  -6.642   0.000  0.00  0.00    +0.000 A 
ATOM     11  C   UNL     1      10.005  -6.229   0.000  0.00  0.00    +0.000 A 
ATOM     12  C   UNL     1      10.005  -5.404   0.000  0.00  0.00    +0.000 A 
ATOM     13  O   UNL     1       7.862  -4.992   0.000  0.00  0.00    +0.000 OA
ATOM     14  O   UNL     1      10.720  -4.992   0.000  0.00  0.00    +0.000 OA
ENDBRANCH   1   7
BRANCH   4  15
ATOM     15  C   UNL     1       5.736  -6.833   0.000  0.00  0.00    +0.000 C 
BRANCH  15  16
ATOM     16  O   UNL     1       5.250  -7.500   0.000  0.00  0.00    +0.000 OA
BRANCH  16  17
ATOM     17  P   UNL     1       4.430  -7.414   0.000  0.00  0.00    +0.000 P 
ATOM     18  O   UNL     1       4.344  -8.235   0.000  0.00  0.00    +0.000 OA
ATOM     19  O   UNL     1       4.516  -6.594   0.000  0.00  0.00    +0.000 OA
BRANCH  17  20
ATOM     20  O   UNL     1       3.610  -7.328   0.000  0.00  0.00    +0.000 OA
BRANCH  20  21
ATOM     21  P   UNL     1       3.274  -6.574   0.000  0.00  0.00    +0.000 P 
ATOM     22  O   UNL     1       2.520  -6.910   0.000  0.00  0.00    +0.000 OA
ATOM     23  O   UNL     1       4.028  -6.239   0.000  0.00  0.00    +0.000 OA
ATOM     24  O   UNL     1       2.938  -5.821   0.000  0.00  0.00    +0.000 OA
ENDBRANCH  20  21
ENDBRANCH  17  20
ENDBRANCH  16  17
ENDBRANCH  15  16
ENDBRANCH   4  15
TORSDOF 6
