REMARK  Name = 
REMARK  4 active torsions:
REMARK  status: ('A' for Active; 'I' for Inactive)
REMARK    1  A    between atoms: N_1  and  C_2
REMARK    2  A    between atoms: C_10  and  C_13
REMARK    3  A    between atoms: C_13  and  O_16
REMARK    4  A    between atoms: O_16  and  P_17
REMARK                            x       y       z     vdW  Elec       q    Type
REMARK                         _______ _______ _______ _____ _____    ______ ____
ROOT
ATOM      1  C   UNL     1       0.535   0.048   0.000  0.00  0.00    +0.000 C 
ATOM      2  O   UNL     1      -0.106   0.518   0.000  0.00  0.00    +0.000 OA
ATOM      3  C   UNL     1       0.295  -0.758   0.000  0.00  0.00    +0.000 C 
ATOM      4  C   UNL     1      -0.775   0.027   0.000  0.00  0.00    +0.000 C 
ATOM      5  C   UNL     1      -0.531  -0.758   0.000  0.00  0.00    +0.000 C 
ATOM      6  O   UNL     1      -1.018  -1.416   0.000  0.00  0.00    +0.000 OA
ENDROOT
BRANCH   1   7
ATOM      7  N   UNL     1       1.323   0.305   0.000  0.00  0.00    +0.000 N 
ATOM      8  C   UNL     1       1.940  -0.243   0.000  0.00  0.00    +0.000 A 
ATOM      9  C   UNL     1       1.495   1.111   0.000  0.00  0.00    +0.000 A 
ATOM     10  N   UNL     1       2.725   0.017   0.000  0.00  0.00    +0.000 NA
ATOM     11  O   UNL     1       1.776  -1.046   0.000  0.00  0.00    +0.000 OA
ATOM     12  C   UNL     1       2.273   1.371   0.000  0.00  0.00    +0.000 A 
ATOM     13  C   UNL     1       2.893   0.823   0.000  0.00  0.00    +0.000 A 
ATOM     14  N   UNL     1       3.675   1.080   0.000  0.00  0.00    +0.000 NA
ENDBRANCH   1   7
BRANCH   4  15
ATOM     15  C   UNL     1      -1.560   0.281   0.000  0.00  0.00    +0.000 C 
BRANCH  15  16
ATOM     16  O   UNL     1      -2.166  -0.271   0.000  0.00  0.00    +0.000 OA
BRANCH  16  17
ATOM     17  P   UNL     1      -2.986  -0.271   0.000  0.00  0.00    +0.000 P 
ATOM     18  O   UNL     1      -2.989  -1.090   0.000  0.00  0.00    +0.000 OA
ATOM     19  O   UNL     1      -3.805  -0.271   0.000  0.00  0.00    +0.000 OA
ATOM     20  O   UNL     1      -2.989   0.548   0.000  0.00  0.00    +0.000 OA
ENDBRANCH  16  17
ENDBRANCH  15  16
ENDBRANCH   4  15
TORSDOF 4
