REMARK  Name = 
REMARK  4 active torsions:
REMARK  status: ('A' for Active; 'I' for Inactive)
REMARK    1  A    between atoms: C_14  and  O_32
REMARK    2  A    between atoms: C_15  and  C_23
REMARK    3  A    between atoms: C_17  and  C_24
REMARK    4  A    between atoms: C_24  and  O_32
REMARK                            x       y       z     vdW  Elec       q    Type
REMARK                         _______ _______ _______ _____ _____    ______ ____
ROOT
ATOM      1  C   UNL     1       1.206   2.052   0.000  0.00  0.00    +0.000 C 
ATOM      2  C   UNL     1       2.098   1.540   0.000  0.00  0.00    +0.000 C 
ATOM      3  C   UNL     1       3.973   1.035   0.000  0.00  0.00    +0.000 A 
ATOM      4  C   UNL     1       4.241   0.255   0.000  0.00  0.00    +0.000 A 
ATOM      5  C   UNL     1       3.163   1.193   0.000  0.00  0.00    +0.000 A 
ATOM      6  C   UNL     1       3.699  -0.368   0.000  0.00  0.00    +0.000 A 
ATOM      7  C   UNL     1       0.072  -0.125   0.000  0.00  0.00    +0.000 C 
ATOM      8  C   UNL     1       0.507   1.297   0.000  0.00  0.00    +0.000 C 
ATOM      9  C   UNL     1       2.621   0.570   0.000  0.00  0.00    +0.000 A 
ATOM     10  C   UNL     1       0.787  -0.536   0.000  0.00  0.00    +0.000 C 
ATOM     11  C   UNL     1       2.889  -0.210   0.000  0.00  0.00    +0.000 A 
ATOM     12  C   UNL     1       1.796   0.556   0.000  0.00  0.00    +0.000 A 
ATOM     13  C   UNL     1       1.555  -0.233   0.000  0.00  0.00    +0.000 A 
ATOM     14  C   UNL     1      -0.841   0.932   0.000  0.00  0.00    +0.000 C 
ATOM     15  C   UNL     1       1.330   1.237   0.000  0.00  0.00    +0.000 C 
ATOM     16  N   UNL     1       2.231  -0.706   0.000  0.00  0.00    +0.000 NA
ATOM     17  N   UNL     1      -0.052   0.691   0.000  0.00  0.00    +0.000 N 
ATOM     18  O   UNL     1      -1.027   1.736   0.000  0.00  0.00    +0.000 OA
ENDROOT
BRANCH  14  22
ATOM     19  C   UNL     1      -1.260  -0.434   0.000  0.00  0.00    +0.000 A 
ATOM     20  C   UNL     1      -1.863  -0.996   0.000  0.00  0.00    +0.000 A 
ATOM     21  C   UNL     1      -2.234   0.612   0.000  0.00  0.00    +0.000 A 
ATOM     22  C   UNL     1      -1.445   0.370   0.000  0.00  0.00    +0.000 A 
ATOM     23  C   UNL     1      -2.652  -0.755   0.000  0.00  0.00    +0.000 A 
ATOM     24  C   UNL     1      -2.837   0.049   0.000  0.00  0.00    +0.000 A 
ATOM     25  F   UNL     1      -3.256  -1.317   0.000  0.00  0.00    +0.000 F 
ATOM     26  F   UNL     1      -3.626   0.291   0.000  0.00  0.00    +0.000 F 
ENDBRANCH  14  22
BRANCH  10  27
ATOM     27  C   UNL     1       0.728  -1.359   0.000  0.00  0.00    +0.000 C 
ATOM     28  O   UNL     1       1.410  -1.822   0.000  0.00  0.00    +0.000 OA
BRANCH  27  29
ATOM     29  O   UNL     1      -0.015  -1.718   0.000  0.00  0.00    +0.000 OA
BRANCH  29  32
ATOM     30  C   UNL     1      -1.440  -1.614   0.000  0.00  0.00    +0.000 C 
ATOM     31  C   UNL     1      -0.638  -0.432   0.000  0.00  0.00    +0.000 C 
ATOM     32  C   UNL     1      -0.698  -1.255   0.000  0.00  0.00    +0.000 C 
ENDBRANCH  29  32
ENDBRANCH  27  29
ENDBRANCH  10  27
TORSDOF 4
