REMARK  Name = 
REMARK  31 active torsions:
REMARK  status: ('A' for Active; 'I' for Inactive)
REMARK    1  A    between atoms: O_2  and  C_3
REMARK    2  A    between atoms: C_8  and  C_9
REMARK    3  A    between atoms: C_9  and  C_10
REMARK    4  A    between atoms: C_11  and  C_13
REMARK    5  A    between atoms: C_13  and  C_14
REMARK    6  A    between atoms: C_14  and  C_15
REMARK    7  A    between atoms: C_16  and  C_18
REMARK    8  A    between atoms: C_18  and  C_19
REMARK    9  A    between atoms: C_19  and  C_20
REMARK   10  A    between atoms: C_21  and  C_23
REMARK   11  A    between atoms: C_23  and  C_24
REMARK   12  A    between atoms: C_24  and  C_25
REMARK   13  A    between atoms: C_26  and  C_28
REMARK   14  A    between atoms: C_28  and  C_29
REMARK   15  A    between atoms: C_29  and  C_30
REMARK   16  A    between atoms: C_31  and  C_33
REMARK   17  A    between atoms: C_33  and  C_34
REMARK   18  A    between atoms: C_34  and  C_35
REMARK   19  A    between atoms: C_36  and  C_38
REMARK   20  A    between atoms: C_38  and  C_39
REMARK   21  A    between atoms: C_39  and  C_40
REMARK   22  A    between atoms: C_41  and  C_43
REMARK   23  A    between atoms: C_43  and  C_44
REMARK   24  A    between atoms: C_44  and  C_45
REMARK   25  A    between atoms: C_46  and  C_48
REMARK   26  A    between atoms: C_48  and  C_49
REMARK   27  A    between atoms: C_49  and  C_50
REMARK   28  A    between atoms: C_51  and  C_53
REMARK   29  A    between atoms: C_53  and  C_54
REMARK   30  A    between atoms: C_54  and  C_55
REMARK   31  A    between atoms: C_61  and  O_62
REMARK                            x       y       z     vdW  Elec       q    Type
REMARK                         _______ _______ _______ _____ _____    ______ ____
ROOT
ATOM      1  C   UNL     1      17.110 -15.014   0.000  0.00  0.00    +0.000 C 
ATOM      2  C   UNL     1      16.696 -15.728   0.000  0.00  0.00    +0.000 C 
ATOM      3  C   UNL     1      17.107 -16.443   0.000  0.00  0.00    +0.000 C 
ENDROOT
BRANCH   2   4
ATOM      4  C   UNL     1      15.872 -15.725   0.000  0.00  0.00    +0.000 C 
BRANCH   4   5
ATOM      5  C   UNL     1      15.462 -15.009   0.000  0.00  0.00    +0.000 C 
BRANCH   5   6
ATOM      6  C   UNL     1      14.637 -15.006   0.000  0.00  0.00    +0.000 C 
ATOM      7  C   UNL     1      14.225 -14.291   0.000  0.00  0.00    +0.000 C 
ATOM      8  C   UNL     1      14.640 -13.577   0.000  0.00  0.00    +0.000 C 
BRANCH   7   9
ATOM      9  C   UNL     1      13.401 -14.289   0.000  0.00  0.00    +0.000 C 
BRANCH   9  10
ATOM     10  C   UNL     1      12.985 -15.001   0.000  0.00  0.00    +0.000 C 
BRANCH  10  11
ATOM     11  C   UNL     1      12.160 -14.999   0.000  0.00  0.00    +0.000 C 
ATOM     12  C   UNL     1      11.746 -15.711   0.000  0.00  0.00    +0.000 C 
ATOM     13  C   UNL     1      12.157 -16.427   0.000  0.00  0.00    +0.000 C 
BRANCH  12  14
ATOM     14  C   UNL     1      10.922 -15.711   0.000  0.00  0.00    +0.000 C 
BRANCH  14  15
ATOM     15  C   UNL     1      10.509 -16.427   0.000  0.00  0.00    +0.000 C 
BRANCH  15  16
ATOM     16  C   UNL     1       9.685 -16.427   0.000  0.00  0.00    +0.000 C 
ATOM     17  C   UNL     1       9.273 -17.142   0.000  0.00  0.00    +0.000 C 
ATOM     18  C   UNL     1       9.685 -17.856   0.000  0.00  0.00    +0.000 C 
BRANCH  17  19
ATOM     19  C   UNL     1       8.447 -17.142   0.000  0.00  0.00    +0.000 C 
BRANCH  19  20
ATOM     20  C   UNL     1       8.034 -16.428   0.000  0.00  0.00    +0.000 C 
BRANCH  20  21
ATOM     21  C   UNL     1       7.623 -16.429   0.000  0.00  0.00    +0.000 C 
ATOM     22  C   UNL     1       7.209 -15.714   0.000  0.00  0.00    +0.000 C 
ATOM     23  C   UNL     1       7.621 -15.000   0.000  0.00  0.00    +0.000 C 
BRANCH  22  24
ATOM     24  C   UNL     1       6.384 -15.715   0.000  0.00  0.00    +0.000 C 
BRANCH  24  25
ATOM     25  C   UNL     1       5.972 -16.429   0.000  0.00  0.00    +0.000 C 
BRANCH  25  26
ATOM     26  C   UNL     1       5.146 -16.431   0.000  0.00  0.00    +0.000 C 
ATOM     27  C   UNL     1       4.735 -17.146   0.000  0.00  0.00    +0.000 C 
ATOM     28  C   UNL     1       5.149 -17.860   0.000  0.00  0.00    +0.000 C 
BRANCH  27  29
ATOM     29  C   UNL     1       3.909 -17.149   0.000  0.00  0.00    +0.000 C 
BRANCH  29  30
ATOM     30  C   UNL     1       3.495 -16.436   0.000  0.00  0.00    +0.000 C 
BRANCH  30  31
ATOM     31  C   UNL     1       2.670 -16.439   0.000  0.00  0.00    +0.000 C 
ATOM     32  C   UNL     1       2.254 -15.726   0.000  0.00  0.00    +0.000 C 
ATOM     33  C   UNL     1       1.430 -15.731   0.000  0.00  0.00    +0.000 C 
ATOM     34  C   UNL     1       2.663 -15.009   0.000  0.00  0.00    +0.000 C 
ENDBRANCH  30  31
ENDBRANCH  29  30
ENDBRANCH  27  29
ENDBRANCH  25  26
ENDBRANCH  24  25
ENDBRANCH  22  24
ENDBRANCH  20  21
ENDBRANCH  19  20
ENDBRANCH  17  19
ENDBRANCH  15  16
ENDBRANCH  14  15
ENDBRANCH  12  14
ENDBRANCH  10  11
ENDBRANCH   9  10
ENDBRANCH   7   9
ENDBRANCH   5   6
ENDBRANCH   4   5
ENDBRANCH   2   4
BRANCH   1  35
ATOM     35  C   UNL     1      17.935 -15.016   0.000  0.00  0.00    +0.000 C 
BRANCH  35  36
ATOM     36  C   UNL     1      18.143 -14.660   0.000  0.00  0.00    +0.000 C 
BRANCH  36  38
ATOM     37  C   UNL     1      20.206 -13.949   0.000  0.00  0.00    +0.000 C 
ATOM     38  C   UNL     1      19.793 -14.663   0.000  0.00  0.00    +0.000 C 
ATOM     39  C   UNL     1      20.615 -16.093   0.000  0.00  0.00    +0.000 C 
BRANCH  37  40
ATOM     40  C   UNL     1      21.031 -13.949   0.000  0.00  0.00    +0.000 C 
BRANCH  40  41
ATOM     41  C   UNL     1      21.444 -13.235   0.000  0.00  0.00    +0.000 C 
BRANCH  41  43
ATOM     42  C   UNL     1      22.682 -12.521   0.000  0.00  0.00    +0.000 C 
ATOM     43  C   UNL     1      22.269 -13.235   0.000  0.00  0.00    +0.000 C 
ATOM     44  C   UNL     1      22.681 -13.950   0.000  0.00  0.00    +0.000 C 
BRANCH  42  45
ATOM     45  C   UNL     1      23.507 -12.521   0.000  0.00  0.00    +0.000 C 
BRANCH  45  46
ATOM     46  C   UNL     1      23.920 -11.807   0.000  0.00  0.00    +0.000 C 
BRANCH  46  48
ATOM     47  C   UNL     1      25.158 -12.521   0.000  0.00  0.00    +0.000 C 
ATOM     48  C   UNL     1      24.745 -11.807   0.000  0.00  0.00    +0.000 C 
ATOM     49  C   UNL     1      25.158 -11.092   0.000  0.00  0.00    +0.000 C 
BRANCH  47  50
ATOM     50  C   UNL     1      25.983 -12.521   0.000  0.00  0.00    +0.000 C 
BRANCH  50  56
ATOM     51  C   UNL     1      27.221 -14.665   0.000  0.00  0.00    +0.000 A 
ATOM     52  C   UNL     1      27.633 -13.950   0.000  0.00  0.00    +0.000 A 
ATOM     53  O   UNL     1      28.458 -13.950   0.000  0.00  0.00    +0.000 OA
ATOM     54  C   UNL     1      27.221 -13.235   0.000  0.00  0.00    +0.000 A 
ATOM     55  C   UNL     1      27.633 -12.521   0.000  0.00  0.00    +0.000 C 
ATOM     56  C   UNL     1      26.395 -13.235   0.000  0.00  0.00    +0.000 A 
ATOM     57  C   UNL     1      25.983 -13.950   0.000  0.00  0.00    +0.000 A 
ATOM     58  O   UNL     1      25.158 -13.950   0.000  0.00  0.00    +0.000 OA
ATOM     59  C   UNL     1      26.395 -14.665   0.000  0.00  0.00    +0.000 A 
BRANCH  59  60
ATOM     60  O   UNL     1      25.983 -15.379   0.000  0.00  0.00    +0.000 OA
ATOM     61  C   UNL     1      25.158 -15.379   0.000  0.00  0.00    +0.000 C 
ENDBRANCH  59  60
BRANCH  51  63
ATOM     62  C   UNL     1      28.458 -15.379   0.000  0.00  0.00    +0.000 C 
ATOM     63  O   UNL     1      27.633 -15.379   0.000  0.00  0.00    +0.000 OA
ENDBRANCH  51  63
ENDBRANCH  50  56
ENDBRANCH  47  50
ENDBRANCH  46  48
ENDBRANCH  45  46
ENDBRANCH  42  45
ENDBRANCH  41  43
ENDBRANCH  40  41
ENDBRANCH  37  40
ENDBRANCH  36  38
ENDBRANCH  35  36
ENDBRANCH   1  35
TORSDOF 31
