REMARK  Name = 
REMARK  4 active torsions:
REMARK  status: ('A' for Active; 'I' for Inactive)
REMARK    1  A    between atoms: S_2  and  C_12
REMARK    2  A    between atoms: S_3  and  C_18
REMARK    3  A    between atoms: N_4  and  C_7
REMARK    4  A    between atoms: N_5  and  C_13
REMARK                            x       y       z     vdW  Elec       q    Type
REMARK                         _______ _______ _______ _____ _____    ______ ____
ROOT
ATOM      1  N   UNL     1       3.793   1.444   0.000  0.00  0.00    +0.000 N 
ATOM      2  N   UNL     1       3.079   0.206   0.000  0.00  0.00    +0.000 NA
ATOM      3  N   UNL     1       4.508   0.206   0.000  0.00  0.00    +0.000 NA
ATOM      4  C   UNL     1       3.793   0.619   0.000  0.00  0.00    +0.000 C 
ATOM      5  C   UNL     1       3.079   1.856   0.000  0.00  0.00    +0.000 C 
ENDROOT
BRANCH   2   7
ATOM      6 CL   UNL     1       1.650  -0.619   0.000  0.00  0.00    +0.000 Cl
ATOM      7  C   UNL     1       3.079  -0.619   0.000  0.00  0.00    +0.000 A 
ATOM      8  C   UNL     1       3.793  -1.031   0.000  0.00  0.00    +0.000 A 
ATOM      9  C   UNL     1       2.365  -1.031   0.000  0.00  0.00    +0.000 A 
ATOM     10  C   UNL     1       3.793  -1.856   0.000  0.00  0.00    +0.000 A 
ATOM     11  C   UNL     1       2.365  -1.856   0.000  0.00  0.00    +0.000 A 
ATOM     12  C   UNL     1       3.079  -2.269   0.000  0.00  0.00    +0.000 A 
BRANCH  10  13
ATOM     13  S   UNL     1       4.508  -2.269   0.000  0.00  0.00    +0.000 S 
ATOM     14  C   UNL     1       4.508  -3.094   0.000  0.00  0.00    +0.000 C 
ENDBRANCH  10  13
ENDBRANCH   2   7
BRANCH   1  15
ATOM     15  C   UNL     1       4.508   1.856   0.000  0.00  0.00    +0.000 A 
ATOM     16  C   UNL     1       5.222   1.444   0.000  0.00  0.00    +0.000 A 
ATOM     17  C   UNL     1       4.508   2.681   0.000  0.00  0.00    +0.000 A 
ATOM     18  C   UNL     1       5.937   1.856   0.000  0.00  0.00    +0.000 A 
ATOM     19  C   UNL     1       5.222   3.094   0.000  0.00  0.00    +0.000 A 
ATOM     20  C   UNL     1       5.937   2.681   0.000  0.00  0.00    +0.000 A 
BRANCH  18  21
ATOM     21  S   UNL     1       6.652   1.444   0.000  0.00  0.00    +0.000 S 
ATOM     22  C   UNL     1       7.366   1.856   0.000  0.00  0.00    +0.000 C 
ENDBRANCH  18  21
ENDBRANCH   1  15
TORSDOF 4
