REMARK  Name = 
REMARK  3 active torsions:
REMARK  status: ('A' for Active; 'I' for Inactive)
REMARK    1  A    between atoms: C_2  and  C_4
REMARK    2  A    between atoms: N_6  and  C_7
REMARK    3  A    between atoms: C_8  and  C_9
REMARK                            x       y       z     vdW  Elec       q    Type
REMARK                         _______ _______ _______ _____ _____    ______ ____
ROOT
ATOM      1  C   UNL     1      -0.628  -0.698   0.000  0.00  0.00    +0.000 A 
ATOM      2  C   UNL     1      -0.143  -1.365   0.000  0.00  0.00    +0.000 A 
ATOM      3  C   UNL     1       0.641  -1.110   0.000  0.00  0.00    +0.000 A 
ATOM      4  C   UNL     1       0.641  -0.285   0.000  0.00  0.00    +0.000 A 
ATOM      5  C   UNL     1       1.356   0.127   0.000  0.00  0.00    +0.000 C 
ATOM      6  N   UNL     1       2.070  -0.285   0.000  0.00  0.00    +0.000 NA
ATOM      7  C   UNL     1       2.070  -1.110   0.000  0.00  0.00    +0.000 C 
ATOM      8  C   UNL     1       1.356  -1.523   0.000  0.00  0.00    +0.000 C 
ATOM      9  S   UNL     1      -0.143  -0.030   0.000  0.00  0.00    +0.000 S 
ENDROOT
BRANCH   1  12
ATOM     10  C   UNL     1      -1.866   0.017   0.000  0.00  0.00    +0.000 C 
ATOM     11  O   UNL     1      -1.453   0.731   0.000  0.00  0.00    +0.000 OA
ATOM     12  N   UNL     1      -1.453  -0.698   0.000  0.00  0.00    +0.000 NA
BRANCH  10  14
ATOM     13  O   UNL     1      -3.103  -0.698   0.000  0.00  0.00    +0.000 OA
ATOM     14  C   UNL     1      -2.691   0.017   0.000  0.00  0.00    +0.000 C 
ATOM     15  O   UNL     1      -3.103   0.731   0.000  0.00  0.00    +0.000 OA
ENDBRANCH  10  14
ENDBRANCH   1  12
BRANCH   2  16
ATOM     16  C   UNL     1      -0.398  -2.150   0.000  0.00  0.00    +0.000 C 
ATOM     17  O   UNL     1       0.154  -2.763   0.000  0.00  0.00    +0.000 OA
ATOM     18  O   UNL     1      -1.205  -2.321   0.000  0.00  0.00    +0.000 OA
ENDBRANCH   2  16
TORSDOF 3
