REMARK  Name = 
REMARK  1 active torsions:
REMARK  status: ('A' for Active; 'I' for Inactive)
REMARK    1  A    between atoms: C_11  and  O_13
REMARK                            x       y       z     vdW  Elec       q    Type
REMARK                         _______ _______ _______ _____ _____    ______ ____
ROOT
ATOM      1  N   UNL     1       1.052  -0.364   0.000  0.00  0.00    +0.000 NA
ATOM      2  C   UNL     1       0.567   0.283   0.000  0.00  0.00    +0.000 A 
ATOM      3  N   UNL     1      -0.162   0.040   0.000  0.00  0.00    +0.000 NA
ATOM      4  C   UNL     1      -0.162  -0.769   0.000  0.00  0.00    +0.000 A 
ATOM      5  C   UNL     1      -0.809  -1.336   0.000  0.00  0.00    +0.000 A 
ATOM      6  C   UNL     1      -0.647  -2.146   0.000  0.00  0.00    +0.000 A 
ATOM      7  C   UNL     1       0.162  -2.388   0.000  0.00  0.00    +0.000 A 
ATOM      8  C   UNL     1       0.729  -1.821   0.000  0.00  0.00    +0.000 A 
ATOM      9  C   UNL     1       0.567  -1.012   0.000  0.00  0.00    +0.000 A 
ATOM     10  N   UNL     1       0.809   1.012   0.000  0.00  0.00    +0.000 NA
ATOM     11  C   UNL     1       0.324   1.659   0.000  0.00  0.00    +0.000 C 
ATOM     12  O   UNL     1       0.567   2.388   0.000  0.00  0.00    +0.000 OA
ENDROOT
BRANCH  11  13
ATOM     13  O   UNL     1      -0.485   1.497   0.000  0.00  0.00    +0.000 OA
ATOM     14  C   UNL     1      -1.052   2.064   0.000  0.00  0.00    +0.000 C 
ENDBRANCH  11  13
TORSDOF 1
