REMARK  Name = 
REMARK  5 active torsions:
REMARK  status: ('A' for Active; 'I' for Inactive)
REMARK    1  A    between atoms: C_2  and  C_3
REMARK    2  A    between atoms: C_3  and  C_4
REMARK    3  A    between atoms: C_4  and  C_5
REMARK    4  A    between atoms: C_5  and  O_6
REMARK    5  A    between atoms: O_6  and  B_7
REMARK                            x       y       z     vdW  Elec       q    Type
REMARK                         _______ _______ _______ _____ _____    ______ ____
ROOT
ATOM      1  O   UNL     1       1.028  -3.096   0.000  0.00  0.00    +0.000 OA
ENDROOT
BRANCH   1   2
ATOM      2  B   UNL     1       1.742  -3.508   0.000  0.00  0.00    +0.000 B 
ATOM      3  O   UNL     1       2.496  -3.173   0.000  0.00  0.00    +0.000 OA
ATOM      4  C   UNL     1       3.048  -3.786   0.000  0.00  0.00    +0.000 C 
ATOM      5  C   UNL     1       2.636  -4.500   0.000  0.00  0.00    +0.000 C 
ATOM      6  O   UNL     1       1.829  -4.329   0.000  0.00  0.00    +0.000 OA
ENDBRANCH   1   2
BRANCH   1   7
ATOM      7  C   UNL     1       0.314  -3.508   0.000  0.00  0.00    +0.000 C 
BRANCH   7   8
ATOM      8  C   UNL     1      -0.401  -3.096   0.000  0.00  0.00    +0.000 C 
BRANCH   8   9
ATOM      9  C   UNL     1      -1.115  -3.508   0.000  0.00  0.00    +0.000 C 
BRANCH   9  11
ATOM     10  N   UNL     1      -2.544  -3.508   0.000  0.00  0.00    +0.000 NA
ATOM     11  C   UNL     1      -1.830  -3.096   0.000  0.00  0.00    +0.000 C 
ENDBRANCH   9  11
ENDBRANCH   8   9
ENDBRANCH   7   8
ENDBRANCH   1   7
TORSDOF 5
