REMARK  Name = 
REMARK  9 active torsions:
REMARK  status: ('A' for Active; 'I' for Inactive)
REMARK    1  A    between atoms: C_2  and  N_17
REMARK    2  A    between atoms: C_8  and  C_10
REMARK    3  A    between atoms: C_10  and  C_11
REMARK    4  A    between atoms: C_11  and  C_12
REMARK    5  A    between atoms: C_12  and  C_13
REMARK    6  A    between atoms: N_17  and  C_18
REMARK    7  A    between atoms: N_17  and  C_19
REMARK    8  A    between atoms: C_18  and  C_22
REMARK    9  A    between atoms: C_19  and  C_20
REMARK                            x       y       z     vdW  Elec       q    Type
REMARK                         _______ _______ _______ _____ _____    ______ ____
ROOT
ATOM      1  C   UNL     1      14.080  -3.933   0.000  0.00  0.00    +0.000 A 
ATOM      2  C   UNL     1      13.366  -3.520   0.000  0.00  0.00    +0.000 A 
ATOM      3  C   UNL     1      13.366  -2.695   0.000  0.00  0.00    +0.000 A 
ATOM      4  C   UNL     1      14.794  -3.520   0.000  0.00  0.00    +0.000 A 
ATOM      5  C   UNL     1      14.794  -2.695   0.000  0.00  0.00    +0.000 A 
ATOM      6  C   UNL     1      14.080  -2.283   0.000  0.00  0.00    +0.000 A 
ATOM      7  N   UNL     1      15.579  -2.440   0.000  0.00  0.00    +0.000 N 
ATOM      8  C   UNL     1      16.064  -3.108   0.000  0.00  0.00    +0.000 A 
ATOM      9  N   UNL     1      15.579  -3.775   0.000  0.00  0.00    +0.000 NA
ATOM     10  C   UNL     1      15.992  -1.726   0.000  0.00  0.00    +0.000 C 
ENDROOT
BRANCH   8  11
ATOM     11  C   UNL     1      16.889  -3.108   0.000  0.00  0.00    +0.000 C 
BRANCH  11  12
ATOM     12  C   UNL     1      17.302  -2.393   0.000  0.00  0.00    +0.000 C 
BRANCH  12  13
ATOM     13  C   UNL     1      18.127  -2.393   0.000  0.00  0.00    +0.000 C 
BRANCH  13  14
ATOM     14  C   UNL     1      18.539  -1.679   0.000  0.00  0.00    +0.000 C 
ATOM     15  O   UNL     1      17.825  -1.266   0.000  0.00  0.00    +0.000 OA
ATOM     16  O   UNL     1      19.364  -1.679   0.000  0.00  0.00    +0.000 OA
ENDBRANCH  13  14
ENDBRANCH  12  13
ENDBRANCH  11  12
ENDBRANCH   8  11
BRANCH   2  17
ATOM     17  N   UNL     1      12.651  -3.933   0.000  0.00  0.00    +0.000 N 
BRANCH  17  18
ATOM     18  C   UNL     1      12.651  -4.758   0.000  0.00  0.00    +0.000 C 
BRANCH  18  19
ATOM     19  C   UNL     1      11.937  -5.170   0.000  0.00  0.00    +0.000 C 
ATOM     20 CL   UNL     1      11.937  -5.995   0.000  0.00  0.00    +0.000 Cl
ENDBRANCH  18  19
ENDBRANCH  17  18
BRANCH  17  21
ATOM     21  C   UNL     1      11.937  -3.520   0.000  0.00  0.00    +0.000 C 
BRANCH  21  22
ATOM     22  C   UNL     1      11.222  -3.933   0.000  0.00  0.00    +0.000 C 
ATOM     23 CL   UNL     1      10.508  -3.520   0.000  0.00  0.00    +0.000 Cl
ENDBRANCH  21  22
ENDBRANCH  17  21
ENDBRANCH   2  17
TORSDOF 9
