REMARK  Name = 
REMARK  3 active torsions:
REMARK  status: ('A' for Active; 'I' for Inactive)
REMARK    1  A    between atoms: C_6  and  S_7
REMARK    2  A    between atoms: S_7  and  C_8
REMARK    3  A    between atoms: C_16  and  O_17
REMARK                            x       y       z     vdW  Elec       q    Type
REMARK                         _______ _______ _______ _____ _____    ______ ____
ROOT
ATOM      1  C   UNL     1      -0.162  -0.769   0.000  0.00  0.00    +0.000 A 
ATOM      2  C   UNL     1       0.647  -1.011   0.000  0.00  0.00    +0.000 A 
ATOM      3  C   UNL     1       1.214  -0.526   0.000  0.00  0.00    +0.000 A 
ATOM      4  C   UNL     1       1.052   0.283   0.000  0.00  0.00    +0.000 A 
ATOM      5  C   UNL     1       0.323   0.525   0.000  0.00  0.00    +0.000 A 
ATOM      6  N   UNL     1       0.323   1.335   0.000  0.00  0.00    +0.000 NA
ATOM      7  C   UNL     1       1.052   1.578   0.000  0.00  0.00    +0.000 A 
ATOM      8  N   UNL     1       1.295   2.387   0.000  0.00  0.00    +0.000 NA
ATOM      9  C   UNL     1       0.809   2.954   0.000  0.00  0.00    +0.000 C 
ATOM     10  C   UNL     1      -0.323  -0.041   0.000  0.00  0.00    +0.000 A 
ATOM     11  O   UNL     1       1.052   3.764   0.000  0.00  0.00    +0.000 OA
ATOM     12  N   UNL     1       1.537   0.931   0.000  0.00  0.00    +0.000 NA
ENDROOT
BRANCH   1  13
ATOM     13  S   UNL     1      -0.728  -1.335   0.000  0.00  0.00    +0.000 S 
ATOM     14  O   UNL     1      -1.537  -1.093   0.000  0.00  0.00    +0.000 OA
BRANCH  13  20
ATOM     15  C   UNL     1       0.161  -2.387   0.000  0.00  0.00    +0.000 A 
ATOM     16  C   UNL     1       0.323  -3.197   0.000  0.00  0.00    +0.000 A 
ATOM     17  C   UNL     1      -0.243  -3.764   0.000  0.00  0.00    +0.000 A 
ATOM     18  C   UNL     1      -1.052  -3.521   0.000  0.00  0.00    +0.000 A 
ATOM     19  C   UNL     1      -1.214  -2.711   0.000  0.00  0.00    +0.000 A 
ATOM     20  C   UNL     1      -0.567  -2.145   0.000  0.00  0.00    +0.000 A 
ENDBRANCH  13  20
ENDBRANCH   1  13
BRANCH   9  21
ATOM     21  O   UNL     1       0.000   2.792   0.000  0.00  0.00    +0.000 OA
ATOM     22  C   UNL     1      -0.567   3.440   0.000  0.00  0.00    +0.000 C 
ENDBRANCH   9  21
TORSDOF 3
