REMARK  Name = 
REMARK  9 active torsions:
REMARK  status: ('A' for Active; 'I' for Inactive)
REMARK    1  A    between atoms: P_1  and  O_8
REMARK    2  A    between atoms: P_1  and  O_12
REMARK    3  A    between atoms: P_2  and  O_7
REMARK    4  A    between atoms: P_2  and  O_12
REMARK    5  A    between atoms: O_7  and  C_31
REMARK    6  A    between atoms: O_8  and  C_32
REMARK    7  A    between atoms: N_18  and  C_26
REMARK    8  A    between atoms: C_25  and  C_31
REMARK    9  A    between atoms: C_30  and  C_33
REMARK                            x       y       z     vdW  Elec       q    Type
REMARK                         _______ _______ _______ _____ _____    ______ ____
ROOT
ATOM      1  P   UNL     1      17.717  -6.338   0.000  0.00  0.00    +0.000 P 
ATOM      2  O   UNL     1      18.201  -7.006   0.000  0.00  0.00    +0.000 OA
ATOM      3  O   UNL     1      17.233  -5.670   0.000  0.00  0.00    +0.000 OA
ENDROOT
BRANCH   1   4
ATOM      4  O   UNL     1      18.385  -5.854   0.000  0.00  0.00    +0.000 OA
BRANCH   4   5
ATOM      5  P   UNL     1      19.138  -6.191   0.000  0.00  0.00    +0.000 P 
ATOM      6  O   UNL     1      19.475  -5.438   0.000  0.00  0.00    +0.000 OA
ATOM      7  O   UNL     1      18.802  -6.944   0.000  0.00  0.00    +0.000 OA
BRANCH   5   8
ATOM      8  O   UNL     1      19.892  -6.528   0.000  0.00  0.00    +0.000 OA
BRANCH   8  17
ATOM      9  O   UNL     1      20.475  -5.223   0.000  0.00  0.00    +0.000 OA
ATOM     10  O   UNL     1      22.734  -6.234   0.000  0.00  0.00    +0.000 OA
ATOM     11  O   UNL     1      22.565  -4.593   0.000  0.00  0.00    +0.000 OA
ATOM     12  O   UNL     1      21.398  -7.202   0.000  0.00  0.00    +0.000 OA
ATOM     13  C   UNL     1      21.981  -5.897   0.000  0.00  0.00    +0.000 C 
ATOM     14  C   UNL     1      21.896  -5.077   0.000  0.00  0.00    +0.000 C 
ATOM     15  C   UNL     1      21.313  -6.381   0.000  0.00  0.00    +0.000 C 
ATOM     16  C   UNL     1      21.143  -4.740   0.000  0.00  0.00    +0.000 C 
ATOM     17  C   UNL     1      20.560  -6.044   0.000  0.00  0.00    +0.000 C 
BRANCH  16  19
ATOM     18  O   UNL     1      21.727  -3.435   0.000  0.00  0.00    +0.000 OA
ATOM     19  C   UNL     1      21.058  -3.919   0.000  0.00  0.00    +0.000 C 
ENDBRANCH  16  19
ENDBRANCH   8  17
ENDBRANCH   5   8
ENDBRANCH   4   5
ENDBRANCH   1   4
BRANCH   1  20
ATOM     20  O   UNL     1      17.049  -6.822   0.000  0.00  0.00    +0.000 OA
BRANCH  20  21
ATOM     21  C   UNL     1      16.296  -6.485   0.000  0.00  0.00    +0.000 C 
BRANCH  21  27
ATOM     22  O   UNL     1      15.626  -7.794   0.000  0.00  0.00    +0.000 OA
ATOM     23  O   UNL     1      14.590  -5.927   0.000  0.00  0.00    +0.000 OA
ATOM     24  O   UNL     1      13.532  -7.378   0.000  0.00  0.00    +0.000 OA
ATOM     25  C   UNL     1      14.843  -6.712   0.000  0.00  0.00    +0.000 C 
ATOM     26  C   UNL     1      14.357  -7.379   0.000  0.00  0.00    +0.000 C 
ATOM     27  C   UNL     1      15.627  -6.969   0.000  0.00  0.00    +0.000 C 
ATOM     28  C   UNL     1      14.841  -8.047   0.000  0.00  0.00    +0.000 C 
BRANCH  28  29
ATOM     29  N   UNL     1      14.585  -8.831   0.000  0.00  0.00    +0.000 N 
ATOM     30  N   UNL     1      14.585 -10.159   0.000  0.00  0.00    +0.000 NA
ATOM     31  N   UNL     1      13.090  -8.670   0.000  0.00  0.00    +0.000 NA
ATOM     32  N   UNL     1      12.375  -9.908   0.000  0.00  0.00    +0.000 NA
ATOM     33  N   UNL     1      13.090 -11.145   0.000  0.00  0.00    +0.000 NA
ATOM     34  C   UNL     1      13.804  -9.083   0.000  0.00  0.00    +0.000 A 
ATOM     35  C   UNL     1      15.066  -9.495   0.000  0.00  0.00    +0.000 A 
ATOM     36  C   UNL     1      13.804  -9.908   0.000  0.00  0.00    +0.000 A 
ATOM     37  C   UNL     1      13.090 -10.320   0.000  0.00  0.00    +0.000 A 
ATOM     38  C   UNL     1      12.375  -9.083   0.000  0.00  0.00    +0.000 A 
ENDBRANCH  28  29
ENDBRANCH  21  27
ENDBRANCH  20  21
ENDBRANCH   1  20
TORSDOF 9
