REMARK  Name = 
REMARK  1 active torsions:
REMARK  status: ('A' for Active; 'I' for Inactive)
REMARK    1  A    between atoms: C_3  and  C_5
REMARK                            x       y       z     vdW  Elec       q    Type
REMARK                         _______ _______ _______ _____ _____    ______ ____
ROOT
ATOM      1  C   UNL     1       0.126   1.993   0.000  0.00  0.00    +0.000 C 
ATOM      2  C   UNL     1       1.758   1.175   0.000  0.00  0.00    +0.000 C 
ATOM      3  C   UNL     1       0.996   1.490   0.000  0.00  0.00    +0.000 C 
ATOM      4  C   UNL     1       0.234   1.175   0.000  0.00  0.00    +0.000 C 
ATOM      5  O   UNL     1       0.996   2.315   0.000  0.00  0.00    +0.000 OA
ATOM      6  O   UNL     1       2.576  -0.457   0.000  0.00  0.00    +0.000 OA
ATOM      7  O   UNL     1       1.866  -1.168   0.000  0.00  0.00    +0.000 OA
ATOM      8  O   UNL     1      -0.584  -0.457   0.000  0.00  0.00    +0.000 OA
ATOM      9  O   UNL     1       0.126  -1.168   0.000  0.00  0.00    +0.000 OA
ATOM     10  O   UNL     1       2.074   0.412   0.000  0.00  0.00    +0.000 OA
ATOM     11  O   UNL     1      -0.082   0.412   0.000  0.00  0.00    +0.000 OA
ATOM     12  O   UNL     1       0.996  -0.665   0.000  0.00  0.00    +0.000 OA
ATOM     13  P   UNL     1       1.758  -0.350   0.000  0.00  0.00    +0.000 P 
ATOM     14  P   UNL     1       0.234  -0.350   0.000  0.00  0.00    +0.000 P 
ENDROOT
BRANCH   4  15
ATOM     15  C   UNL     1      -0.584   1.282   0.000  0.00  0.00    +0.000 C 
ATOM     16  O   UNL     1      -0.900   2.045   0.000  0.00  0.00    +0.000 OA
ENDBRANCH   4  15
TORSDOF 1
