REMARK  Name = 
REMARK  0 active torsions:
REMARK  status: ('A' for Active; 'I' for Inactive)
REMARK                            x       y       z     vdW  Elec       q    Type
REMARK                         _______ _______ _______ _____ _____    ______ ____
ROOT
ATOM      1  C   UNL     1       6.847  -9.941   0.000  0.00  0.00    +0.000 A 
ATOM      2  C   UNL     1       7.672  -9.941   0.000  0.00  0.00    +0.000 A 
ATOM      3  N   UNL     1       7.927  -9.157   0.000  0.00  0.00    +0.000 NA
ATOM      4  O   UNL     1       7.260  -8.672   0.000  0.00  0.00    +0.000 OA
ATOM      5  C   UNL     1       6.593  -9.157   0.000  0.00  0.00    +0.000 A 
ATOM      6  O   UNL     1       8.085 -10.656   0.000  0.00  0.00    +0.000 OA
ATOM      7  C   UNL     1       5.786  -8.985   0.000  0.00  0.00    +0.000 C 
ATOM      8  N   UNL     1       5.234  -9.598   0.000  0.00  0.00    +0.000 NA
ATOM      9  C   UNL     1       5.489 -10.383   0.000  0.00  0.00    +0.000 C 
ATOM     10  C   UNL     1       6.295 -10.554   0.000  0.00  0.00    +0.000 C 
ENDROOT
TORSDOF 0
