REMARK  Name = 
REMARK  0 active torsions:
REMARK  status: ('A' for Active; 'I' for Inactive)
REMARK                            x       y       z     vdW  Elec       q    Type
REMARK                         _______ _______ _______ _____ _____    ______ ____
ROOT
ATOM      1  S   UNL     1       1.650   0.000   0.000  0.00  0.00    +0.000 S 
ATOM      2 SE   UNL     1       2.475   0.000   0.000  0.00  0.00    +0.000 Se
ATOM      3  S   UNL     1       3.300   0.000   0.000  0.00  0.00    +0.000 S 
ENDROOT
TORSDOF 0
