REMARK  Name = 
REMARK  24 active torsions:
REMARK  status: ('A' for Active; 'I' for Inactive)
REMARK    1  A    between atoms: S_1  and  C_2
REMARK    2  A    between atoms: S_1  and  C_49
REMARK    3  A    between atoms: C_2  and  C_3
REMARK    4  A    between atoms: C_3  and  N_4
REMARK    5  A    between atoms: C_5  and  C_6
REMARK    6  A    between atoms: C_6  and  C_7
REMARK    7  A    between atoms: C_7  and  N_8
REMARK    8  A    between atoms: C_9  and  C_10
REMARK    9  A    between atoms: C_10  and  C_11
REMARK   10  A    between atoms: C_11  and  C_12
REMARK   11  A    between atoms: C_12  and  O_13
REMARK   12  A    between atoms: O_13  and  P_19
REMARK   13  A    between atoms: P_19  and  O_48
REMARK   14  A    between atoms: C_23  and  O_29
REMARK   15  A    between atoms: C_24  and  C_27
REMARK   16  A    between atoms: C_26  and  N_36
REMARK   17  A    between atoms: C_27  and  O_44
REMARK   18  A    between atoms: O_29  and  P_30
REMARK   19  A    between atoms: O_44  and  P_45
REMARK   20  A    between atoms: P_45  and  O_48
REMARK   21  A    between atoms: C_49  and  C_50
REMARK   22  A    between atoms: C_50  and  C_51
REMARK   23  A    between atoms: C_51  and  C_52
REMARK   24  A    between atoms: C_52  and  C_53
REMARK                            x       y       z     vdW  Elec       q    Type
REMARK                         _______ _______ _______ _____ _____    ______ ____
ROOT
ATOM      1  P   UNL     1      17.399 -12.127   0.000  0.00  0.00    +0.000 P 
ATOM      2  O   UNL     1      18.224 -12.127   0.000  0.00  0.00    +0.000 OA
ATOM      3  O   UNL     1      17.399 -12.953   0.000  0.00  0.00    +0.000 OA
ENDROOT
BRANCH   1   4
ATOM      4  O   UNL     1      16.575 -12.127   0.000  0.00  0.00    +0.000 OA
BRANCH   4   5
ATOM      5  C   UNL     1      15.860 -11.715   0.000  0.00  0.00    +0.000 C 
BRANCH   5   6
ATOM      6  C   UNL     1      15.146 -12.127   0.000  0.00  0.00    +0.000 C 
ATOM      7  C   UNL     1      15.146 -11.303   0.000  0.00  0.00    +0.000 C 
ATOM      8  C   UNL     1      15.146 -12.953   0.000  0.00  0.00    +0.000 C 
BRANCH   6   9
ATOM      9  C   UNL     1      14.431 -11.715   0.000  0.00  0.00    +0.000 C 
ATOM     10  O   UNL     1      14.431 -10.890   0.000  0.00  0.00    +0.000 OA
BRANCH   9  12
ATOM     11  N   UNL     1      13.002 -11.715   0.000  0.00  0.00    +0.000 NA
ATOM     12  C   UNL     1      13.717 -12.127   0.000  0.00  0.00    +0.000 C 
ATOM     13  O   UNL     1      13.717 -12.952   0.000  0.00  0.00    +0.000 OA
BRANCH  11  14
ATOM     14  C   UNL     1      12.288 -12.127   0.000  0.00  0.00    +0.000 C 
BRANCH  14  15
ATOM     15  C   UNL     1      11.573 -11.715   0.000  0.00  0.00    +0.000 C 
BRANCH  15  17
ATOM     16  N   UNL     1      10.144 -11.715   0.000  0.00  0.00    +0.000 NA
ATOM     17  C   UNL     1      10.859 -12.127   0.000  0.00  0.00    +0.000 C 
ATOM     18  O   UNL     1      10.859 -12.952   0.000  0.00  0.00    +0.000 OA
BRANCH  16  19
ATOM     19  C   UNL     1       9.430 -12.127   0.000  0.00  0.00    +0.000 C 
BRANCH  19  20
ATOM     20  C   UNL     1       8.715 -11.715   0.000  0.00  0.00    +0.000 C 
BRANCH  20  21
ATOM     21  S   UNL     1       8.001 -12.127   0.000  0.00  0.00    +0.000 S 
BRANCH  21  22
ATOM     22  C   UNL     1       7.288 -11.715   0.000  0.00  0.00    +0.000 C 
ATOM     23  O   UNL     1       7.288 -10.890   0.000  0.00  0.00    +0.000 OA
BRANCH  22  24
ATOM     24  C   UNL     1       6.574 -12.127   0.000  0.00  0.00    +0.000 C 
BRANCH  24  25
ATOM     25  C   UNL     1       5.859 -11.715   0.000  0.00  0.00    +0.000 C 
BRANCH  25  26
ATOM     26  C   UNL     1       5.145 -12.127   0.000  0.00  0.00    +0.000 C 
BRANCH  26  27
ATOM     27  C   UNL     1       4.430 -11.715   0.000  0.00  0.00    +0.000 C 
ATOM     28  C   UNL     1       3.716 -12.127   0.000  0.00  0.00    +0.000 C 
ENDBRANCH  26  27
ENDBRANCH  25  26
ENDBRANCH  24  25
ENDBRANCH  22  24
ENDBRANCH  21  22
ENDBRANCH  20  21
ENDBRANCH  19  20
ENDBRANCH  16  19
ENDBRANCH  15  17
ENDBRANCH  14  15
ENDBRANCH  11  14
ENDBRANCH   9  12
ENDBRANCH   6   9
ENDBRANCH   5   6
ENDBRANCH   4   5
ENDBRANCH   1   4
BRANCH   1  29
ATOM     29  O   UNL     1      17.422 -10.314   0.000  0.00  0.00    +0.000 OA
BRANCH  29  30
ATOM     30  P   UNL     1      17.422  -8.416   0.000  0.00  0.00    +0.000 P 
ATOM     31  O   UNL     1      17.422  -7.591   0.000  0.00  0.00    +0.000 OA
ATOM     32  O   UNL     1      18.247  -8.416   0.000  0.00  0.00    +0.000 OA
BRANCH  30  33
ATOM     33  O   UNL     1      16.597  -8.416   0.000  0.00  0.00    +0.000 OA
BRANCH  33  34
ATOM     34  C   UNL     1      15.429  -8.161   0.000  0.00  0.00    +0.000 C 
BRANCH  34  37
ATOM     35  C   UNL     1      13.571  -9.199   0.000  0.00  0.00    +0.000 C 
ATOM     36  C   UNL     1      14.396  -9.199   0.000  0.00  0.00    +0.000 C 
ATOM     37  C   UNL     1      14.651  -8.414   0.000  0.00  0.00    +0.000 C 
ATOM     38  O   UNL     1      13.984  -7.929   0.000  0.00  0.00    +0.000 OA
ATOM     39  C   UNL     1      13.316  -8.414   0.000  0.00  0.00    +0.000 C 
ATOM     40  O   UNL     1      13.086  -9.866   0.000  0.00  0.00    +0.000 OA
BRANCH  39  43
ATOM     41  C   UNL     1      10.890  -7.343   0.000  0.00  0.00    +0.000 A 
ATOM     42  C   UNL     1      10.890  -8.168   0.000  0.00  0.00    +0.000 A 
ATOM     43  N   UNL     1      12.319  -8.168   0.000  0.00  0.00    +0.000 N 
ATOM     44  C   UNL     1      12.319  -7.343   0.000  0.00  0.00    +0.000 A 
ATOM     45  N   UNL     1      11.604  -6.930   0.000  0.00  0.00    +0.000 NA
ATOM     46  C   UNL     1      10.176  -6.930   0.000  0.00  0.00    +0.000 A 
ATOM     47  N   UNL     1       9.461  -7.343   0.000  0.00  0.00    +0.000 NA
ATOM     48  C   UNL     1       9.461  -8.168   0.000  0.00  0.00    +0.000 A 
ATOM     49  N   UNL     1      10.176  -8.580   0.000  0.00  0.00    +0.000 NA
ATOM     50  N   UNL     1      10.176  -6.105   0.000  0.00  0.00    +0.000 NA
ENDBRANCH  39  43
BRANCH  36  51
ATOM     51  O   UNL     1      14.881  -9.866   0.000  0.00  0.00    +0.000 OA
BRANCH  51  52
ATOM     52  P   UNL     1      15.706  -9.866   0.000  0.00  0.00    +0.000 P 
ATOM     53  O   UNL     1      15.706  -9.041   0.000  0.00  0.00    +0.000 OA
ATOM     54  O   UNL     1      16.531  -9.866   0.000  0.00  0.00    +0.000 OA
ATOM     55  O   UNL     1      15.706 -10.691   0.000  0.00  0.00    +0.000 OA
ENDBRANCH  51  52
ENDBRANCH  36  51
ENDBRANCH  34  37
ENDBRANCH  33  34
ENDBRANCH  30  33
ENDBRANCH  29  30
ENDBRANCH   1  29
TORSDOF 24
