REMARK  Name = 
REMARK  12 active torsions:
REMARK  status: ('A' for Active; 'I' for Inactive)
REMARK    1  A    between atoms: O_2  and  C_3
REMARK    2  A    between atoms: C_5  and  C_6
REMARK    3  A    between atoms: C_6  and  C_7
REMARK    4  A    between atoms: C_16  and  O_17
REMARK    5  A    between atoms: O_17  and  C_18
REMARK    6  A    between atoms: C_18  and  C_19
REMARK    7  A    between atoms: C_19  and  C_20
REMARK    8  A    between atoms: C_20  and  C_21
REMARK    9  A    between atoms: C_21  and  C_22
REMARK   10  A    between atoms: C_21  and  C_27
REMARK   11  A    between atoms: C_22  and  C_23
REMARK   12  A    between atoms: C_23  and  C_24
REMARK                            x       y       z     vdW  Elec       q    Type
REMARK                         _______ _______ _______ _____ _____    ______ ____
ROOT
ATOM      1  C   UNL     1      -3.572  -5.362   0.000  0.00  0.00    +0.000 A 
ATOM      2  C   UNL     1      -4.287  -4.950   0.000  0.00  0.00    +0.000 A 
ATOM      3  C   UNL     1      -4.287  -4.125   0.000  0.00  0.00    +0.000 A 
ATOM      4  C   UNL     1      -3.572  -3.712   0.000  0.00  0.00    +0.000 A 
ATOM      5  C   UNL     1      -2.858  -4.125   0.000  0.00  0.00    +0.000 A 
ATOM      6  C   UNL     1      -2.858  -4.950   0.000  0.00  0.00    +0.000 A 
ATOM      7 BR   UNL     1      -2.143  -5.362   0.000  0.00  0.00    +0.000 Br
ENDROOT
BRANCH   1   9
ATOM      8  C   UNL     1      -2.858  -6.600   0.000  0.00  0.00    +0.000 C 
ATOM      9  O   UNL     1      -3.572  -6.188   0.000  0.00  0.00    +0.000 OA
ENDBRANCH   1   9
BRANCH   5  10
ATOM     10  O   UNL     1      -2.143  -3.712   0.000  0.00  0.00    +0.000 OA
BRANCH  10  11
ATOM     11  C   UNL     1      -1.429  -4.125   0.000  0.00  0.00    +0.000 C 
BRANCH  11  12
ATOM     12  C   UNL     1      -0.715  -3.712   0.000  0.00  0.00    +0.000 C 
BRANCH  12  13
ATOM     13  C   UNL     1       0.000  -4.125   0.000  0.00  0.00    +0.000 C 
BRANCH  13  14
ATOM     14  C   UNL     1       0.715  -3.712   0.000  0.00  0.00    +0.000 C 
BRANCH  14  15
ATOM     15  C   UNL     1       0.715  -2.888   0.000  0.00  0.00    +0.000 C 
ATOM     16  O   UNL     1       1.429  -2.475   0.000  0.00  0.00    +0.000 OA
ATOM     17  O   UNL     1       0.000  -2.475   0.000  0.00  0.00    +0.000 OA
ENDBRANCH  14  15
BRANCH  14  18
ATOM     18  C   UNL     1       1.429  -4.125   0.000  0.00  0.00    +0.000 C 
BRANCH  18  19
ATOM     19  C   UNL     1       2.143  -3.712   0.000  0.00  0.00    +0.000 C 
BRANCH  19  20
ATOM     20  C   UNL     1       2.858  -4.125   0.000  0.00  0.00    +0.000 C 
ATOM     21  O   UNL     1       3.572  -3.712   0.000  0.00  0.00    +0.000 OA
ATOM     22  O   UNL     1       2.858  -4.950   0.000  0.00  0.00    +0.000 OA
ENDBRANCH  19  20
ENDBRANCH  18  19
ENDBRANCH  14  18
ENDBRANCH  13  14
ENDBRANCH  12  13
ENDBRANCH  11  12
ENDBRANCH  10  11
ENDBRANCH   5  10
BRANCH   3  23
ATOM     23  C   UNL     1      -5.001  -3.712   0.000  0.00  0.00    +0.000 C 
BRANCH  23  24
ATOM     24  C   UNL     1      -5.716  -4.125   0.000  0.00  0.00    +0.000 A 
ATOM     25  C   UNL     1      -5.716  -4.950   0.000  0.00  0.00    +0.000 A 
ATOM     26  N   UNL     1      -6.430  -5.362   0.000  0.00  0.00    +0.000 NA
ATOM     27  C   UNL     1      -7.145  -4.950   0.000  0.00  0.00    +0.000 A 
ATOM     28  N   UNL     1      -7.859  -5.362   0.000  0.00  0.00    +0.000 NA
ATOM     29  N   UNL     1      -7.145  -4.125   0.000  0.00  0.00    +0.000 NA
ATOM     30  C   UNL     1      -6.430  -3.712   0.000  0.00  0.00    +0.000 A 
ATOM     31  N   UNL     1      -6.430  -2.888   0.000  0.00  0.00    +0.000 NA
ENDBRANCH  23  24
ENDBRANCH   3  23
TORSDOF 12
