REMARK  Name = 
REMARK  0 active torsions:
REMARK  status: ('A' for Active; 'I' for Inactive)
REMARK                            x       y       z     vdW  Elec       q    Type
REMARK                         _______ _______ _______ _____ _____    ______ ____
ROOT
ATOM      1  O   UNL     1       2.728  -0.090   0.000  0.00  0.00    +0.000 OA
ATOM      2  V   UNL     1       2.074   0.412   0.000  0.00  0.00    +0.000 V 
ATOM      3  O   UNL     1       2.728   0.915   0.000  0.00  0.00    +0.000 OA
ATOM      4  O   UNL     1       1.758  -0.350   0.000  0.00  0.00    +0.000 OA
ATOM      5  V   UNL     1       0.996  -0.665   0.000  0.00  0.00    +0.000 V 
ATOM      6  O   UNL     1       1.498  -1.320   0.000  0.00  0.00    +0.000 OA
ATOM      7  O   UNL     1       0.494  -1.320   0.000  0.00  0.00    +0.000 OA
ATOM      8  O   UNL     1       0.234  -0.350   0.000  0.00  0.00    +0.000 OA
ATOM      9  V   UNL     1      -0.082   0.412   0.000  0.00  0.00    +0.000 V 
ATOM     10  O   UNL     1      -0.737  -0.090   0.000  0.00  0.00    +0.000 OA
ATOM     11  O   UNL     1      -0.737   0.915   0.000  0.00  0.00    +0.000 OA
ATOM     12  O   UNL     1       0.234   1.175   0.000  0.00  0.00    +0.000 OA
ATOM     13  V   UNL     1       0.996   1.490   0.000  0.00  0.00    +0.000 V 
ATOM     14  O   UNL     1       0.494   2.145   0.000  0.00  0.00    +0.000 OA
ATOM     15  O   UNL     1       1.498   2.145   0.000  0.00  0.00    +0.000 OA
ATOM     16  O   UNL     1       1.758   1.175   0.000  0.00  0.00    +0.000 OA
ENDROOT
TORSDOF 0
