REMARK  Name = 
REMARK  4 active torsions:
REMARK  status: ('A' for Active; 'I' for Inactive)
REMARK    1  A    between atoms: C_6  and  C_10
REMARK    2  A    between atoms: C_8  and  C_12
REMARK    3  A    between atoms: C_9  and  N_17
REMARK    4  A    between atoms: C_10  and  C_11
REMARK                            x       y       z     vdW  Elec       q    Type
REMARK                         _______ _______ _______ _____ _____    ______ ____
ROOT
ATOM      1  C   UNL     1       1.429   0.000   0.000  0.00  0.00    +0.000 A 
ATOM      2  C   UNL     1       0.000   0.000   0.000  0.00  0.00    +0.000 A 
ATOM      3  C   UNL     1       1.429   0.825   0.000  0.00  0.00    +0.000 A 
ATOM      4  C   UNL     1       0.000   0.825   0.000  0.00  0.00    +0.000 A 
ATOM      5  C   UNL     1       0.715  -0.412   0.000  0.00  0.00    +0.000 A 
ATOM      6  C   UNL     1       0.715   1.238   0.000  0.00  0.00    +0.000 A 
ENDROOT
BRANCH   5   7
ATOM      7  C   UNL     1       0.715  -1.238   0.000  0.00  0.00    +0.000 C 
ATOM      8  F   UNL     1       0.715  -2.062   0.000  0.00  0.00    +0.000 F 
ATOM      9  F   UNL     1      -0.111  -1.238   0.000  0.00  0.00    +0.000 F 
ATOM     10  F   UNL     1       1.540  -1.238   0.000  0.00  0.00    +0.000 F 
ENDBRANCH   5   7
BRANCH   6  12
ATOM     11  C   UNL     1       0.000   2.475   0.000  0.00  0.00    +0.000 C 
ATOM     12  N   UNL     1       0.715   2.062   0.000  0.00  0.00    +0.000 NA
ATOM     13  O   UNL     1      -0.715   2.062   0.000  0.00  0.00    +0.000 OA
BRANCH  11  16
ATOM     14  C   UNL     1       0.715   4.537   0.000  0.00  0.00    +0.000 C 
ATOM     15  C   UNL     1       0.715   3.712   0.000  0.00  0.00    +0.000 C 
ATOM     16  C   UNL     1       0.000   3.300   0.000  0.00  0.00    +0.000 C 
ATOM     17  O   UNL     1       1.429   3.300   0.000  0.00  0.00    +0.000 OA
BRANCH  16  18
ATOM     18  C   UNL     1      -0.715   3.712   0.000  0.00  0.00    +0.000 C 
ATOM     19  N   UNL     1      -1.429   4.125   0.000  0.00  0.00    +0.000 NA
ENDBRANCH  16  18
ENDBRANCH  11  16
ENDBRANCH   6  12
TORSDOF 4
