REMARK  Name = 
REMARK  14 active torsions:
REMARK  status: ('A' for Active; 'I' for Inactive)
REMARK    1  A    between atoms: C_7  and  C_13
REMARK    2  A    between atoms: C_13  and  C_32
REMARK    3  A    between atoms: C_14  and  C_15
REMARK    4  A    between atoms: C_15  and  C_17
REMARK    5  A    between atoms: C_17  and  C_18
REMARK    6  A    between atoms: C_18  and  C_19
REMARK    7  A    between atoms: C_19  and  C_20
REMARK    8  A    between atoms: C_20  and  C_22
REMARK    9  A    between atoms: C_22  and  C_23
REMARK   10  A    between atoms: C_23  and  C_24
REMARK   11  A    between atoms: C_24  and  C_25
REMARK   12  A    between atoms: C_25  and  C_27
REMARK   13  A    between atoms: C_27  and  C_28
REMARK   14  A    between atoms: C_28  and  C_29
REMARK                            x       y       z     vdW  Elec       q    Type
REMARK                         _______ _______ _______ _____ _____    ______ ____
ROOT
ATOM      1  C   UNL     1       3.572   0.825   0.000  0.00  0.00    +0.000 C 
ATOM      2  C   UNL     1       3.572   1.650   0.000  0.00  0.00    +0.000 C 
ATOM      3  C   UNL     1       2.858   0.412   0.000  0.00  0.00    +0.000 C 
ENDROOT
BRANCH   3   4
ATOM      4  C   UNL     1       2.143   0.825   0.000  0.00  0.00    +0.000 C 
BRANCH   4  11
ATOM      5  C   UNL     1       0.000  -0.412   0.000  0.00  0.00    +0.000 A 
ATOM      6  C   UNL     1       0.715  -0.825   0.000  0.00  0.00    +0.000 C 
ATOM      7  C   UNL     1       0.000   0.412   0.000  0.00  0.00    +0.000 A 
ATOM      8  C   UNL     1       0.715   0.825   0.000  0.00  0.00    +0.000 C 
ATOM      9  C   UNL     1      -0.715   0.825   0.000  0.00  0.00    +0.000 A 
ATOM     10  C   UNL     1      -0.715  -0.825   0.000  0.00  0.00    +0.000 A 
ATOM     11  C   UNL     1       1.429   0.412   0.000  0.00  0.00    +0.000 C 
ATOM     12  C   UNL     1      -1.429   0.412   0.000  0.00  0.00    +0.000 A 
ATOM     13  C   UNL     1       1.429  -0.412   0.000  0.00  0.00    +0.000 C 
ATOM     14  C   UNL     1      -1.429  -0.412   0.000  0.00  0.00    +0.000 A 
ATOM     15  O   UNL     1       0.715   1.650   0.000  0.00  0.00    +0.000 OA
ATOM     16  O   UNL     1       0.715  -1.650   0.000  0.00  0.00    +0.000 OA
ATOM     17  C   UNL     1       2.143  -0.825   0.000  0.00  0.00    +0.000 C 
ENDBRANCH   4  11
ENDBRANCH   3   4
BRANCH   1  18
ATOM     18  C   UNL     1       4.287   0.412   0.000  0.00  0.00    +0.000 C 
BRANCH  18  19
ATOM     19  C   UNL     1       5.001   0.825   0.000  0.00  0.00    +0.000 C 
BRANCH  19  20
ATOM     20  C   UNL     1       5.716   0.412   0.000  0.00  0.00    +0.000 C 
BRANCH  20  21
ATOM     21  C   UNL     1       6.430   0.825   0.000  0.00  0.00    +0.000 C 
ATOM     22  C   UNL     1       6.430   1.650   0.000  0.00  0.00    +0.000 C 
BRANCH  21  23
ATOM     23  C   UNL     1       7.145   0.412   0.000  0.00  0.00    +0.000 C 
BRANCH  23  24
ATOM     24  C   UNL     1       7.859   0.825   0.000  0.00  0.00    +0.000 C 
BRANCH  24  25
ATOM     25  C   UNL     1       8.574   0.412   0.000  0.00  0.00    +0.000 C 
BRANCH  25  26
ATOM     26  C   UNL     1       9.288   0.825   0.000  0.00  0.00    +0.000 C 
ATOM     27  C   UNL     1       9.288   1.650   0.000  0.00  0.00    +0.000 C 
BRANCH  26  28
ATOM     28  C   UNL     1      10.003   0.412   0.000  0.00  0.00    +0.000 C 
BRANCH  28  29
ATOM     29  C   UNL     1      10.717   0.825   0.000  0.00  0.00    +0.000 C 
BRANCH  29  30
ATOM     30  C   UNL     1      11.431   0.412   0.000  0.00  0.00    +0.000 C 
BRANCH  30  31
ATOM     31  C   UNL     1      12.146   0.825   0.000  0.00  0.00    +0.000 C 
ATOM     32  C   UNL     1      12.146   1.650   0.000  0.00  0.00    +0.000 C 
ATOM     33  C   UNL     1      12.861   0.412   0.000  0.00  0.00    +0.000 C 
ENDBRANCH  30  31
ENDBRANCH  29  30
ENDBRANCH  28  29
ENDBRANCH  26  28
ENDBRANCH  25  26
ENDBRANCH  24  25
ENDBRANCH  23  24
ENDBRANCH  21  23
ENDBRANCH  20  21
ENDBRANCH  19  20
ENDBRANCH  18  19
ENDBRANCH   1  18
TORSDOF 14
