REMARK  Name = 
REMARK  7 active torsions:
REMARK  status: ('A' for Active; 'I' for Inactive)
REMARK    1  A    between atoms: CA_1  and  N_2
REMARK    2  A    between atoms: CA_1  and  C_3
REMARK    3  A    between atoms: CA_1  and  CB_4
REMARK    4  A    between atoms: CD_5  and  CG_9
REMARK    5  A    between atoms: CG_9  and  CB_11
REMARK    6  A    between atoms: CB_11  and  CA_12
REMARK    7  A    between atoms: CA_12  and  C_13
REMARK                            x       y       z     vdW  Elec       q    Type
REMARK                         _______ _______ _______ _____ _____    ______ ____
ROOT
ATOM      1  N   GLN A   1      22.158 -16.862   0.000  0.00  0.00    +0.000 NA
ATOM      2  CD  GLN A   1      22.872 -17.275   0.000  0.00  0.00    +0.000 C 
ATOM      3  OE1 GLN A   1      22.872 -18.100   0.000  0.00  0.00    +0.000 OA
ENDROOT
BRANCH   1   4
ATOM      4  CA  GLN A   1      21.443 -17.275   0.000  0.00  0.00    +0.000 C 
BRANCH   4   5
ATOM      5  C   GLN A   1      20.729 -16.862   0.000  0.00  0.00    +0.000 C 
ATOM      6  O   GLN A   1      20.014 -17.275   0.000  0.00  0.00    +0.000 OA
ATOM      7  OXT GLN A   1      20.729 -16.037   0.000  0.00  0.00    +0.000 OA
ENDBRANCH   4   5
BRANCH   4   8
ATOM      8  CB  GLN A   1      21.443 -18.100   0.000  0.00  0.00    +0.000 C 
ATOM      9  SG  GLN A   1      20.729 -18.512   0.000  0.00  0.00    +0.000 S 
ENDBRANCH   4   8
ENDBRANCH   1   4
BRANCH   2  10
ATOM     10  CG  GLN A   1      23.587 -16.862   0.000  0.00  0.00    +0.000 C 
BRANCH  10  11
ATOM     11  CB  GLN A   1      24.301 -17.275   0.000  0.00  0.00    +0.000 C 
BRANCH  11  12
ATOM     12  CA  GLN A   1      25.016 -16.862   0.000  0.00  0.00    +0.000 C 
ATOM     13  N   GLN A   1      25.016 -16.037   0.000  0.00  0.00    +0.000 NA
BRANCH  12  14
ATOM     14  C   GLN A   1      25.730 -17.275   0.000  0.00  0.00    +0.000 C 
ATOM     15  O   GLN A   1      26.445 -16.862   0.000  0.00  0.00    +0.000 OA
ATOM     16  OXT GLN A   1      25.730 -18.100   0.000  0.00  0.00    +0.000 OA
ENDBRANCH  12  14
ENDBRANCH  11  12
ENDBRANCH  10  11
ENDBRANCH   2  10
TORSDOF 7
