REMARK  Name = 
REMARK  13 active torsions:
REMARK  status: ('A' for Active; 'I' for Inactive)
REMARK    1  A    between atoms: CD_1  and  CG_2
REMARK    2  A    between atoms: CG_2  and  CB_3
REMARK    3  A    between atoms: CB_3  and  CA_4
REMARK    4  A    between atoms: CA_21  and  CB_22
REMARK    5  A    between atoms: CB_22  and  CG_26
REMARK    6  A    between atoms: CA_36  and  CB_78
REMARK    7  A    between atoms: CA_65  and  CB_70
REMARK    8  A    between atoms: CB_78  and  CG_79
REMARK    9  A    between atoms: CA_83  and  C_85
REMARK   10  A    between atoms: N_86  and  CA_87
REMARK   11  A    between atoms: CA_87  and  CB_88
REMARK   12  A    between atoms: CA_87  and  C_90
REMARK   13  A    between atoms: CB_88  and  CG_93
REMARK                            x       y       z     vdW  Elec       q    Type
REMARK                         _______ _______ _______ _____ _____    ______ ____
ROOT
ATOM      1  CA  GLU A   3       5.208  -8.125   0.000  0.00  0.00    +0.000 C 
ATOM      2  N   GLU A   3       5.917  -7.708   0.000  0.00  0.00    +0.000 NA
ATOM      3  C   CYS A   2       6.667  -8.125   0.000  0.00  0.00    +0.000 C 
ATOM      4  CA  CYS A   2       7.375  -7.708   0.000  0.00  0.00    +0.000 C 
ATOM      5  N   CYS A   2       8.083  -8.125   0.000  0.00  0.00    +0.000 NA
ATOM      6  C   CYS A   1       8.833  -7.708   0.000  0.00  0.00    +0.000 C 
ATOM      7  CA  CYS A   1       9.542  -8.125   0.000  0.00  0.00    +0.000 C 
ATOM      8  CB  CYS A   1      10.250  -7.708   0.000  0.00  0.00    +0.000 C 
ATOM      9  SG  CYS A   1      11.000  -8.125   0.000  0.00  0.00    +0.000 S 
ATOM     10  SG  CYS A   6      11.000  -8.958   0.000  0.00  0.00    +0.000 S 
ATOM     11  CB  CYS A   6      10.291  -9.375   0.000  0.00  0.00    +0.000 C 
ATOM     12  CA  CYS A   6      10.291 -10.208   0.000  0.00  0.00    +0.000 C 
ATOM     13  N   CYS A   6       9.583 -10.625   0.000  0.00  0.00    +0.000 NA
ATOM     14  C   CYS A   5       8.833 -10.208   0.000  0.00  0.00    +0.000 C 
ATOM     15  CA  CYS A   5       8.125 -10.625   0.000  0.00  0.00    +0.000 C 
ATOM     16  N   CYS A   5       7.417 -10.208   0.000  0.00  0.00    +0.000 NA
ATOM     17  C   TYR A   4       6.667 -10.625   0.000  0.00  0.00    +0.000 C 
ATOM     18  CA  TYR A   4       5.958 -10.208   0.000  0.00  0.00    +0.000 C 
ATOM     19  O   CYS A   5       8.833  -9.375   0.000  0.00  0.00    +0.000 OA
ATOM     20  CB  CYS A   5       8.125 -13.041   0.000  0.00  0.00    +0.000 C 
ATOM     21  O   TYR A   4       6.667 -11.458   0.000  0.00  0.00    +0.000 OA
ATOM     22  N   TYR A   4       5.958  -9.375   0.000  0.00  0.00    +0.000 NA
ATOM     23  C   GLU A   3       5.208  -8.958   0.000  0.00  0.00    +0.000 C 
ATOM     24  O   CYS A   2       6.667  -8.833   0.000  0.00  0.00    +0.000 OA
ATOM     25  CB  CYS A   2       7.375  -6.875   0.000  0.00  0.00    +0.000 C 
ATOM     26  O   CYS A   1       8.833  -6.875   0.000  0.00  0.00    +0.000 OA
ATOM     27  N   CYS A   1       9.542  -8.833   0.000  0.00  0.00    +0.000 NA
ATOM     28  SG  CYS A   2       8.083  -6.458   0.000  0.00  0.00    +0.000 S 
ATOM     29  C   CYS A   6      11.000 -10.625   0.000  0.00  0.00    +0.000 C 
ATOM     30  N   ASN A   7      11.750 -10.208   0.000  0.00  0.00    +0.000 NA
ATOM     31  CA  ASN A   7      12.458 -10.625   0.000  0.00  0.00    +0.000 C 
ATOM     32  C   ASN A   7      13.166 -10.208   0.000  0.00  0.00    +0.000 C 
ATOM     33  N   PRO A   8      13.916 -10.625   0.000  0.00  0.00    +0.000 N 
ATOM     34  O   CYS A   6      11.000 -11.458   0.000  0.00  0.00    +0.000 OA
ATOM     35  O   GLU A   3       4.542  -9.375   0.000  0.00  0.00    +0.000 OA
ATOM     36  O   ASN A   7      13.166  -9.375   0.000  0.00  0.00    +0.000 OA
ATOM     37  CD  PRO A   8      13.916 -11.458   0.000  0.00  0.00    +0.000 C 
ATOM     38  CG  PRO A   8      14.708 -11.708   0.000  0.00  0.00    +0.000 C 
ATOM     39  CB  PRO A   8      15.166 -11.041   0.000  0.00  0.00    +0.000 C 
ATOM     40  CA  PRO A   8      14.708 -10.375   0.000  0.00  0.00    +0.000 C 
ATOM     41  C   PRO A   8      14.958  -9.583   0.000  0.00  0.00    +0.000 C 
ATOM     42  O   PRO A   8      15.791  -9.416   0.000  0.00  0.00    +0.000 OA
ATOM     43  N   ALA A   9      14.416  -8.958   0.000  0.00  0.00    +0.000 NA
ATOM     44  CA  ALA A   9      14.416  -8.125   0.000  0.00  0.00    +0.000 C 
ATOM     45  C   ALA A   9      15.125  -7.708   0.000  0.00  0.00    +0.000 C 
ATOM     46  CB  ALA A   9      13.708  -7.708   0.000  0.00  0.00    +0.000 C 
ATOM     47  O   ALA A   9      15.833  -8.125   0.000  0.00  0.00    +0.000 OA
ATOM     48  N   CYS A  10      15.125  -6.875   0.000  0.00  0.00    +0.000 NA
ATOM     49  CA  CYS A  10      14.416  -6.458   0.000  0.00  0.00    +0.000 C 
ATOM     50  CB  CYS A  10      13.708  -6.875   0.000  0.00  0.00    +0.000 C 
ATOM     51  C   CYS A  10      14.416  -5.625   0.000  0.00  0.00    +0.000 C 
ATOM     52  SG  CYS A  10      13.041  -6.458   0.000  0.00  0.00    +0.000 S 
ATOM     53  N   THR A  11      15.125  -5.208   0.000  0.00  0.00    +0.000 NA
ATOM     54  CA  THR A  11      15.833  -5.625   0.000  0.00  0.00    +0.000 C 
ATOM     55  O   CYS A  10      13.708  -5.208   0.000  0.00  0.00    +0.000 OA
ATOM     56  C   THR A  11      15.833  -6.458   0.000  0.00  0.00    +0.000 C 
ATOM     57  N   GLY A  12      16.583  -6.875   0.000  0.00  0.00    +0.000 NA
ATOM     58  CA  GLY A  12      16.583  -7.708   0.000  0.00  0.00    +0.000 C 
ATOM     59  SG  CYS A   5       8.833 -13.458   0.000  0.00  0.00    +0.000 S 
ATOM     60  SG  CYS A  13      14.916 -13.458   0.000  0.00  0.00    +0.000 S 
ATOM     61  C   GLY A  12      17.291  -8.125   0.000  0.00  0.00    +0.000 C 
ATOM     62  N   CYS A  13      17.291 -11.833   0.000  0.00  0.00    +0.000 NA
ATOM     63  O   THR A  11      16.583  -6.042   0.000  0.00  0.00    +0.000 OA
ATOM     64  O   GLY A  12      18.000  -7.708   0.000  0.00  0.00    +0.000 OA
ATOM     65  CA  CYS A  13      16.416 -12.500   0.000  0.00  0.00    +0.000 C 
ATOM     66  CB  CYS A  13      15.583 -12.500   0.000  0.00  0.00    +0.000 C 
ENDROOT
BRANCH  65  67
ATOM     67  C   CYS A  13      16.833 -13.208   0.000  0.00  0.00    +0.000 C 
ATOM     68  N   TYR A  14      17.666 -13.208   0.000  0.00  0.00    +0.000 NA
ATOM     69  O   CYS A  13      16.416 -13.916   0.000  0.00  0.00    +0.000 OA
BRANCH  68  70
ATOM     70  CA  TYR A  14      18.375 -13.666   0.000  0.00  0.00    +0.000 C 
BRANCH  70  71
ATOM     71  C   TYR A  14      18.375 -14.500   0.000  0.00  0.00    +0.000 C 
ATOM     72  O   TYR A  14      17.666 -14.916   0.000  0.00  0.00    +0.000 OA
ATOM     73  OXT TYR A  14      19.083 -14.916   0.000  0.00  0.00    +0.000 OA
ENDBRANCH  70  71
BRANCH  70  74
ATOM     74  CB  TYR A  14      19.125 -13.250   0.000  0.00  0.00    +0.000 C 
BRANCH  74  75
ATOM     75  CG  TYR A  14      19.125 -12.416   0.000  0.00  0.00    +0.000 A 
ATOM     76  CD1 TYR A  14      19.833 -12.000   0.000  0.00  0.00    +0.000 A 
ATOM     77  CE1 TYR A  14      19.833 -11.166   0.000  0.00  0.00    +0.000 A 
ATOM     78  CZ  TYR A  14      19.125 -10.750   0.000  0.00  0.00    +0.000 A 
ATOM     79  CE2 TYR A  14      18.375 -11.166   0.000  0.00  0.00    +0.000 A 
ATOM     80  CD2 TYR A  14      18.375 -12.000   0.000  0.00  0.00    +0.000 A 
ATOM     81  OH  TYR A  14      19.125  -9.917   0.000  0.00  0.00    +0.000 OA
ENDBRANCH  74  75
ENDBRANCH  70  74
ENDBRANCH  68  70
ENDBRANCH  65  67
BRANCH  54  82
ATOM     82  CB  THR A  11      16.541  -5.208   0.000  0.00  0.00    +0.000 C 
ATOM     83  OG1 THR A  11      17.250  -5.625   0.000  0.00  0.00    +0.000 OA
ATOM     84  CG2 THR A  11      16.541  -4.375   0.000  0.00  0.00    +0.000 C 
ENDBRANCH  54  82
BRANCH   1  85
ATOM     85  CB  GLU A   3       4.500  -7.708   0.000  0.00  0.00    +0.000 C 
BRANCH  85  86
ATOM     86  CG  GLU A   3       3.750  -8.125   0.000  0.00  0.00    +0.000 C 
BRANCH  86  87
ATOM     87  CD  GLU A   3       3.042  -7.708   0.000  0.00  0.00    +0.000 C 
ATOM     88  OE1 GLU A   3       2.333  -8.125   0.000  0.00  0.00    +0.000 OA
ATOM     89  OE2 GLU A   3       3.042  -6.875   0.000  0.00  0.00    +0.000 OA
ENDBRANCH  86  87
ENDBRANCH  85  86
ENDBRANCH   1  85
BRANCH  18  90
ATOM     90  CB  TYR A   4       5.250 -10.625   0.000  0.00  0.00    +0.000 C 
BRANCH  90  91
ATOM     91  CG  TYR A   4       5.250 -11.458   0.000  0.00  0.00    +0.000 A 
ATOM     92  CD1 TYR A   4       4.542 -11.875   0.000  0.00  0.00    +0.000 A 
ATOM     93  CE1 TYR A   4       4.542 -12.708   0.000  0.00  0.00    +0.000 A 
ATOM     94  CZ  TYR A   4       5.250 -13.125   0.000  0.00  0.00    +0.000 A 
ATOM     95  CE2 TYR A   4       5.958 -12.708   0.000  0.00  0.00    +0.000 A 
ATOM     96  CD2 TYR A   4       5.958 -11.875   0.000  0.00  0.00    +0.000 A 
ATOM     97  OH  TYR A   4       5.250 -13.958   0.000  0.00  0.00    +0.000 OA
ENDBRANCH  90  91
ENDBRANCH  18  90
BRANCH  31  98
ATOM     98  CB  ASN A   7      12.125 -11.458   0.000  0.00  0.00    +0.000 C 
BRANCH  98  99
ATOM     99  CG  ASN A   7      12.541 -12.166   0.000  0.00  0.00    +0.000 C 
ATOM    100  OD1 ASN A   7      13.333 -12.166   0.000  0.00  0.00    +0.000 OA
ATOM    101  ND2 ASN A   7      12.083 -12.916   0.000  0.00  0.00    +0.000 NA
ENDBRANCH  98  99
ENDBRANCH  31  98
TORSDOF 13
