REMARK  Name = 
REMARK  7 active torsions:
REMARK  status: ('A' for Active; 'I' for Inactive)
REMARK    1  A    between atoms: C_2  and  C_3
REMARK    2  A    between atoms: C_2  and  C_5
REMARK    3  A    between atoms: C_5  and  C_6
REMARK    4  A    between atoms: C_6  and  O_7
REMARK    5  A    between atoms: O_7  and  P_8
REMARK    6  A    between atoms: P_8  and  O_11
REMARK    7  A    between atoms: O_11  and  P_12
REMARK                            x       y       z     vdW  Elec       q    Type
REMARK                         _______ _______ _______ _____ _____    ______ ____
ROOT
ATOM      1  P   UNL     1       6.570  -2.143   0.000  0.00  0.00    +0.000 P 
ATOM      2  O   UNL     1       6.158  -2.858   0.000  0.00  0.00    +0.000 OA
ATOM      3  O   UNL     1       6.983  -1.429   0.000  0.00  0.00    +0.000 OA
ENDROOT
BRANCH   1   4
ATOM      4  O   UNL     1       7.285  -2.556   0.000  0.00  0.00    +0.000 OA
BRANCH   4   5
ATOM      5  P   UNL     1       7.999  -2.143   0.000  0.00  0.00    +0.000 P 
ATOM      6  O   UNL     1       8.714  -1.731   0.000  0.00  0.00    +0.000 OA
ATOM      7  O   UNL     1       8.412  -2.858   0.000  0.00  0.00    +0.000 OA
ATOM      8  O   UNL     1       7.587  -1.429   0.000  0.00  0.00    +0.000 OA
ENDBRANCH   4   5
ENDBRANCH   1   4
BRANCH   1   9
ATOM      9  O   UNL     1       5.856  -1.731   0.000  0.00  0.00    +0.000 OA
BRANCH   9  10
ATOM     10  C   UNL     1       5.141  -2.143   0.000  0.00  0.00    +0.000 C 
BRANCH  10  11
ATOM     11  C   UNL     1       4.427  -1.731   0.000  0.00  0.00    +0.000 C 
BRANCH  11  13
ATOM     12  C   UNL     1       3.712  -2.968   0.000  0.00  0.00    +0.000 C 
ATOM     13  C   UNL     1       3.712  -2.143   0.000  0.00  0.00    +0.000 C 
BRANCH  13  14
ATOM     14  C   UNL     1       2.998  -1.731   0.000  0.00  0.00    +0.000 C 
ATOM     15  O   UNL     1       2.284  -2.143   0.000  0.00  0.00    +0.000 OA
ENDBRANCH  13  14
ENDBRANCH  11  13
ENDBRANCH  10  11
ENDBRANCH   9  10
ENDBRANCH   1   9
TORSDOF 7
