REMARK  Name = 
REMARK  3 active torsions:
REMARK  status: ('A' for Active; 'I' for Inactive)
REMARK    1  A    between atoms: C_3  and  C_5
REMARK    2  A    between atoms: C_6  and  N_14
REMARK    3  A    between atoms: C_7  and  N_14
REMARK                            x       y       z     vdW  Elec       q    Type
REMARK                         _______ _______ _______ _____ _____    ______ ____
ROOT
ATOM      1  C   UNL     1       0.000  -2.475   0.000  0.00  0.00    +0.000 C 
ATOM      2  C   UNL     1       0.000  -1.650   0.000  0.00  0.00    +0.000 C 
ATOM      3  C   UNL     1      -0.715  -2.888   0.000  0.00  0.00    +0.000 C 
ATOM      4  C   UNL     1      -0.715  -1.238   0.000  0.00  0.00    +0.000 C 
ATOM      5  C   UNL     1      -1.429  -2.475   0.000  0.00  0.00    +0.000 C 
ATOM      6  C   UNL     1      -1.429  -1.650   0.000  0.00  0.00    +0.000 C 
ATOM      7  O   UNL     1      -0.715  -0.412   0.000  0.00  0.00    +0.000 OA
ATOM      8  O   UNL     1      -2.143  -2.888   0.000  0.00  0.00    +0.000 OA
ATOM      9  O   UNL     1      -2.143  -1.238   0.000  0.00  0.00    +0.000 OA
ENDROOT
BRANCH   2  10
ATOM     10  C   UNL     1       0.715  -1.238   0.000  0.00  0.00    +0.000 C 
ATOM     11  O   UNL     1       0.715  -0.412   0.000  0.00  0.00    +0.000 OA
ENDBRANCH   2  10
BRANCH   3  12
ATOM     12  N   UNL     1      -0.715  -3.712   0.000  0.00  0.00    +0.000 NA
BRANCH  12  15
ATOM     13  C   UNL     1       0.715  -2.888   0.000  0.00  0.00    +0.000 C 
ATOM     14  C   UNL     1       0.715  -3.712   0.000  0.00  0.00    +0.000 C 
ATOM     15  C   UNL     1       0.000  -4.125   0.000  0.00  0.00    +0.000 C 
ATOM     16  C   UNL     1       0.000  -4.950   0.000  0.00  0.00    +0.000 C 
ATOM     17  C   UNL     1       0.715  -5.362   0.000  0.00  0.00    +0.000 C 
ATOM     18  C   UNL     1       1.429  -4.950   0.000  0.00  0.00    +0.000 C 
ATOM     19  O   UNL     1      -0.715  -5.362   0.000  0.00  0.00    +0.000 OA
ATOM     20  O   UNL     1       0.715  -6.188   0.000  0.00  0.00    +0.000 OA
ATOM     21  O   UNL     1       2.143  -5.362   0.000  0.00  0.00    +0.000 OA
ATOM     22  O   UNL     1       1.429  -4.125   0.000  0.00  0.00    +0.000 OA
ENDBRANCH  12  15
ENDBRANCH   3  12
TORSDOF 3
