REMARK  Name = 
REMARK  6 active torsions:
REMARK  status: ('A' for Active; 'I' for Inactive)
REMARK    1  A    between atoms: O_3  and  C_8
REMARK    2  A    between atoms: O_3  and  C_13
REMARK    3  A    between atoms: N_5  and  C_6
REMARK    4  A    between atoms: N_5  and  C_11
REMARK    5  A    between atoms: C_7  and  C_11
REMARK    6  A    between atoms: C_13  and  C_17
REMARK                            x       y       z     vdW  Elec       q    Type
REMARK                         _______ _______ _______ _____ _____    ______ ____
ROOT
ATOM      1 CL   UNL     1       5.937  -2.904   0.000  0.00  0.00    +0.000 Cl
ATOM      2  C   UNL     1       5.937  -0.428   0.000  0.00  0.00    +0.000 A 
ATOM      3  C   UNL     1       5.222  -1.666   0.000  0.00  0.00    +0.000 A 
ATOM      4  C   UNL     1       5.222  -0.841   0.000  0.00  0.00    +0.000 A 
ATOM      5  C   UNL     1       6.651  -0.841   0.000  0.00  0.00    +0.000 A 
ATOM      6  C   UNL     1       5.937  -2.079   0.000  0.00  0.00    +0.000 A 
ATOM      7  C   UNL     1       6.651  -1.666   0.000  0.00  0.00    +0.000 A 
ENDROOT
BRANCH   3   8
ATOM      8  O   UNL     1       4.508  -2.079   0.000  0.00  0.00    +0.000 OA
BRANCH   8   9
ATOM      9  C   UNL     1       3.793  -1.666   0.000  0.00  0.00    +0.000 C 
BRANCH   9  10
ATOM     10  C   UNL     1       3.079  -2.079   0.000  0.00  0.00    +0.000 C 
ATOM     11  C   UNL     1       2.365  -1.666   0.000  0.00  0.00    +0.000 C 
ATOM     12  C   UNL     1       1.650  -2.079   0.000  0.00  0.00    +0.000 C 
ATOM     13  C   UNL     1       2.365  -0.841   0.000  0.00  0.00    +0.000 C 
ENDBRANCH   9  10
ENDBRANCH   8   9
ENDBRANCH   3   8
BRANCH   2  14
ATOM     14  N   UNL     1       5.937   0.397   0.000  0.00  0.00    +0.000 NA
BRANCH  14  16
ATOM     15  S   UNL     1       7.366   0.397   0.000  0.00  0.00    +0.000 S 
ATOM     16  C   UNL     1       6.651   0.809   0.000  0.00  0.00    +0.000 C 
BRANCH  16  18
ATOM     17  O   UNL     1       7.064   2.904   0.000  0.00  0.00    +0.000 OA
ATOM     18  C   UNL     1       6.651   1.634   0.000  0.00  0.00    +0.000 A 
ATOM     19  C   UNL     1       7.319   2.119   0.000  0.00  0.00    +0.000 A 
ATOM     20  C   UNL     1       5.984   2.119   0.000  0.00  0.00    +0.000 A 
ATOM     21  C   UNL     1       8.104   1.864   0.000  0.00  0.00    +0.000 C 
ATOM     22  C   UNL     1       6.239   2.904   0.000  0.00  0.00    +0.000 A 
ENDBRANCH  16  18
ENDBRANCH  14  16
ENDBRANCH   2  14
TORSDOF 6
