REMARK  Name = 
REMARK  2 active torsions:
REMARK  status: ('A' for Active; 'I' for Inactive)
REMARK    1  A    between atoms: C_5  and  C_10
REMARK    2  A    between atoms: C_9  and  C_10
REMARK                            x       y       z     vdW  Elec       q    Type
REMARK                         _______ _______ _______ _____ _____    ______ ____
ROOT
ATOM      1  C   UNL     1      -0.714  -0.937   0.000  0.00  0.00    +0.000 A 
ATOM      2  C   UNL     1      -1.429  -0.525   0.000  0.00  0.00    +0.000 A 
ATOM      3  C   UNL     1      -1.429   0.300   0.000  0.00  0.00    +0.000 A 
ATOM      4  C   UNL     1      -0.714   0.712   0.000  0.00  0.00    +0.000 A 
ATOM      5  C   UNL     1       0.001   0.300   0.000  0.00  0.00    +0.000 A 
ATOM      6  C   UNL     1       0.001  -0.525   0.000  0.00  0.00    +0.000 A 
ATOM      7  O   UNL     1      -2.142  -0.937   0.000  0.00  0.00    +0.000 OA
ENDROOT
BRANCH   5   8
ATOM      8  C   UNL     1       0.714   0.713   0.000  0.00  0.00    +0.000 C 
ATOM      9  O   UNL     1       0.714   1.538   0.000  0.00  0.00    +0.000 OA
BRANCH   8  11
ATOM     10  N   UNL     1       2.142   0.713   0.000  0.00  0.00    +0.000 NA
ATOM     11  C   UNL     1       1.429   0.301   0.000  0.00  0.00    +0.000 C 
ENDBRANCH   8  11
ENDBRANCH   5   8
TORSDOF 2
