REMARK  Name = 
REMARK  2 active torsions:
REMARK  status: ('A' for Active; 'I' for Inactive)
REMARK    1  A    between atoms: C_11  and  C_19
REMARK    2  A    between atoms: C_16  and  C_20
REMARK                            x       y       z     vdW  Elec       q    Type
REMARK                         _______ _______ _______ _____ _____    ______ ____
ROOT
ATOM      1  C   UNL     1       3.305  -1.170   0.000  0.00  0.00    +0.000 C 
ATOM      2  C   UNL     1       4.488  -0.369   0.000  0.00  0.00    +0.000 C 
ATOM      3  C   UNL     1       4.678   2.076   0.000  0.00  0.00    +0.000 C 
ATOM      4  C   UNL     1       4.718   1.513   0.000  0.00  0.00    +0.000 C 
ATOM      5  C   UNL     1      -0.411   0.300   0.000  0.00  0.00    +0.000 C 
ATOM      6  C   UNL     1       1.557   0.138   0.000  0.00  0.00    +0.000 C 
ATOM      7  C   UNL     1       2.020  -0.545   0.000  0.00  0.00    +0.000 C 
ATOM      8  C   UNL     1       0.734   0.079   0.000  0.00  0.00    +0.000 C 
ATOM      9  C   UNL     1       1.456   1.563   0.000  0.00  0.00    +0.000 C 
ATOM     10  C   UNL     1       3.823   3.165   0.000  0.00  0.00    +0.000 C 
ATOM     11  C   UNL     1       2.842  -0.487   0.000  0.00  0.00    +0.000 C 
ATOM     12  C   UNL     1       4.026   0.314   0.000  0.00  0.00    +0.000 C 
ATOM     13  C   UNL     1       1.816   2.305   0.000  0.00  0.00    +0.000 C 
ATOM     14  C   UNL     1       4.285   2.481   0.000  0.00  0.00    +0.000 C 
ATOM     15  C   UNL     1       0.633   1.504   0.000  0.00  0.00    +0.000 C 
ATOM     16  C   UNL     1       3.000   3.106   0.000  0.00  0.00    +0.000 C 
ATOM     17  C   UNL     1       3.203   0.255   0.000  0.00  0.00    +0.000 C 
ATOM     18  C   UNL     1       4.387   1.056   0.000  0.00  0.00    +0.000 C 
ATOM     19  C   UNL     1       3.924   1.739   0.000  0.00  0.00    +0.000 C 
ATOM     20  C   UNL     1       0.272   0.762   0.000  0.00  0.00    +0.000 C 
ATOM     21  O   UNL     1       5.108   2.540   0.000  0.00  0.00    +0.000 OA
ATOM     22  O   UNL     1       2.537   3.789   0.000  0.00  0.00    +0.000 OA
ATOM     23  O   UNL     1       3.665  -0.428   0.000  0.00  0.00    +0.000 OA
ATOM     24  O   UNL     1       5.210   1.115   0.000  0.00  0.00    +0.000 OA
ATOM     25  O   UNL     1       2.639   2.364   0.000  0.00  0.00    +0.000 OA
ATOM     26  O   UNL     1      -0.190   1.446   0.000  0.00  0.00    +0.000 OA
ENDROOT
BRANCH  13  29
ATOM     27  C   UNL     1       0.531   2.930   0.000  0.00  0.00    +0.000 C 
ATOM     28  C   UNL     1       1.714   3.731   0.000  0.00  0.00    +0.000 C 
ATOM     29  C   UNL     1       1.354   2.989   0.000  0.00  0.00    +0.000 C 
BRANCH  28  33
ATOM     30  C   UNL     1       0.910   6.521   0.000  0.00  0.00    +0.000 C 
ATOM     31  C   UNL     1       0.428   4.441   0.000  0.00  0.00    +0.000 A 
ATOM     32  C   UNL     1       0.882   5.696   0.000  0.00  0.00    +0.000 A 
ATOM     33  C   UNL     1       1.252   4.414   0.000  0.00  0.00    +0.000 A 
ATOM     34  N   UNL     1       1.533   5.189   0.000  0.00  0.00    +0.000 NA
ATOM     35  S   UNL     1       0.199   5.234   0.000  0.00  0.00    +0.000 S 
ENDBRANCH  28  33
ENDBRANCH  13  29
TORSDOF 2
