REMARK  Name = 
REMARK  1 active torsions:
REMARK  status: ('A' for Active; 'I' for Inactive)
REMARK    1  A    between atoms: C_2  and  C_3
REMARK                            x       y       z     vdW  Elec       q    Type
REMARK                         _______ _______ _______ _____ _____    ______ ____
ROOT
ATOM      1  C   UNL     1      -0.492   0.089   0.000  0.00  0.00    +0.000 C 
ATOM      2  O   UNL     1       0.175   0.574   0.000  0.00  0.00    +0.000 OA
ATOM      3  C   UNL     1       0.843   0.089   0.000  0.00  0.00    +0.000 C 
ATOM      4  O   UNL     1       1.627   0.344   0.000  0.00  0.00    +0.000 OA
ATOM      5  C   UNL     1       0.588  -0.695   0.000  0.00  0.00    +0.000 C 
ATOM      6  O   UNL     1       1.073  -1.363   0.000  0.00  0.00    +0.000 OA
ATOM      7  C   UNL     1      -0.237  -0.695   0.000  0.00  0.00    +0.000 C 
ATOM      8  O   UNL     1      -0.722  -1.363   0.000  0.00  0.00    +0.000 OA
ENDROOT
BRANCH   1  10
ATOM      9  O   UNL     1      -1.890  -0.208   0.000  0.00  0.00    +0.000 OA
ATOM     10  C   UNL     1      -1.277   0.344   0.000  0.00  0.00    +0.000 C 
ENDBRANCH   1  10
TORSDOF 1
