REMARK  Name = 
REMARK  5 active torsions:
REMARK  status: ('A' for Active; 'I' for Inactive)
REMARK    1  A    between atoms: C_6  and  C_8
REMARK    2  A    between atoms: C_16  and  C_17
REMARK    3  A    between atoms: C_16  and  C_23
REMARK    4  A    between atoms: C_18  and  C_22
REMARK    5  A    between atoms: C_20  and  C_22
REMARK                            x       y       z     vdW  Elec       q    Type
REMARK                         _______ _______ _______ _____ _____    ______ ____
ROOT
ATOM      1  C   UNL     1       5.348 -12.310   0.000  0.00  0.00    +0.000 C 
ATOM      2  C   UNL     1       5.348 -13.960   0.000  0.00  0.00    +0.000 C 
ATOM      3  C   UNL     1       6.848 -13.802   0.000  0.00  0.00    +0.000 C 
ATOM      4  C   UNL     1       7.332 -13.135   0.000  0.00  0.00    +0.000 C 
ATOM      5  C   UNL     1       4.634 -12.723   0.000  0.00  0.00    +0.000 C 
ATOM      6  C   UNL     1       5.348 -14.785   0.000  0.00  0.00    +0.000 C 
ATOM      7  C   UNL     1       4.634 -13.547   0.000  0.00  0.00    +0.000 C 
ATOM      8  C   UNL     1       6.848 -12.467   0.000  0.00  0.00    +0.000 C 
ATOM      9  C   UNL     1       6.063 -13.547   0.000  0.00  0.00    +0.000 C 
ATOM     10  C   UNL     1       6.063 -12.723   0.000  0.00  0.00    +0.000 C 
ATOM     11  C   UNL     1       6.063 -11.898   0.000  0.00  0.00    +0.000 C 
ENDROOT
BRANCH   6  12
ATOM     12  C   UNL     1       4.634 -15.197   0.000  0.00  0.00    +0.000 C 
ATOM     13  C   UNL     1       4.634 -16.022   0.000  0.00  0.00    +0.000 C 
ATOM     14  C   UNL     1       5.348 -16.435   0.000  0.00  0.00    +0.000 C 
ATOM     15  C   UNL     1       3.920 -16.435   0.000  0.00  0.00    +0.000 C 
ATOM     16  C   UNL     1       5.348 -17.260   0.000  0.00  0.00    +0.000 C 
ATOM     17  C   UNL     1       3.920 -17.260   0.000  0.00  0.00    +0.000 C 
ATOM     18  C   UNL     1       4.634 -17.672   0.000  0.00  0.00    +0.000 C 
ATOM     19  C   UNL     1       3.205 -16.022   0.000  0.00  0.00    +0.000 C 
ATOM     20  O   UNL     1       6.063 -17.672   0.000  0.00  0.00    +0.000 OA
ENDBRANCH   6  12
BRANCH   8  22
ATOM     21  C   UNL     1       6.133 -11.230   0.000  0.00  0.00    +0.000 C 
ATOM     22  C   UNL     1       6.848 -11.643   0.000  0.00  0.00    +0.000 C 
BRANCH  22  23
ATOM     23  C   UNL     1       7.562 -11.230   0.000  0.00  0.00    +0.000 C 
ATOM     24  C   UNL     1       8.276 -11.643   0.000  0.00  0.00    +0.000 C 
BRANCH  24  25
ATOM     25  C   UNL     1       8.991 -11.230   0.000  0.00  0.00    +0.000 C 
ATOM     26  C   UNL     1       8.991 -10.405   0.000  0.00  0.00    +0.000 C 
BRANCH  25  28
ATOM     27  C   UNL     1      10.420 -11.230   0.000  0.00  0.00    +0.000 C 
ATOM     28  C   UNL     1       9.705 -11.643   0.000  0.00  0.00    +0.000 C 
ATOM     29  C   UNL     1       9.705 -12.467   0.000  0.00  0.00    +0.000 C 
ENDBRANCH  25  28
ENDBRANCH  24  25
ENDBRANCH  22  23
ENDBRANCH   8  22
TORSDOF 5
