REMARK  Name = 
REMARK  12 active torsions:
REMARK  status: ('A' for Active; 'I' for Inactive)
REMARK    1  A    between atoms: C_3  and  C_16
REMARK    2  A    between atoms: C_4  and  C_25
REMARK    3  A    between atoms: C_15  and  C_17
REMARK    4  A    between atoms: C_15  and  C_21
REMARK    5  A    between atoms: C_16  and  C_30
REMARK    6  A    between atoms: C_17  and  C_30
REMARK    7  A    between atoms: C_22  and  C_25
REMARK    8  A    between atoms: C_23  and  C_31
REMARK    9  A    between atoms: C_24  and  N_36
REMARK   10  A    between atoms: C_25  and  C_28
REMARK   11  A    between atoms: C_27  and  S_42
REMARK   12  A    between atoms: N_36  and  S_42
REMARK                            x       y       z     vdW  Elec       q    Type
REMARK                         _______ _______ _______ _____ _____    ______ ____
ROOT
ATOM      1  C   UNL     1      -3.964   8.078   0.000  0.00  0.00    +0.000 C 
ENDROOT
BRANCH   1   4
ATOM      2  C   UNL     1      -2.091   6.957   0.000  0.00  0.00    +0.000 C 
ATOM      3  C   UNL     1      -2.622   7.589   0.000  0.00  0.00    +0.000 C 
ATOM      4  C   UNL     1      -3.434   7.446   0.000  0.00  0.00    +0.000 C 
ATOM      5  C   UNL     1      -3.716   6.670   0.000  0.00  0.00    +0.000 C 
ATOM      6  C   UNL     1      -2.373   6.181   0.000  0.00  0.00    +0.000 C 
ATOM      7  O   UNL     1      -2.339   8.364   0.000  0.00  0.00    +0.000 OA
ATOM      8  O   UNL     1      -4.529   6.527   0.000  0.00  0.00    +0.000 OA
ATOM      9  O   UNL     1      -3.186   6.038   0.000  0.00  0.00    +0.000 OA
BRANCH   6  10
ATOM     10  C   UNL     1      -2.373   5.356   0.000  0.00  0.00    +0.000 C 
BRANCH  10  11
ATOM     11  C   UNL     1      -1.659   4.944   0.000  0.00  0.00    +0.000 C 
BRANCH  11  17
ATOM     12  C   UNL     1      -1.659   2.469   0.000  0.00  0.00    +0.000 A 
ATOM     13  C   UNL     1      -0.945   2.881   0.000  0.00  0.00    +0.000 A 
ATOM     14  C   UNL     1      -2.373   2.881   0.000  0.00  0.00    +0.000 A 
ATOM     15  C   UNL     1      -0.945   3.707   0.000  0.00  0.00    +0.000 A 
ATOM     16  C   UNL     1      -2.373   3.707   0.000  0.00  0.00    +0.000 A 
ATOM     17  C   UNL     1      -1.659   4.119   0.000  0.00  0.00    +0.000 A 
ENDBRANCH  11  17
ENDBRANCH  10  11
ENDBRANCH   6  10
BRANCH   6  18
ATOM     18  C   UNL     1      -1.561   6.038   0.000  0.00  0.00    +0.000 C 
BRANCH  18  20
ATOM     19  C   UNL     1      -0.218   6.527   0.000  0.00  0.00    +0.000 C 
ATOM     20  C   UNL     1      -1.031   6.670   0.000  0.00  0.00    +0.000 C 
ENDBRANCH  18  20
ENDBRANCH   6  18
ENDBRANCH   1   4
BRANCH   1  25
ATOM     21  C   UNL     1      -5.871   7.016   0.000  0.00  0.00    +0.000 A 
ATOM     22  C   UNL     1      -5.059   7.159   0.000  0.00  0.00    +0.000 A 
ATOM     23  C   UNL     1      -6.402   7.648   0.000  0.00  0.00    +0.000 A 
ATOM     24  C   UNL     1      -5.307   8.566   0.000  0.00  0.00    +0.000 A 
ATOM     25  C   UNL     1      -4.777   7.934   0.000  0.00  0.00    +0.000 A 
ATOM     26  C   UNL     1      -6.120   8.423   0.000  0.00  0.00    +0.000 A 
BRANCH  26  27
ATOM     27  N   UNL     1      -6.650   9.055   0.000  0.00  0.00    +0.000 NA
BRANCH  27  30
ATOM     28  O   UNL     1      -5.593   9.548   0.000  0.00  0.00    +0.000 OA
ATOM     29  O   UNL     1      -7.143  10.112   0.000  0.00  0.00    +0.000 OA
ATOM     30  S   UNL     1      -6.368   9.830   0.000  0.00  0.00    +0.000 S 
BRANCH  30  35
ATOM     31  C   UNL     1      -6.334  12.013   0.000  0.00  0.00    +0.000 A 
ATOM     32  C   UNL     1      -6.616  11.237   0.000  0.00  0.00    +0.000 A 
ATOM     33  C   UNL     1      -4.991  11.524   0.000  0.00  0.00    +0.000 A 
ATOM     34  C   UNL     1      -5.521  12.156   0.000  0.00  0.00    +0.000 A 
ATOM     35  C   UNL     1      -6.085  10.605   0.000  0.00  0.00    +0.000 A 
ATOM     36  N   UNL     1      -5.273  10.749   0.000  0.00  0.00    +0.000 NA
BRANCH  34  37
ATOM     37  C   UNL     1      -5.239  12.931   0.000  0.00  0.00    +0.000 C 
ATOM     38  F   UNL     1      -4.957  13.706   0.000  0.00  0.00    +0.000 F 
ATOM     39  F   UNL     1      -4.464  12.649   0.000  0.00  0.00    +0.000 F 
ATOM     40  F   UNL     1      -6.014  13.213   0.000  0.00  0.00    +0.000 F 
ENDBRANCH  34  37
ENDBRANCH  30  35
ENDBRANCH  27  30
ENDBRANCH  26  27
ENDBRANCH   1  25
BRANCH   1  42
ATOM     41  C   UNL     1      -2.870   8.996   0.000  0.00  0.00    +0.000 C 
ATOM     42  C   UNL     1      -3.682   8.853   0.000  0.00  0.00    +0.000 C 
ENDBRANCH   1  42
TORSDOF 12
