REMARK  Name = 
REMARK  9 active torsions:
REMARK  status: ('A' for Active; 'I' for Inactive)
REMARK    1  A    between atoms: O_3  and  C_13
REMARK    2  A    between atoms: O_4  and  C_16
REMARK    3  A    between atoms: O_4  and  C_22
REMARK    4  A    between atoms: N_7  and  C_26
REMARK    5  A    between atoms: C_9  and  C_11
REMARK    6  A    between atoms: C_12  and  C_19
REMARK    7  A    between atoms: C_19  and  C_20
REMARK    8  A    between atoms: C_26  and  C_27
REMARK    9  A    between atoms: C_26  and  C_28
REMARK                            x       y       z     vdW  Elec       q    Type
REMARK                         _______ _______ _______ _____ _____    ______ ____
ROOT
ATOM      1  O   UNL     1       5.222  -2.057   0.000  0.00  0.00    +0.000 OA
ATOM      2  C   UNL     1       4.920  -0.930   0.000  0.00  0.00    +0.000 C 
ATOM      3  C   UNL     1       5.635  -1.342   0.000  0.00  0.00    +0.000 C 
ATOM      4  C   UNL     1       4.920  -0.105   0.000  0.00  0.00    +0.000 C 
ATOM      5  C   UNL     1       6.048  -2.057   0.000  0.00  0.00    +0.000 C 
ATOM      6  C   UNL     1       6.349  -0.930   0.000  0.00  0.00    +0.000 C 
ATOM      7  C   UNL     1       5.635   0.308   0.000  0.00  0.00    +0.000 C 
ATOM      8  C   UNL     1       6.349  -0.105   0.000  0.00  0.00    +0.000 C 
ENDROOT
BRANCH   2  10
ATOM      9  O   UNL     1       4.619  -2.057   0.000  0.00  0.00    +0.000 OA
ATOM     10  C   UNL     1       4.206  -1.342   0.000  0.00  0.00    +0.000 C 
ATOM     11  C   UNL     1       3.793  -2.057   0.000  0.00  0.00    +0.000 C 
ATOM     12  C   UNL     1       3.492  -0.930   0.000  0.00  0.00    +0.000 C 
BRANCH  11  13
ATOM     13  C   UNL     1       3.079  -2.469   0.000  0.00  0.00    +0.000 C 
BRANCH  13  14
ATOM     14  C   UNL     1       3.079  -3.294   0.000  0.00  0.00    +0.000 C 
ATOM     15  C   UNL     1       2.365  -3.707   0.000  0.00  0.00    +0.000 C 
ATOM     16  C   UNL     1       2.365  -4.532   0.000  0.00  0.00    +0.000 C 
ATOM     17  C   UNL     1       1.650  -3.294   0.000  0.00  0.00    +0.000 C 
ENDBRANCH  13  14
ENDBRANCH  11  13
ENDBRANCH   2  10
BRANCH   4  18
ATOM     18  O   UNL     1       4.206   0.308   0.000  0.00  0.00    +0.000 OA
ATOM     19  C   UNL     1       4.206   1.133   0.000  0.00  0.00    +0.000 C 
ENDBRANCH   4  18
BRANCH   7  20
ATOM     20  O   UNL     1       5.635   1.133   0.000  0.00  0.00    +0.000 OA
BRANCH  20  23
ATOM     21  O   UNL     1       7.064   1.133   0.000  0.00  0.00    +0.000 OA
ATOM     22  N   UNL     1       6.349   2.370   0.000  0.00  0.00    +0.000 NA
ATOM     23  C   UNL     1       6.349   1.545   0.000  0.00  0.00    +0.000 C 
BRANCH  22  24
ATOM     24  C   UNL     1       7.064   2.783   0.000  0.00  0.00    +0.000 C 
BRANCH  24  27
ATOM     25  O   UNL     1       6.349   4.020   0.000  0.00  0.00    +0.000 OA
ATOM     26  N   UNL     1       7.778   4.020   0.000  0.00  0.00    +0.000 NA
ATOM     27  C   UNL     1       7.064   3.608   0.000  0.00  0.00    +0.000 C 
ENDBRANCH  24  27
BRANCH  24  28
ATOM     28  C   UNL     1       7.778   2.370   0.000  0.00  0.00    +0.000 C 
ATOM     29  C   UNL     1       7.778   1.545   0.000  0.00  0.00    +0.000 C 
ATOM     30  C   UNL     1       8.493   2.783   0.000  0.00  0.00    +0.000 C 
ENDBRANCH  24  28
ENDBRANCH  22  24
ENDBRANCH  20  23
ENDBRANCH   7  20
TORSDOF 9
