REMARK  Name = 
REMARK  4 active torsions:
REMARK  status: ('A' for Active; 'I' for Inactive)
REMARK    1  A    between atoms: P_2  and  C_5
REMARK    2  A    between atoms: C_5  and  C_6
REMARK    3  A    between atoms: C_6  and  C_7
REMARK    4  A    between atoms: C_7  and  C_9
REMARK                            x       y       z     vdW  Elec       q    Type
REMARK                         _______ _______ _______ _____ _____    ______ ____
ROOT
ATOM      1  C   UNL     1       3.189   1.841   0.000  0.00  0.00    +0.000 C 
ENDROOT
BRANCH   1   3
ATOM      2  O   UNL     1       1.760   1.016   0.000  0.00  0.00    +0.000 OA
ATOM      3  P   UNL     1       2.475   1.429   0.000  0.00  0.00    +0.000 P 
ATOM      4  O   UNL     1       2.888   0.715   0.000  0.00  0.00    +0.000 OA
ATOM      5  O   UNL     1       2.062   2.143   0.000  0.00  0.00    +0.000 OA
ENDBRANCH   1   3
BRANCH   1   6
ATOM      6  C   UNL     1       3.904   1.429   0.000  0.00  0.00    +0.000 C 
BRANCH   6   7
ATOM      7  C   UNL     1       4.618   1.841   0.000  0.00  0.00    +0.000 C 
ATOM      8  C   UNL     1       4.618   2.666   0.000  0.00  0.00    +0.000 C 
BRANCH   7   9
ATOM      9  C   UNL     1       5.333   1.429   0.000  0.00  0.00    +0.000 C 
ATOM     10  O   UNL     1       6.047   1.841   0.000  0.00  0.00    +0.000 OA
ENDBRANCH   7   9
ENDBRANCH   6   7
ENDBRANCH   1   6
TORSDOF 4
