REMARK  Name = 
REMARK  4 active torsions:
REMARK  status: ('A' for Active; 'I' for Inactive)
REMARK    1  A    between atoms: C_5  and  C_7
REMARK    2  A    between atoms: C_9  and  N_14
REMARK    3  A    between atoms: C_15  and  C_16
REMARK    4  A    between atoms: C_20  and  S_24
REMARK                            x       y       z     vdW  Elec       q    Type
REMARK                         _______ _______ _______ _____ _____    ______ ____
ROOT
ATOM      1  N   UNL     1      11.977 -10.640   0.000  0.00  0.00    +0.000 NA
ATOM      2  C   UNL     1      12.679 -10.234   0.000  0.00  0.00    +0.000 C 
ATOM      3  O   UNL     1      12.679  -9.405   0.000  0.00  0.00    +0.000 OA
ENDROOT
BRANCH   1   6
ATOM      4  C   UNL     1       9.827 -10.223   0.000  0.00  0.00    +0.000 A 
ATOM      5  C   UNL     1      10.537 -10.633   0.000  0.00  0.00    +0.000 A 
ATOM      6  C   UNL     1      11.252 -10.221   0.000  0.00  0.00    +0.000 A 
ATOM      7  C   UNL     1      11.252  -9.396   0.000  0.00  0.00    +0.000 A 
ATOM      8  C   UNL     1      10.541  -8.986   0.000  0.00  0.00    +0.000 A 
ATOM      9  C   UNL     1       9.827  -9.399   0.000  0.00  0.00    +0.000 A 
ATOM     10 CL   UNL     1       9.108  -8.984   0.000  0.00  0.00    +0.000 Cl
BRANCH   4  15
ATOM     11  C   UNL     1       7.673 -10.643   0.000  0.00  0.00    +0.000 A 
ATOM     12  C   UNL     1       7.673 -11.467   0.000  0.00  0.00    +0.000 A 
ATOM     13  C   UNL     1       8.387 -11.880   0.000  0.00  0.00    +0.000 A 
ATOM     14  C   UNL     1       9.101 -11.467   0.000  0.00  0.00    +0.000 A 
ATOM     15  C   UNL     1       9.101 -10.643   0.000  0.00  0.00    +0.000 A 
ATOM     16  N   UNL     1       8.387 -10.230   0.000  0.00  0.00    +0.000 NA
ENDBRANCH   4  15
ENDBRANCH   1   6
BRANCH   2  17
ATOM     17  C   UNL     1      13.380 -10.639   0.000  0.00  0.00    +0.000 A 
ATOM     18  C   UNL     1      13.380 -11.467   0.000  0.00  0.00    +0.000 A 
ATOM     19  C   UNL     1      14.095 -11.880   0.000  0.00  0.00    +0.000 A 
ATOM     20  C   UNL     1      14.809 -11.467   0.000  0.00  0.00    +0.000 A 
ATOM     21  C   UNL     1      14.809 -10.639   0.000  0.00  0.00    +0.000 A 
ATOM     22  C   UNL     1      14.095 -10.226   0.000  0.00  0.00    +0.000 A 
ATOM     23 CL   UNL     1      14.095  -9.405   0.000  0.00  0.00    +0.000 Cl
BRANCH  20  24
ATOM     24  S   UNL     1      15.524 -11.879   0.000  0.00  0.00    +0.000 S 
ATOM     25  C   UNL     1      16.238 -12.292   0.000  0.00  0.00    +0.000 C 
ATOM     26  O   UNL     1      15.936 -11.165   0.000  0.00  0.00    +0.000 OA
ATOM     27  O   UNL     1      15.111 -12.594   0.000  0.00  0.00    +0.000 OA
ENDBRANCH  20  24
ENDBRANCH   2  17
TORSDOF 4
