REMARK  Name = 
REMARK  3 active torsions:
REMARK  status: ('A' for Active; 'I' for Inactive)
REMARK    1  A    between atoms: C_2  and  C_3
REMARK    2  A    between atoms: C_3  and  N_4
REMARK    3  A    between atoms: N_4  and  C_5
REMARK                            x       y       z     vdW  Elec       q    Type
REMARK                         _______ _______ _______ _____ _____    ______ ____
ROOT
ATOM      1  C   UNL     1       0.715   1.238   0.000  0.00  0.00    +0.000 A 
ATOM      2  C   UNL     1       1.429   0.825   0.000  0.00  0.00    +0.000 A 
ATOM      3  C   UNL     1       1.429   0.000   0.000  0.00  0.00    +0.000 A 
ATOM      4  C   UNL     1       0.715  -0.412   0.000  0.00  0.00    +0.000 A 
ATOM      5  C   UNL     1       0.000   0.000   0.000  0.00  0.00    +0.000 A 
ATOM      6  C   UNL     1       0.000   0.825   0.000  0.00  0.00    +0.000 A 
ENDROOT
BRANCH   1   7
ATOM      7  N   UNL     1       0.715   2.062   0.000  0.00  0.00    +0.000 NA
BRANCH   7   8
ATOM      8  C   UNL     1       0.000   2.475   0.000  0.00  0.00    +0.000 C 
BRANCH   8  10
ATOM      9  C   UNL     1      -0.715   3.712   0.000  0.00  0.00    +0.000 C 
ATOM     10  C   UNL     1       0.000   3.300   0.000  0.00  0.00    +0.000 C 
ENDBRANCH   8  10
ENDBRANCH   7   8
ENDBRANCH   1   7
TORSDOF 3
