REMARK  Name = 
REMARK  5 active torsions:
REMARK  status: ('A' for Active; 'I' for Inactive)
REMARK    1  A    between atoms: N_1  and  C_12
REMARK    2  A    between atoms: C_12  and  O_13
REMARK    3  A    between atoms: O_13  and  C_14
REMARK    4  A    between atoms: C_14  and  C_15
REMARK    5  A    between atoms: C_14  and  C_16
REMARK                            x       y       z     vdW  Elec       q    Type
REMARK                         _______ _______ _______ _____ _____    ______ ____
ROOT
ATOM      1  N   UNL     1       2.815  -1.086   0.000  0.00  0.00    +0.000 N 
ATOM      2  C   UNL     1       2.081  -0.804   0.000  0.00  0.00    +0.000 A 
ATOM      3  C   UNL     1       2.068   0.021   0.000  0.00  0.00    +0.000 A 
ATOM      4  N   UNL     1       2.861   0.248   0.000  0.00  0.00    +0.000 NA
ATOM      5  C   UNL     1       3.323  -0.436   0.000  0.00  0.00    +0.000 A 
ATOM      6  N   UNL     1       1.270  -1.192   0.000  0.00  0.00    +0.000 NA
ATOM      7  C   UNL     1       0.611  -0.755   0.000  0.00  0.00    +0.000 A 
ATOM      8  N   UNL     1       0.640   0.070   0.000  0.00  0.00    +0.000 NA
ATOM      9  C   UNL     1       1.368   0.458   0.000  0.00  0.00    +0.000 A 
ATOM     10  O   UNL     1       1.355   1.273   0.000  0.00  0.00    +0.000 OA
ATOM     11  N   UNL     1      -0.123  -1.145   0.000  0.00  0.00    +0.000 NA
ENDROOT
BRANCH   1  12
ATOM     12  C   UNL     1       2.815  -1.911   0.000  0.00  0.00    +0.000 C 
BRANCH  12  13
ATOM     13  O   UNL     1       3.522  -2.319   0.000  0.00  0.00    +0.000 OA
BRANCH  13  14
ATOM     14  C   UNL     1       4.237  -1.906   0.000  0.00  0.00    +0.000 C 
BRANCH  14  15
ATOM     15  C   UNL     1       4.931  -2.307   0.000  0.00  0.00    +0.000 C 
ATOM     16  O   UNL     1       5.636  -1.899   0.000  0.00  0.00    +0.000 OA
ENDBRANCH  14  15
BRANCH  14  17
ATOM     17  C   UNL     1       4.237  -1.069   0.000  0.00  0.00    +0.000 C 
ATOM     18  O   UNL     1       4.936  -0.665   0.000  0.00  0.00    +0.000 OA
ENDBRANCH  14  17
ENDBRANCH  13  14
ENDBRANCH  12  13
ENDBRANCH   1  12
TORSDOF 5
