REMARK  Name = 
REMARK  3 active torsions:
REMARK  status: ('A' for Active; 'I' for Inactive)
REMARK    1  A    between atoms: C_9  and  C_10
REMARK    2  A    between atoms: C_9  and  N_18
REMARK    3  A    between atoms: C_12  and  N_18
REMARK                            x       y       z     vdW  Elec       q    Type
REMARK                         _______ _______ _______ _____ _____    ______ ____
ROOT
ATOM      1  C   UNL     1       0.714  -1.238   0.000  0.00  0.00    +0.000 C 
ENDROOT
BRANCH   1   4
ATOM      2  C   UNL     1       0.000   0.000   0.000  0.00  0.00    +0.000 A 
ATOM      3  C   UNL     1       0.714   1.238   0.000  0.00  0.00    +0.000 A 
ATOM      4  C   UNL     1       0.714  -0.412   0.000  0.00  0.00    +0.000 A 
ATOM      5  C   UNL     1       0.000   0.825   0.000  0.00  0.00    +0.000 A 
ATOM      6  C   UNL     1       1.429   0.825   0.000  0.00  0.00    +0.000 A 
ATOM      7  C   UNL     1       1.429   0.000   0.000  0.00  0.00    +0.000 A 
ATOM      8 BR   UNL     1      -0.714   1.238   0.000  0.00  0.00    +0.000 Br
ATOM      9 BR   UNL     1       2.143   1.238   0.000  0.00  0.00    +0.000 Br
ATOM     10  N   UNL     1       2.143  -0.412   0.000  0.00  0.00    +0.000 NA
ENDBRANCH   1   4
BRANCH   1  12
ATOM     11  C   UNL     1       2.143  -1.238   0.000  0.00  0.00    +0.000 C 
ATOM     12  N   UNL     1       1.429  -1.650   0.000  0.00  0.00    +0.000 NA
BRANCH  12  18
ATOM     13  C   UNL     1       1.429  -4.125   0.000  0.00  0.00    +0.000 C 
ATOM     14  C   UNL     1       2.143  -3.712   0.000  0.00  0.00    +0.000 C 
ATOM     15  C   UNL     1       0.714  -3.712   0.000  0.00  0.00    +0.000 C 
ATOM     16  C   UNL     1       2.143  -2.888   0.000  0.00  0.00    +0.000 C 
ATOM     17  C   UNL     1       0.714  -2.888   0.000  0.00  0.00    +0.000 C 
ATOM     18  C   UNL     1       1.429  -2.475   0.000  0.00  0.00    +0.000 C 
ENDBRANCH  12  18
ENDBRANCH   1  12
TORSDOF 3
