REMARK  Name = 
REMARK  5 active torsions:
REMARK  status: ('A' for Active; 'I' for Inactive)
REMARK    1  A    between atoms: C_4  and  CA_22
REMARK    2  A    between atoms: CA_7  and  N_19
REMARK    3  A    between atoms: CA_11  and  C_16
REMARK    4  A    between atoms: C_20  and  CA_22
REMARK    5  A    between atoms: CA_22  and  N_23
REMARK                            x       y       z     vdW  Elec       q    Type
REMARK                         _______ _______ _______ _____ _____    ______ ____
ROOT
ATOM      1  N   UNL     1       1.429  -1.650   0.000  0.00  0.00    +0.000 NA
ATOM      2  C   UNL     1       0.715  -2.062   0.000  0.00  0.00    +0.000 C 
ATOM      3  O   UNL     1       0.715  -2.888   0.000  0.00  0.00    +0.000 OA
ENDROOT
BRANCH   1   4
ATOM      4  CA  UNL     1       2.143  -2.062   0.000  0.00  0.00    +0.000 C 
ATOM      5  C   UNL     1       2.143  -2.888   0.000  0.00  0.00    +0.000 C 
ATOM      6  N   UNL     1       2.968  -2.888   0.000  0.00  0.00    +0.000 N 
ATOM      7  C   UNL     1       2.968  -2.062   0.000  0.00  0.00    +0.000 C 
ATOM      8  CA  UNL     1       3.753  -3.142   0.000  0.00  0.00    +0.000 C 
ATOM      9  C   UNL     1       4.238  -2.475   0.000  0.00  0.00    +0.000 C 
ATOM     10  S   UNL     1       3.753  -1.808   0.000  0.00  0.00    +0.000 S 
ATOM     11  C   UNL     1       4.957  -2.880   0.000  0.00  0.00    +0.000 C 
ATOM     12  C   UNL     1       4.957  -2.070   0.000  0.00  0.00    +0.000 C 
ATOM     13  O   UNL     1       1.560  -3.471   0.000  0.00  0.00    +0.000 OA
BRANCH   8  14
ATOM     14  C   UNL     1       4.008  -3.927   0.000  0.00  0.00    +0.000 C 
ATOM     15  O   UNL     1       4.815  -4.099   0.000  0.00  0.00    +0.000 OA
ATOM     16  OXT UNL     1       3.456  -4.540   0.000  0.00  0.00    +0.000 OA
ENDBRANCH   8  14
ENDBRANCH   1   4
BRANCH   2  17
ATOM     17  CA  UNL     1       0.000  -1.650   0.000  0.00  0.00    +0.000 C 
BRANCH  17  18
ATOM     18  N   UNL     1      -0.715  -2.062   0.000  0.00  0.00    +0.000 NA
ATOM     19  C   UNL     1      -1.429  -1.650   0.000  0.00  0.00    +0.000 C 
ATOM     20  O   UNL     1      -1.429  -0.825   0.000  0.00  0.00    +0.000 OA
ATOM     21  N   UNL     1      -3.413  -2.475   0.000  0.00  0.00    +0.000 NA
ATOM     22  C   UNL     1      -2.928  -1.808   0.000  0.00  0.00    +0.000 C 
ATOM     23  N   UNL     1      -2.143  -2.062   0.000  0.00  0.00    +0.000 N 
ATOM     24  C   UNL     1      -2.143  -2.888   0.000  0.00  0.00    +0.000 C 
ATOM     25  C   UNL     1      -2.928  -3.142   0.000  0.00  0.00    +0.000 C 
ATOM     26  O   UNL     1      -3.183  -1.023   0.000  0.00  0.00    +0.000 OA
ENDBRANCH  17  18
BRANCH  17  30
ATOM     27  C   UNL     1       0.000   0.825   0.000  0.00  0.00    +0.000 A 
ATOM     28  C   UNL     1       0.715   0.412   0.000  0.00  0.00    +0.000 A 
ATOM     29  C   UNL     1       0.715  -0.412   0.000  0.00  0.00    +0.000 A 
ATOM     30  C   UNL     1       0.000  -0.825   0.000  0.00  0.00    +0.000 A 
ATOM     31  C   UNL     1      -0.715  -0.412   0.000  0.00  0.00    +0.000 A 
ATOM     32  C   UNL     1      -0.715   0.412   0.000  0.00  0.00    +0.000 A 
ENDBRANCH  17  30
ENDBRANCH   2  17
TORSDOF 5
