REMARK  Name = 
REMARK  6 active torsions:
REMARK  status: ('A' for Active; 'I' for Inactive)
REMARK    1  A    between atoms: C_3  and  C_5
REMARK    2  A    between atoms: C_3  and  O_12
REMARK    3  A    between atoms: C_4  and  O_13
REMARK    4  A    between atoms: C_5  and  C_6
REMARK    5  A    between atoms: O_12  and  P_14
REMARK    6  A    between atoms: O_13  and  P_14
REMARK                            x       y       z     vdW  Elec       q    Type
REMARK                         _______ _______ _______ _____ _____    ______ ____
ROOT
ATOM      1  O   UNK     1      -0.825   0.000   0.000  0.00  0.00    +0.000 OA
ENDROOT
BRANCH   1   4
ATOM      2  O   UNK     1       0.000   0.825   0.000  0.00  0.00    +0.000 OA
ATOM      3  O   UNK     1       0.000  -0.825   0.000  0.00  0.00    +0.000 OA
ATOM      4  P   UNK     1       0.000   0.000   0.000  0.00  0.00    +0.000 P 
BRANCH   4   5
ATOM      5  O   UNK     1       0.825   0.000   0.000  0.00  0.00    +0.000 OA
BRANCH   5   8
ATOM      6  C   UNK     1       2.062  -0.715   0.000  0.00  0.00    +0.000 C 
ATOM      7  C   UNK     1       0.825  -1.429   0.000  0.00  0.00    +0.000 C 
ATOM      8  C   UNK     1       1.238  -0.715   0.000  0.00  0.00    +0.000 C 
ENDBRANCH   5   8
ENDBRANCH   4   5
ENDBRANCH   1   4
BRANCH   1   9
ATOM      9  C   UNK     1      -1.238   0.715   0.000  0.00  0.00    +0.000 C 
BRANCH   9  10
ATOM     10  C   UNK     1      -2.062   0.715   0.000  0.00  0.00    +0.000 C 
ATOM     11  N   UNK     1      -2.475   0.000   0.000  0.00  0.00    +0.000 NA
BRANCH  10  12
ATOM     12  C   UNK     1      -2.475   1.429   0.000  0.00  0.00    +0.000 C 
ATOM     13  O   UNK     1      -3.300   1.429   0.000  0.00  0.00    +0.000 OA
ATOM     14  O   UNK     1      -2.062   2.143   0.000  0.00  0.00    +0.000 OA
ENDBRANCH  10  12
ENDBRANCH   9  10
ENDBRANCH   1   9
TORSDOF 6
