REMARK  Name = 
REMARK  3 active torsions:
REMARK  status: ('A' for Active; 'I' for Inactive)
REMARK    1  A    between atoms: P_2  and  N_3
REMARK    2  A    between atoms: P_2  and  N_6
REMARK    3  A    between atoms: P_2  and  N_9
REMARK                            x       y       z     vdW  Elec       q    Type
REMARK                         _______ _______ _______ _____ _____    ______ ____
ROOT
ATOM      1  S   UNL     1       0.715   3.015   0.000  0.00  0.00    +0.000 S 
ATOM      2  P   UNL     1       1.540   3.015   0.000  0.00  0.00    +0.000 P 
ENDROOT
BRANCH   2   3
ATOM      3  N   UNL     1       1.540   2.190   0.000  0.00  0.00    +0.000 NA
ATOM      4  C   UNL     1       1.952   1.476   0.000  0.00  0.00    +0.000 C 
ATOM      5  C   UNL     1       1.127   1.476   0.000  0.00  0.00    +0.000 C 
ENDBRANCH   2   3
BRANCH   2   6
ATOM      6  N   UNL     1       1.540   3.840   0.000  0.00  0.00    +0.000 NA
ATOM      7  C   UNL     1       1.127   4.555   0.000  0.00  0.00    +0.000 C 
ATOM      8  C   UNL     1       1.952   4.555   0.000  0.00  0.00    +0.000 C 
ENDBRANCH   2   6
BRANCH   2   9
ATOM      9  N   UNL     1       2.365   3.015   0.000  0.00  0.00    +0.000 NA
ATOM     10  C   UNL     1       3.079   3.428   0.000  0.00  0.00    +0.000 C 
ATOM     11  C   UNL     1       3.079   2.603   0.000  0.00  0.00    +0.000 C 
ENDBRANCH   2   9
TORSDOF 3
