REMARK  Name = 
REMARK  5 active torsions:
REMARK  status: ('A' for Active; 'I' for Inactive)
REMARK    1  A    between atoms: C_1  and  O_18
REMARK    2  A    between atoms: C_3  and  O_20
REMARK    3  A    between atoms: C_5  and  N_6
REMARK    4  A    between atoms: N_6  and  S_7
REMARK    5  A    between atoms: S_7  and  C_10
REMARK                            x       y       z     vdW  Elec       q    Type
REMARK                         _______ _______ _______ _____ _____    ______ ____
ROOT
ATOM      1  N   UNL     1      -0.670   0.377   0.000  0.00  0.00    +0.000 NA
ENDROOT
BRANCH   1   6
ATOM      2  C   UNL     1       0.759   2.027   0.000  0.00  0.00    +0.000 A 
ATOM      3  N   UNL     1       1.473   1.614   0.000  0.00  0.00    +0.000 NA
ATOM      4  C   UNL     1       1.473   0.789   0.000  0.00  0.00    +0.000 A 
ATOM      5  N   UNL     1       0.759   0.377   0.000  0.00  0.00    +0.000 NA
ATOM      6  C   UNL     1       0.044   0.789   0.000  0.00  0.00    +0.000 A 
ATOM      7  C   UNL     1       0.044   1.614   0.000  0.00  0.00    +0.000 A 
BRANCH   2   8
ATOM      8  O   UNL     1       0.759   2.852   0.000  0.00  0.00    +0.000 OA
ATOM      9  C   UNL     1       1.473   3.264   0.000  0.00  0.00    +0.000 C 
ENDBRANCH   2   8
BRANCH   4  10
ATOM     10  O   UNL     1       2.188   0.377   0.000  0.00  0.00    +0.000 OA
ATOM     11  C   UNL     1       2.188  -0.448   0.000  0.00  0.00    +0.000 C 
ENDBRANCH   4  10
ENDBRANCH   1   6
BRANCH   1  12
ATOM     12  S   UNL     1      -0.670  -0.448   0.000  0.00  0.00    +0.000 S 
ATOM     13  O   UNL     1      -1.495  -0.448   0.000  0.00  0.00    +0.000 OA
ATOM     14  O   UNL     1       0.155  -0.448   0.000  0.00  0.00    +0.000 OA
BRANCH  12  15
ATOM     15  C   UNL     1      -0.670  -1.273   0.000  0.00  0.00    +0.000 A 
ATOM     16  C   UNL     1       0.044  -1.686   0.000  0.00  0.00    +0.000 A 
ATOM     17  C   UNL     1       0.044  -2.511   0.000  0.00  0.00    +0.000 A 
ATOM     18  C   UNL     1      -0.670  -2.923   0.000  0.00  0.00    +0.000 A 
ATOM     19  N   UNL     1      -0.670  -3.748   0.000  0.00  0.00    +0.000 NA
ATOM     20  C   UNL     1      -1.385  -2.511   0.000  0.00  0.00    +0.000 A 
ATOM     21  C   UNL     1      -1.385  -1.686   0.000  0.00  0.00    +0.000 A 
ENDBRANCH  12  15
ENDBRANCH   1  12
TORSDOF 5
