REMARK  Name = 
REMARK  1 active torsions:
REMARK  status: ('A' for Active; 'I' for Inactive)
REMARK    1  A    between atoms: C_6  and  C_8
REMARK                            x       y       z     vdW  Elec       q    Type
REMARK                         _______ _______ _______ _____ _____    ______ ____
ROOT
ATOM      1  N   UNL     1       1.322   4.765   0.000  0.00  0.00    +0.000 NA
ATOM      2  C   UNL     1       2.037   4.353   0.000  0.00  0.00    +0.000 A 
ATOM      3  N   UNL     1       2.751   4.765   0.000  0.00  0.00    +0.000 NA
ATOM      4  C   UNL     1       3.466   4.353   0.000  0.00  0.00    +0.000 A 
ATOM      5  C   UNL     1       3.466   3.528   0.000  0.00  0.00    +0.000 A 
ATOM      6  C   UNL     1       2.751   3.115   0.000  0.00  0.00    +0.000 A 
ATOM      7  N   UNL     1       2.037   3.528   0.000  0.00  0.00    +0.000 NA
ENDROOT
BRANCH   6   8
ATOM      8  C   UNL     1       2.751   2.290   0.000  0.00  0.00    +0.000 A 
ATOM      9  C   UNL     1       3.419   1.805   0.000  0.00  0.00    +0.000 A 
ATOM     10 CL   UNL     1       4.203   2.060   0.000  0.00  0.00    +0.000 Cl
ATOM     11  S   UNL     1       3.164   1.021   0.000  0.00  0.00    +0.000 S 
ATOM     12  C   UNL     1       2.339   1.021   0.000  0.00  0.00    +0.000 A 
ATOM     13 CL   UNL     1       1.854   0.353   0.000  0.00  0.00    +0.000 Cl
ATOM     14  C   UNL     1       2.084   1.805   0.000  0.00  0.00    +0.000 A 
ENDBRANCH   6   8
TORSDOF 1
