REMARK  Name = 
REMARK  6 active torsions:
REMARK  status: ('A' for Active; 'I' for Inactive)
REMARK    1  A    between atoms: N_7  and  C_14
REMARK    2  A    between atoms: N_7  and  C_15
REMARK    3  A    between atoms: C_8  and  C_10
REMARK    4  A    between atoms: C_9  and  C_11
REMARK    5  A    between atoms: C_10  and  C_14
REMARK    6  A    between atoms: C_11  and  C_15
REMARK                            x       y       z     vdW  Elec       q    Type
REMARK                         _______ _______ _______ _____ _____    ______ ____
ROOT
ATOM      1  N   UNL     1       7.420  -0.299   0.000  0.00  0.00    +0.000 NA
ENDROOT
BRANCH   1   2
ATOM      2  C   UNL     1       6.706   0.114   0.000  0.00  0.00    +0.000 C 
BRANCH   2   4
ATOM      3  O   UNL     1       5.991  -1.124   0.000  0.00  0.00    +0.000 OA
ATOM      4  C   UNL     1       5.991  -0.299   0.000  0.00  0.00    +0.000 C 
BRANCH   4   7
ATOM      5  F   UNL     1       1.650   1.371   0.000  0.00  0.00    +0.000 F 
ATOM      6  O   UNL     1       4.562  -0.299   0.000  0.00  0.00    +0.000 OA
ATOM      7  C   UNL     1       5.277   0.114   0.000  0.00  0.00    +0.000 C 
ATOM      8  C   UNL     1       5.277   0.939   0.000  0.00  0.00    +0.000 C 
ATOM      9  C   UNL     1       4.562   1.351   0.000  0.00  0.00    +0.000 C 
ATOM     10  C   UNL     1       3.848   0.939   0.000  0.00  0.00    +0.000 A 
ATOM     11  C   UNL     1       3.848   0.114   0.000  0.00  0.00    +0.000 A 
ATOM     12  C   UNL     1       3.110   1.380   0.000  0.00  0.00    +0.000 A 
ATOM     13  C   UNL     1       3.110  -0.328   0.000  0.00  0.00    +0.000 A 
ATOM     14  C   UNL     1       2.363   0.956   0.000  0.00  0.00    +0.000 A 
ATOM     15  C   UNL     1       2.363   0.096   0.000  0.00  0.00    +0.000 A 
ENDBRANCH   4   7
ENDBRANCH   2   4
ENDBRANCH   1   2
BRANCH   1  16
ATOM     16  C   UNL     1       8.135   0.114   0.000  0.00  0.00    +0.000 C 
BRANCH  16  18
ATOM     17  O   UNL     1       8.849  -1.124   0.000  0.00  0.00    +0.000 OA
ATOM     18  C   UNL     1       8.849  -0.299   0.000  0.00  0.00    +0.000 C 
BRANCH  18  21
ATOM     19  F   UNL     1      13.191   1.371   0.000  0.00  0.00    +0.000 F 
ATOM     20  O   UNL     1      10.278  -0.299   0.000  0.00  0.00    +0.000 OA
ATOM     21  C   UNL     1       9.564   0.114   0.000  0.00  0.00    +0.000 C 
ATOM     22  C   UNL     1       9.564   0.939   0.000  0.00  0.00    +0.000 C 
ATOM     23  C   UNL     1      10.278   1.351   0.000  0.00  0.00    +0.000 C 
ATOM     24  C   UNL     1      10.993   0.939   0.000  0.00  0.00    +0.000 A 
ATOM     25  C   UNL     1      10.993   0.114   0.000  0.00  0.00    +0.000 A 
ATOM     26  C   UNL     1      11.730   1.380   0.000  0.00  0.00    +0.000 A 
ATOM     27  C   UNL     1      11.730  -0.328   0.000  0.00  0.00    +0.000 A 
ATOM     28  C   UNL     1      12.478   0.956   0.000  0.00  0.00    +0.000 A 
ATOM     29  C   UNL     1      12.478   0.096   0.000  0.00  0.00    +0.000 A 
ENDBRANCH  18  21
ENDBRANCH  16  18
ENDBRANCH   1  16
TORSDOF 6
