REMARK  Name = 
REMARK  0 active torsions:
REMARK  status: ('A' for Active; 'I' for Inactive)
REMARK                            x       y       z     vdW  Elec       q    Type
REMARK                         _______ _______ _______ _____ _____    ______ ____
ROOT
ATOM      1  K   UNL     1      -2.970   0.000   0.000  0.00  0.00    +0.000 K 
ENDROOT
TORSDOF 0
REMARK  Name = 
REMARK  0 active torsions:
REMARK  status: ('A' for Active; 'I' for Inactive)
REMARK                            x       y       z     vdW  Elec       q    Type
REMARK                         _______ _______ _______ _____ _____    ______ ____
ROOT
ATOM      1  K   UNL     1      -4.455   0.000   0.000  0.00  0.00    +0.000 K 
ENDROOT
TORSDOF 0
REMARK  Name = 
REMARK  0 active torsions:
REMARK  status: ('A' for Active; 'I' for Inactive)
REMARK                            x       y       z     vdW  Elec       q    Type
REMARK                         _______ _______ _______ _____ _____    ______ ____
ROOT
ATOM      1  O   UNL     1       3.630  -0.825   0.000  0.00  0.00    +0.000 OA
ATOM      2  P   UNL     1       3.630   0.000   0.000  0.00  0.00    +0.000 P 
ATOM      3  O   UNL     1       3.630   0.825   0.000  0.00  0.00    +0.000 OA
ATOM      4  O   UNL     1       2.805   0.000   0.000  0.00  0.00    +0.000 OA
ATOM      5  O   UNL     1       4.455   0.000   0.000  0.00  0.00    +0.000 OA
ENDROOT
TORSDOF 0
