REMARK  Name = 
REMARK  32 active torsions:
REMARK  status: ('A' for Active; 'I' for Inactive)
REMARK    1  A    between atoms: C_6  and  C_8
REMARK    2  A    between atoms: C_7  and  C_9
REMARK    3  A    between atoms: C_8  and  C_10
REMARK    4  A    between atoms: C_9  and  C_11
REMARK    5  A    between atoms: C_10  and  C_12
REMARK    6  A    between atoms: C_11  and  C_13
REMARK    7  A    between atoms: C_12  and  C_14
REMARK    8  A    between atoms: C_13  and  C_15
REMARK    9  A    between atoms: C_14  and  C_16
REMARK   10  A    between atoms: C_15  and  C_17
REMARK   11  A    between atoms: C_16  and  C_18
REMARK   12  A    between atoms: C_17  and  C_19
REMARK   13  A    between atoms: C_18  and  C_20
REMARK   14  A    between atoms: C_19  and  C_21
REMARK   15  A    between atoms: C_20  and  C_22
REMARK   16  A    between atoms: C_21  and  C_23
REMARK   17  A    between atoms: C_22  and  C_24
REMARK   18  A    between atoms: C_23  and  C_25
REMARK   19  A    between atoms: C_24  and  C_31
REMARK   20  A    between atoms: C_25  and  C_32
REMARK   21  A    between atoms: C_26  and  C_27
REMARK   22  A    between atoms: C_26  and  N_33
REMARK   23  A    between atoms: C_27  and  O_39
REMARK   24  A    between atoms: C_28  and  C_30
REMARK   25  A    between atoms: C_28  and  O_38
REMARK   26  A    between atoms: C_29  and  C_30
REMARK   27  A    between atoms: C_29  and  O_40
REMARK   28  A    between atoms: C_30  and  O_41
REMARK   29  A    between atoms: C_31  and  O_38
REMARK   30  A    between atoms: C_32  and  O_41
REMARK   31  A    between atoms: O_39  and  P_42
REMARK   32  A    between atoms: O_40  and  P_42
REMARK                            x       y       z     vdW  Elec       q    Type
REMARK                         _______ _______ _______ _____ _____    ______ ____
ROOT
ATOM      1  C   UNL     1       0.736  -5.001   0.000  0.00  0.00    +0.000 C 
ENDROOT
BRANCH   1   2
ATOM      2  C   UNL     1       0.022  -4.589   0.000  0.00  0.00    +0.000 C 
BRANCH   2   3
ATOM      3  O   UNL     1      -0.693  -5.001   0.000  0.00  0.00    +0.000 OA
BRANCH   3   4
ATOM      4  C   UNL     1      -1.407  -4.589   0.000  0.00  0.00    +0.000 C 
ATOM      5  O   UNL     1      -1.407  -3.764   0.000  0.00  0.00    +0.000 OA
BRANCH   4   6
ATOM      6  C   UNL     1      -2.122  -5.001   0.000  0.00  0.00    +0.000 C 
BRANCH   6   7
ATOM      7  C   UNL     1      -2.836  -4.589   0.000  0.00  0.00    +0.000 C 
BRANCH   7   8
ATOM      8  C   UNL     1      -3.551  -5.001   0.000  0.00  0.00    +0.000 C 
BRANCH   8   9
ATOM      9  C   UNL     1      -4.265  -4.589   0.000  0.00  0.00    +0.000 C 
BRANCH   9  10
ATOM     10  C   UNL     1      -4.980  -5.001   0.000  0.00  0.00    +0.000 C 
BRANCH  10  11
ATOM     11  C   UNL     1      -5.694  -4.589   0.000  0.00  0.00    +0.000 C 
BRANCH  11  12
ATOM     12  C   UNL     1      -6.409  -5.001   0.000  0.00  0.00    +0.000 C 
BRANCH  12  13
ATOM     13  C   UNL     1      -7.123  -4.589   0.000  0.00  0.00    +0.000 C 
BRANCH  13  14
ATOM     14  C   UNL     1      -7.838  -5.001   0.000  0.00  0.00    +0.000 C 
BRANCH  14  16
ATOM     15  C   UNL     1      -9.266  -5.001   0.000  0.00  0.00    +0.000 C 
ATOM     16  C   UNL     1      -8.552  -4.589   0.000  0.00  0.00    +0.000 C 
ENDBRANCH  14  16
ENDBRANCH  13  14
ENDBRANCH  12  13
ENDBRANCH  11  12
ENDBRANCH  10  11
ENDBRANCH   9  10
ENDBRANCH   8   9
ENDBRANCH   7   8
ENDBRANCH   6   7
ENDBRANCH   4   6
ENDBRANCH   3   4
ENDBRANCH   2   3
ENDBRANCH   1   2
BRANCH   1  17
ATOM     17  C   UNL     1       0.736  -5.826   0.000  0.00  0.00    +0.000 C 
BRANCH  17  18
ATOM     18  O   UNL     1       1.451  -6.239   0.000  0.00  0.00    +0.000 OA
BRANCH  18  21
ATOM     19  O   UNL     1       0.626  -7.064   0.000  0.00  0.00    +0.000 OA
ATOM     20  O   UNL     1       1.451  -7.889   0.000  0.00  0.00    +0.000 OA
ATOM     21  P   UNL     1       1.451  -7.064   0.000  0.00  0.00    +0.000 P 
BRANCH  21  22
ATOM     22  O   UNL     1       2.276  -7.064   0.000  0.00  0.00    +0.000 OA
BRANCH  22  23
ATOM     23  C   UNL     1       2.688  -7.778   0.000  0.00  0.00    +0.000 C 
BRANCH  23  24
ATOM     24  C   UNL     1       3.513  -7.778   0.000  0.00  0.00    +0.000 C 
BRANCH  24  28
ATOM     25  C   UNL     1       3.211  -8.905   0.000  0.00  0.00    +0.000 C 
ATOM     26  C   UNL     1       4.640  -8.080   0.000  0.00  0.00    +0.000 C 
ATOM     27  C   UNL     1       4.338  -9.207   0.000  0.00  0.00    +0.000 C 
ATOM     28  N   UNL     1       3.926  -8.493   0.000  0.00  0.00    +0.000 N 
ENDBRANCH  24  28
ENDBRANCH  23  24
ENDBRANCH  22  23
ENDBRANCH  21  22
ENDBRANCH  18  21
ENDBRANCH  17  18
ENDBRANCH   1  17
BRANCH   1  29
ATOM     29  O   UNL     1       1.451  -4.589   0.000  0.00  0.00    +0.000 OA
BRANCH  29  30
ATOM     30  C   UNL     1       2.165  -5.001   0.000  0.00  0.00    +0.000 C 
ATOM     31  O   UNL     1       2.165  -5.826   0.000  0.00  0.00    +0.000 OA
BRANCH  30  32
ATOM     32  C   UNL     1       2.880  -4.589   0.000  0.00  0.00    +0.000 C 
BRANCH  32  33
ATOM     33  C   UNL     1       3.594  -5.001   0.000  0.00  0.00    +0.000 C 
BRANCH  33  34
ATOM     34  C   UNL     1       4.309  -4.589   0.000  0.00  0.00    +0.000 C 
BRANCH  34  35
ATOM     35  C   UNL     1       5.023  -5.001   0.000  0.00  0.00    +0.000 C 
BRANCH  35  36
ATOM     36  C   UNL     1       5.737  -4.589   0.000  0.00  0.00    +0.000 C 
BRANCH  36  37
ATOM     37  C   UNL     1       6.452  -5.001   0.000  0.00  0.00    +0.000 C 
BRANCH  37  38
ATOM     38  C   UNL     1       7.166  -4.589   0.000  0.00  0.00    +0.000 C 
BRANCH  38  39
ATOM     39  C   UNL     1       7.881  -5.001   0.000  0.00  0.00    +0.000 C 
BRANCH  39  40
ATOM     40  C   UNL     1       8.595  -4.589   0.000  0.00  0.00    +0.000 C 
BRANCH  40  42
ATOM     41  C   UNL     1      10.024  -4.589   0.000  0.00  0.00    +0.000 C 
ATOM     42  C   UNL     1       9.310  -5.001   0.000  0.00  0.00    +0.000 C 
ENDBRANCH  40  42
ENDBRANCH  39  40
ENDBRANCH  38  39
ENDBRANCH  37  38
ENDBRANCH  36  37
ENDBRANCH  35  36
ENDBRANCH  34  35
ENDBRANCH  33  34
ENDBRANCH  32  33
ENDBRANCH  30  32
ENDBRANCH  29  30
ENDBRANCH   1  29
TORSDOF 32
